#------------------------------------------------------------------------------
#$Date: 2019-11-08 01:39:31 +0200 (Fri, 08 Nov 2019) $
#$Revision: 224538 $
#$URL: file:///home/coder/svn-repositories/cod/cif/7/04/90/7049043.cif $
#------------------------------------------------------------------------------
#
# This file is available in the Crystallography Open Database (COD),
# http://www.crystallography.net/
#
# All data on this site have been placed in the public domain by the
# contributors.
#
data_7049043
loop_
_publ_author_name
'Pan, Yue'
'Su, Hai-Quan'
'Zhou, En-Long'
'Yin, Hong-Zong'
'Shao, Kui-Zhan'
'Su, Zhong-Min'
_publ_section_title
;
 A stable mixed lanthanide metal-organic framework for highly sensitive
 thermometry.
;
_journal_issue                   11
_journal_name_full
'Dalton transactions (Cambridge, England : 2003)'
_journal_page_first              3723
_journal_page_last               3729
_journal_paper_doi               10.1039/c9dt00217k
_journal_volume                  48
_journal_year                    2019
_chemical_formula_moiety         'C16 H6 Eu O8'
_chemical_formula_sum            'C16 H6 Eu O8'
_chemical_formula_weight         478.17
_space_group_crystal_system      trigonal
_space_group_IT_number           152
_space_group_name_Hall           'P 31 2"'
_space_group_name_H-M_alt        'P 31 2 1'
_symmetry_space_group_name_Hall  'P 31 2"'
_symmetry_space_group_name_H-M   'P 31 2 1'
_atom_sites_solution_hydrogens   geom
_audit_creation_date             2019-02-13
_audit_creation_method
;
Olex2 1.2-beta
(compiled 2018.05.29 svn.r3508 for OlexSys, GUI svn.r5506)
;
_audit_update_record
;
2019-02-14 deposited with the CCDC.    2019-02-15 downloaded from the CCDC.
;
_cell_angle_alpha                90
_cell_angle_beta                 90
_cell_angle_gamma                120
_cell_formula_units_Z            6
_cell_length_a                   13.8165(16)
_cell_length_b                   13.8165(16)
_cell_length_c                   22.984(3)
_cell_measurement_reflns_used    5021
_cell_measurement_temperature    296(2)
_cell_measurement_theta_max      25.127
_cell_measurement_theta_min      1.628
_cell_volume                     3799.7(8)
_computing_cell_refinement       'SAINT+ Ver. 2016.5-0 (Bruker-AXS, 2016)'
_computing_data_collection       'APEX3 Ver. 2016.5-0 (Bruker-AXS, 2016)'
_computing_data_reduction        'SAINT+ Ver. 2016.5-0 (Bruker-AXS, 2016)'
_computing_molecular_graphics    'Olex2 (Dolomanov et al., 2009)'
_computing_publication_material  'Olex2 (Dolomanov et al., 2009)'
_computing_structure_refinement  'ShelXL (Sheldrick, 2015)'
_computing_structure_solution    'XT (Sheldrick, 2015a)'
_diffrn_ambient_temperature      296.15
_diffrn_detector                 'charge-coupled device (CCD) area detector'
_diffrn_detector_area_resol_mean 7.9
_diffrn_detector_type            'Bruker APEX II'
_diffrn_measured_fraction_theta_full 1.000
_diffrn_measured_fraction_theta_max 0.996
_diffrn_measurement_device       'three-circle diffractometer'
_diffrn_measurement_device_type  'Bruker APEX II Quazar'
_diffrn_measurement_method       '0.5\% \w and 0.5\% \f scans'
_diffrn_radiation_collimation    'focusing mirrors'
_diffrn_radiation_detector       'Bruker APEX II'
_diffrn_radiation_monochromator  'mirror optics'
_diffrn_radiation_probe          x-ray
_diffrn_radiation_type           MoK\a
_diffrn_radiation_wavelength     0.71073
_diffrn_reflns_av_R_equivalents  0.1021
_diffrn_reflns_av_unetI/netI     0.0655
_diffrn_reflns_Laue_measured_fraction_full 1.000
_diffrn_reflns_Laue_measured_fraction_max 0.996
_diffrn_reflns_limit_h_max       12
_diffrn_reflns_limit_h_min       -17
_diffrn_reflns_limit_k_max       17
_diffrn_reflns_limit_k_min       -16
_diffrn_reflns_limit_l_max       28
_diffrn_reflns_limit_l_min       -28
_diffrn_reflns_number            23781
_diffrn_reflns_point_group_measured_fraction_full 1.000
_diffrn_reflns_point_group_measured_fraction_max 0.996
_diffrn_reflns_theta_full        25.242
_diffrn_reflns_theta_max         26.099
_diffrn_reflns_theta_min         1.702
_diffrn_source                   'microfocus sealed X-ray tube'
_diffrn_source_type              'Incoatec I\ms'
_exptl_absorpt_coefficient_mu    2.502
_exptl_absorpt_correction_T_max  0.87
_exptl_absorpt_correction_T_min  0.86
_exptl_absorpt_correction_type   multi-scan
_exptl_absorpt_process_details
'SADABS-2016/2 (Krause et al., 2015) was used for absorption correction.'
_exptl_crystal_colour            colourless
_exptl_crystal_colour_primary    colourless
_exptl_crystal_density_diffrn    1.254
_exptl_crystal_density_method    'not measured'
_exptl_crystal_description       block
_exptl_crystal_F_000             1374
_exptl_crystal_size_max          0.24
_exptl_crystal_size_mid          0.22
_exptl_crystal_size_min          0.2
_refine_diff_density_max         0.777
_refine_diff_density_min         -0.905
_refine_diff_density_rms         0.091
_refine_ls_abs_structure_details
;
 Refined as an inversion twin.
;
_refine_ls_abs_structure_Flack   0.01(2)
_refine_ls_extinction_method     none
_refine_ls_goodness_of_fit_ref   0.927
_refine_ls_hydrogen_treatment    constr
_refine_ls_matrix_type           full
_refine_ls_number_parameters     227
_refine_ls_number_reflns         5021
_refine_ls_number_restraints     18
_refine_ls_restrained_S_all      0.926
_refine_ls_R_factor_all          0.0389
_refine_ls_R_factor_gt           0.0277
_refine_ls_shift/su_max          0.001
_refine_ls_shift/su_mean         0.000
_refine_ls_structure_factor_coef Fsqd
_refine_ls_weighting_details
'w=1/[\s^2^(Fo^2^)+(0.0146P)^2^] where P=(Fo^2^+2Fc^2^)/3'
_refine_ls_weighting_scheme      calc
_refine_ls_wR_factor_gt          0.0566
_refine_ls_wR_factor_ref         0.0598
_reflns_Friedel_coverage         0.774
_reflns_Friedel_fraction_full    1.000
_reflns_Friedel_fraction_max     0.996
_reflns_number_gt                4108
_reflns_number_total             5021
_reflns_threshold_expression     'I > 2\s(I)'
_cod_data_source_file            c9dt00217k2.cif
_cod_data_source_block           ww_a_sq
_cod_depositor_comments
'Adding full bibliography for 7049043--7049044.cif.'
_cod_original_cell_volume        3799.7(10)
_cod_database_code               7049043
_shelx_shelxl_version_number     2018/3
_shelx_space_group_comment
;
The symmetry employed for this shelxl refinement is uniquely defined
by the following loop, which should always be used as a source of
symmetry information in preference to the above space-group names.
They are only intended as comments.
;
_shelx_estimated_absorpt_t_max   0.597
_shelx_estimated_absorpt_t_min   0.562
_olex2_refinement_description
;
1. Twinned data refinement
 Scales: 0.99
 0.01
2. Fixed Uiso
 At 1.2 times of:
  All C(H) groups
3. Uiso/Uaniso restraints and constraints
Uanis(C13) \\sim Ueq, Uanis(O1) \\sim Ueq: with sigma of 0.01 and sigma for
terminal atoms of 0.02
Uanis(C9) \\sim Ueq: with sigma of 0.001 and sigma for terminal atoms of 0.002
4.a Aromatic/amide H refined with riding coordinates:
 C3(H3), C6(H6), C8(H8), C10(H10), C12(H12), C14(H14)
;
_shelx_res_file
;
TITL ww_a.res in P3121 New: P3121
    ww_a_sq.res
    created by SHELXL-2018/3 at 17:32:14 on 13-Feb-2019
CELL 0.71073 13.8165 13.8165 22.984 90 90 120
ZERR 6 0.0016 0.0016 0.003 0 0 0
LATT -1
SYMM -Y,+X-Y,0.333+Z
SYMM +Y-X,-X,0.667+Z
SYMM +Y,+X,-Z
SYMM -X,-X+Y,0.333-Z
SYMM -Y+X,-Y,0.667-Z
SFAC C H Eu O
UNIT 96 36 6 48
ISOR 0.01 0.02 C13 O1
ISOR 0.001 0.002 C9

L.S. 10 0 102
PLAN  10
SIZE 0.26 0.25 0.23
TEMP 23
BOND $H
CONF
ABIN
fmap 2
acta
TWIN -1 0 0 0 -1 0 0 0 -1 2
REM <olex2.extras>
REM <HklSrc "%.\\ww_a_sq.hkl">
REM </olex2.extras>

WGHT    0.014600
BASF   0.00682
FVAR       0.23151
EU1   3    0.666261    0.695137    0.089800    11.00000    0.01483    0.01371 =
         0.01189    0.00083    0.00048    0.00854
O1    4    0.603748    0.520982    0.048234    11.00000    0.04087    0.02235 =
         0.02129   -0.00750   -0.00045    0.02391
O2    4    0.676516    0.509597   -0.036601    11.00000    0.03954    0.01933 =
         0.02270    0.01245    0.01833    0.01805
O3    4    0.420190    0.185658    0.174159    11.00000    0.03587    0.02992 =
         0.02281    0.00524    0.01329    0.02216
O4    4    0.490928    0.077257    0.176064    11.00000    0.08295    0.05188 =
         0.04507    0.03112    0.04302    0.05389
O5    4    0.731682   -0.120712    0.053384    11.00000    0.04271    0.02421 =
         0.02017    0.00730    0.00650    0.02026
O6    4    0.725813   -0.176365   -0.038292    11.00000    0.04379    0.02807 =
         0.03265   -0.00852   -0.00091    0.02488
O7    4    0.878628    0.277754   -0.172642    11.00000    0.10659    0.07734 =
         0.05029    0.05201    0.05944    0.07938
O8    4    0.967187    0.184276   -0.166070    11.00000    0.03777    0.03912 =
         0.03717    0.01452    0.01535    0.02966
C1    1    0.635802    0.474044    0.013266    11.00000    0.02409    0.00747 =
         0.02928    0.00265   -0.00012    0.00364
C2    1    0.625716    0.362850    0.032848    11.00000    0.03128    0.01063 =
         0.02114    0.00274    0.00436    0.01175
C3    1    0.564174    0.313754    0.082662    11.00000    0.03298    0.02184 =
         0.02289    0.00378    0.01062    0.01692
AFIX  43
H3    2    0.530738    0.347247    0.103234    11.00000   -1.20000
AFIX   0
C4    1    0.553712    0.213775    0.101020    11.00000    0.03967    0.02565 =
         0.02235    0.00544    0.00781    0.01529
C5    1    0.483823    0.155105    0.153743    11.00000    0.02939    0.01968 =
         0.02948   -0.00150    0.00734    0.01493
C6    1    0.604070    0.166723    0.070425    11.00000    0.04458    0.01313 =
         0.03023    0.00996    0.02135    0.01606
AFIX  43
H6    2    0.597037    0.099915    0.083701    11.00000   -1.20000
AFIX   0
C7    1    0.665506    0.214446    0.020201    11.00000    0.03786    0.01682 =
         0.02756    0.00843    0.01348    0.01405
C8    1    0.675774    0.316313    0.001494    11.00000    0.03136    0.02024 =
         0.02516    0.00964    0.01282    0.01442
AFIX  43
H8    2    0.716265    0.351367   -0.031878    11.00000   -1.20000
AFIX   0
C9    1    0.720109    0.159312   -0.012196    11.00000    0.02925    0.02755 =
         0.02722   -0.00013    0.00141    0.01429
C10   1    0.713820    0.060564    0.008495    11.00000    0.04789    0.01729 =
         0.02284    0.00597    0.01864    0.02001
AFIX  43
H10   2    0.679922    0.031875    0.044217    11.00000   -1.20000
AFIX   0
C11   1    0.756158    0.005472   -0.022435    11.00000    0.02868    0.02521 =
         0.01719    0.00676    0.00447    0.01683
C12   1    0.815440    0.051351   -0.073753    11.00000    0.04117    0.02711 =
         0.02428    0.00280    0.00920    0.02104
AFIX  43
H12   2    0.846752    0.015582   -0.094146    11.00000   -1.20000
AFIX   0
C13   1    0.827024    0.152024   -0.094037    11.00000    0.03746    0.02916 =
         0.02016    0.01069    0.01482    0.02200
C14   1    0.780310    0.206040   -0.062835    11.00000    0.04894    0.02369 =
         0.03329    0.00556    0.01247    0.02558
AFIX  43
H14   2    0.789781    0.273769   -0.076213    11.00000   -1.20000
AFIX   0
C15   1    0.895753    0.207000   -0.147743    11.00000    0.04208    0.02732 =
         0.03248    0.01190    0.01733    0.01835
C16   1    0.736485   -0.105301    0.000262    11.00000    0.02649    0.02002 =
         0.03518    0.00461    0.00591    0.01900
HKLF 4 1 -1 0 0 0 -1 0 0 0 1




REM  ww_a.res in P3121 New: P3121
REM wR2 = 0.0598, GooF = S = 0.927, Restrained GooF = 0.926 for all data
REM R1 = 0.0277 for 4108 Fo > 4sig(Fo) and 0.0389 for all 5021 data
REM 227 parameters refined using 18 restraints

END

WGHT      0.0100      0.0000

REM Highest difference peak  0.777,  deepest hole -0.905,  1-sigma level  0.091
Q1    1   0.7026  0.6737  0.1339  11.00000  0.05    0.78
Q2    1   0.6192  0.6796  0.1347  11.00000  0.05    0.74
Q3    1   0.6472  0.7319  0.0466  11.00000  0.05    0.72
Q4    1   0.7125  0.7608  0.1304  11.00000  0.05    0.68
Q5    1   0.7237  0.7300  0.0487  11.00000  0.05    0.61
Q6    1   0.6412  0.6508  0.0503  11.00000  0.05    0.57
Q7    1   0.6218  0.6193  0.1125  11.00000  0.05    0.40
Q8    1   0.8622  0.1783 -0.1156  11.00000  0.05    0.39
Q9    1   1.0421  0.1791 -0.2034  11.00000  0.05    0.38
Q10   1   0.9494  0.3607 -0.1909  11.00000  0.05    0.37
;
_shelx_res_checksum              62523
_shelx_fab_file
;
    0    1    0     38.21      0.64
   -1    2    0    -22.60     28.12
    0    2    0     85.35      0.05
   -1    3    0     14.44      4.86
   -2    4    0    -10.55     -4.21
    0    3    0     10.07      0.23
   -1    4    0     38.18     -7.61
   -2    5    0     -4.77    -11.41
   -3    6    0     17.01    -16.40
    0    4    0     -8.74     -0.12
   -1    5    0     24.08      6.11
   -2    6    0     -8.40     18.39
   -3    7    0      9.45     -0.77
   -4    8    0      0.14      7.09
    0    5    0     -7.07     -0.44
   -1    6    0     15.14     -5.80
   -2    7    0      4.79      2.80
   -3    8    0      8.88     -1.01
   -4    9    0     12.85     -5.93
   -5   10    0     -4.23      8.45
    0    6    0     -5.95     -0.14
   -1    7    0      0.66      5.16
   -2    8    0     -2.26      4.79
   -3    9    0      3.87     -4.83
   -4   10    0     -0.85     -5.39
   -5   11    0      5.66      0.54
   -6   12    0     -0.66     -6.79
    0    7    0      4.93      0.10
   -1    8    0      1.57     -5.58
   -2    9    0      3.42     -4.74
   -3   10    0     -5.98     -0.33
   -4   11    0      7.92      0.08
   -5   12    0      1.04      4.32
   -6   13    0      1.34     -1.20
   -7   14    0     -0.93      0.76
    0    8    0     11.16     -0.03
   -1    9    0     -4.30      3.66
   -2   10    0      3.28     -1.11
   -3   11    0     -0.69      3.00
   -4   12    0      0.84     -4.28
   -5   13    0      2.38     -3.46
   -6   14    0      0.21      1.25
   -7   15    0      1.72     -0.44
   -8   16    0     -2.32      3.76
    0    9    0     -4.16      0.16
   -1   10    0     -4.88     -1.26
   -2   11    0      1.39     -0.26
   -3   12    0     -0.29      4.21
   -4   13    0      2.67     -1.06
   -5   14    0      3.10      0.92
   -6   15    0     -2.78      3.00
   -7   16    0     -0.07     -2.15
   -8   17    0      1.55     -1.80
    0   10    0     14.49      0.30
   -1   11    0     -1.53     -0.33
   -2   12    0      9.32      0.92
   -3   13    0     -1.46     -2.47
   -4   14    0      1.42      0.76
   -5   15    0     -2.25      0.42
   -6   16    0     -0.68      2.59
    0   11    0     -0.84     -0.03
   -1   12    0     -1.93      3.83
   -2   13    0      1.84      1.79
   -3   14    0      6.40     -4.18
   -4   15    0      2.83     -3.48
   -5   16    0      1.05     -0.42
    0   12    0      3.57      0.28
   -1   13    0     -3.22      0.00
   -2   14    0     -2.24      6.08
   -3   15    0      0.50      0.23
   -4   16    0     -1.10      0.48
    0   13    0      0.47     -0.01
   -1   14    0     -1.85     -4.50
   -2   15    0     -0.90     -0.89
   -3   16    0      4.78     -2.28
    0   14    0     -1.47      0.11
   -1   15    0     -0.01      0.55
   -1    1    1   -180.28     -0.45
    0    1    1    -34.44     59.06
   -1    2    1    -24.83     65.92
   -2    3    1    -31.95    -31.31
   -2    2    1     84.43     -0.53
    0    2    1     12.42    -21.02
   -1    3    1    -21.06      4.37
   -2    4    1     22.41     -4.97
   -3    5    1     15.59     18.83
   -3    4    1    -43.70     30.50
   -3    3    1     -3.58      0.06
    0    3    1    -12.81     23.00
   -1    4    1    -12.42      4.25
   -2    5    1    -11.90      1.16
   -3    6    1     -5.08      0.40
   -4    7    1      1.70     10.75
   -4    6    1     -3.35      3.97
   -4    5    1     -7.92    -19.80
   -4    4    1    -12.72      0.09
    0    4    1     10.17    -17.35
   -1    5    1     -3.54     -6.30
   -2    6    1      7.62     -9.57
   -3    7    1      2.36     -0.15
   -4    8    1      2.71      6.11
   -5    9    1     -5.83      3.69
   -5    8    1     -4.00    -17.83
   -5    7    1     -0.16      1.43
   -5    6    1     -1.34     -3.09
   -5    5    1      8.55     -0.05
    0    5    1    -16.80     28.35
   -1    6    1     -0.14      3.24
   -2    7    1    -10.35     13.03
   -3    8    1      4.24    -10.60
   -4    9    1     -4.53      6.08
   -5   10    1     -0.06     -6.22
   -6   11    1      0.43     -2.57
   -6   10    1      2.61      4.33
   -6    9    1      2.49      1.40
   -6    8    1     -9.24     -3.27
   -6    7    1     10.71     -1.78
   -6    6    1    -20.85      0.07
    0    6    1      0.26     -0.43
   -1    7    1    -10.79     -6.39
   -2    8    1     -0.84      7.03
   -3    9    1     -3.52      0.89
   -4   10    1      0.77      9.24
   -5   11    1      1.74     -2.62
   -6   12    1     -0.37      0.95
   -7   13    1      2.24      0.35
   -7   12    1     -5.75      0.60
   -7   11    1     -1.49      0.39
   -7   10    1     -4.85      0.01
   -7    9    1     -5.48      5.78
   -7    8    1      1.35     -2.89
   -7    7    1      2.63     -0.20
    0    7    1     -1.75      3.07
   -1    8    1      3.38     -2.32
   -2    9    1     -2.24     -2.88
   -3   10    1      3.81     -4.60
   -4   11    1     -4.72     -0.65
   -5   12    1     -3.09      0.38
   -6   13    1     -4.33     -2.22
   -7   14    1     -0.87      1.11
   -8   15    1      2.19      1.63
   -8   14    1     -2.19     -2.71
   -8   13    1      2.35      3.14
   -8   12    1     -2.18     -2.54
   -8   11    1      4.15      0.47
   -8   10    1     -1.80      0.44
   -8    9    1      2.72     -1.70
   -8    8    1    -11.62     -0.17
    0    8    1     -6.44     11.34
   -1    9    1     -2.66     -0.32
   -2   10    1      0.96      2.30
   -3   11    1      4.04      4.15
   -4   12    1     -2.46     -2.57
   -5   13    1      1.02      0.01
   -6   14    1     -2.64      0.17
   -7   15    1      0.43     -1.18
   -8   16    1      0.27     -1.65
   -9   17    1      2.93     -0.66
   -9   16    1     -0.50      0.15
   -9   15    1     -0.27      0.82
   -9   14    1     -2.00      2.07
   -9   13    1      1.76     -4.04
   -9   12    1     -3.84     -0.40
   -9   11    1      5.60      1.66
   -9   10    1      0.19      2.50
   -9    9    1     -0.46     -0.10
    0    9    1      3.18     -5.62
   -1   10    1     -2.01     -2.07
   -2   11    1     -0.80     -8.22
   -3   12    1     -1.03      2.64
   -4   13    1     -2.92     -1.43
   -5   14    1     -3.02      7.76
   -6   15    1     -1.12      0.64
   -7   16    1     -1.78     -2.09
   -8   17    1     -0.55      2.23
  -10   16    1     -0.94     -0.05
  -10   15    1      1.55      2.68
  -10   14    1      2.37     -4.89
  -10   13    1      3.62      2.50
  -10   12    1      1.78     -3.26
  -10   11    1      2.12      0.23
  -10   10    1      0.46      0.18
    0   10    1     -0.09      0.19
   -1   11    1      1.12      7.12
   -2   12    1      0.75     -1.55
   -3   13    1     -2.33     -2.47
   -4   14    1     -1.19     -0.38
   -5   15    1     -4.12     -2.58
   -6   16    1      0.96     -4.33
  -11   16    1      1.99      1.27
  -11   15    1      0.10     -0.44
  -11   14    1     -1.57      1.13
  -11   13    1     -3.12     -3.17
  -11   12    1     -3.53      2.25
  -11   11    1     -2.61     -0.02
    0   11    1      2.05     -3.80
   -1   12    1     -4.79      7.89
   -2   13    1      0.24      1.01
   -3   14    1     -1.10      4.85
   -4   15    1     -2.54      2.73
   -5   16    1      0.70      1.72
  -12   16    1     -2.29      8.22
  -12   15    1     -0.77     -0.26
  -12   14    1      3.65     -4.20
  -12   13    1      3.24     -5.22
  -12   12    1      5.01      0.01
    0   12    1      1.98     -2.64
   -1   13    1     -6.95      5.77
   -2   14    1     -0.20     -2.62
   -3   15    1     -0.94     -2.17
   -4   16    1     -1.16      0.71
  -13   16    1      0.92     -1.22
  -13   15    1     -1.17     -5.51
  -13   14    1      0.99      3.04
  -13   13    1      0.09     -0.15
    0   13    1     -0.01      0.62
   -1   14    1     -4.82      2.42
   -2   15    1      4.53      4.18
   -3   16    1      1.86     -0.17
  -14   15    1      0.15      2.39
  -14   14    1      3.03      0.08
    0   14    1      2.30     -3.75
   -1   15    1     -0.74      0.54
   -1    1    2     27.68     -0.02
    0    1    2    -36.44    -64.56
   -1    2    2     42.67      8.53
   -2    3    2     -2.17      2.60
   -2    2    2    -25.26      0.26
    0    2    2      0.57     -0.63
   -1    3    2    -10.66      3.57
   -2    4    2      2.66    -11.19
   -3    5    2     -4.65    -13.54
   -3    4    2     26.20    -15.54
   -3    3    2    -65.48      0.19
    0    3    2     -6.23    -11.55
   -1    4    2     -2.10     10.41
   -2    5    2    -32.98     10.09
   -3    6    2      4.99     22.30
   -4    7    2     -9.06     -2.30
   -4    6    2     13.16      0.18
   -4    5    2     -1.87    -13.74
   -4    4    2      7.44     -0.43
    0    4    2     -6.71    -12.72
   -1    5    2      4.63     -5.04
   -2    6    2      2.03     -5.17
   -3    7    2     -0.03     -4.60
   -4    8    2      1.53      0.15
   -5    9    2     -3.73     -3.62
   -5    8    2      5.69      2.88
   -5    7    2      0.76     -4.98
   -5    6    2      1.80      6.98
   -5    5    2    -12.18      0.16
    0    5    2     -0.70     -1.32
   -1    6    2      1.37     10.24
   -2    7    2     -1.11      5.86
   -3    8    2      5.10      5.86
   -4    9    2     -2.20      0.04
   -5   10    2      0.99      1.26
   -6   11    2     -0.76     -3.68
   -6   10    2     -4.69      3.29
   -6    9    2     -2.91      0.43
   -6    8    2     -3.85      3.58
   -6    7    2     -4.83     -2.79
   -6    6    2      3.72      0.05
    0    6    2    -10.41    -18.36
   -1    7    2      1.12     -5.33
   -2    8    2      1.22     -7.40
   -3    9    2     -4.82     -5.95
   -4   10    2      2.17      1.92
   -5   11    2     -0.56      1.06
   -6   12    2     -2.77      6.54
   -7   13    2     -2.59      0.01
   -7   12    2     -3.53     -0.63
   -7   11    2     -7.63     -0.34
   -7   10    2      1.75     -5.31
   -7    9    2      3.25      0.67
   -7    8    2      4.50     -4.01
   -7    7    2      7.72     -0.04
    0    7    2      5.02      7.63
   -1    8    2     -0.56      0.13
   -2    9    2      4.53      2.03
   -3   10    2     -1.99     -0.01
   -4   11    2      4.01     -0.26
   -5   12    2      0.47     -0.19
   -6   13    2     -0.22     -1.95
   -7   14    2     -0.55      2.19
   -8   15    2     -0.34      2.72
   -8   14    2     -0.43      0.36
   -8   13    2      1.60     -3.56
   -8   12    2      3.20      1.84
   -8   11    2      1.04     -0.41
   -8   10    2     -2.31     -0.24
   -8    9    2      2.74      5.58
   -8    8    2    -13.20     -0.21
    0    8    2     -2.13     -5.73
   -1    9    2     -1.53     -8.47
   -2   10    2      0.92      1.66
   -3   11    2     -1.81      1.60
   -4   12    2     -1.07      1.34
   -5   13    2      1.15      3.02
   -6   14    2      0.39      0.30
   -7   15    2      2.38      4.39
   -8   16    2     -0.34      0.68
   -9   17    2     -3.16     -0.24
   -9   16    2     -4.51     -1.80
   -9   15    2      1.86      2.70
   -9   14    2     -2.81      2.75
   -9   13    2     -2.42     -0.28
   -9   12    2     -3.66     -1.44
   -9   11    2     -2.27      1.11
   -9   10    2      0.48     -6.50
   -9    9    2      3.41     -0.07
    0    9    2      3.42      5.84
   -1   10    2     -0.08     -4.16
   -2   11    2      7.30      5.49
   -3   12    2     -0.50     -6.03
   -4   13    2      1.35     -1.12
   -5   14    2     -2.04     -2.23
   -6   15    2      0.90     -3.14
   -7   16    2      0.38      0.45
   -8   17    2      0.73      3.38
  -10   16    2     -0.57     -2.27
  -10   15    2      4.18      3.54
  -10   14    2      1.99      2.30
  -10   13    2     -1.10     -2.83
  -10   12    2     -0.66     -2.10
  -10   11    2     -3.47      2.40
  -10   10    2     -4.46      0.06
    0   10    2     -0.18     -0.16
   -1   11    2      2.23      1.06
   -2   12    2      1.00      1.37
   -3   13    2      3.80      5.14
   -4   14    2      2.58      1.37
   -5   15    2      2.91     -2.68
   -6   16    2     -0.48     -2.41
  -11   16    2     -3.13      0.42
  -11   15    2     -0.69      4.08
  -11   14    2     -6.01      2.21
  -11   13    2      3.76      1.98
  -11   12    2     -1.07     -4.36
  -11   11    2      4.93      0.02
    0   11    2      1.00      1.89
   -1   12    2      0.19     -0.30
   -2   13    2     -2.15     -3.52
   -3   14    2      0.95     -1.69
   -4   15    2     -0.38     -1.57
   -5   16    2      4.24     -0.12
  -12   16    2      1.25     -2.04
  -12   15    2      2.48     -0.31
  -12   14    2      0.47     -3.43
  -12   13    2     -1.57     -1.32
  -12   12    2     -0.15      0.04
    0   12    2      0.74      0.35
   -1   13    2      0.33      5.22
   -2   14    2      9.04     -3.95
   -3   15    2      0.97      0.18
   -4   16    2      1.16     -1.68
  -13   16    2      1.62      0.86
  -13   15    2     -5.95      2.79
  -13   14    2     -3.96      5.33
  -13   13    2      1.39      0.05
    0   13    2     -4.70     -8.72
   -1   14    2      2.01      0.94
   -2   15    2      1.27     -3.74
   -3   16    2      1.12      2.39
  -14   15    2     -2.63     -0.91
  -14   14    2      1.15      0.03
    0   14    2      0.40      0.97
   -1   15    2      4.23      2.66
    0    0    3   -115.96      0.22
   -1    1    3     16.22     -0.17
    0    1    3     26.19     -0.54
   -1    2    3     -7.58    -36.78
   -2    3    3     -5.93    -57.49
   -2    2    3      0.46      0.11
    0    2    3    -17.04     -0.29
   -1    3    3    -21.09     24.61
   -2    4    3     13.01      7.88
   -3    5    3     13.66     26.97
   -3    4    3    -19.79    -17.45
   -3    3    3     14.16      0.24
    0    3    3    -20.00     -0.38
   -1    4    3    -40.09    -19.10
   -2    5    3      1.31     -5.77
   -3    6    3     -6.26      1.87
   -4    7    3    -13.38     -3.43
   -4    6    3      5.53     -1.23
   -4    5    3    -15.99     -8.92
   -4    4    3      0.78      0.29
    0    4    3    -17.44     -1.02
   -1    5    3    -16.65      8.23
   -2    6    3     -1.94    -11.41
   -3    7    3      1.24      1.27
   -4    8    3     -3.35     -2.12
   -5    9    3      1.41     -3.59
   -5    8    3     -5.84      4.59
   -5    7    3     -0.11     -9.20
   -5    6    3     -4.42      9.75
   -5    5    3      1.03      0.59
    0    5    3      1.39      1.47
   -1    6    3     -9.08     -8.13
   -2    7    3     -5.03      4.97
   -3    8    3     -6.07     -2.34
   -4    9    3     -9.38      6.50
   -5   10    3      0.86     -2.61
   -6   11    3     -0.91     -3.70
   -6   10    3     -3.50      1.49
   -6    9    3     -1.43     -2.67
   -6    8    3      2.78      4.84
   -6    7    3     -4.28     -7.38
   -6    6    3      6.84      0.06
    0    6    3    -10.04     -0.07
   -1    7    3      2.23      3.37
   -2    8    3     -4.08     -9.20
   -3    9    3     -1.38      3.08
   -4   10    3      1.99     -3.99
   -5   11    3     -4.59     -3.41
   -6   12    3     -3.60     -1.85
   -7   13    3     -1.23      1.68
   -7   12    3     -0.95     -1.80
   -7   11    3      0.94     -2.87
   -7   10    3     -0.36      2.81
   -7    9    3     -1.16     -4.33
   -7    8    3     -6.08      8.57
   -7    7    3     -6.18     -0.15
    0    7    3      1.22     -0.30
   -1    8    3      0.15     -7.23
   -2    9    3     -3.14      9.47
   -3   10    3      4.27      0.73
   -4   11    3     -5.63      5.77
   -5   12    3     -3.44     -0.01
   -6   13    3     -1.11     -3.86
   -7   14    3      3.31      1.54
   -8   15    3     -2.63     -3.22
   -8   14    3      0.12     -0.02
   -8   13    3      4.26      1.34
   -8   12    3     -3.20      2.34
   -8   11    3      5.01      2.27
   -8   10    3    -12.27      4.48
   -8    9    3     -2.84     -3.34
   -8    8    3     -9.59      0.19
    0    8    3     -7.30      0.50
   -1    9    3     -0.64      1.13
   -2   10    3      1.90     -4.62
   -3   11    3     -5.36     -5.40
   -4   12    3     -0.68      0.00
   -5   13    3     -6.42      1.50
   -6   14    3     -0.02      0.75
   -7   15    3     -3.96      2.51
   -8   16    3     -4.39     -9.17
   -9   16    3     -0.86      0.04
   -9   15    3     -0.97      2.50
   -9   14    3      1.04      1.35
   -9   13    3     -3.99      2.47
   -9   12    3     -4.62     -4.33
   -9   11    3     -1.53     -2.38
   -9   10    3     -0.75     -2.71
   -9    9    3      1.03      0.17
    0    9    3      2.91     -0.13
   -1   10    3      0.17      3.53
   -2   11    3      0.48      6.22
   -3   12    3      1.36     -0.61
   -4   13    3     -0.67     -0.42
   -5   14    3     -4.30     -2.18
   -6   15    3     -1.10     -3.69
   -7   16    3     -3.06      1.11
  -10   16    3     -2.62     -0.73
  -10   15    3     -2.76     -3.87
  -10   14    3      2.50     -1.21
  -10   13    3      1.98      3.86
  -10   12    3     -3.15      1.13
  -10   11    3      4.98      6.84
  -10   10    3     -9.08      0.09
    0   10    3      1.23      1.04
   -1   11    3     -1.98     -3.03
   -2   12    3     -0.76      1.52
   -3   13    3     -1.37     -1.22
   -4   14    3      2.99     -1.27
   -5   15    3      0.53      1.62
   -6   16    3     -0.51      0.18
  -11   16    3     -5.49     -1.86
  -11   15    3     -0.95     -0.69
  -11   14    3     -1.40      1.24
  -11   13    3     -4.01     -0.01
  -11   12    3      0.76     -7.08
  -11   11    3     -3.39     -0.05
    0   11    3      8.67     -0.26
   -1   12    3      1.17      2.42
   -2   13    3      6.86      0.78
   -3   14    3     -3.48      2.69
   -4   15    3      0.65     -2.86
   -5   16    3     -2.93     -0.42
  -12   16    3      0.49     -2.44
  -12   15    3     -0.50     -7.15
  -12   14    3     -5.10     -0.77
  -12   13    3     -4.80      4.72
  -12   12    3     -4.92     -0.12
    0   12    3     -1.66     -0.02
   -1   13    3      2.83     -4.21
   -2   14    3      2.80     -1.89
   -3   15    3     -0.37      1.52
   -4   16    3      2.17     -0.30
  -13   15    3     -0.08     -0.75
  -13   14    3     -4.55      3.96
  -13   13    3     -0.60     -0.03
    0   13    3      9.59     -0.16
   -1   14    3      8.76     -0.76
   -2   15    3      3.54      1.90
  -14   15    3     -3.09     -0.99
  -14   14    3     -0.49     -0.04
    0   14    3      0.45     -0.09
   -1   15    3      1.77      4.81
   -1    1    4      0.53      0.30
    0    1    4     -2.71      3.97
   -1    2    4     22.94    -29.72
   -2    3    4     26.43     56.92
   -2    2    4    -87.97     -0.17
    0    2    4    -12.14     20.45
   -1    3    4     -3.31     16.16
   -2    4    4      2.51      4.75
   -3    5    4    -31.37     10.27
   -3    4    4     25.79     -4.40
   -3    3    4   -100.11     -1.17
    0    3    4    -12.35     16.29
   -1    4    4     13.90     -3.93
   -2    5    4      3.98      9.19
   -3    6    4     11.97     -1.92
   -4    7    4     -3.47     -7.01
   -4    6    4      0.36     -5.09
   -4    5    4      8.15     10.94
   -4    4    4     -8.57     -0.03
    0    4    4     10.99    -16.38
   -1    5    4     -0.67      7.37
   -2    6    4      4.79     -0.59
   -3    7    4     -9.25      9.85
   -4    8    4      4.44     -4.13
   -5    9    4      6.84     -2.43
   -5    8    4      9.56      6.23
   -5    7    4      2.65      7.32
   -5    6    4      3.06      2.45
   -5    5    4     -5.06      0.19
    0    5    4      9.31    -16.40
   -1    6    4      2.25     -3.24
   -2    7    4      0.19     -7.60
   -3    8    4      0.24      3.11
   -4    9    4     -2.39     -0.62
   -5   10    4      0.10      3.80
   -6   11    4     -5.19      3.19
   -6   10    4     -0.15      0.41
   -6    9    4    -11.17     -1.89
   -6    8    4     -1.49     -1.00
   -6    7    4    -13.76     -2.56
   -6    6    4      1.45     -0.05
    0    6    4      4.18     -6.50
   -1    7    4      3.69      5.83
   -2    8    4      0.09      0.35
   -3    9    4      1.89      1.47
   -4   10    4      2.54     -3.48
   -5   11    4      1.99     -3.30
   -6   12    4      4.11      1.60
   -7   13    4     -1.38     -1.95
   -7   12    4      0.36      5.12
   -7   11    4      1.48     -2.74
   -7   10    4     -2.98      0.54
   -7    9    4      4.26     -7.87
   -7    8    4     -7.22     -1.48
   -7    7    4      9.59      0.09
    0    7    4      4.63     -8.50
   -1    8    4     -3.35     -2.87
   -2    9    4      1.75      3.41
   -3   10    4     -1.46     -2.73
   -4   11    4     -1.94      6.13
   -5   12    4      2.50      0.24
   -6   13    4      4.73      2.39
   -7   14    4     -0.45     -0.15
   -8   15    4     -4.48     -2.33
   -8   14    4      0.98      2.03
   -8   13    4      2.28      0.45
   -8   12    4      2.96      2.21
   -8   11    4     -3.86      0.51
   -8   10    4      2.16      0.79
   -8    9    4     -7.26      2.08
   -8    8    4      3.45     -0.05
    0    8    4     -0.23      0.08
   -1    9    4      8.22      5.09
   -2   10    4      0.36      0.20
   -3   11    4     -0.50     -2.76
   -4   12    4     -0.63      0.84
   -5   13    4     -0.69     -4.12
   -6   14    4     -0.88     -0.66
   -7   15    4     -0.77     -0.44
   -8   16    4     -0.22      1.62
   -9   16    4      1.34      2.62
   -9   15    4     -1.89      0.05
   -9   14    4      0.17     -2.77
   -9   13    4     -1.46     -3.45
   -9   12    4     -2.64     -0.39
   -9   11    4      1.69     -3.59
   -9   10    4     -1.54     -0.76
   -9    9    4      8.63     -0.17
    0    9    4      1.27     -0.31
   -1   10    4     -0.90     -4.74
   -2   11    4      5.25      2.18
   -3   12    4      2.05     -5.62
   -4   13    4      0.07      0.00
   -5   14    4      1.56     -1.60
   -6   15    4      0.52     -3.76
   -7   16    4      1.53     -1.96
  -10   16    4      1.43     -0.12
  -10   15    4     -0.18     -2.07
  -10   14    4      0.02     -2.47
  -10   13    4      5.70     -0.69
  -10   12    4     -2.88      4.66
  -10   11    4      0.96      0.38
  -10   10    4     -1.17     -0.09
    0   10    4      0.74     -0.47
   -1   11    4     -1.16     -2.76
   -2   12    4     -0.58     -0.75
   -3   13    4     -1.57     -2.17
   -4   14    4     -0.72     -3.16
   -5   15    4      0.98      0.65
   -6   16    4      1.00     -2.78
  -11   16    4      3.15      2.62
  -11   15    4     -2.80      1.13
  -11   14    4      1.40     -7.92
  -11   13    4     -3.55     -1.28
  -11   12    4     -2.26     -6.15
  -11   11    4     -0.18     -0.06
    0   11    4      3.78     -5.96
   -1   12    4     -1.28     -2.34
   -2   13    4      0.84     -1.02
   -3   14    4     -1.64     -1.46
   -4   15    4      2.86     -2.35
   -5   16    4      0.11     -0.30
  -12   16    4      2.10     -0.92
  -12   15    4      2.30     -3.45
  -12   14    4     -4.27     -0.43
  -12   13    4      2.36      7.52
  -12   12    4     -3.86      0.13
    0   12    4      1.46     -2.52
   -1   13    4     -1.37     -2.38
   -2   14    4     -4.27     -1.45
   -3   15    4      0.68     -1.66
   -4   16    4      0.89     -3.40
  -13   15    4     -1.72      0.05
  -13   14    4      1.39     -3.37
  -13   13    4     -5.12      0.06
    0   13    4      1.93     -3.65
   -1   14    4      0.74      5.73
   -2   15    4      0.31     -0.31
  -14   15    4      3.27     -3.00
  -14   14    4     -1.26     -0.01
    0   14    4     -1.28      2.45
   -1   15    4     -0.96      5.25
   -1    1    5     19.23      0.10
    0    1    5     -5.49     -9.24
   -1    2    5    -45.67      0.72
   -2    3    5    -14.19    -26.15
   -2    2    5     44.08      0.41
    0    2    5     17.46     32.41
   -1    3    5     23.32    -14.08
   -2    4    5      4.44      5.46
   -3    5    5     -8.74     -0.28
   -3    4    5    -13.49     -6.49
   -3    3    5     47.39      1.25
    0    3    5     -1.68     -3.68
   -1    4    5    -34.05    -13.72
   -2    5    5     18.72      0.68
   -3    6    5      0.26    -14.01
   -4    7    5      8.27      1.60
   -4    6    5      3.61     -4.54
   -4    5    5     19.00      3.67
   -4    4    5     44.38      3.78
    0    4    5     -3.26     -4.55
   -1    5    5      5.92     -2.00
   -2    6    5     -1.39      0.76
   -3    7    5     -2.51     12.56
   -4    8    5      1.27      4.63
   -5    9    5     -2.66      3.40
   -5    8    5      3.37     -2.97
   -5    7    5    -19.56     -3.46
   -5    6    5     12.19      2.34
   -5    5    5    -17.86      0.38
    0    5    5      7.08     11.84
   -1    6    5     -5.17     -4.16
   -2    7    5     -0.71      2.07
   -3    8    5      7.62     -9.14
   -4    9    5     -2.29     -0.83
   -5   10    5      2.10     -6.55
   -6   11    5      0.58      0.85
   -6   10    5     -2.68      1.85
   -6    9    5      2.81     -3.38
   -6    8    5     -4.27     -3.32
   -6    7    5     13.66     -4.06
   -6    6    5      3.03      0.27
    0    6    5     -3.93    -10.89
   -1    7    5      1.42     10.02
   -2    8    5     -2.55     -1.64
   -3    9    5      3.20      7.48
   -4   10    5     -3.40      1.56
   -5   11    5      2.18     -2.83
   -6   12    5     -2.35     -2.51
   -7   13    5     -2.70     -0.79
   -7   12    5     -2.86      3.64
   -7   11    5      4.36     -4.17
   -7   10    5      1.18      3.23
   -7    9    5     -0.20     -2.07
   -7    8    5      1.95      9.86
   -7    7    5    -14.18     -0.12
    0    7    5     -0.65      0.19
   -1    8    5      4.40     -0.95
   -2    9    5     -5.93     -4.67
   -3   10    5      3.18     -5.90
   -4   11    5     -4.11      0.97
   -5   12    5     -0.91     -5.49
   -6   13    5      0.48      2.50
   -7   14    5     -3.26     -1.05
   -8   15    5      4.44      4.53
   -8   14    5      3.15     -2.76
   -8   13    5      1.16      0.65
   -8   12    5      0.16     -2.88
   -8   11    5     -1.18      1.58
   -8   10    5      0.03      1.55
   -8    9    5     -1.12     -2.02
   -8    8    5     -0.50     -0.07
    0    8    5     -0.01     -0.46
   -1    9    5      3.46      5.77
   -2   10    5     -0.60     -4.86
   -3   11    5     -0.82      0.31
   -4   12    5      0.41     -1.14
   -5   13    5     -1.76     -2.43
   -6   14    5      0.04     -3.34
   -7   15    5     -1.98     -0.28
   -8   16    5     -0.79      0.54
   -9   16    5      2.00      1.70
   -9   15    5     -2.38      0.59
   -9   14    5     -1.13      1.78
   -9   13    5      0.04     -5.99
   -9   12    5     -3.48      0.22
   -9   11    5      6.65     -4.10
   -9   10    5     -2.92     -0.09
   -9    9    5      6.58      0.31
    0    9    5     -1.39     -2.08
   -1   10    5     -5.80      1.97
   -2   11    5     -4.72      1.65
   -3   12    5     -4.48     -0.33
   -4   13    5     -1.87      1.58
   -5   14    5      1.62     -3.05
   -6   15    5     -0.37      0.92
   -7   16    5      0.80      1.46
  -10   16    5      0.34      0.91
  -10   15    5      0.87     -0.01
  -10   14    5      1.04      2.07
  -10   13    5     -0.42     -2.26
  -10   12    5      4.89      0.15
  -10   11    5     -3.93      2.18
  -10   10    5      1.13      0.01
    0   10    5      0.09      0.22
   -1   11    5      1.43      0.69
   -2   12    5      5.41      1.52
   -3   13    5     -2.56     -2.91
   -4   14    5      3.65     -0.48
   -5   15    5      0.25     -1.17
   -6   16    5     -1.70     -1.02
  -11   16    5      1.53      2.13
  -11   15    5      3.42     -0.78
  -11   14    5     -2.85     -0.20
  -11   13    5      0.47     -6.70
  -11   12    5     -7.43      3.85
  -11   11    5      4.83      0.07
    0   11    5      0.07     -2.09
   -1   12    5     -6.87      3.29
   -2   13    5      0.06      0.77
   -3   14    5      0.17      1.92
   -4   15    5      0.62     -1.97
   -5   16    5      0.93      0.08
  -12   16    5      0.42      0.24
  -12   15    5     -0.12      0.69
  -12   14    5     -1.06      1.20
  -12   13    5     -1.42      2.41
  -12   12    5      1.35     -0.06
    0   12    5      1.46      2.93
   -1   13    5     -1.85     -1.93
   -2   14    5      1.81     -2.19
   -3   15    5      1.99     -2.99
   -4   16    5     -2.89      0.37
  -13   15    5      1.30     -1.03
  -13   14    5     -1.05     -6.47
  -13   13    5      0.40     -0.13
    0   13    5      1.80      3.28
   -1   14    5      1.10      0.24
   -2   15    5      6.16     -5.42
  -14   15    5      2.77      2.74
  -14   14    5      4.57      0.04
    0   14    5      0.08      0.40
   -1   15    5     -3.27     -0.66
    0    0    6    -38.15     -0.06
   -1    1    6     16.79      0.16
    0    1    6     13.68      0.06
   -1    2    6     15.87     -6.26
   -2    3    6      7.82     34.74
   -2    2    6    -32.93      0.02
    0    2    6    -27.03      0.59
   -1    3    6      6.42     -2.22
   -2    4    6      1.98    -18.56
   -3    5    6     10.63     -4.69
   -3    4    6      4.01     12.38
   -3    3    6     26.71      0.26
    0    3    6      7.23     -0.04
   -1    4    6      6.31     10.36
   -2    5    6      6.51      6.53
   -3    6    6     -4.82      2.98
   -4    7    6      4.96     -1.85
   -4    6    6      7.07     -5.76
   -4    5    6     -8.08      6.76
   -4    4    6     16.44     -0.18
    0    4    6     29.12     -0.30
   -1    5    6      7.48      3.38
   -2    6    6     10.49     -1.86
   -3    7    6     -3.36      4.20
   -4    8    6      2.40     -6.45
   -5    9    6     -7.05      8.65
   -5    8    6      7.67     -4.41
   -5    7    6      5.27     17.21
   -5    6    6     -8.82     -0.37
   -5    5    6     22.70     -1.59
    0    5    6      8.31     -6.35
   -1    6    6     -4.91     16.89
   -2    7    6      3.97      3.04
   -3    8    6      0.20      2.94
   -4    9    6     -1.35     -2.77
   -5   10    6      3.80     -6.94
   -6   11    6     -3.51      1.71
   -6   10    6     -1.48     -0.14
   -6    9    6      2.41     -1.28
   -6    8    6     -0.64     -3.34
   -6    7    6     -5.39      4.17
   -6    6    6     12.03      0.20
    0    6    6     12.65     -0.38
   -1    7    6      0.77     -5.68
   -2    8    6      2.07     -0.55
   -3    9    6     -2.74     -1.78
   -4   10    6     -0.35      0.54
   -5   11    6     -1.72      2.28
   -6   12    6     -2.17      4.24
   -7   13    6     -0.23     -1.16
   -7   12    6      3.72     -3.24
   -7   11    6     -1.84      4.87
   -7   10    6      5.65     -3.33
   -7    9    6     -3.97      6.22
   -7    8    6      3.88     -4.07
   -7    7    6      1.83     -0.10
    0    7    6      7.60     -0.57
   -1    8    6      2.52      8.09
   -2    9    6      1.85     -0.97
   -3   10    6      1.54     -0.02
   -4   11    6     -1.77     -4.81
   -5   12    6      1.20     -4.77
   -6   13    6     -2.19     -0.88
   -7   14    6     -0.10     -0.90
   -8   15    6      0.21      1.81
   -8   14    6      4.61     -2.00
   -8   13    6      1.15     -3.03
   -8   12    6      1.75     -1.80
   -8   11    6      1.96      0.11
   -8   10    6      4.28      0.12
   -8    9    6      6.42     -3.37
   -8    8    6      2.43      0.06
    0    8    6      0.44     -0.70
   -1    9    6      4.22     -5.79
   -2   10    6     -3.89      5.26
   -3   11    6      5.44     -2.18
   -4   12    6      1.37      4.06
   -5   13    6      3.74     -1.81
   -6   14    6      2.52      1.80
   -7   15    6      0.94      3.81
   -8   16    6      2.16     -0.12
   -9   16    6     -1.98     -2.10
   -9   15    6     -1.48     -0.59
   -9   14    6     -0.94     -0.23
   -9   13    6      4.11     -1.86
   -9   12    6      4.36      2.35
   -9   11    6      2.89      1.29
   -9   10    6      6.75      2.87
   -9    9    6     -4.42     -0.01
    0    9    6      5.90     -0.43
   -1   10    6      4.88      0.68
   -2   11    6      6.08     -2.98
   -3   12    6     -1.51     -3.34
   -4   13    6      3.77     -1.45
   -5   14    6      0.35      0.80
   -6   15    6     -1.53      4.86
   -7   16    6     -0.77      0.31
  -10   16    6      2.51     -4.20
  -10   15    6      2.33      2.02
  -10   14    6      3.43      1.40
  -10   13    6      2.83      3.51
  -10   12    6     -3.15     -1.76
  -10   11    6      0.16     -0.17
  -10   10    6     -4.35     -0.15
    0   10    6    -12.13     -3.06
   -1   11    6      4.30     -0.28
   -2   12    6     -5.33      0.44
   -3   13    6      5.05     -0.01
   -4   14    6      0.70     -0.58
   -5   15    6     -1.13     -2.32
   -6   16    6     -2.25     -0.70
  -11   16    6      1.32      0.37
  -11   15    6      2.91     -3.90
  -11   14    6     -2.06     -0.39
  -11   13    6      2.45     -2.00
  -11   12    6     -1.73      1.67
  -11   11    6      8.45      0.03
    0   11    6      0.61     -0.46
   -1   12    6     -1.69     -1.50
   -2   13    6      0.53      3.37
   -3   14    6     -1.24     -0.30
   -4   15    6      0.29      3.29
   -5   16    6      0.43      1.80
  -12   16    6     -0.51     -1.63
  -12   15    6      3.99      0.04
  -12   14    6      2.30     -2.28
  -12   13    6      4.72     -3.82
  -12   12    6      2.35      0.08
    0   12    6     -3.96     -0.13
   -1   13    6      0.98      0.73
   -2   14    6      1.60     -4.41
   -3   15    6     -3.91      1.85
   -4   16    6     -0.53     -0.88
  -13   15    6      2.90     -0.41
  -13   14    6      1.40      0.96
  -13   13    6      5.05     -0.06
    0   13    6     -5.69      0.05
   -1   14    6     -1.75     -1.62
   -2   15    6     -2.15      3.04
  -14   14    6      1.16      0.04
    0   14    6      3.90     -0.08
   -1    1    7     -5.78     -0.14
    0    1    7      5.12     -9.47
   -1    2    7      2.01      7.75
   -2    3    7     -0.16     -2.85
   -2    2    7     15.20      0.07
    0    2    7    -10.88     18.81
   -1    3    7      2.66    -11.16
   -2    4    7     -3.92      6.38
   -3    5    7      1.18     -7.32
   -3    4    7     -7.24     -3.71
   -3    3    7     24.35      0.81
    0    3    7      7.61    -12.69
   -1    4    7      2.78     -8.74
   -2    5    7     10.84      0.32
   -3    6    7     -2.34      6.99
   -4    7    7     -0.09     13.04
   -4    6    7      3.84      5.54
   -4    5    7     -0.35     18.39
   -4    4    7     -5.50     -0.27
    0    4    7    -13.11     17.65
   -1    5    7     -0.69     -0.13
   -2    6    7     -0.44     -2.29
   -3    7    7     10.50     -7.83
   -4    8    7     -1.10      0.95
   -5    9    7      1.99     -2.22
   -5    8    7     -7.97      6.33
   -5    7    7     -6.52    -10.51
   -5    6    7      3.68      4.70
   -5    5    7    -16.01      0.04
    0    5    7     -3.23      6.06
   -1    6    7     -9.09      3.54
   -2    7    7      1.10     -2.78
   -3    8    7     -7.99      5.03
   -4    9    7      0.41     -0.27
   -5   10    7     -4.27      3.63
   -6   11    7      2.68      1.49
   -6   10    7     -2.23     -2.86
   -6    9    7     -0.76      3.22
   -6    8    7      4.61     -5.43
   -6    7    7     -1.78      5.85
   -6    6    7      2.31     -0.39
    0    6    7     -1.64      4.27
   -1    7    7     -0.40      0.29
   -2    8    7     -1.87     -4.95
   -3    9    7      6.20     -3.68
   -4   10    7     -4.48     -3.86
   -5   11    7      0.54      3.41
   -6   12    7     -3.08     -0.88
   -7   13    7      1.67      4.33
   -7   12    7      3.93     -4.79
   -7   11    7     -0.90      4.88
   -7   10    7      4.75      2.93
   -7    9    7      2.68      1.07
   -7    8    7      1.60      0.66
   -7    7    7    -11.01     -0.22
    0    7    7     -1.43      1.77
   -1    8    7     -7.44      2.91
   -2    9    7      1.72     -1.75
   -3   10    7     -4.57     -0.12
   -4   11    7      2.83     -0.68
   -5   12    7     -0.97     -3.23
   -6   13    7      1.02     -1.23
   -7   14    7      3.83     -0.90
   -8   15    7      0.07     -1.47
   -8   14    7      0.64      2.72
   -8   13    7     -2.97      0.14
   -8   12    7     -3.96      2.98
   -8   11    7     -1.70     -1.53
   -8   10    7      3.31      0.38
   -8    9    7      1.04     -1.00
   -8    8    7      4.86     -0.08
    0    8    7      1.45     -1.98
   -1    9    7     -1.68     -0.05
   -2   10    7     -1.44     -5.03
   -3   11    7      1.22     -1.88
   -4   12    7     -0.42      0.39
   -5   13    7      3.33      1.67
   -6   14    7      3.40      1.19
   -7   15    7     -1.53     -0.11
   -8   16    7      0.01     -2.64
   -9   16    7      2.11     -1.53
   -9   15    7     -1.57     -1.75
   -9   14    7      0.87     -0.49
   -9   13    7     -4.90      3.45
   -9   12    7      5.22     -1.62
   -9   11    7     -4.62     -1.98
   -9   10    7      2.79     -2.50
   -9    9    7     -5.71     -0.10
    0    9    7     -4.57      4.67
   -1   10    7     -3.07      1.07
   -2   11    7     -2.19      5.04
   -3   12    7     -1.32     -0.48
   -4   13    7      2.22      0.65
   -5   14    7     -4.04     -2.06
   -6   15    7     -3.66      1.29
   -7   16    7     -0.97     -0.10
  -10   16    7      1.31      2.34
  -10   15    7      0.38     -0.87
  -10   14    7      0.18      2.39
  -10   13    7     -6.12     -3.14
  -10   12    7     -2.71     -1.27
  -10   11    7     -1.65     -2.58
  -10   10    7      3.39      0.00
    0   10    7     -0.98      1.55
   -1   11    7     -3.04      2.08
   -2   12    7      2.71      5.73
   -3   13    7      1.61      0.44
   -4   14    7     -0.56      1.81
   -5   15    7     -2.53     -0.46
   -6   16    7     -1.09      1.29
  -11   16    7     -2.48      0.62
  -11   15    7      0.02     -3.14
  -11   14    7      0.11     -3.45
  -11   13    7      2.97      0.14
  -11   12    7      5.61      1.60
  -11   11    7      4.98      0.02
    0   11    7     -2.56      4.42
   -1   12    7      4.36      1.31
   -2   13    7     -0.86      0.27
   -3   14    7     -1.49     -1.64
   -4   15    7     -2.29     -1.40
   -5   16    7     -1.32     -3.29
  -12   15    7     -1.30      0.37
  -12   14    7      0.29     -1.72
  -12   13    7     -3.23     -2.39
  -12   12    7     -5.08      0.16
    0   12    7     -4.40      7.42
   -1   13    7     -6.63      0.33
   -2   14    7     -2.35      6.32
   -3   15    7     -0.33      0.84
  -13   15    7      0.68      2.71
  -13   14    7     -2.64      0.81
  -13   13    7      2.54     -0.05
    0   13    7      0.33     -0.49
   -1   14    7      2.67      0.77
   -2   15    7     -1.93     -2.66
  -14   14    7      0.48      0.29
    0   14    7     -3.27      4.89
   -1    1    8     -2.31     -0.14
    0    1    8      0.70      0.23
   -1    2    8     18.31      5.14
   -2    3    8      6.52     -7.80
   -2    2    8    -22.07     -0.04
    0    2    8     -2.92     -5.47
   -1    3    8     -9.19      0.85
   -2    4    8     -9.13     -0.90
   -3    5    8      7.67      4.26
   -3    4    8      1.14     -2.27
   -3    3    8     -1.66      0.11
    0    3    8     -6.31    -11.70
   -1    4    8     17.53      0.14
   -2    5    8     -1.25     -9.38
   -3    6    8     -9.79     -5.72
   -4    7    8      1.13     -2.53
   -4    6    8     -2.95     -0.32
   -4    5    8      1.06    -10.82
   -4    4    8    -12.25     -0.62
    0    4    8      2.78      7.03
   -1    5    8     -5.19      5.96
   -2    6    8     -0.96      6.94
   -3    7    8     -7.36      5.31
   -4    8    8     -3.99     -4.86
   -5    9    8      0.37      0.15
   -5    8    8     -9.31    -12.13
   -5    7    8      3.95      3.97
   -5    6    8    -13.86    -15.39
   -5    5    8     27.10      0.19
    0    5    8     -7.04    -11.01
   -1    6    8      7.53     -3.65
   -2    7    8      4.94      0.66
   -3    8    8     -7.36      0.13
   -4    9    8      1.70      2.24
   -5   10    8     -2.30      0.15
   -6   11    8     -0.40      3.09
   -6   10    8      2.38     -6.53
   -6    9    8      0.76      5.52
   -6    8    8      8.56     -3.73
   -6    7    8     -2.04     -1.82
   -6    6    8      5.49      0.19
    0    6    8      4.68      9.61
   -1    7    8     -5.46      0.11
   -2    8    8      0.58      0.86
   -3    9    8     -2.67     -2.26
   -4   10    8     -3.19     -3.19
   -5   11    8      1.35     -0.19
   -6   12    8     -2.73     -2.14
   -7   13    8      1.31     -2.25
   -7   12    8      0.79     -1.15
   -7   11    8     -0.27      0.14
   -7   10    8     -3.84      0.75
   -7    9    8     -3.04      1.32
   -7    8    8     -0.59     -8.62
   -7    7    8      3.92      0.01
    0    7    8     -2.41     -4.85
   -1    8    8      2.88     -0.30
   -2    9    8     -0.27      1.04
   -3   10    8     -2.88      3.61
   -4   11    8      0.66      2.12
   -5   12    8      1.84      0.32
   -6   13    8     -2.26     -2.01
   -7   14    8      0.38     -1.67
   -8   15    8     -2.62     -0.47
   -8   14    8     -0.30     -3.99
   -8   13    8      0.57     -0.60
   -8   12    8      0.12     -0.82
   -8   11    8      2.41      3.31
   -8   10    8      1.90     -4.74
   -8    9    8      1.38     -4.37
   -8    8    8      4.40     -0.09
    0    8    8      0.20      0.68
   -1    9    8     -1.99     -1.59
   -2   10    8     -2.41      1.25
   -3   11    8      0.11     -1.26
   -4   12    8     -1.44     -1.95
   -5   13    8      0.08     -0.78
   -6   14    8     -3.89      1.40
   -7   15    8     -1.96      2.00
   -8   16    8      2.52      2.00
   -9   16    8      0.01      2.40
   -9   15    8      2.38      0.07
   -9   14    8      0.27     -4.77
   -9   13    8     -0.20     -4.45
   -9   12    8      4.39      3.05
   -9   11    8     -2.12     -1.30
   -9   10    8     -2.15      2.77
   -9    9    8     -7.38     -0.09
    0    9    8     -2.64     -4.01
   -1   10    8      5.33      6.08
   -2   11    8      0.92      2.58
   -3   12    8      2.14      2.43
   -4   13    8     -0.76     -0.05
   -5   14    8     -2.97      4.37
   -6   15    8     -1.05      2.31
   -7   16    8      0.60      0.80
  -10   16    8      0.84      1.30
  -10   15    8      0.57      1.28
  -10   14    8     -0.68      0.05
  -10   13    8      1.01     -2.18
  -10   12    8     -4.31      6.49
  -10   11    8      0.64      1.82
  -10   10    8      2.98      0.00
    0   10    8     -2.06     -3.28
   -1   11    8     -0.32     -3.18
   -2   12    8     -1.15     -3.66
   -3   13    8     -3.52     -4.74
   -4   14    8     -4.08     -0.46
   -5   15    8     -1.95      1.62
   -6   16    8      0.82      1.69
  -11   16    8      1.47     -1.13
  -11   15    8      0.41     -0.23
  -11   14    8      6.48     -3.50
  -11   13    8      0.43     -0.84
  -11   12    8      4.05      1.03
  -11   11    8     -1.52      0.09
    0   11    8     -0.05      0.76
   -1   12    8      0.93      5.49
   -2   13    8      3.41      2.04
   -3   14    8      1.64      1.31
   -4   15    8      2.37     -1.01
   -5   16    8     -0.56     -0.07
  -12   15    8      0.32     -0.16
  -12   14    8     -4.00      1.96
  -12   13    8     -1.89     -4.17
  -12   12    8     -8.08      0.10
    0   12    8      0.45      0.01
   -1   13    8      0.94     -2.86
   -2   14    8      0.36      0.26
   -3   15    8     -0.41     -1.90
  -13   15    8      0.12      1.80
  -13   14    8      3.77      3.87
  -13   13    8      0.26     -0.07
    0   13    8     -0.35     -0.08
   -1   14    8      0.55     -3.35
   -2   15    8      1.24     -1.43
  -14   14    8     -3.58      0.05
    0   14    8     -0.37     -0.64
    0    0    9     21.73     -0.05
   -1    1    9     -6.23     -0.10
    0    1    9     -9.00     -0.02
   -1    2    9     -6.40      5.91
   -2    3    9     -6.38     -8.22
   -2    2    9     16.92      0.05
    0    2    9      7.46     -0.41
   -1    3    9     -5.09    -13.17
   -2    4    9     -0.79     14.73
   -3    5    9     -9.27     -5.05
   -3    4    9      9.15     -0.28
   -3    3    9    -23.01     -0.16
    0    3    9    -15.06      0.15
   -1    4    9     10.24     12.96
   -2    5    9     -6.38     -3.43
   -3    6    9      8.88      6.11
   -4    7    9      1.13      0.32
   -4    6    9    -12.79      7.46
   -4    5    9      7.43      2.55
   -4    4    9    -23.83     -0.23
    0    4    9     -8.41     -0.30
   -1    5    9      3.10     -8.37
   -2    6    9     -5.40      9.62
   -3    7    9      1.26     -3.09
   -4    8    9      2.35     -0.51
   -5    9    9     -0.22      0.17
   -5    8    9     -5.45     -1.79
   -5    7    9     -3.63     -3.13
   -5    6    9      7.79      1.95
   -5    5    9    -27.96     -0.45
    0    5    9     -6.66      0.57
   -1    6    9      6.86      1.66
   -2    7    9     -4.23     -8.35
   -3    8    9     -3.17     -1.53
   -4    9    9      3.68     -3.78
   -5   10    9     -4.75      1.06
   -6   11    9     -0.36      2.37
   -6   10    9      2.98     -4.88
   -6    9    9     -2.48      1.92
   -6    8    9      3.05      1.20
   -6    7    9      3.87      4.61
   -6    6    9    -14.83     -0.32
    0    6    9     -3.60     -0.35
   -1    7    9     -4.14      1.03
   -2    8    9     -1.27      5.35
   -3    9    9     -1.44      1.65
   -4   10    9      0.33     -0.50
   -5   11    9      1.60     -0.55
   -6   12    9     -1.51     -5.50
   -7   13    9     -0.89     -2.37
   -7   12    9     -2.21      0.46
   -7   11    9      0.41      4.51
   -7   10    9     -1.71     -1.44
   -7    9    9      1.96      6.47
   -7    8    9     -7.55     -2.87
   -7    7    9     -4.29     -0.47
    0    7    9     -8.34      0.06
   -1    8    9     -5.49     -2.37
   -2    9    9     -2.12     -5.68
   -3   10    9     -3.15      1.56
   -4   11    9      3.45     -0.35
   -5   12    9     -4.10      0.40
   -6   13    9     -0.58      1.13
   -7   14    9      2.65      4.91
   -8   15    9      3.19      3.61
   -8   14    9     -2.25      2.86
   -8   13    9     -3.69     -1.54
   -8   12    9      0.17     -3.60
   -8   11    9     -1.87      0.31
   -8   10    9      7.99     -2.88
   -8    9    9     -5.46      3.51
   -8    8    9      0.55      0.18
    0    8    9      2.33      0.49
   -1    9    9     -5.69      4.30
   -2   10    9      2.48      2.03
   -3   11    9      1.73     -1.16
   -4   12    9     -1.93     -2.18
   -5   13    9      0.86     -0.84
   -6   14    9     -1.65      3.28
   -7   15    9      1.96     -0.33
   -8   16    9     -3.69      1.21
   -9   16    9     -1.88      0.17
   -9   15    9     -0.42      0.68
   -9   14    9     -3.12      1.64
   -9   13    9     -4.51     -1.93
   -9   12    9     -8.87     -3.27
   -9   11    9      1.15      1.87
   -9   10    9     -3.32      0.02
   -9    9    9      2.83      0.10
    0    9    9     -7.56     -0.10
   -1   10    9     -6.11     -0.99
   -2   11    9     -5.95     -7.72
   -3   12    9     -0.96     -1.88
   -4   13    9     -1.57      3.30
   -5   14    9      3.79      2.62
   -6   15    9      2.72      0.61
   -7   16    9      1.27     -2.80
  -10   16    9     -2.53      0.33
  -10   15    9      1.91     -1.26
  -10   14    9     -0.56      2.12
  -10   13    9     -3.56     -0.81
  -10   12    9      2.99     -0.58
  -10   11    9     -0.09      2.71
  -10   10    9      9.39     -0.05
    0   10    9      0.19      0.61
   -1   11    9     -3.51     -0.19
   -2   12    9      1.13     -2.86
   -3   13    9     -0.28     -3.82
   -4   14    9     -2.83     -1.34
   -5   15    9     -0.20      1.16
   -6   16    9     -2.50     -1.98
  -11   15    9      1.47     -0.98
  -11   14    9      0.39     -0.90
  -11   13    9      0.24     -6.17
  -11   12    9      2.79     -1.68
  -11   11    9     -3.70      0.03
    0   11    9     -3.71     -0.04
   -1   12    9      2.19     -1.54
   -2   13    9     -0.63     -4.68
   -3   14    9      0.71      0.54
   -4   15    9     -1.68      1.94
  -12   15    9     -4.99      0.82
  -12   14    9     -5.30      3.37
  -12   13    9     -2.32      0.73
  -12   12    9     -5.02     -0.10
    0   12    9      1.80     -0.04
   -1   13    9     -1.43     -1.07
   -2   14    9     -3.47      1.33
   -3   15    9     -0.81      0.18
  -13   14    9      1.06     -0.38
  -13   13    9     -1.02      0.03
    0   13    9      0.93      0.08
   -1   14    9     -1.05      1.70
  -14   14    9     -2.95      0.03
    0   14    9      1.70     -0.11
   -1    1   10     23.31      0.03
    0    1   10      0.54     -0.45
   -1    2   10    -14.91     21.84
   -2    3   10     -6.62    -11.81
   -2    2   10      5.83      0.05
    0    2   10      3.75     -7.64
   -1    3   10     16.76     16.38
   -2    4   10      6.31     -6.90
   -3    5   10     10.94     -1.45
   -3    4   10    -12.13      8.39
   -3    3   10     11.17     -0.15
    0    3   10     -2.91      3.76
   -1    4   10     -8.07     12.29
   -2    5   10     -7.33      0.84
   -3    6   10     -2.37     -1.01
   -4    7   10      4.25     -8.24
   -4    6   10     -0.56      3.88
   -4    5   10     -4.58     -9.69
   -4    4   10      6.47      0.02
    0    4   10      4.96     -8.76
   -1    5   10      1.05     -4.92
   -2    6   10      0.40      3.23
   -3    7   10     -4.36     -4.19
   -4    8   10     -3.15     -0.89
   -5    9   10     -4.71      2.96
   -5    8   10     -0.07     -2.91
   -5    7   10     -0.88      2.81
   -5    6   10     -0.56     -1.31
   -5    5   10     15.88     -0.07
    0    5   10     -6.45     10.40
   -1    6   10      3.53      1.20
   -2    7   10     -3.32      5.91
   -3    8   10     -0.28     -4.03
   -4    9   10      1.99     -2.59
   -5   10   10      3.09     -2.79
   -6   11   10     -0.13     -1.57
   -6   10   10      3.49      4.40
   -6    9   10      6.04      2.47
   -6    8   10     -8.19      6.54
   -6    7   10      4.40     -0.83
   -6    6   10     -2.73      0.24
    0    6   10     -1.61      2.44
   -1    7   10     -1.19     -3.11
   -2    8   10      1.43      3.42
   -3    9   10     -2.15      0.52
   -4   10   10      4.98      3.28
   -5   11   10     -2.77      2.92
   -6   12   10      0.87     -0.16
   -7   13   10      0.85      1.76
   -7   12   10     -4.03      3.13
   -7   11   10     -1.60      1.47
   -7   10   10     -0.17      1.71
   -7    9   10     -3.99     -0.97
   -7    8   10      5.99     -0.65
   -7    7   10     -5.10     -0.08
    0    7   10     -2.21      4.13
   -1    8   10      3.64      1.91
   -2    9   10     -2.17     -1.59
   -3   10   10      3.37     -0.98
   -4   11   10     -0.16     -8.76
   -5   12   10      0.50      0.68
   -6   13   10      2.37      0.81
   -7   14   10     -0.18      3.88
   -8   15   10     -1.59     -0.29
   -8   14   10      2.41     -5.24
   -8   13   10     -3.03      1.19
   -8   12   10     -1.53     -6.04
   -8   11   10     -1.22      2.59
   -8   10   10     -1.30     -2.56
   -8    9   10      6.04      2.62
   -8    8   10     -5.78     -0.02
    0    8   10     -0.24     -1.12
   -1    9   10     -1.45     -2.27
   -2   10   10      3.16      2.74
   -3   11   10     -1.25      0.07
   -4   12   10      2.94      3.93
   -5   13   10      4.09      1.09
   -6   14   10      0.49     -1.13
   -7   15   10     -2.44     -4.24
   -8   16   10     -2.44     -1.07
   -9   15   10      2.21     -2.12
   -9   14   10     -1.35      0.83
   -9   13   10      2.27      3.16
   -9   12   10     -6.36      3.02
   -9   11   10     -0.79      3.36
   -9   10   10     -3.43      2.06
   -9    9   10      1.16     -0.04
    0    9   10      0.87     -1.56
   -1   10   10      1.55      3.52
   -2   11   10      0.84     -6.29
   -3   12   10     -3.29      4.34
   -4   13   10     -1.37     -1.28
   -5   14   10     -0.33      1.65
   -6   15   10     -3.24     -1.14
  -10   15   10      0.06      2.33
  -10   14   10      1.93     -3.62
  -10   13   10      1.39      3.12
  -10   12   10      2.62      2.28
  -10   11   10     -2.04      0.01
  -10   10   10      0.29     -0.01
    0   10   10      0.86     -1.34
   -1   11   10      5.00     -7.43
   -2   12   10      3.07      1.64
   -3   13   10      4.71      1.99
   -4   14   10      3.11      6.30
   -5   15   10      0.39     -0.33
  -11   15   10     -0.32     -1.12
  -11   14   10     -2.84     -1.83
  -11   13   10     -2.52     -0.87
  -11   12   10     -6.58     -3.08
  -11   11   10      2.17      0.00
    0   11   10      5.05     -8.57
   -1   12   10      0.85     -1.35
   -2   13   10      3.28      1.10
   -3   14   10      0.92      3.47
   -4   15   10      0.84     -0.47
  -12   15   10     -2.64      0.48
  -12   14   10      0.09      1.28
  -12   13   10     -7.28     -0.72
  -12   12   10      3.64     -0.03
    0   12   10      1.00     -1.43
   -1   13   10      2.20      2.41
   -2   14   10     -0.08      2.15
   -3   15   10      2.32      0.38
  -13   14   10     -1.08     -0.78
  -13   13   10     -1.39      0.01
    0   13   10     -0.07      0.54
   -1   14   10     -3.16      0.87
   -1    1   11    -14.37      0.26
    0    1   11     26.38     45.84
   -1    2   11     16.91     -4.45
   -2    3   11     -1.99     -2.08
   -2    2   11     11.56      0.16
    0    2   11     -0.14      1.96
   -1    3   11     -8.14      6.49
   -2    4   11      2.30     -6.69
   -3    5   11      2.74      0.42
   -3    4   11      3.55      8.23
   -3    3   11     -3.54     -0.15
    0    3   11      2.39      3.94
   -1    4   11      5.62      2.56
   -2    5   11     -6.04     -1.30
   -3    6   11      4.70      7.27
   -4    7   11    -10.98      0.30
   -4    6   11     -1.72     -4.82
   -4    5   11     -6.21      1.80
   -4    4   11     -0.69     -0.11
    0    4   11     -1.02     -1.81
   -1    5   11      0.03      2.54
   -2    6   11      1.73     -0.33
   -3    7   11     -1.76     -5.31
   -4    8   11      0.77      5.93
   -5    9   11     -2.51     -0.70
   -5    8   11     -0.61      7.36
   -5    7   11     -1.58     -6.83
   -5    6   11      1.54      1.71
   -5    5   11      4.75     -0.10
    0    5   11     -0.54     -1.08
   -1    6   11      2.24      5.49
   -2    7   11     -5.43     -0.24
   -3    8   11     -0.66      5.86
   -4    9   11      3.95     -2.00
   -5   10   11     -2.24      3.45
   -6   11   11      0.96     -4.62
   -6   10   11     -4.62      4.57
   -6    9   11      3.55     -6.99
   -6    8   11     -0.98      0.61
   -6    7   11     -2.53      3.64
   -6    6   11      0.29     -0.06
    0    6   11      0.53      0.52
   -1    7   11     -0.84     -3.91
   -2    8   11     -0.44     -1.95
   -3    9   11      2.16     -4.19
   -4   10   11     -0.98      0.15
   -5   11   11     -2.84     -0.16
   -6   12   11     -1.69      2.73
   -7   13   11     -1.66     -1.91
   -7   12   11     -0.91      0.30
   -7   11   11     -6.19     -1.50
   -7   10   11      1.61     -6.19
   -7    9   11      0.39     -3.13
   -7    8   11      1.77     -6.20
   -7    7   11     11.02      0.01
    0    7   11      3.09      6.38
   -1    8   11     -5.74      0.73
   -2    9   11      6.25      1.84
   -3   10   11     -2.62      2.17
   -4   11   11      0.93      0.47
   -5   12   11     -3.57      0.90
   -6   13   11     -1.50     -3.97
   -7   14   11     -2.42     -0.87
   -8   15   11      1.02     -1.47
   -8   14   11     -0.93      0.40
   -8   13   11      0.68     -5.75
   -8   12   11     -1.62      2.74
   -8   11   11      3.05     -0.73
   -8   10   11     -3.50      2.10
   -8    9   11      2.35      3.97
   -8    8   11      2.42      0.17
    0    8   11     -2.43     -4.07
   -1    9   11     -0.16     -2.86
   -2   10   11     -2.51     -3.65
   -3   11   11      2.94      1.33
   -4   12   11     -1.09      2.89
   -5   13   11     -2.50      1.92
   -6   14   11     -4.07     -0.60
   -7   15   11     -0.35      0.74
   -9   15   11     -0.52      1.97
   -9   14   11      1.06      1.39
   -9   13   11     -1.11      3.46
   -9   12   11     -1.98     -0.71
   -9   11   11     -1.98      2.42
   -9   10   11      1.84     -6.40
   -9    9   11     -0.55      0.02
    0    9   11      4.40      7.15
   -1   10   11     -2.22     -3.77
   -2   11   11      2.55      0.31
   -3   12   11      1.17     -1.44
   -4   13   11      2.33     -0.50
   -5   14   11     -0.30     -2.02
   -6   15   11      1.01     -2.32
  -10   15   11      2.07      2.85
  -10   14   11      3.09     -1.73
  -10   13   11      2.10      0.36
  -10   12   11     -2.83     -2.66
  -10   11   11      8.64     -1.44
  -10   10   11     -2.65      0.04
    0   10   11     -3.34     -5.75
   -1   11   11     -1.99      1.83
   -2   12   11     -2.61     -1.73
   -3   13   11      2.29      0.13
   -4   14   11     -2.91     -3.74
   -5   15   11     -2.69     -3.25
  -11   15   11      0.91      1.36
  -11   14   11      0.80      1.09
  -11   13   11     -2.74     -0.68
  -11   12   11     -4.45      1.24
  -11   11   11      1.44      0.00
    0   11   11      1.11      2.13
   -1   12   11      2.46      0.16
   -2   13   11      0.56      2.84
   -3   14   11     -1.09     -0.45
   -4   15   11     -2.63     -0.72
  -12   14   11      3.00     -2.02
  -12   13   11     -0.60      0.78
  -12   12   11    -12.25      0.04
    0   12   11      2.28      3.82
   -1   13   11     -0.72      4.84
   -2   14   11      0.21     -0.52
  -13   14   11      1.30     -0.79
  -13   13   11      1.58      0.03
    0   13   11     -1.00     -1.66
   -1   14   11      0.35     -1.36
    0    0   12     45.75      0.03
   -1    1   12      5.44      0.48
    0    1   12      5.32      1.65
   -1    2   12     -1.73     -6.88
   -2    3   12      4.67      0.77
   -2    2   12      5.41      0.00
    0    2   12     -6.48     -0.11
   -1    3   12    -10.15      6.51
   -2    4   12     -1.16     -2.44
   -3    5   12     -3.76     -4.42
   -3    4   12      0.63      6.17
   -3    3   12     -9.80      0.25
    0    3   12      7.58      0.31
   -1    4   12      3.59     -7.77
   -2    5   12      3.44      0.09
   -3    6   12      0.51     -1.15
   -4    7   12      0.82      1.58
   -4    6   12      5.26     -0.72
   -4    5   12     -2.73    -11.03
   -4    4   12      9.91      0.05
    0    4   12     -3.98      0.14
   -1    5   12      0.10      6.43
   -2    6   12     -2.27     -1.64
   -3    7   12      4.34     -0.06
   -4    8   12      3.95      0.14
   -5    9   12      5.05     -7.15
   -5    8   12      4.99      2.72
   -5    7   12      6.40     -2.10
   -5    6   12     -6.11      9.60
   -5    5   12      6.27      0.15
    0    5   12      1.15     -0.11
   -1    6   12     -0.17     -8.34
   -2    7   12     -6.16      1.16
   -3    8   12      3.23     -3.26
   -4    9   12     -3.25     -0.86
   -5   10   12     -0.81      1.48
   -6   11   12      3.07     -0.39
   -6   10   12      1.19      2.03
   -6    9   12      2.60      2.19
   -6    8   12      2.29      1.95
   -6    7   12     -1.49      1.95
   -6    6   12      3.55      0.09
    0    6   12      0.49     -0.02
   -1    7   12      0.20      3.65
   -2    8   12      3.22     -6.78
   -3    9   12     -0.29     -1.02
   -4   10   12     -0.73     -2.52
   -5   11   12      1.29      2.30
   -6   12   12     -0.90     -0.23
   -7   13   12      2.87      2.05
   -7   12   12     -3.89      0.73
   -7   11   12      2.85     -1.08
   -7   10   12     -2.79      5.86
   -7    9   12     -0.23     -4.67
   -7    8   12     -3.26      7.18
   -7    7   12     -0.62     -0.05
    0    7   12     -4.70     -0.36
   -1    8   12     -0.02     -2.74
   -2    9   12     -0.98      4.06
   -3   10   12     -0.71     -1.24
   -4   11   12      0.59      1.03
   -5   12   12      0.63      0.87
   -6   13   12      2.21     -0.25
   -7   14   12      0.46      0.50
   -8   15   12     -1.72     -1.79
   -8   14   12     -0.48      0.74
   -8   13   12      2.74      1.54
   -8   12   12     -3.06      5.20
   -8   11   12      2.37      4.48
   -8   10   12      0.88      2.21
   -8    9   12     -2.16      5.28
   -8    8   12     -0.89      0.06
    0    8   12      1.05     -0.18
   -1    9   12      0.43     -0.67
   -2   10   12      1.61     -5.23
   -3   11   12     -3.87      2.01
   -4   12   12     -2.76     -5.05
   -5   13   12     -1.79     -0.03
   -6   14   12      3.53     -4.58
   -7   15   12     -0.66      2.03
   -9   15   12      0.55      3.85
   -9   14   12      1.10      1.44
   -9   13   12      2.19      2.45
   -9   12   12      0.85     -1.03
   -9   11   12      0.13      1.94
   -9   10   12      0.68     -2.18
   -9    9   12     -0.73     -0.13
    0    9   12      1.92      0.21
   -1   10   12     -0.45     -0.25
   -2   11   12      2.82      3.54
   -3   12   12     -1.22     -0.81
   -4   13   12     -3.91     -3.28
   -5   14   12      0.71     -2.10
   -6   15   12     -0.51     -1.90
  -10   15   12      1.79     -0.04
  -10   14   12      0.07      2.08
  -10   13   12      5.31     -2.95
  -10   12   12     -1.85      3.44
  -10   11   12      0.47      8.59
  -10   10   12     -0.23      0.16
    0   10   12     -0.95      0.00
   -1   11   12     -1.28     -3.03
   -2   12   12      3.37     -3.60
   -3   13   12     -1.22      1.38
   -4   14   12      1.00      1.39
   -5   15   12      1.11      2.27
  -11   14   12      0.62     -2.74
  -11   13   12      4.67     -2.84
  -11   12   12     -4.65     -3.06
  -11   11   12     -5.18     -0.11
    0   11   12      4.64      0.10
   -1   12   12      2.05      1.86
   -2   13   12      0.39      2.31
   -3   14   12     -0.34     -2.80
  -12   14   12      3.05     -0.94
  -12   13   12      6.09     -1.03
  -12   12   12      1.55      0.00
    0   12   12      0.73      0.09
   -1   13   12     -0.49     -3.00
   -2   14   12     -0.42     -0.17
  -13   13   12      6.49     -0.10
    0   13   12      2.37     -0.16
   -1    1   13      0.27      0.14
    0    1   13     -9.88     16.78
   -1    2   13      5.72     -1.44
   -2    3   13     -2.29      3.71
   -2    2   13      2.06     -0.15
    0    2   13      2.33     -4.24
   -1    3   13     -3.68      0.57
   -2    4   13     -2.63     -3.27
   -3    5   13     -3.48      3.79
   -3    4   13      8.91     -6.40
   -3    3   13     -1.24      0.11
    0    3   13      0.68     -0.81
   -1    4   13      2.31     -5.33
   -2    5   13      0.70     -6.81
   -3    6   13      9.21     -2.06
   -4    7   13      0.18     -0.86
   -4    6   13     -1.19      0.81
   -4    5   13      5.08     -0.61
   -4    4   13     -6.24     -0.07
    0    4   13     -0.01      0.23
   -1    5   13     -2.94      6.63
   -2    6   13     -0.49      0.70
   -3    7   13     -3.51      8.33
   -4    8   13      0.51      1.57
   -5    9   13     -2.45     -0.76
   -5    8   13     -1.09     -1.79
   -5    7   13      0.20      0.40
   -5    6   13      4.22      2.92
   -5    5   13     -5.07      0.01
    0    5   13      3.62     -6.30
   -1    6   13     -1.04     -4.46
   -2    7   13      0.52     -1.60
   -3    8   13      1.64     -1.11
   -4    9   13     -5.14      3.53
   -5   10   13      1.17      1.75
   -6   11   13     -0.70      2.62
   -6   10   13      3.23      0.47
   -6    9   13     -4.20     -2.08
   -6    8   13     -1.09     -0.42
   -6    7   13      0.66     -4.56
   -6    6   13      1.71     -0.05
    0    6   13     -0.82      0.93
   -1    7   13     -0.74      2.49
   -2    8   13      2.19      0.97
   -3    9   13     -0.76      2.20
   -4   10   13      4.11      4.17
   -5   11   13     -1.76     -3.69
   -6   12   13      1.83     -2.90
   -7   13   13     -4.37     -3.84
   -7   12   13     -2.37     -1.08
   -7   11   13     -2.71     -1.77
   -7   10   13     -3.26      0.83
   -7    9   13      3.70      0.59
   -7    8   13     -2.95      1.57
   -7    7   13     10.65      0.13
    0    7   13      0.29      0.01
   -1    8   13     -0.31     -2.16
   -2    9   13     -1.34     -2.56
   -3   10   13      1.29      0.04
   -4   11   13     -2.78      6.67
   -5   12   13      1.49      2.65
   -6   13   13     -1.27     -0.69
   -7   14   13     -1.07     -0.45
   -8   15   13     -0.64     -0.71
   -8   14   13     -0.87     -0.25
   -8   13   13      1.83      0.79
   -8   12   13      3.64      1.83
   -8   11   13     -1.24      1.43
   -8   10   13      1.81      1.53
   -8    9   13     -2.25     -3.23
   -8    8   13      5.65      0.13
    0    8   13     -1.22      3.22
   -1    9   13      1.77      2.79
   -2   10   13     -1.28      0.09
   -3   11   13      0.35      0.33
   -4   12   13     -1.76     -1.25
   -5   13   13     -0.30     -2.63
   -6   14   13     -3.80     -1.08
   -7   15   13     -1.26      0.19
   -9   15   13     -1.42      2.93
   -9   14   13     -0.67     -3.24
   -9   13   13     -0.26     -2.20
   -9   12   13     -0.69     -1.28
   -9   11   13     -2.08     -0.23
   -9   10   13      1.14      1.56
   -9    9   13      5.49      0.01
    0    9   13      1.90     -2.79
   -1   10   13     -1.01     -0.54
   -2   11   13     -0.78      1.31
   -3   12   13      0.54     -1.27
   -4   13   13      3.17      0.36
   -5   14   13      4.40      0.68
   -6   15   13     -1.79     -1.03
  -10   14   13      0.21     -2.16
  -10   13   13      2.72      1.36
  -10   12   13     -2.28     -3.84
  -10   11   13     -1.11      2.25
  -10   10   13     -1.85      0.07
    0   10   13     -0.27      0.27
   -1   11   13      4.55      3.30
   -2   12   13      1.27      1.67
   -3   13   13     -0.91      1.42
   -4   14   13     -0.46     -0.79
  -11   14   13     -0.22     -0.42
  -11   13   13     -2.82     -1.82
  -11   12   13      3.55     -7.64
  -11   11   13      2.20      0.04
    0   11   13      3.01     -5.25
   -1   12   13      0.22     -1.86
   -2   13   13      0.96     -0.20
   -3   14   13      2.45      0.08
  -12   14   13     -7.01      3.93
  -12   13   13      1.07      3.21
  -12   12   13      1.65      0.04
    0   12   13     -0.62      1.00
   -1   13   13     -2.22     -0.01
   -2   14   13     -0.29      0.13
  -13   13   13     -7.49     -0.01
    0   13   13      1.18     -1.90
   -1    1   14     14.74     -0.35
    0    1   14      0.65      1.38
   -1    2   14    -10.93      1.48
   -2    3   14     -1.64      7.81
   -2    2   14      3.18      0.12
    0    2   14      3.30      4.05
   -1    3   14      3.64     -7.78
   -2    4   14      4.86     -0.63
   -3    5   14     -2.26      1.03
   -3    4   14     -2.54     -1.14
   -3    3   14     -2.29      0.11
    0    3   14      2.68      3.70
   -1    4   14     -5.73     -0.43
   -2    5   14      1.34      5.18
   -3    6   14     -0.20      2.24
   -4    7   14      1.79     -4.03
   -4    6   14      2.49      3.44
   -4    5   14     -0.89      0.60
   -4    4   14      6.53     -0.09
    0    4   14     -3.28     -6.91
   -1    5   14      2.84     -4.83
   -2    6   14      0.46     -1.65
   -3    7   14     -1.91      2.06
   -4    8   14     -2.34     -2.19
   -5    9   14      2.62      0.43
   -5    8   14      2.83     -0.61
   -5    7   14     -5.35      3.11
   -5    6   14      5.06      0.70
   -5    5   14     -9.27     -0.05
    0    5   14      0.61      1.35
   -1    6   14     -3.35      1.53
   -2    7   14      2.16      2.24
   -3    8   14     -0.08     -2.87
   -4    9   14      5.23     -2.51
   -5   10   14      4.12     -0.24
   -6   11   14     -1.34      0.46
   -6   10   14      1.89     -2.73
   -6    9   14      0.67     -2.20
   -6    8   14     -4.93      2.55
   -6    7   14      4.66     -1.83
   -6    6   14     -0.52      0.05
    0    6   14     -2.91     -4.33
   -1    7   14      4.73      1.44
   -2    8   14     -2.38     -4.11
   -3    9   14     -1.53      5.28
   -4   10   14      2.10     -1.11
   -5   11   14      0.85     -1.88
   -6   12   14      3.66     -2.52
   -7   13   14     -0.49     -1.20
   -7   12   14     -4.76      4.08
   -7   11   14     -0.07     -2.93
   -7   10   14     -1.83      1.96
   -7    9   14     -0.58     -2.90
   -7    8   14      4.59      3.12
   -7    7   14     -7.19      0.03
    0    7   14      1.23      2.11
   -1    8   14      2.28     -2.57
   -2    9   14      1.25     -0.28
   -3   10   14      1.81     -0.46
   -4   11   14     -0.19     -2.23
   -5   12   14      0.87     -1.22
   -6   13   14      1.84     -1.22
   -7   14   14      0.98      1.17
   -8   14   14      3.16     -0.27
   -8   13   14     -0.08      0.43
   -8   12   14      1.64     -1.75
   -8   11   14     -1.25     -3.79
   -8   10   14     -0.72      1.72
   -8    9   14     -0.49     -1.79
   -8    8   14     -1.59     -0.19
    0    8   14     -2.03     -3.16
   -1    9   14      3.33      0.53
   -2   10   14      4.05      1.29
   -3   11   14     -1.97      1.79
   -4   12   14      1.48     -1.46
   -5   13   14     -1.59     -2.94
   -6   14   14     -0.80      1.79
   -9   14   14     -0.39      0.89
   -9   13   14     -3.41     -5.49
   -9   12   14      0.37     -0.58
   -9   11   14      3.76     -3.55
   -9   10   14      0.06      0.61
   -9    9   14      5.31      0.06
    0    9   14     -0.03      0.51
   -1   10   14     -0.54      0.59
   -2   11   14     -0.27     -1.97
   -3   12   14      1.32     -3.01
   -4   13   14      2.61     -2.61
   -5   14   14     -1.22     -2.71
  -10   14   14      1.51      0.62
  -10   13   14     -1.05     -2.54
  -10   12   14      4.19      1.68
  -10   11   14     -1.75      0.64
  -10   10   14      1.91      0.05
    0   10   14      1.43      2.85
   -1   11   14      1.10     -1.29
   -2   12   14      0.03      1.25
   -3   13   14      1.14     -3.27
   -4   14   14      1.30      0.19
  -11   14   14     -2.33     -5.53
  -11   13   14     -1.16     -0.97
  -11   12   14     -2.52      1.59
  -11   11   14      0.37     -0.02
    0   11   14      1.50      2.42
   -1   12   14     -4.78      4.62
   -2   13   14     -2.16      1.67
   -3   14   14     -3.32      0.45
  -12   13   14     -3.83     -0.09
  -12   12   14     -2.13     -0.05
    0   12   14      0.13     -0.38
   -1   13   14      4.44     -1.29
    0    0   15     -5.10     -0.44
   -1    1   15      3.81     -0.29
    0    1   15      6.51     -0.61
   -1    2   15     -1.39     -0.97
   -2    3   15      0.00      1.84
   -2    2   15     -4.47      0.11
    0    2   15     -6.33     -0.02
   -1    3   15      2.79      0.71
   -2    4   15     -0.97     -2.45
   -3    5   15      2.20      5.62
   -3    4   15     -6.00     -3.80
   -3    3   15      9.42     -0.07
    0    3   15     -0.17     -0.52
   -1    4   15     -8.62      0.77
   -2    5   15     -4.15      4.32
   -3    6   15     -4.72     -1.29
   -4    7   15     -5.10      2.55
   -4    6   15      5.00     -5.46
   -4    5   15     -1.19      2.58
   -4    4   15     -0.42      0.12
    0    4   15     -1.33     -0.42
   -1    5   15     -0.47      0.13
   -2    6   15      2.23     -7.20
   -3    7   15     -2.15     -0.38
   -4    8   15      5.40     -3.15
   -5    9   15      0.88      1.50
   -5    8   15     -1.39     -1.24
   -5    7   15     -3.65      5.07
   -5    6   15      1.37     -0.63
   -5    5   15     -0.18      0.19
    0    5   15      0.04      0.33
   -1    6   15     -2.28      3.30
   -2    7   15     -2.54     -0.55
   -3    8   15     -0.99     -0.79
   -4    9   15      0.64     -0.62
   -5   10   15      0.04     -1.32
   -6   11   15     -2.70     -3.22
   -6   10   15     -0.99      0.00
   -6    9   15     -3.49     -5.42
   -6    8   15      1.34     -2.07
   -6    7   15     -1.34     -3.49
   -6    6   15      3.40      0.02
    0    6   15     -0.59     -0.06
   -1    7   15      0.11     -3.94
   -2    8   15     -4.66     -1.80
   -3    9   15      1.60      2.18
   -4   10   15     -2.73      0.14
   -5   11   15     -2.89      3.11
   -6   12   15     -4.44     -1.25
   -7   13   15     -1.43     -1.11
   -7   12   15      0.70     -2.58
   -7   11   15     -0.49      4.85
   -7   10   15      0.55     -2.71
   -7    9   15     -2.11      4.80
   -7    8   15      0.16      1.74
   -7    7   15     -2.53      0.00
    0    7   15      3.40      0.26
   -1    8   15      0.25     -0.29
   -2    9   15     -1.18     -0.96
   -3   10   15     -0.30     -2.07
   -4   11   15     -2.01     -2.31
   -5   12   15      0.53      1.19
   -6   13   15      0.36     -0.01
   -7   14   15     -1.22      2.29
   -8   14   15     -0.32      0.40
   -8   13   15      0.19     -3.27
   -8   12   15      0.01      1.37
   -8   11   15      0.52      2.48
   -8   10   15     -2.11      4.78
   -8    9   15      1.73     -0.58
   -8    8   15     -3.91     -0.08
    0    8   15     -1.90      0.01
   -1    9   15      4.31      1.55
   -2   10   15     -4.34      1.79
   -3   11   15      0.53     -0.83
   -4   12   15     -1.48     -0.07
   -5   13   15     -0.73      3.08
   -6   14   15      0.04      3.05
   -9   14   15      0.05      2.44
   -9   13   15     -0.10      1.47
   -9   12   15     -5.05      3.76
   -9   11   15      0.70      1.72
   -9   10   15     -1.50      3.63
   -9    9   15     -5.83     -0.03
    0    9   15      1.51     -0.09
   -1   10   15     -0.20      0.54
   -2   11   15     -1.57     -2.09
   -3   12   15     -0.37     -1.09
   -4   13   15     -1.43     -1.42
   -5   14   15     -2.97      2.22
  -10   14   15      5.12      1.24
  -10   13   15     -2.46      0.49
  -10   12   15     -3.28     -1.32
  -10   11   15     -2.24     -1.22
  -10   10   15     -4.90      0.00
    0   10   15     -3.89      0.03
   -1   11   15      0.41      1.21
   -2   12   15      0.03     -0.31
   -3   13   15      2.91      2.83
   -4   14   15      0.38      1.12
  -11   13   15     -1.52     -3.34
  -11   12   15     -4.44     -0.69
  -11   11   15      2.06      0.01
    0   11   15      0.59      0.26
   -1   12   15     -2.17     -4.55
   -2   13   15      2.46     -3.37
  -12   13   15     -2.34     -5.11
  -12   12   15     -2.07      0.06
    0   12   15      4.86      0.16
   -1   13   15      0.15      2.26
   -1    1   16     -4.79     -0.14
    0    1   16      2.73     -4.15
   -1    2   16      0.88     -1.26
   -2    3   16      2.57      0.99
   -2    2   16     -4.27     -0.12
    0    2   16     -5.06      8.76
   -1    3   16     -2.75     -0.57
   -2    4   16     -3.47      4.95
   -3    5   16      0.89     -1.42
   -3    4   16      1.34     -1.23
   -3    3   16     -3.15     -0.40
    0    3   16      0.88     -2.44
   -1    4   16      0.52     -0.18
   -2    5   16      0.80      0.75
   -3    6   16     -3.29      2.80
   -4    7   16     -1.08      2.31
   -4    6   16      3.44      1.53
   -4    5   16      0.34      0.80
   -4    4   16      3.50      0.01
    0    4   16     -3.72      6.58
   -1    5   16      2.66     -3.94
   -2    6   16     -2.20     -1.18
   -3    7   16      0.98      2.89
   -4    8   16     -2.53     -3.38
   -5    9   16     -1.22      0.53
   -5    8   16      0.54     -0.28
   -5    7   16     -0.28      0.62
   -5    6   16      0.87     -0.78
   -5    5   16      3.03     -0.01
    0    5   16      1.93     -3.86
   -1    6   16      0.63     -0.36
   -2    7   16      2.58      1.37
   -3    8   16      0.79      7.00
   -4    9   16      0.52      2.49
   -5   10   16     -0.52      7.65
   -6   11   16     -3.70      1.52
   -6   10   16     -2.79     -0.47
   -6    9   16     -3.21      2.82
   -6    8   16      2.52     -0.15
   -6    7   16     -1.52      0.55
   -6    6   16      3.17      0.02
    0    6   16      0.97     -1.64
   -1    7   16     -1.43     -1.55
   -2    8   16     -3.18     -3.33
   -3    9   16      0.22     -0.34
   -4   10   16     -3.44     -2.75
   -5   11   16      2.97      0.84
   -6   12   16     -2.66     -1.95
   -7   13   16      3.82      3.87
   -7   12   16      0.39      0.16
   -7   11   16     -3.24      2.28
   -7   10   16      3.26      4.35
   -7    9   16     -2.82      2.89
   -7    8   16      1.02      3.24
   -7    7   16     -3.07      0.00
    0    7   16      2.17     -3.24
   -1    8   16     -0.91      0.44
   -2    9   16      2.24      0.28
   -3   10   16     -0.78      0.93
   -4   11   16      0.65      0.31
   -5   12   16      1.09     -1.34
   -6   13   16      1.51     -0.96
   -7   14   16     -0.39     -2.99
   -8   14   16     -0.04      1.23
   -8   13   16     -1.14      0.69
   -8   12   16     -5.42      1.24
   -8   11   16     -2.13      1.51
   -8   10   16      0.01      0.59
   -8    9   16      1.74     -1.87
   -8    8   16      3.28     -0.19
    0    8   16      0.09     -0.68
   -1    9   16      1.24     -1.03
   -2   10   16     -0.25     -0.75
   -3   11   16      0.97     -0.35
   -4   12   16     -1.41      1.54
   -5   13   16      2.38      2.65
   -6   14   16      0.44     -1.22
   -9   13   16      0.39      1.90
   -9   12   16      5.17     -0.91
   -9   11   16     -1.59      0.07
   -9   10   16      4.30     -1.82
   -9    9   16      0.46      0.12
    0    9   16     -2.89      5.27
   -1   10   16      1.12     -1.09
   -2   11   16     -0.06      1.35
   -3   12   16      2.24      0.93
   -4   13   16     -1.29      0.41
  -10   13   16      4.47     -3.70
  -10   12   16     -0.07     -0.92
  -10   11   16      4.45     -3.36
  -10   10   16      4.55      0.04
    0   10   16      0.85     -0.88
   -1   11   16     -1.86     -4.82
   -2   12   16     -0.56      0.00
   -3   13   16      0.94      0.09
  -11   13   16      2.21     -0.95
  -11   12   16      3.12      0.98
  -11   11   16     -3.99     -0.12
    0   11   16      0.68     -1.28
   -1   12   16      3.80     -2.34
   -2   13   16      0.01      0.99
  -12   12   16     -7.03     -0.03
    0   12   16      2.05     -3.38
   -1    1   17     -0.68      0.25
    0    1   17     -3.10     -5.61
   -1    2   17      0.56      0.70
   -2    3   17      3.70     -2.86
   -2    2   17     -6.05     -0.01
    0    2   17     -0.61     -1.32
   -1    3   17      1.26     -1.28
   -2    4   17     -3.56      3.60
   -3    5   17      0.73      1.94
   -3    4   17      2.50     -1.15
   -3    3   17      1.34      0.03
    0    3   17     -1.31     -2.01
   -1    4   17     -2.50     -4.16
   -2    5   17      3.17     -3.08
   -3    6   17     -0.07     -1.90
   -4    7   17      3.35      1.88
   -4    6   17     -0.98      1.54
   -4    5   17      4.94      0.88
   -4    4   17     -3.61      0.58
    0    4   17      1.12      2.62
   -1    5   17     -1.07     -1.77
   -2    6   17     -1.43      2.42
   -3    7   17      0.15      2.66
   -4    8   17      0.68     -2.90
   -5    9   17      2.52      2.27
   -5    8   17     -5.02      3.77
   -5    7   17      0.98      1.53
   -5    6   17     -1.87      0.62
   -5    5   17     -0.58     -0.05
    0    5   17     -0.31     -0.78
   -1    6   17     -1.79     -1.79
   -2    7   17     -2.50      1.79
   -3    8   17     -2.51     -1.80
   -4    9   17     -0.73      0.71
   -5   10   17     -3.12     -1.08
   -6   11   17     -0.84     -3.02
   -6   10   17     -1.19     -2.85
   -6    9   17      0.22      1.06
   -6    8   17      3.27     -0.38
   -6    7   17     -1.42     -0.33
   -6    6   17      0.06      0.08
    0    6   17      2.63      3.20
   -1    7   17     -1.98      3.30
   -2    8   17     -0.58      1.74
   -3    9   17      0.52     -0.60
   -4   10   17     -2.61     -0.65
   -5   11   17     -2.18     -2.02
   -6   12   17     -2.80     -2.08
   -7   13   17      1.92     -0.51
   -7   12   17      2.99     -3.07
   -7   11   17      2.01      1.47
   -7   10   17     -0.46      1.93
   -7    9   17      0.93     -0.55
   -7    8   17     -1.00      1.02
   -7    7   17      3.08     -0.22
    0    7   17     -2.56     -4.52
   -1    8   17      1.94     -1.27
   -2    9   17      0.41     -4.73
   -3   10   17      2.56      2.55
   -4   11   17      1.43     -1.05
   -5   12   17      1.60     -1.84
   -6   13   17     -1.46     -0.43
   -8   13   17     -2.79     -0.04
   -8   12   17     -0.28     -0.58
   -8   11   17      2.21      2.19
   -8   10   17      3.44     -1.73
   -8    9   17      1.82     -2.37
   -8    8   17      4.61      0.06
    0    8   17      2.80      4.85
   -1    9   17      3.62      0.41
   -2   10   17     -1.49      2.40
   -3   11   17      2.92     -0.70
   -4   12   17     -0.71     -1.41
   -5   13   17      1.65     -2.03
   -9   13   17      1.35      0.53
   -9   12   17      4.88     -0.37
   -9   11   17      4.02     -1.01
   -9   10   17      2.85      4.22
   -9    9   17      2.64     -0.03
    0    9   17     -0.16      0.00
   -1   10   17     -1.08      1.79
   -2   11   17     -1.42      4.66
   -3   12   17      0.35      0.83
   -4   13   17      0.15     -1.61
  -10   13   17     -1.06     -1.72
  -10   12   17      0.46     -1.36
  -10   11   17     -2.05     -4.44
  -10   10   17      2.91     -0.15
    0   10   17      0.82      1.27
   -1   11   17     -2.06      0.38
   -2   12   17      0.26      1.11
   -3   13   17     -0.67     -1.44
  -11   12   17     -0.88      0.35
  -11   11   17     -2.68     -0.01
    0   11   17     -0.07     -0.58
   -1   12   17      2.17     -0.22
    0    0   18     -5.70      0.14
   -1    1   18     -1.47     -0.29
    0    1   18     -5.12      0.11
   -1    2   18     -0.65      0.96
   -2    3   18     -1.31      2.06
   -2    2   18      0.19     -0.07
    0    2   18      1.76     -0.36
   -1    3   18      1.46     -3.14
   -2    4   18      0.71      3.40
   -3    5   18     -0.30     -2.14
   -3    4   18      2.62      0.18
   -3    3   18     -0.80      0.10
    0    3   18     -4.11      0.14
   -1    4   18      1.26      0.70
   -2    5   18     -0.34     -1.59
   -3    6   18      1.79      0.37
   -4    7   18      1.95     -1.22
   -4    6   18     -1.74      1.92
   -4    5   18      2.09      2.78
   -4    4   18     -0.96      0.03
    0    4   18      3.28     -0.02
   -1    5   18     -0.73     -2.83
   -2    6   18      3.22      5.98
   -3    7   18      0.33      2.45
   -4    8   18     -2.30     -0.10
   -5    9   18      1.16      1.16
   -5    8   18      1.22     -1.83
   -5    7   18      2.34      1.45
   -5    6   18      3.60     -4.46
   -5    5   18     -1.34     -0.10
    0    5   18      0.68     -0.36
   -1    6   18      0.99      2.50
   -2    7   18      1.43     -2.97
   -3    8   18      0.10     -0.72
   -4    9   18      0.64     -1.70
   -5   10   18     -1.03     -1.12
   -6   11   18      4.68      3.24
   -6   10   18      3.12     -2.99
   -6    9   18      1.47     -1.43
   -6    8   18      1.74     -3.53
   -6    7   18      2.92      1.38
   -6    6   18     -1.97      0.18
    0    6   18      0.05      0.22
   -1    7   18     -2.13     -1.64
   -2    8   18     -0.13     -0.10
   -3    9   18      2.36     -0.55
   -4   10   18     -1.51     -2.27
   -5   11   18      1.35     -2.34
   -6   12   18      3.24     -0.25
   -7   13   18      1.26     -0.82
   -7   12   18     -1.69      0.29
   -7   11   18      1.53      2.73
   -7   10   18      2.60      3.29
   -7    9   18      2.68      2.38
   -7    8   18      1.15     -0.76
   -7    7   18      0.08      0.02
    0    7   18     -0.24      0.06
   -1    8   18      2.21     -1.73
   -2    9   18      0.81     -0.17
   -3   10   18      1.25     -0.88
   -4   11   18     -0.42     -4.48
   -5   12   18     -1.42     -2.94
   -6   13   18      2.59      2.13
   -8   13   18     -0.23     -1.47
   -8   12   18     -1.59      0.02
   -8   11   18     -0.14     -1.99
   -8   10   18      5.83     -2.27
   -8    9   18     -1.51      2.97
   -8    8   18      2.67      0.00
    0    8   18      4.38     -0.07
   -1    9   18      0.81     -0.94
   -2   10   18      1.54      4.72
   -3   11   18      2.81     -1.92
   -4   12   18     -0.86      0.01
   -5   13   18      2.38      0.01
   -9   12   18      1.12     -0.32
   -9   11   18      2.14     -0.70
   -9   10   18     -0.48      1.40
   -9    9   18      4.51     -0.17
    0    9   18     -1.78      0.04
   -1   10   18     -0.22      0.52
   -2   11   18     -1.09     -1.29
   -3   12   18      2.02     -4.32
  -10   12   18     -3.03      0.92
  -10   11   18     -4.35     -2.70
  -10   10   18     -6.69      0.12
    0   10   18     -0.89     -0.30
   -1   11   18     -3.43     -3.78
   -2   12   18     -0.83     -0.98
  -11   11   18     -1.51     -0.06
    0   11   18     -1.46     -0.06
   -1    1   19      3.55      0.22
    0    1   19      0.85     -1.96
   -1    2   19     -1.99      2.17
   -2    3   19     -0.07     -3.81
   -2    2   19      1.93      0.13
    0    2   19      0.87     -0.84
   -1    3   19      1.59      0.61
   -2    4   19      0.17      0.67
   -3    5   19     -1.23     -1.04
   -3    4   19     -3.66      2.12
   -3    3   19      5.85      0.16
    0    3   19      0.10     -0.10
   -1    4   19     -1.98      1.87
   -2    5   19      0.04     -0.03
   -3    6   19     -0.26      0.23
   -4    7   19      0.41      0.67
   -4    6   19      0.62      2.01
   -4    5   19      0.67     -2.22
   -4    4   19      1.65      0.00
    0    4   19      1.95     -3.68
   -1    5   19      1.40     -2.04
   -2    6   19      2.62      0.92
   -3    7   19     -2.05     -3.87
   -4    8   19     -1.56      2.86
   -5    9   19      0.69      0.49
   -5    8   19     -1.85     -2.30
   -5    7   19     -0.69     -1.28
   -5    6   19     -2.10     -2.22
   -5    5   19     -1.72      0.01
    0    5   19     -0.55      1.58
   -1    6   19     -0.15      1.88
   -2    7   19     -3.62     -0.20
   -3    8   19     -0.55     -0.98
   -4    9   19     -1.27     -0.48
   -5   10   19      2.48      1.28
   -6   11   19     -1.53      2.58
   -6   10   19     -2.22      0.93
   -6    9   19      1.66      0.18
   -6    8   19     -4.73      2.19
   -6    7   19      0.94     -1.05
   -6    6   19     -2.48      0.06
    0    6   19      0.84     -1.59
   -1    7   19      1.93      0.17
   -2    8   19     -0.30      0.43
   -3    9   19      0.46     -3.78
   -4   10   19     -4.93     -0.96
   -5   11   19     -0.71      3.40
   -6   12   19     -1.14     -1.00
   -7   12   19     -1.39     -2.62
   -7   11   19     -2.79     -0.73
   -7   10   19      1.09     -3.69
   -7    9   19     -1.64      0.39
   -7    8   19      0.42     -1.22
   -7    7   19     -1.39      0.08
    0    7   19     -0.84      0.74
   -1    8   19     -0.71     -0.40
   -2    9   19     -1.98      0.72
   -3   10   19      0.51     -0.91
   -4   11   19     -0.77     -1.42
   -5   12   19      2.30      1.53
   -8   12   19      0.73     -1.91
   -8   11   19     -1.06      2.11
   -8   10   19     -1.44     -2.58
   -8    9   19      1.98     -1.00
   -8    8   19      0.16      0.00
    0    8   19      1.10     -1.60
   -1    9   19     -1.48      1.79
   -2   10   19      0.22     -0.24
   -3   11   19     -1.65     -2.92
   -4   12   19      1.41      0.60
   -9   12   19      1.06      1.46
   -9   11   19     -2.73      0.94
   -9   10   19     -0.85     -2.73
   -9    9   19     -2.63      0.03
    0    9   19      1.09     -2.56
   -1   10   19     -1.82      0.41
   -2   11   19     -1.69     -1.40
   -3   12   19     -0.55      1.14
  -10   11   19      0.61     -1.37
  -10   10   19     -2.40     -0.02
    0   10   19      0.85     -0.97
   -1   11   19      0.33     -1.30
  -11   11   19     11.32     -0.10
   -1    1   20     -1.11      0.07
    0    1   20      1.54      2.77
   -1    2   20      3.34     -3.06
   -2    3   20     -1.42      0.35
   -2    2   20     -1.95     -0.09
    0    2   20     -1.85     -2.08
   -1    3   20     -2.35      1.11
   -2    4   20      0.12     -1.63
   -3    5   20      2.20     -0.03
   -3    4   20     -0.40      3.54
   -3    3   20     -0.53      0.07
    0    3   20     -1.85     -3.16
   -1    4   20      1.55     -1.98
   -2    5   20     -3.14     -3.93
   -3    6   20     -1.43      2.58
   -4    7   20     -1.43      1.38
   -4    6   20      1.70     -1.92
   -4    5   20     -1.15     -0.93
   -4    4   20     -2.96      0.05
    0    4   20     -1.75     -3.48
   -1    5   20     -2.69     -0.94
   -2    6   20     -1.89     -1.92
   -3    7   20     -0.53      0.05
   -4    8   20      2.10      0.35
   -5    9   20      1.97     -4.04
   -5    8   20      0.47     -1.44
   -5    7   20      1.45      0.63
   -5    6   20     -0.88     -1.37
   -5    5   20      1.34     -0.11
    0    5   20     -0.09      0.09
   -1    6   20      3.00      0.09
   -2    7   20     -0.55     -1.10
   -3    8   20     -1.90      1.85
   -4    9   20     -1.79      2.38
   -5   10   20      0.64     -0.71
   -6   11   20      0.45     -2.02
   -6   10   20      5.86      1.92
   -6    9   20      1.45      0.28
   -6    8   20      0.26      1.64
   -6    7   20      1.63      3.26
   -6    6   20      0.41      0.01
    0    6   20      0.78      1.17
   -1    7   20     -2.06     -1.41
   -2    8   20      1.79     -0.73
   -3    9   20      1.01     -1.02
   -4   10   20      2.32      3.61
   -5   11   20      1.25     -1.21
   -6   12   20      2.14     -0.56
   -7   12   20      0.66     -0.52
   -7   11   20      2.01      0.96
   -7   10   20     -0.31      0.51
   -7    9   20      2.66     -0.59
   -7    8   20      0.59      0.40
   -7    7   20      0.72      0.05
    0    7   20      2.32      4.10
   -1    8   20     -0.72     -1.84
   -2    9   20      1.17      1.46
   -3   10   20     -0.14     -3.06
   -4   11   20      0.98     -1.01
   -5   12   20      0.73     -0.14
   -8   11   20     -0.06     -0.56
   -8   10   20      1.09      4.23
   -8    9   20      1.26     -0.15
   -8    8   20     -0.66     -0.09
    0    8   20     -1.77     -2.81
   -1    9   20     -3.34     -2.59
   -2   10   20      0.72     -0.24
   -3   11   20     -0.02      0.85
   -9   11   20      0.81      1.77
   -9   10   20      3.23      0.04
   -9    9   20      0.64     -0.08
    0    9   20      0.15      0.33
   -1   10   20     -1.12      0.77
   -2   11   20      0.11     -1.06
  -10   11   20      2.60      2.77
  -10   10   20      1.59      0.00
    0   10   20     -0.44     -0.87
    0    0   21      1.56      0.05
   -1    1   21     -4.92      0.00
    0    1   21      2.61      0.36
   -1    2   21      0.56      1.31
   -2    3   21      1.21     -0.66
   -2    2   21     -4.02     -0.23
    0    2   21      0.44     -0.14
   -1    3   21     -2.46      1.61
   -2    4   21     -1.21      2.14
   -3    5   21     -1.17     -0.71
   -3    4   21      4.91      0.19
   -3    3   21     -2.33     -0.04
    0    3   21      1.12     -0.19
   -1    4   21      2.35      0.15
   -2    5   21     -1.98      1.14
   -3    6   21      3.63      2.92
   -4    7   21      0.69     -2.19
   -4    6   21      1.00      1.06
   -4    5   21      0.62     -4.85
   -4    4   21      3.34     -0.08
    0    4   21      2.77      0.33
   -1    5   21      3.15      0.18
   -2    6   21     -0.24      1.09
   -3    7   21      3.20      0.10
   -4    8   21      1.24     -0.95
   -5    9   21      1.35     -0.80
   -5    8   21     -1.96     -1.31
   -5    7   21      1.80     -0.72
   -5    6   21     -0.10      2.15
   -5    5   21      1.59     -0.08
    0    5   21      1.84      0.15
   -1    6   21      3.33     -5.90
   -2    7   21     -0.12      0.73
   -3    8   21      1.16     -1.31
   -4    9   21      4.97     -2.18
   -5   10   21      2.93      0.65
   -6   11   21      0.06      1.90
   -6   10   21     -1.33      0.52
   -6    9   21     -0.83      1.30
   -6    8   21     -1.11     -0.53
   -6    7   21     -1.06      1.50
   -6    6   21      0.21      0.11
    0    6   21      4.42      0.05
   -1    7   21      0.50     -0.19
   -2    8   21     -0.22      0.84
   -3    9   21     -3.50     -2.45
   -4   10   21      0.95     -3.56
   -5   11   21     -1.45     -0.59
   -7   11   21     -0.85     -1.85
   -7   10   21     -0.83     -2.11
   -7    9   21      2.07     -1.31
   -7    8   21      1.31     -4.30
   -7    7   21      3.47     -0.02
    0    7   21      1.15      0.14
   -1    8   21      0.22     -0.49
   -2    9   21      2.05      1.94
   -3   10   21      1.08      0.98
   -4   11   21      2.64      1.11
   -8   11   21      0.16     -2.09
   -8   10   21     -1.84      2.90
   -8    9   21      2.91      1.19
   -8    8   21      1.25     -0.08
    0    8   21      0.77      0.13
   -1    9   21     -0.41      1.70
   -2   10   21      1.26      0.38
   -3   11   21      1.23      0.13
   -9   10   21      1.28      0.13
   -9    9   21     -0.27      0.00
    0    9   21      4.95     -0.24
   -1   10   21      0.54     -2.05
   -1    1   22      3.69     -0.04
    0    1   22     -0.50      1.42
   -1    2   22     -3.06     -3.66
   -2    3   22      2.07     -3.36
   -2    2   22      3.29      0.16
    0    2   22      0.35     -1.30
   -1    3   22      2.42      2.10
   -2    4   22     -0.45     -0.74
   -3    5   22     -0.17      3.12
   -3    4   22      2.93      1.57
   -3    3   22      4.37      0.06
    0    3   22      1.39     -2.18
   -1    4   22     -1.09     -2.24
   -2    5   22     -0.25     -0.38
   -3    6   22      3.68     -2.35
   -4    7   22     -1.19     -0.28
   -4    6   22     -1.80     -0.49
   -4    5   22     -2.35      1.25
   -4    4   22     -4.85     -0.14
    0    4   22      1.45     -2.86
   -1    5   22     -3.86      0.88
   -2    6   22     -0.20      1.09
   -3    7   22     -0.55      0.32
   -4    8   22      0.01     -0.18
   -5    9   22     -2.33     -2.77
   -5    8   22      0.68      1.74
   -5    7   22     -3.17     -0.18
   -5    6   22      1.01      1.27
   -5    5   22     -3.69      0.17
    0    5   22     -0.49      0.43
   -1    6   22      1.15     -2.04
   -2    7   22      0.67      6.19
   -3    8   22      0.55     -0.77
   -4    9   22      0.44      2.21
   -5   10   22     -2.71      1.12
   -6   10   22      2.94     -1.46
   -6    9   22      1.62     -0.17
   -6    8   22      1.46      0.50
   -6    7   22     -0.35     -0.08
   -6    6   22     -2.10     -0.17
    0    6   22      1.32     -2.14
   -1    7   22     -1.26      0.22
   -2    8   22      1.61      0.35
   -3    9   22      2.85     -0.43
   -4   10   22      3.72      1.76
   -7   10   22     -0.08     -2.17
   -7    9   22      0.87      0.60
   -7    8   22     -0.47      0.09
   -7    7   22      1.41     -0.20
    0    7   22     -0.27      0.70
   -1    8   22     -2.46     -0.79
   -2    9   22      1.11     -0.99
   -3   10   22      2.26     -3.31
   -8   10   22     -3.19      0.35
   -8    9   22     -0.72      2.94
   -8    8   22     -3.34      0.00
    0    8   22     -0.05     -0.18
   -1    9   22     -0.43     -0.41
   -2   10   22      0.63     -0.91
   -9    9   22      1.72     -0.11
    0    9   22     -0.76      1.38
   -1    1   23     -7.27      0.16
    0    1   23      1.75      3.22
   -1    2   23      0.40     -1.52
   -2    3   23     -2.24      2.81
   -2    2   23      2.11     -0.09
    0    2   23     -0.60     -1.15
   -1    3   23     -0.53     -0.82
   -2    4   23     -1.27      0.87
   -3    5   23     -2.02     -0.16
   -3    4   23     -3.66      4.94
   -3    3   23     -3.33      0.10
    0    3   23     -0.10     -0.41
   -1    4   23     -1.96      3.22
   -2    5   23     -4.23     -1.04
   -3    6   23     -1.15     -3.27
   -4    7   23     -2.36     -0.50
   -4    6   23     -1.48     -0.56
   -4    5   23     -3.46     -2.05
   -4    4   23     -1.52      0.05
    0    4   23      1.16      2.22
   -1    5   23      3.16      1.73
   -2    6   23      2.87     -0.14
   -3    7   23     -0.48      1.72
   -4    8   23     -1.35     -0.67
   -5    9   23     -0.02     -0.81
   -5    8   23      0.29     -2.69
   -5    7   23     -0.53      0.41
   -5    6   23      0.82     -1.52
   -5    5   23     -0.59      0.29
    0    5   23     -1.78     -3.32
   -1    6   23     -2.40      1.56
   -2    7   23     -2.41      0.47
   -3    8   23     -1.74     -3.15
   -4    9   23     -1.36     -3.13
   -5   10   23      2.36     -0.46
   -6    9   23     -2.62     -2.19
   -6    8   23      0.84      0.10
   -6    7   23     -1.18     -0.35
   -6    6   23      0.53      0.00
    0    6   23      0.55      1.74
   -1    7   23     -0.82      2.83
   -2    8   23     -1.39     -0.35
   -3    9   23     -2.84      0.03
   -7    9   23     -3.31     -1.81
   -7    8   23     -0.08     -2.04
   -7    7   23     -2.22      0.05
    0    7   23     -0.91     -1.60
   -1    8   23     -2.07      0.22
   -2    9   23      2.06     -1.05
   -8    9   23      0.42      0.13
   -8    8   23      1.90      0.06
    0    8   23     -0.64     -0.89
   -1    9   23      1.72     -1.63
    0    0   24     -2.69     -0.11
   -1    1   24     -2.65      0.06
    0    1   24     -1.45     -0.09
   -1    2   24     -2.43      0.07
   -2    3   24     -1.84      1.57
   -2    2   24     -0.53      0.05
    0    2   24     -2.17      0.20
   -1    3   24     -2.93      0.43
   -2    4   24     -4.57     -0.95
   -3    5   24     -0.94     -0.91
   -3    4   24     -2.13      2.12
   -3    3   24     -0.45     -0.36
    0    3   24      3.05     -0.19
   -1    4   24      2.10     -3.25
   -2    5   24     -0.05     -1.27
   -3    6   24      2.13      1.00
   -4    7   24     -0.51      1.58
   -4    6   24      1.07     -0.60
   -4    5   24     -0.65     -2.69
   -4    4   24      2.18      0.05
    0    4   24     -3.42     -0.02
   -1    5   24      0.48     -3.22
   -2    6   24      0.26     -2.67
   -3    7   24      0.65     -0.15
   -4    8   24      1.04     -2.79
   -5    9   24      1.23     -0.80
   -5    8   24     -0.17     -1.23
   -5    7   24     -0.89     -1.22
   -5    6   24      0.33      2.57
   -5    5   24      1.10      0.10
    0    5   24      1.39      0.38
   -1    6   24      1.95      1.98
   -2    7   24     -0.25      0.13
   -3    8   24     -0.60     -1.35
   -4    9   24     -0.05      1.19
   -6    9   24      0.44     -1.38
   -6    8   24     -1.02     -0.36
   -6    7   24      0.43     -2.02
   -6    6   24      1.73      0.00
    0    6   24     -2.30     -0.08
   -1    7   24      0.19     -0.51
   -2    8   24     -0.10     -3.35
   -7    8   24      1.55      2.04
   -7    7   24     -0.60      0.01
    0    7   24     -1.08     -0.18
   -1    8   24     -0.67     -0.55
   -1    1   25      1.68     -0.09
    0    1   25     -1.05      2.07
   -1    2   25      0.47      0.40
   -2    3   25     -0.44      1.55
   -2    2   25      0.60      0.08
    0    2   25      1.40     -2.71
   -1    3   25     -1.88     -3.40
   -2    4   25     -2.04     -0.51
   -3    5   25      1.09     -1.37
   -3    4   25      1.72     -2.19
   -3    3   25      1.57      0.10
    0    3   25      3.90     -6.57
   -1    4   25      1.27     -2.69
   -2    5   25     -0.34     -1.63
   -3    6   25      0.23     -2.20
   -4    7   25     -3.47     -2.95
   -4    6   25      0.24     -1.40
   -4    5   25      1.58      0.09
   -4    4   25      1.48      1.47
    0    4   25      0.31     -0.13
   -1    5   25      2.19     -0.91
   -2    6   25     -2.28     -0.13
   -3    7   25     -1.70     -0.33
   -4    8   25     -0.83     -2.69
   -5    8   25     -0.92     -1.64
   -5    7   25     -0.71     -0.70
   -5    6   25      0.19      1.64
   -5    5   25     -0.52      0.26
    0    5   25      2.72     -4.56
   -1    6   25     -0.32     -1.65
   -2    7   25     -0.59     -1.91
   -3    8   25      0.93     -1.84
   -6    7   25     -2.22     -1.36
   -6    6   25      0.17      0.32
    0    6   25     -1.16      1.83
   -1    7   25      0.42     -0.42
   -7    7   25     -1.26      0.07
    0    7   25      0.43     -0.72
   -1    1   26      7.09     -0.07
    0    1   26     -0.14     -0.66
   -1    2   26     -3.35      0.56
   -2    3   26     -1.51      1.63
   -2    2   26      0.25      0.14
    0    2   26     -1.47     -2.64
   -1    3   26      0.02     -0.58
   -2    4   26      0.86     -1.76
   -3    5   26     -1.32      0.37
   -3    4   26     -0.11     -0.60
   -3    3   26      0.30      0.18
    0    3   26      1.24      2.71
   -1    4   26     -1.97      3.12
   -2    5   26      0.35      0.89
   -3    6   26     -0.68      0.85
   -4    6   26     -1.36     -0.03
   -4    5   26     -1.05      2.14
   -4    4   26      0.86      0.10
    0    4   26      1.32      2.39
   -1    5   26     -2.12     -0.01
   -2    6   26     -1.75      0.66
   -5    6   26     -1.01      0.48
   -5    5   26     -1.52     -0.47
    0    5   26      0.38      1.14
   -1    6   26      0.00      0.04
    0    0   27      3.46     -0.26
   -1    1   27      0.94     -0.07
    0    1   27      3.62      0.07
   -1    2   27     -0.55      1.44
   -2    3   27      0.23     -0.61
   -2    2   27     -4.09      0.03
    0    2   27     -1.59     -0.01
   -1    3   27      2.79     -2.51
   -2    4   27      1.17     -1.71
   -3    5   27     -0.48      1.63
   -3    4   27     -0.91     -0.37
   -3    3   27      0.61      0.22
    0    3   27      2.41      0.04
   -1    4   27     -1.35     -1.20
   -2    5   27      1.25     -0.21
   -4    5   27     -0.80     -0.17
   -4    4   27      1.82      0.01
    0    4   27     -3.64     -0.09
   -1    5   27     -1.15     -0.91
   -1    1   28     -1.94     -0.01
    0    1   28     -1.56      2.96
   -1    2   28     -3.43     -3.92
   -2    2   28      0.38      0.04
    0    2   28     -0.32      0.95
   -7   17    0      2.56     -3.51
  -10   17    1     -0.86     -0.08
   -7   17    1     -0.62     -1.59
  -10   17    2     -1.47     -0.29
   -7   17    2     -0.97      0.31
  -13   16    3     -2.82     -0.33
   -3   16    3      0.78      1.97
  -10   17    3      0.07      2.18
   -9   17    3     -0.38     -0.41
   -8   17    3     -1.77     -1.70
   -7   17    3      0.18      1.54
  -13   16    4      0.52      1.86
   -3   16    4      2.08     -1.17
   -9   17    4      1.69      4.41
   -8   17    4      0.89     -2.09
  -14   15    6      2.46      2.45
   -1   15    6      0.89      1.32
  -12   16    7      2.15      0.29
   -4   16    7      1.87      0.65
  -13   15    9     -2.22     -1.02
   -2   15    9     -2.00      1.46
  -11   16    9     -0.03     -2.57
   -5   16    9      1.45     -2.17
   -9   16   10     -1.24     -0.32
   -7   16   10     -1.43     -0.52
  -12   15   11     -0.73      0.92
   -3   15   11      0.46      0.35
  -13   14   12      1.72      1.05
   -1   14   12      0.68     -0.81
  -11   15   12     -0.50     -2.17
   -4   15   12     -0.59     -2.48
  -10   15   13      0.67     -1.70
   -5   15   13      0.49     -0.18
  -13   13   14     -3.79     -0.01
    0   13   14      1.81      3.17
   -8   15   14      0.17      1.40
   -7   15   14      1.72      1.05
   -9   14   16      0.00      0.43
   -5   14   16     -0.07     -1.74
  -12   12   17      0.31      0.00
    0   12   17      2.36      3.81
  -11   12   18      1.73      4.68
   -1   12   18      1.35     -0.89
   -9   13   18      1.63      1.59
   -4   13   18      0.99      2.04
    0   11   19      2.45     -4.14
  -10   12   19     -0.34     -0.42
   -2   12   19      3.21      1.17
   -1   11   20      0.45     -0.56
   -8   12   20      2.70      2.97
   -4   12   20      2.33      2.17
  -10   10   21     -0.28     -0.04
    0   10   21     -1.21      0.20
   -9   11   21     -0.82     -2.14
   -2   11   21      2.12     -0.33
   -9   10   22     -1.47     -1.69
   -1   10   22     -0.23      0.32
   -6   11   22      0.52     -1.50
   -5   11   22     -1.03      0.54
   -7   10   23     -0.88     -1.35
   -6   10   23      1.50      1.17
   -4   10   23     -2.92     -1.40
   -3   10   23     -1.38      0.18
   -8    8   24     -1.46      0.04
    0    8   24      0.84      0.04
   -3    9   24      2.19     -1.43
   -6    8   25     -0.44      1.17
   -2    8   25     -0.86     -1.51
   -6    6   26     -0.43      0.03
    0    6   26      0.20      0.30
   -5    7   26     -2.01      0.82
   -4    7   26     -0.98     -0.26
   -3    7   26      0.12     -1.46
   -2    7   26      0.34     -1.22
   -5    5   27     -0.65      0.18
    0    5   27     -1.56     -0.10
   -3    3   28      0.55      0.00
   -2    3   28     -0.51     -0.41
   -1    3   28      0.95     -2.15
    0    3   28     -0.27      0.68
    0    0    0      0.00      0.00
# SQUEEZE RESULTS (Version = 230318)
# Note: Data are Listed for all Voids in the P1 Unit Cell
# i.e. Centre of Gravity, Solvent Accessible Volume,
# Recovered number of Electrons in the Void and
# Details about the Squeezed Material
loop_
  _platon_squeeze_void_nr
  _platon_squeeze_void_average_x
  _platon_squeeze_void_average_y
  _platon_squeeze_void_average_z
  _platon_squeeze_void_volume
  _platon_squeeze_void_count_electrons
  _platon_squeeze_void_content
   1  0.000  0.000  0.000      1927       544 ' '
_platon_squeeze_void_probe_radius                  1.20
_platon_squeeze_details
)
TITL ww_a      P 31 2 1     R = 0.06
CELL   13.8165   13.8165   22.9840     90.00     90.00    120.00
SPGR P3121
# Solvent Accessible Volume =      1931
# Electrons Found in S.A.V. =       543
# Note: Atoms in Void are Labelled as Cxxx and Qxxx for all Others
C101 0.594 0.110 0.564 !       9.48 eA-3
C102 0.100 0.518 0.226 !       3.37 eA-3
C103 0.997 1.000 0.498 !       3.36 eA-3
C104 0.486 0.077 0.760 !       3.05 eA-3
C105 0.065 0.673 0.742 !       2.78 eA-3
C106 0.486 0.372 0.439 !       2.54 eA-3
C107 0.971 0.736 0.507 !       2.37 eA-3
C108 0.497 0.155 0.820 !       2.29 eA-3
C109 0.297 0.362 0.134 !       2.28 eA-3
C110 0.420 0.155 0.818 !       2.21 eA-3
C111 0.846 0.919 0.582 !       2.20 eA-3
C112 0.301 0.406 0.109 !       2.04 eA-3
C113 0.610 0.746 0.544 !       2.00 eA-3
C114 0.130 0.456 0.204 !       1.99 eA-3
C115 1.001 0.443 0.051 !       1.96 eA-3
C116 0.827 0.714 0.694 !       1.88 eA-3
C117 0.612 0.688 0.579 !       1.79 eA-3
C118 0.932 0.123 0.337 !       1.57 eA-3
C119 0.921 0.031 0.352 !       1.44 eA-3
C120 0.310 0.922 0.872 !       1.44 eA-3
C121 0.129 0.781 0.774 !       1.42 eA-3
C122 0.952 0.044 0.117 !       1.41 eA-3
C123 0.036 0.123 0.028 !       1.38 eA-3
C124 0.121 0.018 0.924 !       1.38 eA-3
C125 0.969 0.158 0.301 !       1.33 eA-3
C126 0.661 0.638 0.382 !       1.31 eA-3
C127 0.184 0.999 0.919 !       1.29 eA-3
C128 0.044 0.299 0.234 !       1.29 eA-3
C129 0.624 0.186 0.829 !       1.27 eA-3
C130 0.999 0.346 0.166 !       1.26 eA-3
C131 0.868 0.640 0.586 !       1.25 eA-3
C132 0.583 0.480 0.498 !       1.23 eA-3
C133 0.204 0.953 0.665 !       1.23 eA-3
Q134 0.979 0.359 0.994 !       1.21 eA-3
C135 0.778 0.203 0.237 !       1.19 eA-3
Q136 0.514 0.113 0.545 !       1.19 eA-3
C137 0.824 0.972 0.522 !       1.17 eA-3
C138 0.031 0.067 0.061 !       1.13 eA-3
C139 0.878 0.110 0.400 !       1.12 eA-3
C140 0.082 0.047 0.823 !       1.11 eA-3
C141 0.926 0.726 0.554 !       1.10 eA-3
C142 0.245 0.610 0.158 !       1.08 eA-3
Q143 0.465 0.499 0.773 !       1.08 eA-3
C144 0.277 0.207 0.092 !       1.06 eA-3
C145 0.966 0.988 0.436 !       1.05 eA-3
Q146 0.907 0.036 0.521 !       1.03 eA-3
Q147 0.615 0.984 0.148 !       1.02 eA-3
C148 0.682 0.842 0.340 !       1.02 eA-3
C149 0.957 0.932 0.655 !       0.98 eA-3
C150 0.983 0.296 0.086 !       0.96 eA-3
C151 0.650 0.781 0.344 !       0.94 eA-3
C152 0.226 0.839 0.742 !       0.94 eA-3
Q153 0.169 0.667 0.444 !       0.94 eA-3
C154 0.020 0.830 0.566 !       0.93 eA-3
C155 0.752 0.671 0.662 !       0.93 eA-3
Q156 0.028 0.328 0.532 !       0.93 eA-3
C157 0.011 0.735 0.664 !       0.91 eA-3
C158 0.035 0.857 0.605 !       0.90 eA-3
C159 0.615 0.665 0.414 !       0.90 eA-3
C160 0.668 0.749 0.603 !       0.90 eA-3
C161 0.996 0.016 0.051 !       0.90 eA-3
C162 0.208 0.375 0.157 !       0.88 eA-3
Q163 0.870 0.747 0.767 !       0.88 eA-3
C164 0.280 0.969 0.678 !       0.87 eA-3
C165 0.153 0.157-0.002 !       0.87 eA-3
Q166 0.052 0.609 0.721 !       0.86 eA-3
C167 0.378 0.203 0.846 !       0.85 eA-3
C168 0.991 0.246 0.276 !       0.85 eA-3
C169 0.921 0.344 0.163 !       0.84 eA-3
Q170 0.643 0.731 0.046 !       0.83 eA-3
Q171 0.418 0.419 0.580 !       0.82 eA-3
C172 0.747 0.834 0.342 !       0.82 eA-3
C173 0.942 0.313 0.343 !       0.81 eA-3
C174 0.239 0.988 0.722 !       0.80 eA-3
Q175 0.702 0.374 0.143 !       0.80 eA-3
C176 0.511 0.593 0.466 !       0.80 eA-3
Q177 0.844 0.251 0.070 !       0.80 eA-3
Q178 0.840 0.919 0.245 !       0.79 eA-3
C179 0.125 0.952 0.851 !       0.79 eA-3
Q180 0.708 0.717 0.677 !       0.79 eA-3
Q181 0.274 0.347 0.952 !       0.79 eA-3
Q182 0.379 0.906 0.013 !       0.79 eA-3
C183 0.517 0.550 0.646 !       0.78 eA-3
C184 0.874 0.982 0.443 !       0.78 eA-3
C185 0.880 0.031 0.265 !       0.78 eA-3
Q186 0.986 0.280 0.995 !       0.78 eA-3
C187 0.296 0.312 0.914 !       0.77 eA-3
C188 0.417 0.984 0.843 !       0.77 eA-3
C189 0.159 0.238 0.992 !       0.77 eA-3
C190 0.187 0.280 0.964 !       0.76 eA-3
Q191 0.192 0.967 0.006 !       0.76 eA-3
Q192 0.518 0.355 0.954 !       0.76 eA-3
Q193 0.331 0.480 0.803 !       0.73 eA-3
C194 0.590 0.520 0.589 !       0.73 eA-3
Q195 0.951 0.659 0.813 !       0.73 eA-3
Q196 0.113 0.701 0.218 !       0.72 eA-3
Q197 0.751 0.703 0.866 !       0.72 eA-3
C198 0.689 0.984 0.288 !       0.72 eA-3
Q199 0.719 0.737 0.046 !       0.72 eA-3
)
;
_shelx_fab_checksum              77115
_olex2_submission_special_instructions 'No special instructions were received'
loop_
_space_group_symop_operation_xyz
'x, y, z'
'-y, x-y, z+1/3'
'-x+y, -x, z+2/3'
'y, x, -z'
'-x, -x+y, -z+1/3'
'x-y, -y, -z+2/3'
loop_
_atom_site_label
_atom_site_type_symbol
_atom_site_fract_x
_atom_site_fract_y
_atom_site_fract_z
_atom_site_U_iso_or_equiv
_atom_site_adp_type
_atom_site_occupancy
_atom_site_site_symmetry_order
_atom_site_calc_flag
_atom_site_refinement_flags_posn
_atom_site_refinement_flags_adp
Eu1 Eu 0.66626(3) 0.69514(3) 0.08980(2) 0.01285(8) Uani 1 1 d . .
O1 O 0.6037(4) 0.5210(3) 0.04823(18) 0.0246(13) Uani 1 1 d . U
O2 O 0.6765(4) 0.5096(4) -0.0366(2) 0.0257(12) Uani 1 1 d . .
O3 O 0.4202(5) 0.1857(4) 0.17416(18) 0.0270(11) Uani 1 1 d . .
O4 O 0.4909(5) 0.0773(5) 0.1761(2) 0.0510(17) Uani 1 1 d . .
O5 O 0.7317(4) -0.1207(4) 0.05338(19) 0.0275(13) Uani 1 1 d . .
O6 O 0.7258(5) -0.1764(4) -0.03829(19) 0.0318(12) Uani 1 1 d . .
O7 O 0.8786(5) 0.2778(5) -0.1726(2) 0.063(2) Uani 1 1 d . .
O8 O 0.9672(5) 0.1843(5) -0.1661(2) 0.0334(14) Uani 1 1 d . .
C1 C 0.6358(6) 0.4740(6) 0.0133(3) 0.0222(17) Uani 1 1 d . .
C2 C 0.6257(6) 0.3629(6) 0.0328(3) 0.0204(16) Uani 1 1 d . .
C3 C 0.5642(6) 0.3138(6) 0.0827(3) 0.0245(17) Uani 1 1 d . .
H3 H 0.530738 0.347247 0.103234 0.029 Uiso 1 1 calc R .
C4 C 0.5537(7) 0.2138(6) 0.1010(3) 0.0297(19) Uani 1 1 d . .
C5 C 0.4838(7) 0.1551(7) 0.1537(3) 0.0250(18) Uani 1 1 d . .
C6 C 0.6041(6) 0.1667(6) 0.0704(3) 0.0286(17) Uani 1 1 d . .
H6 H 0.597037 0.099915 0.083701 0.034 Uiso 1 1 calc R .
C7 C 0.6655(6) 0.2144(6) 0.0202(3) 0.0272(18) Uani 1 1 d . .
C8 C 0.6758(6) 0.3163(6) 0.0015(3) 0.0249(18) Uani 1 1 d . .
H8 H 0.716265 0.351367 -0.031878 0.030 Uiso 1 1 calc R .
C9 C 0.7201(6) 0.1593(6) -0.0122(3) 0.0280(18) Uani 1 1 d . U
C10 C 0.7138(7) 0.0606(6) 0.0085(3) 0.0277(18) Uani 1 1 d . .
H10 H 0.679922 0.031875 0.044217 0.033 Uiso 1 1 calc R .
C11 C 0.7562(6) 0.0055(6) -0.0224(3) 0.0222(17) Uani 1 1 d . .
C12 C 0.8154(6) 0.0514(6) -0.0738(3) 0.0291(19) Uani 1 1 d . .
H12 H 0.846752 0.015582 -0.094146 0.035 Uiso 1 1 calc R .
C13 C 0.8270(6) 0.1520(6) -0.0940(3) 0.0265(18) Uani 1 1 d . U
C14 C 0.7803(6) 0.2060(7) -0.0628(3) 0.0320(16) Uani 1 1 d . .
H14 H 0.789781 0.273769 -0.076213 0.038 Uiso 1 1 calc R .
C15 C 0.8958(7) 0.2070(7) -0.1477(3) 0.034(2) Uani 1 1 d . .
C16 C 0.7365(6) -0.1053(6) 0.0003(3) 0.0240(17) Uani 1 1 d . .
loop_
_atom_site_aniso_label
_atom_site_aniso_U_11
_atom_site_aniso_U_22
_atom_site_aniso_U_33
_atom_site_aniso_U_23
_atom_site_aniso_U_13
_atom_site_aniso_U_12
Eu1 0.01483(16) 0.01371(15) 0.01189(12) 0.00083(12) 0.00048(13) 0.00854(13)
O1 0.041(4) 0.022(2) 0.021(2) -0.0075(19) 0.000(2) 0.024(2)
O2 0.040(3) 0.019(3) 0.023(3) 0.012(2) 0.018(2) 0.018(3)
O3 0.036(3) 0.030(3) 0.023(2) 0.0052(19) 0.013(2) 0.022(3)
O4 0.083(4) 0.052(4) 0.045(3) 0.031(3) 0.043(3) 0.054(4)
O5 0.043(3) 0.024(3) 0.020(2) 0.007(2) 0.007(2) 0.020(2)
O6 0.044(4) 0.028(3) 0.033(3) -0.009(2) -0.001(3) 0.025(3)
O7 0.107(5) 0.077(6) 0.050(4) 0.052(3) 0.059(3) 0.079(5)
O8 0.038(4) 0.039(3) 0.037(3) 0.015(3) 0.015(3) 0.030(3)
C1 0.024(4) 0.007(3) 0.029(4) 0.003(3) 0.000(3) 0.004(3)
C2 0.031(4) 0.011(3) 0.021(4) 0.003(3) 0.004(3) 0.012(3)
C3 0.033(4) 0.022(4) 0.023(4) 0.004(3) 0.011(3) 0.017(4)
C4 0.040(5) 0.026(4) 0.022(4) 0.005(3) 0.008(4) 0.015(4)
C5 0.029(4) 0.020(4) 0.029(4) -0.002(3) 0.007(3) 0.015(4)
C6 0.045(5) 0.013(4) 0.030(4) 0.010(3) 0.021(3) 0.016(4)
C7 0.038(5) 0.017(4) 0.028(4) 0.008(3) 0.013(3) 0.014(3)
C8 0.031(5) 0.020(4) 0.025(4) 0.010(3) 0.013(4) 0.014(4)
C9 0.029(2) 0.028(2) 0.027(2) -0.0001(13) 0.0014(13) 0.0143(14)
C10 0.048(5) 0.017(4) 0.023(4) 0.006(3) 0.019(4) 0.020(4)
C11 0.029(4) 0.025(4) 0.017(4) 0.007(3) 0.004(3) 0.017(4)
C12 0.041(5) 0.027(4) 0.024(4) 0.003(3) 0.009(3) 0.021(4)
C13 0.037(4) 0.029(4) 0.020(4) 0.011(3) 0.015(3) 0.022(4)
C14 0.049(4) 0.024(5) 0.033(4) 0.006(4) 0.012(3) 0.026(4)
C15 0.042(6) 0.027(5) 0.032(4) 0.012(4) 0.017(4) 0.018(4)
C16 0.026(4) 0.020(4) 0.035(4) 0.005(3) 0.006(3) 0.019(3)
loop_
_atom_type_symbol
_atom_type_description
_atom_type_scat_dispersion_real
_atom_type_scat_dispersion_imag
_atom_type_scat_source
C C 0.0033 0.0016 'International Tables Vol C Tables 4.2.6.8 and 6.1.1.4'
H H 0.0000 0.0000 'International Tables Vol C Tables 4.2.6.8 and 6.1.1.4'
Eu Eu -0.1578 3.6682 'International Tables Vol C Tables 4.2.6.8 and 6.1.1.4'
O O 0.0106 0.0060 'International Tables Vol C Tables 4.2.6.8 and 6.1.1.4'
loop_
_geom_angle_atom_site_label_1
_geom_angle_atom_site_label_2
_geom_angle_atom_site_label_3
_geom_angle
_geom_angle_site_symmetry_1
_geom_angle_site_symmetry_3
O1 Eu1 Eu1 59.88(11) . 4
O1 Eu1 O2 80.19(17) . 4
O1 Eu1 O3 132.35(18) . 5_665
O1 Eu1 O4 82.49(18) . 5_665
O1 Eu1 O5 135.12(15) . 1_565
O1 Eu1 O6 78.94(18) . 4_655
O1 Eu1 O7 76.95(18) . 2_655
O1 Eu1 O8 125.38(17) . 2_655
O1 Eu1 C5 108.0(2) . 5_665
O1 Eu1 C15 101.7(2) . 2_655
O1 Eu1 C16 115.31(17) . 1_565
O2 Eu1 Eu1 66.97(11) 4 4
O2 Eu1 O3 77.38(16) 4 5_665
O2 Eu1 O4 77.42(19) 4 5_665
O2 Eu1 O7 142.87(18) 4 2_655
O2 Eu1 O8 153.08(17) 4 2_655
O2 Eu1 C5 77.78(19) 4 5_665
O2 Eu1 C15 159.0(2) 4 2_655
O2 Eu1 C16 68.20(18) 4 1_565
O3 Eu1 Eu1 139.80(10) 5_665 4
O3 Eu1 O4 51.87(18) 5_665 5_665
O3 Eu1 O8 78.23(17) 5_665 2_655
O3 Eu1 C5 26.03(19) 5_665 5_665
O3 Eu1 C15 86.48(19) 5_665 2_655
O3 Eu1 C16 94.29(17) 5_665 1_565
O4 Eu1 Eu1 131.08(15) 5_665 4
O4 Eu1 O8 96.2(2) 5_665 2_655
O4 Eu1 C5 25.97(19) 5_665 5_665
O4 Eu1 C15 82.1(2) 5_665 2_655
O4 Eu1 C16 136.69(19) 5_665 1_565
O5 Eu1 Eu1 75.66(10) 1_565 4
O5 Eu1 O2 76.98(18) 1_565 4
O5 Eu1 O3 78.83(16) 1_565 5_665
O5 Eu1 O4 128.14(18) 1_565 5_665
O5 Eu1 O7 138.69(17) 1_565 2_655
O5 Eu1 O8 87.27(16) 1_565 2_655
O5 Eu1 C5 104.20(19) 1_565 5_665
O5 Eu1 C15 113.2(2) 1_565 2_655
O5 Eu1 C16 19.81(16) 1_565 1_565
O6 Eu1 Eu1 52.35(11) 4_655 4
O6 Eu1 O2 118.36(15) 4_655 4
O6 Eu1 O3 148.5(2) 4_655 5_665
O6 Eu1 O4 152.7(2) 4_655 5_665
O6 Eu1 O5 78.8(2) 4_655 1_565
O6 Eu1 O7 85.4(2) 4_655 2_655
O6 Eu1 O8 78.80(17) 4_655 2_655
O6 Eu1 C5 163.67(19) 4_655 5_665
O6 Eu1 C15 82.3(2) 4_655 2_655
O6 Eu1 C16 70.10(19) 4_655 1_565
O7 Eu1 Eu1 122.47(16) 2_655 4
O7 Eu1 O3 97.12(19) 2_655 5_665
O7 Eu1 O4 70.9(2) 2_655 5_665
O7 Eu1 O8 52.08(17) 2_655 2_655
O7 Eu1 C5 82.0(2) 2_655 5_665
O7 Eu1 C15 26.1(2) 2_655 2_655
O7 Eu1 C16 148.69(19) 2_655 1_565
O8 Eu1 Eu1 130.23(13) 2_655 4
O8 Eu1 C5 85.3(2) 2_655 5_665
O8 Eu1 C15 26.1(2) 2_655 2_655
O8 Eu1 C16 102.58(18) 2_655 1_565
C5 Eu1 Eu1 143.96(16) 5_665 4
C5 Eu1 C15 81.8(2) 5_665 2_655
C5 Eu1 C16 117.5(2) 5_665 1_565
C15 Eu1 Eu1 132.19(17) 2_655 4
C15 Eu1 C16 127.1(2) 2_655 1_565
C16 Eu1 Eu1 56.07(13) 1_565 4
C1 O1 Eu1 139.6(4) . .
C1 O2 Eu1 130.0(5) . 4
C5 O3 Eu1 93.4(5) . 5_655
C5 O4 Eu1 93.1(5) . 5_655
C16 O5 Eu1 119.3(4) . 1_545
C16 O6 Eu1 166.5(4) . 4_545
C15 O7 Eu1 95.1(5) . 3_664
C15 O8 Eu1 91.0(5) . 3_664
O1 C1 O2 126.1(6) . .
O1 C1 C2 116.9(6) . .
O2 C1 C2 117.0(6) . .
C3 C2 C1 117.2(6) . .
C8 C2 C1 120.2(6) . .
C8 C2 C3 122.6(7) . .
C2 C3 H3 120.8 . .
C2 C3 C4 118.3(7) . .
C4 C3 H3 120.8 . .
C3 C4 C5 120.1(7) . .
C6 C4 C3 119.8(7) . .
C6 C4 C5 120.1(7) . .
O3 C5 Eu1 60.5(4) . 5_655
O3 C5 C4 119.5(7) . .
O4 C5 Eu1 60.9(4) . 5_655
O4 C5 O3 121.0(7) . .
O4 C5 C4 119.5(7) . .
C4 C5 Eu1 173.5(5) . 5_655
C4 C6 H6 118.7 . .
C4 C6 C7 122.7(7) . .
C7 C6 H6 118.7 . .
C6 C7 C8 117.4(7) . .
C6 C7 C9 120.8(6) . .
C8 C7 C9 121.8(6) . .
C2 C8 C7 119.2(6) . .
C2 C8 H8 120.4 . .
C7 C8 H8 120.4 . .
C10 C9 C7 121.3(6) . .
C14 C9 C7 120.9(7) . .
C14 C9 C10 117.8(7) . .
C9 C10 H10 119.1 . .
C11 C10 C9 121.9(6) . .
C11 C10 H10 119.1 . .
C10 C11 C12 120.3(6) . .
C10 C11 C16 118.3(6) . .
C12 C11 C16 121.4(6) . .
C11 C12 H12 120.6 . .
C11 C12 C13 118.9(7) . .
C13 C12 H12 120.6 . .
C12 C13 C14 120.3(6) . .
C12 C13 C15 120.2(7) . .
C14 C13 C15 119.4(7) . .
C9 C14 C13 120.6(8) . .
C9 C14 H14 119.7 . .
C13 C14 H14 119.7 . .
O7 C15 Eu1 58.8(4) . 3_664
O7 C15 C13 116.7(7) . .
O8 C15 Eu1 62.9(4) . 3_664
O8 C15 O7 121.5(7) . .
O8 C15 C13 121.8(7) . .
C13 C15 Eu1 173.5(6) . 3_664
O5 C16 Eu1 40.9(3) . 1_545
O5 C16 O6 125.3(6) . .
O5 C16 C11 118.9(6) . .
O6 C16 Eu1 85.1(4) . 1_545
O6 C16 C11 115.7(6) . .
C11 C16 Eu1 157.9(5) . 1_545
loop_
_geom_bond_atom_site_label_1
_geom_bond_atom_site_label_2
_geom_bond_distance
_geom_bond_site_symmetry_2
Eu1 Eu1 4.1853(7) 4
Eu1 O1 2.317(4) .
Eu1 O2 2.385(5) 4
Eu1 O3 2.465(4) 5_665
Eu1 O4 2.473(5) 5_665
Eu1 O5 2.386(4) 1_565
Eu1 O6 2.321(4) 4_655
Eu1 O7 2.441(5) 2_655
Eu1 O8 2.530(5) 2_655
Eu1 C5 2.826(8) 5_665
Eu1 C15 2.842(8) 2_655
Eu1 C16 3.179(7) 1_565
O1 C1 1.245(8) .
O2 C1 1.263(8) .
O3 C5 1.242(8) .
O4 C5 1.239(9) .
O5 C16 1.235(8) .
O6 C16 1.275(7) .
O7 C15 1.253(9) .
O8 C15 1.249(9) .
C1 C2 1.539(9) .
C2 C3 1.385(9) .
C2 C8 1.362(9) .
C3 H3 0.9300 .
C3 C4 1.381(10) .
C4 C5 1.508(10) .
C4 C6 1.361(10) .
C6 H6 0.9300 .
C6 C7 1.389(9) .
C7 C8 1.409(10) .
C7 C9 1.509(8) .
C8 H8 0.9300 .
C9 C10 1.406(10) .
C9 C14 1.388(9) .
C10 H10 0.9300 .
C10 C11 1.368(9) .
C11 C12 1.395(9) .
C11 C16 1.507(9) .
C12 H12 0.9300 .
C12 C13 1.398(9) .
C13 C14 1.403(10) .
C13 C15 1.510(9) .
C14 H14 0.9300 .
loop_
_geom_torsion_atom_site_label_1
_geom_torsion_atom_site_label_2
_geom_torsion_atom_site_label_3
_geom_torsion_atom_site_label_4
_geom_torsion
_geom_torsion_site_symmetry_1
_geom_torsion_site_symmetry_4
Eu1 O1 C1 O2 -49.4(11) . .
Eu1 O1 C1 C2 130.1(6) . .
Eu1 O2 C1 O1 -6.4(11) 4 .
Eu1 O2 C1 C2 174.1(4) 4 .
Eu1 O3 C5 O4 -7.6(8) 5_655 .
Eu1 O3 C5 C4 172.5(6) 5_655 .
Eu1 O4 C5 O3 7.6(8) 5_655 .
Eu1 O4 C5 C4 -172.5(6) 5_655 .
Eu1 O5 C16 O6 -11.6(11) 1_545 .
Eu1 O5 C16 C11 168.3(5) 1_545 .
Eu1 O6 C16 Eu1 0(2) 4_545 1_545
Eu1 O6 C16 O5 8(3) 4_545 .
Eu1 O6 C16 C11 -172(2) 4_545 .
Eu1 O7 C15 O8 -4.5(10) 3_664 .
Eu1 O7 C15 C13 174.6(6) 3_664 .
Eu1 O8 C15 O7 4.3(9) 3_664 .
Eu1 O8 C15 C13 -174.8(7) 3_664 .
O1 C1 C2 C3 11.3(10) . .
O1 C1 C2 C8 -169.0(6) . .
O2 C1 C2 C3 -169.2(7) . .
O2 C1 C2 C8 10.6(10) . .
C1 C2 C3 C4 179.8(7) . .
C1 C2 C8 C7 180.0(7) . .
C2 C3 C4 C5 -177.7(7) . .
C2 C3 C4 C6 0.5(12) . .
C3 C2 C8 C7 -0.3(11) . .
C3 C4 C5 O3 12.9(11) . .
C3 C4 C5 O4 -167.0(8) . .
C3 C4 C6 C7 -0.9(12) . .
C4 C6 C7 C8 0.7(11) . .
C4 C6 C7 C9 179.8(7) . .
C5 C4 C6 C7 177.3(7) . .
C6 C4 C5 O3 -165.2(7) . .
C6 C4 C5 O4 14.9(12) . .
C6 C7 C8 C2 -0.1(11) . .
C6 C7 C9 C10 -2.3(11) . .
C6 C7 C9 C14 179.1(7) . .
C7 C9 C10 C11 175.4(7) . .
C7 C9 C14 C13 -177.4(7) . .
C8 C2 C3 C4 0.1(11) . .
C8 C7 C9 C10 176.8(8) . .
C8 C7 C9 C14 -1.8(11) . .
C9 C7 C8 C2 -179.3(6) . .
C9 C10 C11 C12 5.3(12) . .
C9 C10 C11 C16 -174.4(7) . .
C10 C9 C14 C13 4.0(11) . .
C10 C11 C12 C13 -2.4(11) . .
C10 C11 C16 Eu1 -11.9(17) . 1_545
C10 C11 C16 O5 -32.7(11) . .
C10 C11 C16 O6 147.2(7) . .
C11 C12 C13 C14 0.5(11) . .
C11 C12 C13 C15 176.8(7) . .
C12 C11 C16 Eu1 168.3(10) . 1_545
C12 C11 C16 O5 147.6(7) . .
C12 C11 C16 O6 -32.5(10) . .
C12 C13 C14 C9 -1.4(11) . .
C12 C13 C15 O7 161.0(8) . .
C12 C13 C15 O8 -19.9(12) . .
C14 C9 C10 C11 -6.0(12) . .
C14 C13 C15 O7 -22.7(11) . .
C14 C13 C15 O8 156.4(8) . .
C15 C13 C14 C9 -177.7(7) . .
C16 C11 C12 C13 177.3(7) . .
loop_
_twin_individual_id
_twin_individual_mass_fraction_refined
1 0.99
2 0.01
