#------------------------------------------------------------------------------
#$Date: 2019-03-27 02:18:15 +0200 (Wed, 27 Mar 2019) $
#$Revision: 214361 $
#$URL: file:///home/coder/svn-repositories/cod/cif/7/04/94/7049478.cif $
#------------------------------------------------------------------------------
#
# This file is available in the Crystallography Open Database (COD),
# http://www.crystallography.net/
#
# All data on this site have been placed in the public domain by the
# contributors.
#
data_7049478
loop_
_publ_author_name
'Yao, Qingxia'
'Lu, Xiufang'
'Liu, Kaili'
'Ma, Chao'
'Su, Jie'
'Lin, Cong'
'Li, DaCheng'
'Dou, Jianmin'
'Sun, Junliang'
'Duan, Wen-zeng'
_publ_section_title
;
 An NHC-CuCl functionalized metal-organic framework for catalyzing
 \b-boration of \a,\b-unsaturated carbonyl compounds
;
_journal_name_full               'Dalton Transactions'
_journal_paper_doi               10.1039/C9DT00645A
_journal_year                    2019
_chemical_formula_moiety         'C19 H14 Cl0.31 Cu1.31 N2 O5 '
_chemical_formula_sum            'C19 H14 Cl0.31 Cu1.31 N2 O5'
_chemical_formula_weight         444.46
_space_group_crystal_system      orthorhombic
_space_group_IT_number           60
_space_group_name_Hall           -P2n2c
_space_group_name_H-M_alt        'P c a n'
_symmetry_space_group_name_Hall  '-P 2n 2c'
_symmetry_space_group_name_H-M   'P c a n'
_atom_sites_solution_hydrogens   geom
_atom_sites_solution_primary     direct
_atom_sites_solution_secondary   difmap
_audit_creation_method           SHELXL-2014/7
_audit_update_record
;
2017-09-05 deposited with the CCDC.    2019-03-25 downloaded from the CCDC.
;
_cell_angle_alpha                90
_cell_angle_beta                 90
_cell_angle_gamma                90
_cell_formula_units_Z            8
_cell_length_a                   13.2144(15)
_cell_length_b                   22.3311(11)
_cell_length_c                   23.9725(12)
_cell_measurement_reflns_used    2910
_cell_measurement_temperature    173(2)
_cell_measurement_theta_max      26.4190
_cell_measurement_theta_min      3.3210
_cell_volume                     7074.1(9)
_computing_structure_refinement  'SHELXL-2014/7 (Sheldrick, 2014)'
_computing_structure_solution    'SHELXL-2014/7 (Sheldrick, 2014)'
_diffrn_ambient_temperature      173(2)
_diffrn_measured_fraction_theta_full 0.993
_diffrn_measured_fraction_theta_max 0.993
_diffrn_measurement_device_type  'CCD area detector'
_diffrn_measurement_method       'phi and omega scans'
_diffrn_radiation_type           MoK\a
_diffrn_radiation_wavelength     0.71073
_diffrn_reflns_av_R_equivalents  0.0377
_diffrn_reflns_av_unetI/netI     0.0584
_diffrn_reflns_Laue_measured_fraction_full 0.993
_diffrn_reflns_Laue_measured_fraction_max 0.993
_diffrn_reflns_limit_h_max       10
_diffrn_reflns_limit_h_min       -17
_diffrn_reflns_limit_k_max       27
_diffrn_reflns_limit_k_min       -16
_diffrn_reflns_limit_l_max       31
_diffrn_reflns_limit_l_min       -21
_diffrn_reflns_number            7920
_diffrn_reflns_point_group_measured_fraction_full 0.993
_diffrn_reflns_point_group_measured_fraction_max 0.993
_diffrn_reflns_theta_full        29.12
_diffrn_reflns_theta_max         29.12
_diffrn_reflns_theta_min         2.931
_diffrn_source                   'fine-focus sealed tube'
_exptl_absorpt_coefficient_mu    0.827
_exptl_absorpt_correction_type   none
_exptl_crystal_colour            green
_exptl_crystal_density_diffrn    0.835
_exptl_crystal_density_method    'not measured'
_exptl_crystal_description       needle
_exptl_crystal_F_000             1801.7
_exptl_crystal_size_max          0.20
_exptl_crystal_size_mid          0.06
_exptl_crystal_size_min          0.02
_refine_diff_density_max         0.774
_refine_diff_density_min         -0.417
_refine_diff_density_rms         0.066
_refine_ls_extinction_method     none
_refine_ls_goodness_of_fit_ref   0.986
_refine_ls_hydrogen_treatment    constr
_refine_ls_matrix_type           full
_refine_ls_number_parameters     259
_refine_ls_number_reflns         6175
_refine_ls_number_restraints     0
_refine_ls_restrained_S_all      0.986
_refine_ls_R_factor_all          0.0882
_refine_ls_R_factor_gt           0.0587
_refine_ls_shift/su_max          0.000
_refine_ls_shift/su_mean         0.000
_refine_ls_structure_factor_coef Fsqd
_refine_ls_weighting_details
'w=1/[\s^2^(Fo^2^)+(0.1126P)^2^] where P=(Fo^2^+2Fc^2^)/3'
_refine_ls_weighting_scheme      calc
_refine_ls_wR_factor_gt          0.1754
_refine_ls_wR_factor_ref         0.1910
_reflns_Friedel_coverage         0.000
_reflns_number_gt                3534
_reflns_number_total             7920
_reflns_threshold_expression     'I > 2\s(I)'
_cod_data_source_file            c9dt00645a2.cif
_cod_data_source_block           1
_cod_original_formula_sum        'C19 H14 Cl0.31 Cu1.31 N2 O5 '
_cod_database_code               7049478
_shelx_shelxl_version_number     2014/7
_shelx_space_group_comment
;
The symmetry employed for this shelxl refinement is uniquely defined
by the following loop, which should always be used as a source of
symmetry information in preference to the above space-group names.
They are only intended as comments.
;
_shelx_res_file
;

    21.res created by SHELXL-2014/7


TITL pcan in Pcan
CELL 0.71073 13.2144 22.3311 23.9725 90.000 90.000 90.000
ZERR 8.0000 0.0015 0.0011 0.0012 0.000 0.000 0.000
LATT 1
SYMM 0.5-X, 0.5-Y, 0.5+Z
SYMM X, -Y, 0.5-Z
SYMM 0.5-X, 0.5+Y, -Z
SFAC C H N O CL CU
UNIT 152 112 16 40 2.3304 10.3304
MERG 2
FMAP 2
GRID
PLAN 20
TEMP -100
BOND
L.S. 100 0   36
ACTA
OMIT -3 50
ABIN
WGHT    0.112600
FVAR      10.10394   0.30922
CU1   6    0.413411    0.029566    0.002420    11.00000    0.07137    0.02917 =
         0.03182    0.00174   -0.00112   -0.01204
O4    4    1.009809    0.405100    0.467374    11.00000    0.08394    0.03216 =
         0.05650   -0.01110   -0.00359   -0.01082
O1    4    0.463653    0.055961    0.075594    11.00000    0.08785    0.05222 =
         0.03892   -0.01117   -0.00686   -0.00402
O2    4    0.609858    0.004672    0.071834    11.00000    0.09484    0.04563 =
         0.04284   -0.01063   -0.01044   -0.00609
O1W   4    0.272097    0.077338    0.009937    11.00000    0.08799    0.07517 =
         0.07028    0.01282    0.00678    0.00785
C19   1    0.918058    0.409811    0.455618    11.00000    0.07980    0.04312 =
         0.03019   -0.00508    0.00027   -0.01563
C1    1    0.547666    0.039719    0.095081    11.00000    0.08805    0.03304 =
         0.03242    0.00190    0.00308   -0.01488
C2    1    0.577243    0.065147    0.150665    11.00000    0.10370    0.03729 =
         0.04077   -0.00028   -0.00340   -0.02929
N2    3    0.723801    0.206958    0.360015    11.00000    0.11213    0.05364 =
         0.04112   -0.01102   -0.00089   -0.03476
C16   1    0.867769    0.356512    0.429387    11.00000    0.08482    0.03547 =
         0.04217   -0.00652   -0.00422   -0.01540
N1    3    0.662277    0.143396    0.302156    11.00000    0.11413    0.04710 =
         0.04504   -0.01031   -0.00362   -0.03590
C6    1    0.631352    0.115381    0.250730    11.00000    0.10104    0.05054 =
         0.03729   -0.00832   -0.00308   -0.02709
C3    1    0.511900    0.104691    0.178367    11.00000    0.10350    0.07248 =
         0.05314   -0.02690   -0.00700   -0.00728
AFIX  43
H3    2    0.448191    0.114189    0.162278    11.00000   -1.20000
AFIX   0
C12   1    0.771740    0.259605    0.382675    11.00000    0.10229    0.05171 =
         0.04164   -0.01399   -0.00025   -0.03130
C17   1    0.915205    0.302506    0.428541    11.00000    0.08866    0.04941 =
         0.09126   -0.01986   -0.01738   -0.01408
AFIX  43
H17   2    0.981647    0.298455    0.443198    11.00000   -1.20000
AFIX   0
C8    1    0.669342    0.050790    0.174468    11.00000    0.09771    0.04989 =
         0.04945   -0.01334   -0.00914   -0.00662
AFIX  43
H8    2    0.713763    0.023656    0.156248    11.00000   -1.20000
AFIX   0
C10   1    0.643338    0.122551    0.355025    11.00000    0.15372    0.04618 =
         0.03849   -0.00102    0.00071   -0.04637
AFIX  43
H10   2    0.609553    0.086343    0.364297    11.00000   -1.20000
AFIX   0
C11   1    0.680468    0.161819    0.390576    11.00000    0.13660    0.05128 =
         0.03738    0.00190   -0.00426   -0.03394
AFIX  43
H11   2    0.677726    0.159322    0.430108    11.00000   -1.20000
AFIX   0
C7    1    0.696306    0.075875    0.224482    11.00000    0.10832    0.06312 =
         0.05211   -0.00855   -0.01377   -0.01594
AFIX  43
H7    2    0.759485    0.066137    0.241073    11.00000   -1.20000
AFIX   0
C4    1    0.538892    0.129845    0.228460    11.00000    0.12306    0.06303 =
         0.05552   -0.02597    0.00008   -0.00677
C13   1    0.723514    0.313873    0.380615    11.00000    0.11755    0.05142 =
         0.08284   -0.01504   -0.02851   -0.00980
C9    1    0.712845    0.195689    0.305134    11.00000    0.12264    0.05776 =
         0.04824   -0.01708    0.00020   -0.03409
C15   1    0.774583    0.362646    0.405056    11.00000    0.10177    0.04811 =
         0.07951   -0.01241   -0.01209   -0.01967
AFIX  43
H15   2    0.743407    0.400977    0.404643    11.00000   -1.20000
AFIX   0
C18   1    0.864992    0.252773    0.405781    11.00000    0.12000    0.03713 =
         0.09114   -0.02077   -0.01558   -0.00870
AFIX  43
H18   2    0.896109    0.214431    0.406524    11.00000   -1.20000
AFIX   0
O3    4    0.863367    0.455454    0.462946    11.00000    0.07952    0.04043 =
         0.06064   -0.01407   -0.00277   -0.01473
C14   1    0.621091    0.321838    0.353345    11.00000    0.13289    0.10191 =
         0.19762   -0.02633   -0.06498   -0.01870
AFIX 137
H14A  2    0.627392    0.315615    0.313028    11.00000   -1.50000
H14B  2    0.596159    0.362440    0.360540    11.00000   -1.50000
H14C  2    0.573405    0.292615    0.368811    11.00000   -1.50000
AFIX   0
C5    1    0.468314    0.174268    0.257950    11.00000    0.17053    0.15259 =
         0.10400   -0.07556   -0.03018    0.03662
AFIX 137
H5A   2    0.398872    0.168413    0.244675    11.00000   -1.50000
H5B   2    0.490030    0.215284    0.249699    11.00000   -1.50000
H5C   2    0.470956    0.167483    0.298312    11.00000   -1.50000
AFIX   0
CU2   6    0.727475    0.248067    0.244022    21.00000    0.23992    0.14417 =
         0.09616   -0.02575    0.03290   -0.11723
CL1   5    0.743040    0.308554    0.171725    21.00000   -1.50000
HKLF 4

REM  pcan in Pcan
REM R1 =  0.0587 for    3534 Fo > 4sig(Fo)  and  0.0882 for all    6175 data
REM    259 parameters refined using      0 restraints

END

WGHT      0.1126      0.0000

REM Highest difference peak  0.774,  deepest hole -0.417,  1-sigma level  0.066
Q1    1   0.7730  0.2138  0.2681  11.00000  0.05    0.77
Q2    1   0.4885 -0.0031  0.0021  11.00000  0.05    0.46
Q3    1   0.3231  0.0409  0.0047  11.00000  0.05    0.42
Q4    1   0.7665  0.2404  0.1895  11.00000  0.05    0.40
Q5    1   0.8166  0.2709  0.1655  11.00000  0.05    0.38
Q6    1   0.3405  0.0165  0.0054  11.00000  0.05    0.36
Q7    1   0.7063  0.3268  0.1843  11.00000  0.05    0.34
Q8    1   0.2370  0.0876  0.0021  11.00000  0.05    0.34
Q9    1   0.2049  0.0673  0.0317  11.00000  0.05    0.33
Q10   1   0.9146  0.4106  0.4995  11.00000  0.05    0.31
Q11   1   0.5027  0.0419  0.0094  11.00000  0.05    0.28
Q12   1   0.7762  0.3462  0.4407  11.00000  0.05    0.27
Q13   1   0.5274  0.0952  0.1557  11.00000  0.05    0.27
Q14   1   0.2584  0.1327  0.0088  11.00000  0.05    0.26
Q15   1   0.2835  0.0594  0.0151  11.00000  0.05    0.26
Q16   1   0.5928 -0.0224  0.0493  11.00000  0.05    0.26
Q17   1   0.5874  0.0372  0.0765  11.00000  0.05    0.25
Q18   1   0.7546  0.3517  0.1057  11.00000  0.05    0.25
Q19   1   0.7308  0.2928  0.4111  11.00000  0.05    0.25
Q20   1   0.2743  0.1277  0.0189  11.00000  0.05    0.25
;
_shelx_res_checksum              82043
_shelx_fab_file
;
   10    0    0     -1.12      0.00
   12    0    0     -1.24      0.00
   14    0    0     -1.82      0.00
    3    1    0      4.66      0.00
    5    1    0     -8.16      0.00
    7    1    0     -3.06      0.00
    9    1    0      2.21      0.00
   11    1    0     -0.41      0.00
   13    1    0     -3.07      0.00
   15    1    0     -0.77      0.00
    4    2    0     -2.26      0.00
    6    2    0     -3.31      0.00
    8    2    0      0.94      0.00
   10    2    0     -1.93      0.00
   12    2    0      0.10      0.00
   14    2    0      1.14      0.00
    3    3    0     -3.87      0.00
    5    3    0     -2.23      0.00
    7    3    0     -1.77      0.00
    9    3    0      0.53      0.00
   11    3    0      0.88      0.00
   13    3    0      0.63      0.00
   15    3    0     -0.63      0.00
    0    4    0     35.61      0.00
    2    4    0     -2.47      0.00
    4    4    0     -8.30      0.00
    6    4    0      1.44      0.00
    8    4    0      0.23      0.00
   10    4    0      0.20      0.00
   12    4    0     -0.32      0.00
   14    4    0      0.23      0.00
    1    5    0     -6.69      0.00
    3    5    0     13.47      0.00
    5    5    0     -1.89      0.00
    7    5    0     -0.95      0.00
    9    5    0     -1.51      0.00
   11    5    0      1.28      0.00
   13    5    0      0.47      0.00
   15    5    0      1.62      0.00
    0    6    0      1.13      0.00
    2    6    0     -5.77      0.00
    4    6    0      3.64      0.00
    6    6    0     -3.61      0.00
    8    6    0     -1.84      0.00
   10    6    0     -2.41      0.00
   12    6    0      2.55      0.00
   14    6    0     -0.33      0.00
    1    7    0     -8.75      0.00
    3    7    0      7.82      0.00
    5    7    0     -4.29      0.00
    7    7    0     -6.95      0.00
    9    7    0      1.52      0.00
   11    7    0      0.58      0.00
   13    7    0      2.84      0.00
   15    7    0      0.28      0.00
    0    8    0    -18.30      0.00
    2    8    0      4.72      0.00
    4    8    0     -0.81      0.00
    6    8    0     -3.79      0.00
    8    8    0     -0.17      0.00
   10    8    0      0.84      0.00
   12    8    0      1.09      0.00
   14    8    0      0.97      0.00
    1    9    0     -4.74      0.00
    3    9    0     -0.79      0.00
    5    9    0      1.09      0.00
    7    9    0     -2.72      0.00
    9    9    0      2.92      0.00
   11    9    0     -0.84      0.00
   13    9    0      2.69      0.00
    0   10    0      3.54      0.00
    2   10    0     -2.29      0.00
    4   10    0     -1.65      0.00
    6   10    0     -0.30      0.00
    8   10    0      0.12      0.00
   10   10    0      2.15      0.00
   12   10    0      0.84      0.00
   14   10    0      0.44      0.00
    1   11    0      0.99      0.00
    3   11    0      1.28      0.00
    5   11    0     -0.64      0.00
    7   11    0     -2.14      0.00
    9   11    0      0.10      0.00
   11   11    0      0.18      0.00
   13   11    0     -0.40      0.00
    0   12    0     -3.04      0.00
    2   12    0      2.52      0.00
    4   12    0      1.45      0.00
    6   12    0     -0.25      0.00
    8   12    0     -0.05      0.00
   10   12    0     -2.05      0.00
   12   12    0      0.07      0.00
   14   12    0     -1.69      0.00
    1   13    0      0.19      0.00
    3   13    0      0.93      0.00
    5   13    0     -0.05      0.00
    7   13    0      0.95      0.00
    9   13    0     -3.24      0.00
   11   13    0     -2.32      0.00
   13   13    0     -0.09      0.00
    0   14    0     -0.68      0.00
    2   14    0     -1.59      0.00
    4   14    0      1.32      0.00
    6   14    0      0.06      0.00
    8   14    0     -0.63      0.00
   10   14    0     -2.54      0.00
   12   14    0      0.65      0.00
    1   15    0     -0.08      0.00
    3   15    0     -2.09      0.00
    5   15    0      0.73      0.00
    7   15    0     -0.35      0.00
    9   15    0     -1.81      0.00
   11   15    0     -0.39      0.00
    0   16    0     -3.23      0.00
    2   16    0     -0.95      0.00
    4   16    0     -1.98      0.00
    6   16    0     -1.61      0.00
    8   16    0      2.28      0.00
   10   16    0      1.76      0.00
   12   16    0     -0.84      0.00
    1   17    0     -2.92      0.00
    3   17    0      2.87      0.00
    5   17    0     -0.75      0.00
    7   17    0     -1.82      0.00
    9   17    0      3.18      0.00
   11   17    0     -0.19      0.00
    0   18    0     -0.25      0.00
    2   18    0      0.38      0.00
    4   18    0      0.05      0.00
    6   18    0     -1.11      0.00
    8   18    0     -1.78      0.00
   10   18    0      1.09      0.00
    1   19    0      0.96      0.00
    3   19    0      1.49      0.00
    5   19    0     -1.16      0.00
    7   19    0      0.51      0.00
    9   19    0     -0.50      0.00
    0   20    0      1.14      0.00
    2   20    0      0.28      0.00
    4   20    0     -1.88      0.00
    6   20    0      0.72      0.00
    8   20    0     -0.89      0.00
   10   20    0      1.26      0.00
    1   21    0     -1.68      0.00
    3   21    0      0.05      0.00
    5   21    0     -0.91      0.00
    7   21    0     -1.59      0.00
    9   21    0      1.36      0.00
    0   22    0     -3.56      0.00
    2   22    0      0.29      0.00
    4   22    0     -1.14      0.00
    6   22    0      0.05      0.00
    8   22    0     -1.05      0.00
    1   23    0     -2.31      0.00
    3   23    0      0.47      0.00
    5   23    0      0.45      0.00
    7   23    0      0.29      0.00
    2   24    0     -0.62      0.00
    4   24    0     -1.39      0.00
    6   24    0      1.50      0.00
    1   25    0     -0.35      0.00
    3   25    0      0.06      0.00
    5   25    0     -0.79      0.00
    2   26    0     -0.17      0.00
    8    0    1      6.78      0.00
   10    0    1      0.68      0.00
   12    0    1     -0.72      0.00
   14    0    1      2.16      0.00
    3    1    1     23.59      0.00
    4    1    1     -1.81      0.00
    5    1    1      3.75      0.00
    6    1    1      0.42      0.00
    7    1    1      4.19      0.00
    8    1    1     -0.31      0.00
    9    1    1      1.03      0.00
   10    1    1      0.20      0.00
   11    1    1      0.86      0.00
   12    1    1     -0.96      0.00
   13    1    1      2.18      0.00
   14    1    1      1.76      0.00
   15    1    1     -0.10      0.00
    2    2    1      7.47      0.00
    3    2    1     -2.52      0.00
    4    2    1      4.04      0.00
    5    2    1     -2.74      0.00
    6    2    1      0.28      0.00
    7    2    1      3.81      0.00
    8    2    1      2.70      0.00
    9    2    1     -0.91      0.00
   10    2    1      1.11      0.00
   11    2    1     -1.42      0.00
   12    2    1      0.40      0.00
   13    2    1      1.09      0.00
   14    2    1      2.16      0.00
   15    2    1     -0.66      0.00
    1    3    1    -30.62      0.00
    2    3    1    -12.12      0.00
    3    3    1     -1.06      0.00
    4    3    1      0.30      0.00
    5    3    1      5.91      0.00
    6    3    1      3.61      0.00
    7    3    1     -0.89      0.00
    8    3    1      2.12      0.00
    9    3    1      0.89      0.00
   10    3    1     -0.24      0.00
   11    3    1      1.86      0.00
   12    3    1      0.08      0.00
   13    3    1      0.94      0.00
   14    3    1     -0.39      0.00
   15    3    1      1.65      0.00
    1    4    1     -1.38      0.00
    2    4    1      4.90      0.00
    3    4    1      2.12      0.00
    4    4    1    -12.68      0.00
    5    4    1      2.50      0.00
    6    4    1     -0.30      0.00
    7    4    1      0.56      0.00
    8    4    1      2.62      0.00
    9    4    1      0.66      0.00
   10    4    1      2.78      0.00
   11    4    1     -0.71      0.00
   12    4    1     -1.44      0.00
   13    4    1     -0.81      0.00
   14    4    1      0.79      0.00
   15    4    1      0.09      0.00
    1    5    1     -2.35      0.00
    2    5    1      2.59      0.00
    3    5    1    -11.60      0.00
    4    5    1      0.83      0.00
    5    5    1     -3.25      0.00
    6    5    1      0.17      0.00
    7    5    1      2.58      0.00
    8    5    1      0.55      0.00
    9    5    1      1.54      0.00
   10    5    1     -0.41      0.00
   11    5    1      0.25      0.00
   12    5    1     -2.55      0.00
   13    5    1     -1.13      0.00
   14    5    1     -0.33      0.00
   15    5    1      1.06      0.00
    1    6    1     -2.23      0.00
    2    6    1      4.01      0.00
    3    6    1      1.19      0.00
    4    6    1     -8.24      0.00
    5    6    1      0.18      0.00
    6    6    1      0.65      0.00
    7    6    1      3.15      0.00
    8    6    1      1.22      0.00
    9    6    1     -0.62      0.00
   10    6    1     -0.01      0.00
   11    6    1     -2.19      0.00
   12    6    1     -0.11      0.00
   13    6    1     -0.52      0.00
   14    6    1      0.42      0.00
   15    6    1      0.27      0.00
    1    7    1     -3.77      0.00
    2    7    1      1.32      0.00
    3    7    1      0.19      0.00
    4    7    1     -2.25      0.00
    5    7    1      3.90      0.00
    6    7    1      2.32      0.00
    7    7    1     -3.17      0.00
    8    7    1     -0.67      0.00
    9    7    1     -1.72      0.00
   10    7    1     -0.64      0.00
   11    7    1     -0.44      0.00
   12    7    1     -1.84      0.00
   13    7    1     -0.44      0.00
   14    7    1      1.59      0.00
   15    7    1      1.81      0.00
    1    8    1      3.38      0.00
    2    8    1     -0.38      0.00
    3    8    1      2.66      0.00
    4    8    1      2.79      0.00
    5    8    1     -1.69      0.00
    6    8    1     -0.72      0.00
    7    8    1     -2.11      0.00
    8    8    1      0.81      0.00
    9    8    1     -0.43      0.00
   10    8    1     -1.96      0.00
   11    8    1     -0.51      0.00
   12    8    1      1.91      0.00
   13    8    1      0.19      0.00
   14    8    1     -0.53      0.00
    1    9    1      2.50      0.00
    2    9    1      0.08      0.00
    3    9    1     -2.09      0.00
    4    9    1      1.21      0.00
    5    9    1      0.06      0.00
    6    9    1     -1.28      0.00
    7    9    1      1.65      0.00
    8    9    1      1.76      0.00
    9    9    1     -1.12      0.00
   10    9    1     -0.79      0.00
   11    9    1     -0.03      0.00
   12    9    1      0.31      0.00
   13    9    1      0.43      0.00
   14    9    1      0.00      0.00
    1   10    1      2.65      0.00
    2   10    1      2.24      0.00
    3   10    1     -1.28      0.00
    4   10    1     -2.45      0.00
    5   10    1      1.60      0.00
    6   10    1     -0.75      0.00
    7   10    1     -0.01      0.00
    8   10    1      0.61      0.00
    9   10    1      0.50      0.00
   10   10    1     -0.33      0.00
   11   10    1     -0.58      0.00
   12   10    1      1.27      0.00
   13   10    1      0.78      0.00
   14   10    1     -0.53      0.00
    1   11    1     -0.06      0.00
    2   11    1     -1.53      0.00
    3   11    1      1.55      0.00
    4   11    1     -1.36      0.00
    5   11    1     -1.10      0.00
    6   11    1     -0.03      0.00
    7   11    1      0.35      0.00
    8   11    1     -2.27      0.00
    9   11    1      0.85      0.00
   10   11    1      0.05      0.00
   11   11    1      1.08      0.00
   12   11    1      1.23      0.00
   13   11    1     -0.94      0.00
   14   11    1      0.52      0.00
    1   12    1     -3.06      0.00
    2   12    1     -1.54      0.00
    3   12    1     -1.54      0.00
    4   12    1      2.89      0.00
    5   12    1     -0.63      0.00
    6   12    1      0.42      0.00
    7   12    1     -0.59      0.00
    8   12    1      0.69      0.00
    9   12    1     -0.33      0.00
   10   12    1      1.88      0.00
   11   12    1      1.53      0.00
   12   12    1     -0.44      0.00
   13   12    1      1.37      0.00
   14   12    1     -0.28      0.00
    1   13    1      0.46      0.00
    2   13    1     -1.13      0.00
    3   13    1      0.91      0.00
    4   13    1      0.34      0.00
    5   13    1      1.25      0.00
    6   13    1      0.86      0.00
    7   13    1      1.17      0.00
    8   13    1     -0.89      0.00
    9   13    1     -0.26      0.00
   10   13    1     -0.50      0.00
   11   13    1      0.16      0.00
   12   13    1      1.31      0.00
   13   13    1     -1.37      0.00
    1   14    1     -0.44      0.00
    2   14    1      1.02      0.00
    3   14    1      0.25      0.00
    4   14    1     -2.47      0.00
    5   14    1      1.35      0.00
    6   14    1     -0.21      0.00
    7   14    1      0.06      0.00
    8   14    1      0.41      0.00
    9   14    1     -2.29      0.00
   10   14    1      0.55      0.00
   11   14    1      0.09      0.00
   12   14    1     -0.59      0.00
   13   14    1      1.60      0.00
    1   15    1      1.92      0.00
    2   15    1     -1.18      0.00
    3   15    1     -1.49      0.00
    4   15    1      0.53      0.00
    5   15    1     -2.06      0.00
    6   15    1      0.95      0.00
    7   15    1      1.28      0.00
    8   15    1     -0.12      0.00
    9   15    1      1.01      0.00
   10   15    1     -1.55      0.00
   11   15    1      0.47      0.00
   12   15    1      1.27      0.00
    1   16    1      0.29      0.00
    2   16    1     -0.41      0.00
    3   16    1     -1.69      0.00
    4   16    1     -0.87      0.00
    5   16    1     -0.29      0.00
    6   16    1     -1.11      0.00
    7   16    1      0.42      0.00
    8   16    1     -1.28      0.00
    9   16    1     -0.91      0.00
   10   16    1      0.90      0.00
   11   16    1     -0.06      0.00
   12   16    1      1.35      0.00
    1   17    1     -2.21      0.00
    2   17    1      0.60      0.00
    3   17    1      0.60      0.00
    4   17    1     -0.28      0.00
    5   17    1      1.54      0.00
    6   17    1      0.61      0.00
    7   17    1     -0.72      0.00
    8   17    1     -0.83      0.00
    9   17    1     -0.74      0.00
   10   17    1     -1.20      0.00
   11   17    1      1.66      0.00
   12   17    1      1.25      0.00
    1   18    1     -0.32      0.00
    2   18    1      0.88      0.00
    3   18    1      0.47      0.00
    4   18    1      0.65      0.00
    5   18    1      2.91      0.00
    6   18    1     -0.06      0.00
    7   18    1     -0.70      0.00
    8   18    1      0.63      0.00
    9   18    1      0.24      0.00
   10   18    1      0.26      0.00
   11   18    1     -0.94      0.00
    1   19    1      1.45      0.00
    2   19    1     -0.03      0.00
    3   19    1     -0.55      0.00
    4   19    1      0.57      0.00
    5   19    1     -1.39      0.00
    6   19    1      0.88      0.00
    7   19    1     -0.11      0.00
    8   19    1     -0.29      0.00
    9   19    1      2.06      0.00
   10   19    1     -0.39      0.00
    1   20    1     -0.28      0.00
    2   20    1      0.98      0.00
    3   20    1     -0.07      0.00
    4   20    1     -1.02      0.00
    5   20    1     -3.77      0.00
    6   20    1     -0.88      0.00
    7   20    1     -0.72      0.00
    8   20    1      1.36      0.00
    9   20    1     -0.69      0.00
   10   20    1     -0.71      0.00
    1   21    1     -0.01      0.00
    2   21    1     -1.41      0.00
    3   21    1     -1.65      0.00
    4   21    1     -0.60      0.00
    5   21    1      3.10      0.00
    6   21    1     -1.42      0.00
    7   21    1     -0.52      0.00
    8   21    1     -0.22      0.00
    9   21    1      0.20      0.00
    1   22    1     -0.10      0.00
    2   22    1     -0.53      0.00
    3   22    1      0.29      0.00
    4   22    1      0.33      0.00
    5   22    1      1.32      0.00
    6   22    1      0.96      0.00
    7   22    1      0.52      0.00
    8   22    1     -2.46      0.00
    1   23    1     -0.74      0.00
    2   23    1     -0.03      0.00
    3   23    1     -1.49      0.00
    4   23    1      1.13      0.00
    5   23    1      0.66      0.00
    6   23    1     -0.64      0.00
    7   23    1     -3.48      0.00
    1   24    1      0.02      0.00
    2   24    1     -0.43      0.00
    3   24    1     -0.58      0.00
    4   24    1     -2.41      0.00
    5   24    1     -0.95      0.00
    6   24    1     -0.89      0.00
    1   25    1     -1.46      0.00
    2   25    1     -1.16      0.00
    3   25    1     -0.80      0.00
    4   25    1     -1.76      0.00
    5   25    1     -0.10      0.00
    1   26    1     -2.05      0.00
    2   26    1     -0.76      0.00
    3   26    1     -0.44      0.00
    8    0    2      4.41      0.00
   10    0    2      3.43      0.00
   12    0    2      0.67      0.00
   14    0    2     -1.35      0.00
    3    1    2    -19.02      0.00
    4    1    2     -1.25      0.00
    5    1    2     -5.31      0.00
    6    1    2     -1.13      0.00
    7    1    2      4.64      0.00
    8    1    2      1.50      0.00
    9    1    2      2.09      0.00
   10    1    2      0.19      0.00
   11    1    2      0.46      0.00
   12    1    2      0.57      0.00
   13    1    2      0.14      0.00
   14    1    2      0.46      0.00
   15    1    2      0.42      0.00
    1    2    2      7.44      0.00
    2    2    2     -5.57      0.00
    3    2    2     -1.19      0.00
    4    2    2    -11.37      0.00
    5    2    2     -4.01      0.00
    6    2    2     -1.92      0.00
    7    2    2      1.88      0.00
    8    2    2      0.43      0.00
    9    2    2      1.44      0.00
   10    2    2      0.96      0.00
   11    2    2      0.24      0.00
   12    2    2      0.26      0.00
   13    2    2     -0.26      0.00
   14    2    2     -0.31      0.00
   15    2    2     -0.85      0.00
    0    3    2     41.58      0.00
    1    3    2     10.46      0.00
    2    3    2     13.76      0.00
    3    3    2    -32.52      0.00
    4    3    2     -8.95      0.00
    5    3    2     -2.04      0.00
    6    3    2     -1.42      0.00
    7    3    2      0.25      0.00
    8    3    2      0.86      0.00
    9    3    2      0.04      0.00
   10    3    2      1.75      0.00
   11    3    2     -1.43      0.00
   12    3    2      0.16      0.00
   13    3    2      1.74      0.00
   14    3    2     -1.29      0.00
   15    3    2     -0.61      0.00
    0    4    2     -0.67      0.00
    1    4    2      3.09      0.00
    2    4    2      4.14      0.00
    3    4    2      2.30      0.00
    4    4    2     -0.06      0.00
    5    4    2     -2.30      0.00
    6    4    2     -5.69      0.00
    7    4    2     -0.52      0.00
    8    4    2      0.22      0.00
    9    4    2      0.14      0.00
   10    4    2      1.07      0.00
   11    4    2     -0.51      0.00
   12    4    2     -0.54      0.00
   13    4    2     -0.59      0.00
   14    4    2      1.36      0.00
   15    4    2     -0.23      0.00
    0    5    2      1.66      0.00
    1    5    2      2.18      0.00
    2    5    2     -3.78      0.00
    3    5    2      9.24      0.00
    4    5    2     -3.04      0.00
    5    5    2      3.65      0.00
    6    5    2     -0.58      0.00
    7    5    2     -1.35      0.00
    8    5    2     -0.10      0.00
    9    5    2      0.24      0.00
   10    5    2     -1.22      0.00
   11    5    2     -0.59      0.00
   12    5    2      0.88      0.00
   13    5    2     -0.87      0.00
   14    5    2     -0.87      0.00
   15    5    2      1.34      0.00
    0    6    2     -0.90      0.00
    1    6    2      3.16      0.00
    2    6    2     -1.14      0.00
    3    6    2     -0.89      0.00
    4    6    2     14.00      0.00
    5    6    2     -1.47      0.00
    6    6    2     -1.05      0.00
    7    6    2      0.25      0.00
    8    6    2      1.16      0.00
    9    6    2      0.69      0.00
   10    6    2      0.44      0.00
   11    6    2     -1.24      0.00
   12    6    2      0.43      0.00
   13    6    2      1.29      0.00
   14    6    2     -0.39      0.00
   15    6    2     -0.35      0.00
    0    7    2      2.29      0.00
    1    7    2      2.06      0.00
    2    7    2      7.30      0.00
    3    7    2     -7.88      0.00
    4    7    2     -3.13      0.00
    5    7    2      6.14      0.00
    6    7    2      0.82      0.00
    7    7    2      0.90      0.00
    8    7    2      1.65      0.00
    9    7    2      1.02      0.00
   10    7    2     -0.73      0.00
   11    7    2      1.44      0.00
   12    7    2     -0.55      0.00
   13    7    2     -2.64      0.00
   14    7    2      1.32      0.00
   15    7    2     -0.77      0.00
    0    8    2     -5.87      0.00
    1    8    2     -0.19      0.00
    2    8    2     -2.90      0.00
    3    8    2      0.71      0.00
    4    8    2     -0.08      0.00
    5    8    2      3.16      0.00
    6    8    2      1.28      0.00
    7    8    2      1.37      0.00
    8    8    2      1.19      0.00
    9    8    2      1.11      0.00
   10    8    2      2.04      0.00
   11    8    2     -1.38      0.00
   12    8    2     -0.57      0.00
   13    8    2      1.85      0.00
   14    8    2     -0.58      0.00
    0    9    2      5.03      0.00
    1    9    2     -4.14      0.00
    2    9    2     -3.00      0.00
    3    9    2      0.85      0.00
    4    9    2     -0.45      0.00
    5    9    2     -1.63      0.00
    6    9    2      0.32      0.00
    7    9    2      1.04      0.00
    8    9    2      0.63      0.00
    9    9    2      1.55      0.00
   10    9    2     -0.43      0.00
   11    9    2      0.14      0.00
   12    9    2      0.70      0.00
   13    9    2     -0.53      0.00
   14    9    2      0.97      0.00
    0   10    2     -4.51      0.00
    1   10    2      0.66      0.00
    2   10    2      0.47      0.00
    3   10    2     -0.95      0.00
    4   10    2      0.29      0.00
    5   10    2     -1.10      0.00
    6   10    2     -1.71      0.00
    7   10    2      0.76      0.00
    8   10    2      1.06      0.00
    9   10    2      0.14      0.00
   10   10    2      1.84      0.00
   11   10    2     -0.12      0.00
   12   10    2     -0.49      0.00
   13   10    2      2.54      0.00
   14   10    2      1.66      0.00
    0   11    2      2.31      0.00
    1   11    2     -0.72      0.00
    2   11    2      0.20      0.00
    3   11    2      3.53      0.00
    4   11    2     -0.75      0.00
    5   11    2      0.69      0.00
    6   11    2      0.49      0.00
    7   11    2     -0.73      0.00
    8   11    2      0.91      0.00
    9   11    2      1.23      0.00
   10   11    2     -1.83      0.00
   11   11    2      1.13      0.00
   12   11    2      1.20      0.00
   13   11    2      0.00      0.00
   14   11    2      0.00      0.00
    0   12    2      5.58      0.00
    1   12    2      1.40      0.00
    2   12    2     -0.64      0.00
    3   12    2     -2.05      0.00
    4   12    2      1.48      0.00
    5   12    2      0.27      0.00
    6   12    2      1.23      0.00
    7   12    2      1.35      0.00
    8   12    2     -1.36      0.00
    9   12    2     -0.40      0.00
   10   12    2     -0.04      0.00
   11   12    2     -0.24      0.00
   12   12    2      1.23      0.00
   13   12    2      0.60      0.00
    0   13    2      1.96      0.00
    1   13    2      1.27      0.00
    2   13    2     -0.41      0.00
    3   13    2     -0.70      0.00
    4   13    2      0.57      0.00
    5   13    2      0.56      0.00
    6   13    2     -0.31      0.00
    7   13    2      0.20      0.00
    8   13    2      0.64      0.00
    9   13    2      1.43      0.00
   10   13    2     -0.10      0.00
   11   13    2     -1.04      0.00
   12   13    2      1.16      0.00
   13   13    2      1.21      0.00
    0   14    2     -2.24      0.00
    1   14    2      0.38      0.00
    2   14    2      1.30      0.00
    3   14    2     -1.11      0.00
    4   14    2      1.13      0.00
    5   14    2     -0.37      0.00
    6   14    2      0.13      0.00
    7   14    2     -1.01      0.00
    8   14    2     -0.49      0.00
    9   14    2      0.52      0.00
   10   14    2      0.11      0.00
   11   14    2      0.75      0.00
   12   14    2     -1.31      0.00
   13   14    2      0.47      0.00
    0   15    2     -1.02      0.00
    1   15    2     -1.22      0.00
    2   15    2      0.66      0.00
    3   15    2      1.39      0.00
    4   15    2     -1.85      0.00
    5   15    2      1.10      0.00
    6   15    2     -0.04      0.00
    7   15    2     -0.52      0.00
    8   15    2      1.81      0.00
    9   15    2     -0.36      0.00
   10   15    2      1.20      0.00
   11   15    2     -1.30      0.00
   12   15    2      0.35      0.00
    0   16    2      1.03      0.00
    1   16    2     -0.62      0.00
    2   16    2      0.54      0.00
    3   16    2      0.71      0.00
    4   16    2      0.48      0.00
    5   16    2     -1.15      0.00
    6   16    2      1.27      0.00
    7   16    2      0.45      0.00
    8   16    2     -0.91      0.00
    9   16    2      0.69      0.00
   10   16    2     -0.87      0.00
   11   16    2      0.50      0.00
   12   16    2     -1.60      0.00
    0   17    2      0.31      0.00
    1   17    2      0.74      0.00
    2   17    2     -0.82      0.00
    3   17    2     -1.35      0.00
    4   17    2      0.02      0.00
    5   17    2      0.53      0.00
    6   17    2      0.53      0.00
    7   17    2      0.28      0.00
    8   17    2      0.11      0.00
    9   17    2     -0.77      0.00
   10   17    2      0.39      0.00
   11   17    2      0.50      0.00
   12   17    2      0.32      0.00
    0   18    2     -0.24      0.00
    1   18    2      0.51      0.00
    2   18    2     -0.28      0.00
    3   18    2      0.02      0.00
    4   18    2     -0.21      0.00
    5   18    2     -0.82      0.00
    6   18    2     -0.12      0.00
    7   18    2      1.28      0.00
    8   18    2     -0.70      0.00
    9   18    2     -0.46      0.00
   10   18    2      0.35      0.00
   11   18    2      0.84      0.00
    0   19    2      0.15      0.00
    1   19    2     -0.46      0.00
    2   19    2     -0.33      0.00
    3   19    2      1.32      0.00
    4   19    2     -1.26      0.00
    5   19    2     -1.71      0.00
    6   19    2      0.24      0.00
    7   19    2     -0.12      0.00
    8   19    2      2.88      0.00
    9   19    2      0.05      0.00
   10   19    2      1.12      0.00
    0   20    2     -1.20      0.00
    1   20    2     -0.09      0.00
    2   20    2      0.60      0.00
    3   20    2     -0.63      0.00
    4   20    2      2.20      0.00
    5   20    2      0.47      0.00
    6   20    2     -1.37      0.00
    7   20    2      0.84      0.00
    8   20    2      0.91      0.00
    9   20    2      1.31      0.00
   10   20    2      0.67      0.00
    0   21    2      0.66      0.00
    1   21    2      1.30      0.00
    2   21    2      0.90      0.00
    3   21    2     -1.15      0.00
    4   21    2     -0.24      0.00
    5   21    2      0.88      0.00
    6   21    2      1.39      0.00
    7   21    2     -0.21      0.00
    8   21    2      1.05      0.00
    9   21    2     -0.02      0.00
    0   22    2      1.76      0.00
    1   22    2      0.75      0.00
    2   22    2      0.01      0.00
    3   22    2     -0.20      0.00
    4   22    2      0.51      0.00
    5   22    2      0.94      0.00
    6   22    2     -0.07      0.00
    7   22    2      1.54      0.00
    8   22    2      0.68      0.00
    0   23    2      0.48      0.00
    1   23    2      0.21      0.00
    2   23    2      0.75      0.00
    3   23    2      0.14      0.00
    4   23    2     -1.89      0.00
    5   23    2      1.16      0.00
    6   23    2      1.02      0.00
    7   23    2     -0.72      0.00
    0   24    2     -0.78      0.00
    1   24    2      0.03      0.00
    2   24    2      0.84      0.00
    3   24    2     -0.45      0.00
    4   24    2      2.67      0.00
    5   24    2     -1.75      0.00
    6   24    2     -1.38      0.00
    0   25    2      0.15      0.00
    1   25    2      0.26      0.00
    2   25    2      0.13      0.00
    3   25    2      0.87      0.00
    4   25    2     -1.41      0.00
    5   25    2      0.03      0.00
    1   26    2      0.23      0.00
    2   26    2      0.97      0.00
    3   26    2      0.28      0.00
    8    0    3     -6.09      0.00
   10    0    3     -0.30      0.00
   12    0    3      0.90      0.00
   14    0    3      1.58      0.00
    2    1    3      4.73      0.00
    3    1    3     -6.83      0.00
    4    1    3      2.39      0.00
    5    1    3    -14.33      0.00
    6    1    3     -3.40      0.00
    7    1    3     -2.52      0.00
    8    1    3     -0.85      0.00
    9    1    3      0.07      0.00
   10    1    3      1.63      0.00
   11    1    3     -0.55      0.00
   12    1    3      0.45      0.00
   13    1    3      0.22      0.00
   14    1    3      1.06      0.00
   15    1    3     -0.93      0.00
    1    2    3      0.31      0.00
    2    2    3     -2.18      0.00
    3    2    3      5.54      0.00
    4    2    3     -3.59      0.00
    5    2    3     -0.36      0.00
    6    2    3     -5.18      0.00
    7    2    3     -1.56      0.00
    8    2    3      2.98      0.00
    9    2    3      1.60      0.00
   10    2    3      0.89      0.00
   11    2    3      1.30      0.00
   12    2    3      0.41      0.00
   13    2    3      1.05      0.00
   14    2    3     -2.36      0.00
   15    2    3      0.50      0.00
    1    3    3      8.20      0.00
    2    3    3     12.25      0.00
    3    3    3      5.38      0.00
    4    3    3      0.88      0.00
    5    3    3     -5.00      0.00
    6    3    3      0.20      0.00
    7    3    3      2.61      0.00
    8    3    3     -0.12      0.00
    9    3    3      5.04      0.00
   10    3    3     -0.05      0.00
   11    3    3      0.08      0.00
   12    3    3      0.41      0.00
   13    3    3     -2.21      0.00
   14    3    3      0.16      0.00
   15    3    3     -0.98      0.00
    1    4    3     14.71      0.00
    2    4    3    -11.44      0.00
    3    4    3     -3.62      0.00
    4    4    3      6.88      0.00
    5    4    3      0.42      0.00
    6    4    3      0.97      0.00
    7    4    3      0.77      0.00
    8    4    3      3.64      0.00
    9    4    3      0.05      0.00
   10    4    3      0.89      0.00
   11    4    3     -0.25      0.00
   12    4    3     -1.80      0.00
   13    4    3     -0.70      0.00
   14    4    3     -0.26      0.00
   15    4    3      0.74      0.00
    1    5    3    -12.76      0.00
    2    5    3      9.90      0.00
    3    5    3     -4.62      0.00
    4    5    3      1.67      0.00
    5    5    3      0.20      0.00
    6    5    3     -0.87      0.00
    7    5    3      6.32      0.00
    8    5    3     -0.73      0.00
    9    5    3      2.01      0.00
   10    5    3     -1.22      0.00
   11    5    3     -0.71      0.00
   12    5    3      0.19      0.00
   13    5    3     -0.36      0.00
   14    5    3      0.38      0.00
   15    5    3      1.21      0.00
    1    6    3     -6.26      0.00
    2    6    3    -14.73      0.00
    3    6    3      4.76      0.00
    4    6    3      0.42      0.00
    5    6    3      3.77      0.00
    6    6    3      3.41      0.00
    7    6    3     -1.11      0.00
    8    6    3      3.43      0.00
    9    6    3      0.26      0.00
   10    6    3      0.47      0.00
   11    6    3     -0.94      0.00
   12    6    3     -1.34      0.00
   13    6    3      0.98      0.00
   14    6    3      1.20      0.00
   15    6    3      0.98      0.00
    1    7    3      1.51      0.00
    2    7    3      3.23      0.00
    3    7    3     -0.82      0.00
    4    7    3      2.42      0.00
    5    7    3     -3.59      0.00
    6    7    3     -0.29      0.00
    7    7    3      3.03      0.00
    8    7    3     -0.59      0.00
    9    7    3      2.25      0.00
   10    7    3     -1.20      0.00
   11    7    3     -0.98      0.00
   12    7    3      0.78      0.00
   13    7    3     -1.24      0.00
   14    7    3      0.96      0.00
   15    7    3     -0.99      0.00
    1    8    3      1.85      0.00
    2    8    3     -2.98      0.00
    3    8    3     -3.36      0.00
    4    8    3      0.38      0.00
    5    8    3     -1.71      0.00
    6    8    3      0.30      0.00
    7    8    3      1.11      0.00
    8    8    3      3.75      0.00
    9    8    3     -1.21      0.00
   10    8    3     -0.33      0.00
   11    8    3      0.10      0.00
   12    8    3     -1.35      0.00
   13    8    3      0.21      0.00
   14    8    3     -0.88      0.00
    1    9    3     -1.84      0.00
    2    9    3      0.82      0.00
    3    9    3      0.19      0.00
    4    9    3     -1.35      0.00
    5    9    3      3.08      0.00
    6    9    3     -1.49      0.00
    7    9    3      0.63      0.00
    8    9    3      0.48      0.00
    9    9    3      0.80      0.00
   10    9    3     -0.13      0.00
   11    9    3      0.54      0.00
   12    9    3      0.76      0.00
   13    9    3     -0.88      0.00
   14    9    3     -0.40      0.00
    1   10    3     -0.64      0.00
    2   10    3     -1.32      0.00
    3   10    3      1.30      0.00
    4   10    3      2.70      0.00
    5   10    3     -1.19      0.00
    6   10    3     -0.41      0.00
    7   10    3     -0.39      0.00
    8   10    3     -3.81      0.00
    9   10    3      1.43      0.00
   10   10    3     -0.01      0.00
   11   10    3      0.05      0.00
   12   10    3      0.22      0.00
   13   10    3     -0.34      0.00
   14   10    3     -0.42      0.00
    1   11    3     -2.08      0.00
    2   11    3     -0.17      0.00
    3   11    3      1.38      0.00
    4   11    3      1.18      0.00
    5   11    3     -1.16      0.00
    6   11    3     -1.14      0.00
    7   11    3     -0.68      0.00
    8   11    3      1.93      0.00
    9   11    3     -1.54      0.00
   10   11    3      0.58      0.00
   11   11    3      0.48      0.00
   12   11    3      0.34      0.00
   13   11    3     -1.17      0.00
   14   11    3      1.02      0.00
    1   12    3     -0.46      0.00
    2   12    3      2.98      0.00
    3   12    3     -1.51      0.00
    4   12    3     -1.92      0.00
    5   12    3     -1.20      0.00
    6   12    3      0.59      0.00
    7   12    3      0.82      0.00
    8   12    3      1.71      0.00
    9   12    3      0.04      0.00
   10   12    3     -2.37      0.00
   11   12    3     -0.18      0.00
   12   12    3     -1.31      0.00
   13   12    3     -0.14      0.00
    1   13    3      0.99      0.00
    2   13    3      0.58      0.00
    3   13    3      0.31      0.00
    4   13    3     -1.33      0.00
    5   13    3      0.48      0.00
    6   13    3      0.62      0.00
    7   13    3      0.90      0.00
    8   13    3     -0.21      0.00
    9   13    3     -0.63      0.00
   10   13    3     -0.65      0.00
   11   13    3     -2.25      0.00
   12   13    3     -1.12      0.00
   13   13    3     -0.95      0.00
    1   14    3      1.52      0.00
    2   14    3     -0.85      0.00
    3   14    3      0.81      0.00
    4   14    3      0.43      0.00
    5   14    3      0.60      0.00
    6   14    3     -1.00      0.00
    7   14    3      0.77      0.00
    8   14    3      1.82      0.00
    9   14    3     -0.23      0.00
   10   14    3     -1.21      0.00
   11   14    3     -0.49      0.00
   12   14    3     -0.30      0.00
   13   14    3     -1.36      0.00
    1   15    3     -0.86      0.00
    2   15    3      0.12      0.00
    3   15    3     -0.81      0.00
    4   15    3      1.42      0.00
    5   15    3      0.38      0.00
    6   15    3      0.33      0.00
    7   15    3     -0.81      0.00
    8   15    3      0.11      0.00
    9   15    3      2.91      0.00
   10   15    3      0.44      0.00
   11   15    3     -0.89      0.00
   12   15    3     -0.59      0.00
    1   16    3      0.05      0.00
    2   16    3      1.47      0.00
    3   16    3      1.75      0.00
    4   16    3     -1.02      0.00
    5   16    3      0.33      0.00
    6   16    3      0.34      0.00
    7   16    3      1.49      0.00
    8   16    3      0.82      0.00
    9   16    3     -2.34      0.00
   10   16    3      1.47      0.00
   11   16    3     -0.44      0.00
   12   16    3     -1.31      0.00
    1   17    3      1.68      0.00
    2   17    3      1.71      0.00
    3   17    3      0.21      0.00
    4   17    3     -1.34      0.00
    5   17    3     -0.10      0.00
    6   17    3      0.53      0.00
    7   17    3      0.65      0.00
    8   17    3      0.49      0.00
    9   17    3      1.92      0.00
   10   17    3     -0.59      0.00
   11   17    3     -1.38      0.00
    1   18    3      1.52      0.00
    2   18    3     -0.04      0.00
    3   18    3     -0.83      0.00
    4   18    3     -0.35      0.00
    5   18    3      0.81      0.00
    6   18    3      0.68      0.00
    7   18    3      0.56      0.00
    8   18    3      0.99      0.00
    9   18    3      2.55      0.00
   10   18    3      0.75      0.00
   11   18    3     -0.48      0.00
    1   19    3      0.04      0.00
    2   19    3      0.38      0.00
    3   19    3      0.61      0.00
    4   19    3     -0.75      0.00
    5   19    3     -1.06      0.00
    6   19    3     -0.12      0.00
    7   19    3     -0.58      0.00
    8   19    3      0.34      0.00
    9   19    3     -0.52      0.00
   10   19    3      1.99      0.00
    1   20    3     -0.71      0.00
    2   20    3     -1.90      0.00
    3   20    3     -0.05      0.00
    4   20    3      2.86      0.00
    5   20    3      0.06      0.00
    6   20    3     -0.53      0.00
    7   20    3      1.32      0.00
    8   20    3     -0.93      0.00
    9   20    3     -0.32      0.00
   10   20    3      1.48      0.00
    1   21    3      0.21      0.00
    2   21    3      0.05      0.00
    3   21    3      0.92      0.00
    4   21    3      0.28      0.00
    5   21    3      2.46      0.00
    6   21    3      2.25      0.00
    7   21    3      0.16      0.00
    8   21    3     -0.34      0.00
    9   21    3      0.54      0.00
    1   22    3     -0.74      0.00
    2   22    3      0.03      0.00
    3   22    3     -0.74      0.00
    4   22    3      1.41      0.00
    5   22    3      1.50      0.00
    6   22    3      0.79      0.00
    7   22    3      0.72      0.00
    8   22    3      0.73      0.00
    1   23    3     -1.12      0.00
    2   23    3     -0.18      0.00
    3   23    3      0.51      0.00
    4   23    3      0.05      0.00
    5   23    3      0.58      0.00
    6   23    3     -0.52      0.00
    7   23    3     -0.50      0.00
    1   24    3     -0.35      0.00
    2   24    3     -1.66      0.00
    3   24    3     -1.35      0.00
    4   24    3      1.16      0.00
    5   24    3      0.96      0.00
    6   24    3      1.91      0.00
    1   25    3     -1.20      0.00
    2   25    3     -0.81      0.00
    3   25    3      0.08      0.00
    4   25    3      0.36      0.00
    5   25    3      2.02      0.00
    1   26    3      0.46      0.00
    2   26    3      0.35      0.00
    8    0    4      1.85      0.00
   10    0    4     -1.07      0.00
   12    0    4     -0.45      0.00
   14    0    4     -1.11      0.00
    0    1    4    -29.88      0.00
    1    1    4      4.39      0.00
    2    1    4      2.34      0.00
    3    1    4     12.14      0.00
    4    1    4      2.80      0.00
    5    1    4      0.66      0.00
    6    1    4     -0.09      0.00
    7    1    4     -0.79      0.00
    8    1    4     -2.48      0.00
    9    1    4      0.92      0.00
   10    1    4      0.36      0.00
   11    1    4      0.26      0.00
   12    1    4      0.27      0.00
   13    1    4     -0.43      0.00
   14    1    4     -0.02      0.00
   15    1    4     -0.07      0.00
    0    2    4     -5.79      0.00
    1    2    4      8.27      0.00
    2    2    4      1.49      0.00
    3    2    4     -2.99      0.00
    4    2    4      2.92      0.00
    5    2    4      1.87      0.00
    6    2    4      2.92      0.00
    7    2    4     -1.56      0.00
    8    2    4     -1.53      0.00
    9    2    4     -0.57      0.00
   10    2    4      0.66      0.00
   11    2    4      0.83      0.00
   12    2    4     -0.77      0.00
   13    2    4      0.28      0.00
   14    2    4      0.27      0.00
   15    2    4     -0.83      0.00
    0    3    4      3.69      0.00
    1    3    4    -22.85      0.00
    2    3    4      7.64      0.00
    3    3    4      0.15      0.00
    4    3    4      4.55      0.00
    5    3    4      1.43      0.00
    6    3    4     -1.78      0.00
    7    3    4     -1.03      0.00
    8    3    4      0.82      0.00
    9    3    4      0.83      0.00
   10    3    4     -1.05      0.00
   11    3    4      0.28      0.00
   12    3    4     -1.22      0.00
   13    3    4      0.81      0.00
   14    3    4     -0.88      0.00
   15    3    4      0.38      0.00
    0    4    4    -11.18      0.00
    1    4    4     -5.41      0.00
    2    4    4    -10.15      0.00
    3    4    4     12.05      0.00
    4    4    4     -6.51      0.00
    5    4    4     -3.18      0.00
    6    4    4      5.00      0.00
    7    4    4      1.22      0.00
    8    4    4      0.04      0.00
    9    4    4      0.54      0.00
   10    4    4      0.99      0.00
   11    4    4     -1.43      0.00
   12    4    4     -0.10      0.00
   13    4    4     -1.45      0.00
   14    4    4     -0.59      0.00
   15    4    4      0.25      0.00
    0    5    4     -6.90      0.00
    1    5    4      2.41      0.00
    2    5    4     -5.73      0.00
    3    5    4      2.74      0.00
    4    5    4      2.62      0.00
    5    5    4     -3.51      0.00
    6    5    4     -0.19      0.00
    7    5    4      2.38      0.00
    8    5    4      1.97      0.00
    9    5    4     -0.09      0.00
   10    5    4     -2.06      0.00
   11    5    4      1.53      0.00
   12    5    4     -1.07      0.00
   13    5    4     -0.69      0.00
   14    5    4     -0.89      0.00
   15    5    4     -0.85      0.00
    0    6    4      9.87      0.00
    1    6    4      5.26      0.00
    2    6    4      7.09      0.00
    3    6    4    -10.44      0.00
    4    6    4     -2.57      0.00
    5    6    4     -1.37      0.00
    6    6    4      0.19      0.00
    7    6    4     -0.70      0.00
    8    6    4      0.74      0.00
    9    6    4      1.21      0.00
   10    6    4      0.37      0.00
   11    6    4     -1.29      0.00
   12    6    4     -0.71      0.00
   13    6    4     -0.23      0.00
   14    6    4     -0.53      0.00
   15    6    4     -0.92      0.00
    0    7    4     -4.82      0.00
    1    7    4     -4.22      0.00
    2    7    4      2.79      0.00
    3    7    4      4.37      0.00
    4    7    4     -2.07      0.00
    5    7    4     -0.23      0.00
    6    7    4      0.89      0.00
    7    7    4     -0.59      0.00
    8    7    4      0.83      0.00
    9    7    4      0.95      0.00
   10    7    4     -1.00      0.00
   11    7    4     -1.14      0.00
   12    7    4     -1.35      0.00
   13    7    4     -0.22      0.00
   14    7    4      1.90      0.00
    0    8    4     -6.72      0.00
    1    8    4      0.11      0.00
    2    8    4     -2.82      0.00
    3    8    4      2.24      0.00
    4    8    4      1.10      0.00
    5    8    4     -4.40      0.00
    6    8    4      0.13      0.00
    7    8    4      1.88      0.00
    8    8    4     -0.54      0.00
    9    8    4     -0.27      0.00
   10    8    4      0.12      0.00
   11    8    4     -1.56      0.00
   12    8    4     -1.25      0.00
   13    8    4      0.73      0.00
   14    8    4      0.20      0.00
    0    9    4     -2.13      0.00
    1    9    4     -1.59      0.00
    2    9    4     -0.45      0.00
    3    9    4     -2.63      0.00
    4    9    4     -4.20      0.00
    5    9    4     -0.05      0.00
    6    9    4      0.44      0.00
    7    9    4      1.00      0.00
    8    9    4      1.06      0.00
    9    9    4     -1.06      0.00
   10    9    4     -1.26      0.00
   11    9    4      0.68      0.00
   12    9    4      1.03      0.00
   13    9    4      1.75      0.00
   14    9    4      1.66      0.00
    0   10    4      5.46      0.00
    1   10    4     -0.04      0.00
    2   10    4     -2.47      0.00
    3   10    4     -3.15      0.00
    4   10    4     -1.44      0.00
    5   10    4     -2.66      0.00
    6   10    4      1.35      0.00
    7   10    4     -0.22      0.00
    8   10    4     -0.79      0.00
    9   10    4     -1.42      0.00
   10   10    4      0.41      0.00
   11   10    4      0.11      0.00
   12   10    4     -0.12      0.00
   13   10    4      0.76      0.00
   14   10    4     -0.79      0.00
    0   11    4      4.03      0.00
    1   11    4      1.75      0.00
    2   11    4     -3.04      0.00
    3   11    4     -0.14      0.00
    4   11    4      0.17      0.00
    5   11    4      1.44      0.00
    6   11    4      0.30      0.00
    7   11    4      0.86      0.00
    8   11    4     -1.32      0.00
    9   11    4     -0.80      0.00
   10   11    4     -1.12      0.00
   11   11    4      1.63      0.00
   12   11    4      1.29      0.00
   13   11    4     -2.12      0.00
   14   11    4      0.47      0.00
    0   12    4     -0.96      0.00
    1   12    4      2.42      0.00
    2   12    4      1.87      0.00
    3   12    4     -1.77      0.00
    4   12    4      2.43      0.00
    5   12    4     -1.05      0.00
    6   12    4     -1.84      0.00
    7   12    4      1.42      0.00
    8   12    4      0.08      0.00
    9   12    4      0.11      0.00
   10   12    4      0.50      0.00
   11   12    4     -0.65      0.00
   12   12    4     -0.73      0.00
   13   12    4      1.11      0.00
    0   13    4     -0.97      0.00
    1   13    4      0.95      0.00
    2   13    4      1.50      0.00
    3   13    4      0.52      0.00
    4   13    4     -1.56      0.00
    5   13    4     -0.13      0.00
    6   13    4      0.69      0.00
    7   13    4     -0.90      0.00
    8   13    4      2.06      0.00
    9   13    4      0.41      0.00
   10   13    4     -0.01      0.00
   11   13    4      0.80      0.00
   12   13    4      0.03      0.00
   13   13    4      0.47      0.00
    0   14    4      0.95      0.00
    1   14    4     -0.72      0.00
    2   14    4      1.01      0.00
    3   14    4      0.81      0.00
    4   14    4     -0.39      0.00
    5   14    4      1.08      0.00
    6   14    4     -0.18      0.00
    7   14    4      0.88      0.00
    8   14    4     -0.29      0.00
    9   14    4      0.38      0.00
   10   14    4      0.26      0.00
   11   14    4     -0.11      0.00
   12   14    4      0.96      0.00
   13   14    4      0.32      0.00
    0   15    4      0.00      0.00
    1   15    4      1.64      0.00
    2   15    4     -1.99      0.00
    3   15    4     -2.30      0.00
    4   15    4      0.15      0.00
    5   15    4      0.14      0.00
    6   15    4      0.62      0.00
    7   15    4      1.00      0.00
    8   15    4     -0.11      0.00
    9   15    4     -0.28      0.00
   10   15    4     -0.27      0.00
   11   15    4      0.76      0.00
   12   15    4     -1.20      0.00
    0   16    4      1.40      0.00
    1   16    4     -2.32      0.00
    2   16    4     -1.21      0.00
    3   16    4     -0.71      0.00
    4   16    4     -0.12      0.00
    5   16    4      0.61      0.00
    6   16    4     -0.48      0.00
    7   16    4      0.60      0.00
    8   16    4      1.45      0.00
    9   16    4      1.47      0.00
   10   16    4     -0.24      0.00
   11   16    4     -1.69      0.00
   12   16    4      0.50      0.00
    0   17    4     -1.12      0.00
    1   17    4     -0.77      0.00
    2   17    4     -0.57      0.00
    3   17    4      0.43      0.00
    4   17    4     -0.07      0.00
    5   17    4     -0.70      0.00
    6   17    4     -0.57      0.00
    7   17    4     -0.70      0.00
    8   17    4     -0.58      0.00
    9   17    4      1.70      0.00
   10   17    4     -0.47      0.00
   11   17    4      0.02      0.00
    0   18    4     -1.04      0.00
    1   18    4      0.50      0.00
    2   18    4     -0.29      0.00
    3   18    4      0.13      0.00
    4   18    4     -0.68      0.00
    5   18    4     -1.70      0.00
    6   18    4     -1.45      0.00
    7   18    4     -0.74      0.00
    8   18    4      2.08      0.00
    9   18    4      0.29      0.00
   10   18    4     -0.22      0.00
   11   18    4      1.05      0.00
    0   19    4      0.72      0.00
    1   19    4     -0.36      0.00
    2   19    4      0.61      0.00
    3   19    4     -0.73      0.00
    4   19    4      0.00      0.00
    5   19    4      0.01      0.00
    6   19    4     -1.14      0.00
    7   19    4      0.49      0.00
    8   19    4     -0.99      0.00
    9   19    4      0.67      0.00
   10   19    4     -0.26      0.00
    0   20    4      0.27      0.00
    1   20    4      0.99      0.00
    2   20    4     -0.70      0.00
    3   20    4     -3.34      0.00
    4   20    4     -0.05      0.00
    5   20    4      0.91      0.00
    6   20    4      1.21      0.00
    7   20    4     -0.96      0.00
    8   20    4     -0.41      0.00
    9   20    4     -0.32      0.00
   10   20    4     -0.06      0.00
    0   21    4     -0.57      0.00
    1   21    4     -0.30      0.00
    2   21    4     -0.83      0.00
    3   21    4      0.06      0.00
    4   21    4     -1.34      0.00
    5   21    4      0.74      0.00
    6   21    4      0.31      0.00
    7   21    4      0.45      0.00
    8   21    4     -0.81      0.00
    9   21    4     -0.59      0.00
    0   22    4     -0.50      0.00
    1   22    4      0.03      0.00
    2   22    4     -0.09      0.00
    3   22    4     -0.58      0.00
    4   22    4     -0.73      0.00
    5   22    4     -0.39      0.00
    6   22    4     -0.14      0.00
    7   22    4     -0.36      0.00
    8   22    4      0.18      0.00
    0   23    4     -1.01      0.00
    1   23    4     -0.94      0.00
    2   23    4      0.20      0.00
    3   23    4      1.73      0.00
    4   23    4      1.21      0.00
    5   23    4     -0.14      0.00
    6   23    4     -0.44      0.00
    7   23    4      0.79      0.00
    0   24    4      0.99      0.00
    1   24    4     -0.07      0.00
    2   24    4     -0.80      0.00
    3   24    4      0.46      0.00
    4   24    4      1.36      0.00
    5   24    4     -0.12      0.00
    6   24    4      0.08      0.00
    0   25    4     -2.11      0.00
    1   25    4     -0.02      0.00
    2   25    4     -1.42      0.00
    3   25    4     -0.07      0.00
    4   25    4     -0.05      0.00
    0   26    4     -1.11      0.00
    1   26    4     -2.69      0.00
    2   26    4     -0.84      0.00
    4    0    5     -2.98      0.00
    6    0    5     -1.35      0.00
    8    0    5      3.55      0.00
   10    0    5      1.62      0.00
   12    0    5      1.42      0.00
   14    0    5     -0.52      0.00
    1    1    5      2.40      0.00
    2    1    5     11.92      0.00
    3    1    5      1.67      0.00
    4    1    5     -6.38      0.00
    5    1    5     -0.67      0.00
    6    1    5      0.15      0.00
    7    1    5      0.43      0.00
    8    1    5      0.87      0.00
    9    1    5      1.59      0.00
   10    1    5      0.51      0.00
   11    1    5      0.42      0.00
   12    1    5     -0.04      0.00
   13    1    5      0.99      0.00
   14    1    5     -1.27      0.00
   15    1    5     -0.75      0.00
    1    2    5      7.08      0.00
    2    2    5      3.15      0.00
    3    2    5      3.96      0.00
    4    2    5     -4.15      0.00
    5    2    5     -0.37      0.00
    6    2    5     -0.53      0.00
    7    2    5      0.32      0.00
    8    2    5      1.22      0.00
    9    2    5      0.78      0.00
   10    2    5      0.77      0.00
   11    2    5      1.00      0.00
   12    2    5     -0.09      0.00
   13    2    5     -0.69      0.00
   14    2    5     -1.56      0.00
   15    2    5     -0.85      0.00
    1    3    5      2.35      0.00
    2    3    5     -3.51      0.00
    3    3    5     -9.20      0.00
    4    3    5      1.50      0.00
    5    3    5      3.05      0.00
    6    3    5      0.59      0.00
    7    3    5     -3.62      0.00
    8    3    5      0.71      0.00
    9    3    5      1.20      0.00
   10    3    5      1.06      0.00
   11    3    5      0.20      0.00
   12    3    5      0.07      0.00
   13    3    5     -1.57      0.00
   14    3    5     -0.64      0.00
   15    3    5      0.00      0.00
    1    4    5      8.51      0.00
    2    4    5     -1.77      0.00
    3    4    5     -1.12      0.00
    4    4    5     -7.24      0.00
    5    4    5     -3.20      0.00
    6    4    5     -2.26      0.00
    7    4    5     -1.31      0.00
    8    4    5      1.75      0.00
    9    4    5      0.70      0.00
   10    4    5      1.74      0.00
   11    4    5      0.28      0.00
   12    4    5      0.07      0.00
   13    4    5     -0.26      0.00
   14    4    5     -1.11      0.00
   15    4    5      0.15      0.00
    1    5    5     -7.61      0.00
    2    5    5      5.56      0.00
    3    5    5     -3.12      0.00
    4    5    5     -5.00      0.00
    5    5    5     -1.48      0.00
    6    5    5     -1.40      0.00
    7    5    5      0.72      0.00
    8    5    5      1.58      0.00
    9    5    5      3.05      0.00
   10    5    5      0.70      0.00
   11    5    5     -0.25      0.00
   12    5    5      0.25      0.00
   13    5    5      0.72      0.00
   14    5    5     -0.54      0.00
   15    5    5     -0.31      0.00
    1    6    5      9.70      0.00
    2    6    5     -0.29      0.00
    3    6    5      2.45      0.00
    4    6    5     -0.76      0.00
    5    6    5     -2.59      0.00
    6    6    5      1.54      0.00
    7    6    5     -1.52      0.00
    8    6    5      0.02      0.00
    9    6    5     -0.32      0.00
   10    6    5     -0.47      0.00
   11    6    5     -0.44      0.00
   12    6    5     -0.58      0.00
   13    6    5      0.30      0.00
   14    6    5     -1.26      0.00
   15    6    5     -0.95      0.00
    1    7    5     -1.90      0.00
    2    7    5     -0.27      0.00
    3    7    5     -1.79      0.00
    4    7    5     -2.55      0.00
    5    7    5      3.83      0.00
    6    7    5      0.83      0.00
    7    7    5     -1.05      0.00
    8    7    5      1.16      0.00
    9    7    5     -1.98      0.00
   10    7    5     -1.12      0.00
   11    7    5     -0.72      0.00
   12    7    5     -1.04      0.00
   13    7    5     -2.61      0.00
   14    7    5      0.03      0.00
    1    8    5      0.36      0.00
    2    8    5     -3.21      0.00
    3    8    5      0.60      0.00
    4    8    5      4.38      0.00
    5    8    5      0.57      0.00
    6    8    5      1.90      0.00
    7    8    5     -1.79      0.00
    8    8    5     -1.08      0.00
    9    8    5      0.83      0.00
   10    8    5     -0.09      0.00
   11    8    5     -0.33      0.00
   12    8    5      0.69      0.00
   13    8    5     -0.50      0.00
   14    8    5     -2.95      0.00
    1    9    5     -2.08      0.00
    2    9    5     -0.59      0.00
    3    9    5      1.72      0.00
    4    9    5      1.61      0.00
    5    9    5      3.24      0.00
    6    9    5     -1.01      0.00
    7    9    5      0.82      0.00
    8    9    5     -1.30      0.00
    9    9    5      0.81      0.00
   10    9    5      0.79      0.00
   11    9    5      0.84      0.00
   12    9    5     -1.78      0.00
   13    9    5      0.15      0.00
   14    9    5      0.09      0.00
    1   10    5      1.86      0.00
    2   10    5      1.06      0.00
    3   10    5      0.30      0.00
    4   10    5      1.42      0.00
    5   10    5     -0.08      0.00
    6   10    5      2.07      0.00
    7   10    5     -0.74      0.00
    8   10    5     -0.16      0.00
    9   10    5     -1.75      0.00
   10   10    5      0.05      0.00
   11   10    5     -0.27      0.00
   12   10    5      1.33      0.00
   13   10    5     -0.14      0.00
   14   10    5      0.26      0.00
    1   11    5     -0.79      0.00
    2   11    5      1.48      0.00
    3   11    5     -0.39      0.00
    4   11    5     -3.13      0.00
    5   11    5      0.01      0.00
    6   11    5      1.77      0.00
    7   11    5      1.66      0.00
    8   11    5     -0.08      0.00
    9   11    5     -1.39      0.00
   10   11    5     -0.05      0.00
   11   11    5      0.16      0.00
   12   11    5     -1.56      0.00
   13   11    5      0.93      0.00
   14   11    5      0.52      0.00
    1   12    5      0.46      0.00
    2   12    5     -1.34      0.00
    3   12    5      0.12      0.00
    4   12    5      2.49      0.00
    5   12    5      0.35      0.00
    6   12    5      2.16      0.00
    7   12    5     -1.39      0.00
    8   12    5     -2.32      0.00
    9   12    5      0.66      0.00
   10   12    5      0.91      0.00
   11   12    5     -0.43      0.00
   12   12    5     -1.48      0.00
   13   12    5     -0.57      0.00
    1   13    5     -0.02      0.00
    2   13    5      0.46      0.00
    3   13    5      1.41      0.00
    4   13    5      0.65      0.00
    5   13    5      0.51      0.00
    6   13    5     -2.33      0.00
    7   13    5     -0.29      0.00
    8   13    5      0.51      0.00
    9   13    5     -0.05      0.00
   10   13    5      0.16      0.00
   11   13    5      0.49      0.00
   12   13    5     -1.46      0.00
   13   13    5     -0.93      0.00
    1   14    5     -0.67      0.00
    2   14    5     -0.30      0.00
    3   14    5      0.92      0.00
    4   14    5      0.40      0.00
    5   14    5     -0.30      0.00
    6   14    5     -1.17      0.00
    7   14    5     -0.41      0.00
    8   14    5      2.26      0.00
    9   14    5      1.54      0.00
   10   14    5      0.39      0.00
   11   14    5     -0.90      0.00
   12   14    5     -0.14      0.00
   13   14    5     -0.92      0.00
    1   15    5      1.02      0.00
    2   15    5      0.50      0.00
    3   15    5     -0.37      0.00
    4   15    5     -0.14      0.00
    5   15    5     -3.33      0.00
    6   15    5      1.77      0.00
    7   15    5      1.73      0.00
    8   15    5      0.23      0.00
    9   15    5      0.01      0.00
   10   15    5      0.14      0.00
   11   15    5     -0.78      0.00
   12   15    5     -0.69      0.00
    1   16    5      0.02      0.00
    2   16    5      0.58      0.00
    3   16    5     -0.83      0.00
    4   16    5     -0.99      0.00
    5   16    5     -0.25      0.00
    6   16    5     -0.50      0.00
    7   16    5      0.92      0.00
    8   16    5      0.39      0.00
    9   16    5     -1.51      0.00
   10   16    5     -1.48      0.00
   11   16    5      0.01      0.00
   12   16    5     -1.28      0.00
    1   17    5     -0.34      0.00
    2   17    5      0.00      0.00
    3   17    5      0.50      0.00
    4   17    5     -0.03      0.00
    5   17    5      0.23      0.00
    6   17    5     -0.21      0.00
    7   17    5     -1.69      0.00
    8   17    5      0.62      0.00
    9   17    5      1.29      0.00
   10   17    5     -3.10      0.00
   11   17    5      0.38      0.00
    1   18    5      0.99      0.00
    2   18    5     -0.42      0.00
    3   18    5      0.70      0.00
    4   18    5      1.11      0.00
    5   18    5     -0.15      0.00
    6   18    5     -1.45      0.00
    7   18    5     -0.73      0.00
    8   18    5     -0.54      0.00
    9   18    5     -1.73      0.00
   10   18    5      1.48      0.00
   11   18    5     -0.16      0.00
    1   19    5     -0.26      0.00
    2   19    5      0.17      0.00
    3   19    5      0.74      0.00
    4   19    5      1.90      0.00
    5   19    5     -1.21      0.00
    6   19    5      0.05      0.00
    7   19    5      0.27      0.00
    8   19    5     -1.38      0.00
    9   19    5     -1.31      0.00
   10   19    5     -2.08      0.00
    1   20    5      1.26      0.00
    2   20    5     -0.43      0.00
    3   20    5     -0.10      0.00
    4   20    5     -0.31      0.00
    5   20    5     -0.36      0.00
    6   20    5     -0.53      0.00
    7   20    5      0.59      0.00
    8   20    5     -0.83      0.00
    9   20    5     -1.24      0.00
    1   21    5     -1.01      0.00
    2   21    5     -0.10      0.00
    3   21    5     -1.09      0.00
    4   21    5     -1.49      0.00
    5   21    5      1.23      0.00
    6   21    5      1.26      0.00
    7   21    5     -0.88      0.00
    8   21    5      0.65      0.00
    9   21    5     -0.58      0.00
    1   22    5     -0.72      0.00
    2   22    5      0.07      0.00
    3   22    5      0.64      0.00
    4   22    5      0.43      0.00
    5   22    5      0.14      0.00
    6   22    5     -0.70      0.00
    7   22    5      0.89      0.00
    8   22    5     -1.66      0.00
    1   23    5     -0.91      0.00
    2   23    5     -1.28      0.00
    3   23    5      0.24      0.00
    4   23    5      0.68      0.00
    5   23    5      0.17      0.00
    6   23    5      0.40      0.00
    7   23    5     -0.22      0.00
    1   24    5     -0.44      0.00
    2   24    5      0.08      0.00
    3   24    5     -0.89      0.00
    4   24    5      0.12      0.00
    5   24    5     -0.33      0.00
    6   24    5      1.76      0.00
    1   25    5     -0.42      0.00
    2   25    5     -1.70      0.00
    3   25    5     -0.33      0.00
    4   25    5     -0.98      0.00
    1   26    5     -0.31      0.00
    6    0    6     -4.47      0.00
    8    0    6     -0.09      0.00
   10    0    6      0.83      0.00
   12    0    6      1.58      0.00
   14    0    6      0.75      0.00
    0    1    6    -11.27      0.00
    1    1    6     -0.59      0.00
    2    1    6      8.79      0.00
    3    1    6      1.74      0.00
    4    1    6      3.37      0.00
    5    1    6     -2.10      0.00
    6    1    6     -1.98      0.00
    7    1    6     -0.72      0.00
    8    1    6     -0.51      0.00
    9    1    6     -0.50      0.00
   10    1    6      0.17      0.00
   11    1    6      0.15      0.00
   12    1    6     -0.54      0.00
   13    1    6     -0.46      0.00
   14    1    6      1.70      0.00
   15    1    6     -0.06      0.00
    0    2    6     -4.41      0.00
    1    2    6      2.28      0.00
    2    2    6      1.89      0.00
    3    2    6      2.16      0.00
    4    2    6     -1.42      0.00
    5    2    6     -0.20      0.00
    6    2    6     -2.26      0.00
    7    2    6     -1.19      0.00
    8    2    6     -0.48      0.00
    9    2    6      0.66      0.00
   10    2    6     -0.97      0.00
   11    2    6     -0.25      0.00
   12    2    6      0.20      0.00
   13    2    6      0.71      0.00
   14    2    6     -0.11      0.00
   15    2    6      0.48      0.00
    0    3    6     13.99      0.00
    1    3    6     -8.16      0.00
    2    3    6     -1.62      0.00
    3    3    6     -0.31      0.00
    4    3    6      0.13      0.00
    5    3    6     -0.54      0.00
    6    3    6     -3.52      0.00
    7    3    6      0.61      0.00
    8    3    6      0.15      0.00
    9    3    6     -0.79      0.00
   10    3    6      1.64      0.00
   11    3    6     -0.52      0.00
   12    3    6      0.32      0.00
   13    3    6     -0.27      0.00
   14    3    6     -0.40      0.00
   15    3    6      0.46      0.00
    0    4    6      0.13      0.00
    1    4    6      2.27      0.00
    2    4    6     -3.77      0.00
    3    4    6      4.64      0.00
    4    4    6      1.50      0.00
    5    4    6     -1.14      0.00
    6    4    6     -0.73      0.00
    7    4    6     -4.11      0.00
    8    4    6     -0.23      0.00
    9    4    6     -0.56      0.00
   10    4    6      0.34      0.00
   11    4    6      1.48      0.00
   12    4    6     -0.04      0.00
   13    4    6     -0.60      0.00
   14    4    6      1.16      0.00
   15    4    6     -0.55      0.00
    0    5    6      6.99      0.00
    1    5    6      7.83      0.00
    2    5    6      3.07      0.00
    3    5    6      0.52      0.00
    4    5    6     -0.50      0.00
    5    5    6      3.57      0.00
    6    5    6     -6.55      0.00
    7    5    6     -1.58      0.00
    8    5    6      0.42      0.00
    9    5    6      0.47      0.00
   10    5    6     -0.83      0.00
   11    5    6      0.90      0.00
   12    5    6      0.36      0.00
   13    5    6      0.49      0.00
   14    5    6      0.80      0.00
   15    5    6      0.90      0.00
    0    6    6      2.08      0.00
    1    6    6     -1.27      0.00
    2    6    6      5.44      0.00
    3    6    6      2.85      0.00
    4    6    6      3.27      0.00
    5    6    6     -2.17      0.00
    6    6    6      1.44      0.00
    7    6    6     -1.45      0.00
    8    6    6      0.08      0.00
    9    6    6     -0.49      0.00
   10    6    6      0.00      0.00
   11    6    6     -2.85      0.00
   12    6    6     -0.59      0.00
   13    6    6      1.92      0.00
   14    6    6      1.31      0.00
    0    7    6     -0.60      0.00
    1    7    6      2.04      0.00
    2    7    6      1.47      0.00
    3    7    6      1.15      0.00
    4    7    6      0.75      0.00
    5    7    6     -0.23      0.00
    6    7    6     -1.30      0.00
    7    7    6      3.34      0.00
    8    7    6      0.11      0.00
    9    7    6     -0.54      0.00
   10    7    6     -0.81      0.00
   11    7    6      0.85      0.00
   12    7    6     -0.46      0.00
   13    7    6     -1.73      0.00
   14    7    6      2.22      0.00
    0    8    6     -2.93      0.00
    1    8    6      0.50      0.00
    2    8    6     -2.20      0.00
    3    8    6      0.14      0.00
    4    8    6     -3.69      0.00
    5    8    6      2.22      0.00
    6    8    6      2.29      0.00
    7    8    6     -0.37      0.00
    8    8    6     -0.10      0.00
    9    8    6      0.06      0.00
   10    8    6     -0.27      0.00
   11    8    6      0.14      0.00
   12    8    6      0.15      0.00
   13    8    6      2.00      0.00
   14    8    6     -1.11      0.00
    0    9    6      4.00      0.00
    1    9    6     -3.02      0.00
    2    9    6     -2.27      0.00
    3    9    6     -2.37      0.00
    4    9    6     -1.54      0.00
    5    9    6     -1.41      0.00
    6    9    6     -2.21      0.00
    7    9    6     -1.71      0.00
    8    9    6      0.60      0.00
    9    9    6     -0.41      0.00
   10    9    6      1.16      0.00
   11    9    6     -0.37      0.00
   12    9    6     -0.19      0.00
   13    9    6     -1.44      0.00
   14    9    6     -0.46      0.00
    0   10    6     -1.99      0.00
    1   10    6     -2.10      0.00
    2   10    6     -2.17      0.00
    3   10    6      1.14      0.00
    4   10    6      3.29      0.00
    5   10    6     -1.29      0.00
    6   10    6     -0.95      0.00
    7   10    6      0.97      0.00
    8   10    6     -1.24      0.00
    9   10    6      1.43      0.00
   10   10    6      0.64      0.00
   11   10    6     -2.91      0.00
   12   10    6     -1.77      0.00
   13   10    6      0.11      0.00
   14   10    6      0.67      0.00
    0   11    6     -4.08      0.00
    1   11    6     -0.29      0.00
    2   11    6      1.61      0.00
    3   11    6      0.51      0.00
    4   11    6      0.81      0.00
    5   11    6     -0.02      0.00
    6   11    6     -2.07      0.00
    7   11    6     -0.66      0.00
    8   11    6      2.67      0.00
    9   11    6      0.02      0.00
   10   11    6     -0.94      0.00
   11   11    6     -0.53      0.00
   12   11    6     -1.40      0.00
   13   11    6     -1.13      0.00
    0   12    6      1.33      0.00
    1   12    6     -0.44      0.00
    2   12    6      0.60      0.00
    3   12    6     -0.29      0.00
    4   12    6     -2.51      0.00
    5   12    6      0.75      0.00
    6   12    6      1.85      0.00
    7   12    6      0.61      0.00
    8   12    6      0.14      0.00
    9   12    6      1.47      0.00
   10   12    6      0.03      0.00
   11   12    6     -0.23      0.00
   12   12    6     -0.41      0.00
   13   12    6      1.81      0.00
    0   13    6     -0.62      0.00
    1   13    6      1.20      0.00
    2   13    6     -0.18      0.00
    3   13    6     -0.01      0.00
    4   13    6      0.71      0.00
    5   13    6      0.55      0.00
    6   13    6      0.29      0.00
    7   13    6     -2.39      0.00
    8   13    6      0.17      0.00
    9   13    6     -0.99      0.00
   10   13    6      0.30      0.00
   11   13    6      0.09      0.00
   12   13    6      1.17      0.00
   13   13    6     -0.76      0.00
    0   14    6      2.42      0.00
    1   14    6      0.32      0.00
    2   14    6     -0.62      0.00
    3   14    6     -1.10      0.00
    4   14    6      0.71      0.00
    5   14    6      0.31      0.00
    6   14    6     -0.13      0.00
    7   14    6      1.13      0.00
    8   14    6     -1.23      0.00
    9   14    6     -0.81      0.00
   10   14    6      0.80      0.00
   11   14    6      0.15      0.00
   12   14    6     -2.03      0.00
    0   15    6      1.19      0.00
    1   15    6     -0.36      0.00
    2   15    6     -0.27      0.00
    3   15    6      1.79      0.00
    4   15    6     -1.13      0.00
    5   15    6     -0.48      0.00
    6   15    6     -0.68      0.00
    7   15    6      0.77      0.00
    8   15    6      1.99      0.00
    9   15    6      0.24      0.00
   10   15    6     -1.64      0.00
   11   15    6     -1.72      0.00
   12   15    6     -0.80      0.00
    0   16    6     -0.65      0.00
    1   16    6      0.72      0.00
    2   16    6      0.38      0.00
    3   16    6      1.10      0.00
    4   16    6     -0.96      0.00
    5   16    6     -0.86      0.00
    6   16    6      1.11      0.00
    7   16    6     -0.18      0.00
    8   16    6      0.85      0.00
    9   16    6     -0.85      0.00
   10   16    6     -0.27      0.00
   11   16    6     -0.88      0.00
   12   16    6     -1.79      0.00
    0   17    6      0.67      0.00
    1   17    6     -0.22      0.00
    2   17    6      0.04      0.00
    3   17    6     -0.05      0.00
    4   17    6      0.94      0.00
    5   17    6     -0.94      0.00
    6   17    6     -0.90      0.00
    7   17    6      0.12      0.00
    8   17    6     -0.53      0.00
    9   17    6     -0.67      0.00
   10   17    6     -0.22      0.00
   11   17    6      0.62      0.00
    0   18    6     -0.40      0.00
    1   18    6      0.28      0.00
    2   18    6      0.01      0.00
    3   18    6      0.10      0.00
    4   18    6     -1.08      0.00
    5   18    6      0.02      0.00
    6   18    6     -0.71      0.00
    7   18    6     -0.27      0.00
    8   18    6      0.09      0.00
    9   18    6     -0.50      0.00
   10   18    6     -0.03      0.00
   11   18    6      1.19      0.00
    0   19    6      0.95      0.00
    1   19    6     -0.64      0.00
    2   19    6      0.02      0.00
    3   19    6     -1.06      0.00
    4   19    6      0.31      0.00
    5   19    6      0.33      0.00
    6   19    6      0.96      0.00
    7   19    6      0.52      0.00
    8   19    6     -0.76      0.00
    9   19    6      0.85      0.00
   10   19    6      1.29      0.00
    0   20    6     -0.84      0.00
    1   20    6      1.17      0.00
    2   20    6      0.28      0.00
    3   20    6     -0.02      0.00
    4   20    6      0.94      0.00
    5   20    6     -0.19      0.00
    6   20    6      0.42      0.00
    7   20    6     -0.79      0.00
    8   20    6     -0.05      0.00
    9   20    6     -1.16      0.00
    0   21    6      2.07      0.00
    1   21    6      0.11      0.00
    2   21    6      0.48      0.00
    3   21    6      0.26      0.00
    4   21    6     -1.56      0.00
    5   21    6     -0.46      0.00
    6   21    6     -0.28      0.00
    7   21    6     -0.89      0.00
    8   21    6     -1.06      0.00
    9   21    6     -0.75      0.00
    0   22    6      0.15      0.00
    1   22    6     -0.26      0.00
    2   22    6      0.36      0.00
    3   22    6      0.93      0.00
    4   22    6      0.44      0.00
    5   22    6     -0.32      0.00
    6   22    6      0.59      0.00
    7   22    6     -1.20      0.00
    8   22    6     -2.28      0.00
    0   23    6      0.47      0.00
    1   23    6     -0.13      0.00
    2   23    6     -0.67      0.00
    3   23    6      1.58      0.00
    4   23    6      0.00      0.00
    5   23    6      1.03      0.00
    6   23    6     -0.48      0.00
    7   23    6      0.61      0.00
    0   24    6     -1.16      0.00
    1   24    6      0.13      0.00
    2   24    6      0.18      0.00
    3   24    6     -0.73      0.00
    4   24    6      1.46      0.00
    5   24    6      0.31      0.00
    0   25    6     -0.75      0.00
    1   25    6      0.03      0.00
    2   25    6     -0.21      0.00
    3   25    6      0.79      0.00
    4   25    6     -0.97      0.00
    2    0    7     10.66      0.00
    6    0    7     -0.07      0.00
    8    0    7     -7.33      0.00
   10    0    7     -0.93      0.00
   12    0    7     -1.04      0.00
   14    0    7     -1.49      0.00
    1    1    7      5.64      0.00
    2    1    7     10.65      0.00
    3    1    7     -0.78      0.00
    4    1    7      1.58      0.00
    5    1    7      0.16      0.00
    6    1    7     -3.61      0.00
    7    1    7     -2.63      0.00
    8    1    7     -1.11      0.00
    9    1    7     -2.36      0.00
   10    1    7      0.11      0.00
   11    1    7      0.37      0.00
   12    1    7     -2.28      0.00
   13    1    7     -0.54      0.00
   14    1    7     -0.53      0.00
   15    1    7     -1.70      0.00
    1    2    7      0.48      0.00
    2    2    7      1.20      0.00
    3    2    7      4.27      0.00
    4    2    7      2.37      0.00
    5    2    7      1.22      0.00
    6    2    7     -1.93      0.00
    7    2    7     -2.15      0.00
    8    2    7     -0.79      0.00
    9    2    7     -0.85      0.00
   10    2    7     -0.47      0.00
   11    2    7     -0.41      0.00
   12    2    7      0.06      0.00
   13    2    7     -1.49      0.00
   14    2    7     -1.49      0.00
   15    2    7     -0.14      0.00
    1    3    7      3.58      0.00
    2    3    7     -0.16      0.00
    3    3    7     -1.83      0.00
    4    3    7     -0.57      0.00
    5    3    7      1.61      0.00
    6    3    7     -0.29      0.00
    7    3    7      0.56      0.00
    8    3    7     -0.55      0.00
    9    3    7      0.46      0.00
   10    3    7      0.59      0.00
   11    3    7      0.10      0.00
   12    3    7      1.06      0.00
   13    3    7      0.47      0.00
   14    3    7     -1.15      0.00
   15    3    7     -1.81      0.00
    1    4    7     -0.52      0.00
    2    4    7      2.71      0.00
    3    4    7     -0.61      0.00
    4    4    7      0.29      0.00
    5    4    7     -2.76      0.00
    6    4    7      2.43      0.00
    7    4    7      3.51      0.00
    8    4    7      1.28      0.00
    9    4    7     -0.49      0.00
   10    4    7      0.59      0.00
   11    4    7      0.94      0.00
   12    4    7      0.70      0.00
   13    4    7      0.91      0.00
   14    4    7      0.45      0.00
   15    4    7     -0.58      0.00
    1    5    7     -1.81      0.00
    2    5    7      2.99      0.00
    3    5    7      0.58      0.00
    4    5    7      0.95      0.00
    5    5    7      4.22      0.00
    6    5    7     -0.75      0.00
    7    5    7      1.71      0.00
    8    5    7     -1.04      0.00
    9    5    7     -1.05      0.00
   10    5    7      0.09      0.00
   11    5    7      0.24      0.00
   12    5    7     -0.94      0.00
   13    5    7      1.79      0.00
   14    5    7     -0.04      0.00
    1    6    7     -2.12      0.00
    2    6    7     -4.19      0.00
    3    6    7      1.94      0.00
    4    6    7      0.92      0.00
    5    6    7      1.94      0.00
    6    6    7      2.23      0.00
    7    6    7     -1.57      0.00
    8    6    7     -1.07      0.00
    9    6    7     -1.24      0.00
   10    6    7     -1.61      0.00
   11    6    7     -1.22      0.00
   12    6    7     -1.19      0.00
   13    6    7     -1.95      0.00
   14    6    7      0.84      0.00
    1    7    7     -0.57      0.00
    2    7    7      0.46      0.00
    3    7    7      2.03      0.00
    4    7    7      1.12      0.00
    5    7    7     -0.76      0.00
    6    7    7     -0.25      0.00
    7    7    7     -0.67      0.00
    8    7    7     -0.75      0.00
    9    7    7      0.43      0.00
   10    7    7     -0.73      0.00
   11    7    7     -1.72      0.00
   12    7    7      0.44      0.00
   13    7    7     -1.61      0.00
   14    7    7     -0.10      0.00
    1    8    7      1.17      0.00
    2    8    7     -0.23      0.00
    3    8    7     -1.93      0.00
    4    8    7      1.57      0.00
    5    8    7     -0.18      0.00
    6    8    7     -0.56      0.00
    7    8    7      2.59      0.00
    8    8    7      0.90      0.00
    9    8    7      1.43      0.00
   10    8    7      1.82      0.00
   11    8    7     -0.26      0.00
   12    8    7     -0.33      0.00
   13    8    7      0.35      0.00
   14    8    7     -1.08      0.00
    1    9    7      1.04      0.00
    2    9    7      0.88      0.00
    3    9    7     -1.16      0.00
    4    9    7     -1.40      0.00
    5    9    7      3.31      0.00
    6    9    7      0.61      0.00
    7    9    7     -1.24      0.00
    8    9    7     -0.42      0.00
    9    9    7     -0.45      0.00
   10    9    7     -0.02      0.00
   11    9    7      2.26      0.00
   12    9    7      0.87      0.00
   13    9    7      0.98      0.00
   14    9    7     -0.94      0.00
    1   10    7     -0.71      0.00
    2   10    7     -1.85      0.00
    3   10    7     -0.97      0.00
    4   10    7     -1.09      0.00
    5   10    7     -1.41      0.00
    6   10    7      0.75      0.00
    7   10    7      0.93      0.00
    8   10    7     -1.51      0.00
    9   10    7     -0.18      0.00
   10   10    7      0.81      0.00
   11   10    7     -0.03      0.00
   12   10    7      1.25      0.00
   13   10    7      1.16      0.00
   14   10    7      0.41      0.00
    1   11    7     -1.57      0.00
    2   11    7      0.15      0.00
    3   11    7      0.25      0.00
    4   11    7      0.63      0.00
    5   11    7     -0.75      0.00
    6   11    7     -1.52      0.00
    7   11    7     -1.74      0.00
    8   11    7     -0.98      0.00
    9   11    7      0.18      0.00
   10   11    7      1.49      0.00
   11   11    7     -0.14      0.00
   12   11    7      1.55      0.00
   13   11    7      0.32      0.00
    1   12    7      0.89      0.00
    2   12    7      0.20      0.00
    3   12    7     -0.12      0.00
    4   12    7     -1.21      0.00
    5   12    7     -1.11      0.00
    6   12    7     -2.56      0.00
    7   12    7     -0.40      0.00
    8   12    7      1.82      0.00
    9   12    7      0.39      0.00
   10   12    7     -0.93      0.00
   11   12    7      0.65      0.00
   12   12    7     -1.08      0.00
   13   12    7      0.35      0.00
    1   13    7     -0.20      0.00
    2   13    7     -0.16      0.00
    3   13    7      0.17      0.00
    4   13    7     -2.32      0.00
    5   13    7     -0.89      0.00
    6   13    7      0.65      0.00
    7   13    7      1.06      0.00
    8   13    7      0.70      0.00
    9   13    7     -0.17      0.00
   10   13    7     -0.62      0.00
   11   13    7     -1.77      0.00
   12   13    7      0.94      0.00
   13   13    7      0.08      0.00
    1   14    7      0.74      0.00
    2   14    7      0.12      0.00
    3   14    7     -1.44      0.00
    4   14    7     -1.13      0.00
    5   14    7     -0.70      0.00
    6   14    7     -0.34      0.00
    7   14    7      2.91      0.00
    8   14    7     -0.31      0.00
    9   14    7     -0.68      0.00
   10   14    7      0.99      0.00
   11   14    7     -0.70      0.00
   12   14    7      0.66      0.00
    1   15    7     -0.41      0.00
    2   15    7     -0.46      0.00
    3   15    7     -1.00      0.00
    4   15    7      0.18      0.00
    5   15    7      0.45      0.00
    6   15    7      1.32      0.00
    7   15    7     -0.96      0.00
    8   15    7     -1.00      0.00
    9   15    7      0.89      0.00
   10   15    7      0.76      0.00
   11   15    7     -0.18      0.00
   12   15    7     -1.82      0.00
    1   16    7     -0.97      0.00
    2   16    7      0.23      0.00
    3   16    7      0.69      0.00
    4   16    7     -1.26      0.00
    5   16    7     -0.05      0.00
    6   16    7     -1.18      0.00
    7   16    7     -0.81      0.00
    8   16    7      1.40      0.00
    9   16    7     -0.20      0.00
   10   16    7      0.83      0.00
   11   16    7      1.88      0.00
    1   17    7     -0.19      0.00
    2   17    7     -1.25      0.00
    3   17    7     -0.84      0.00
    4   17    7     -0.91      0.00
    5   17    7     -0.92      0.00
    6   17    7      0.18      0.00
    7   17    7     -0.26      0.00
    8   17    7     -0.78      0.00
    9   17    7      2.24      0.00
   10   17    7      1.58      0.00
   11   17    7     -1.43      0.00
    1   18    7     -0.25      0.00
    2   18    7     -0.45      0.00
    3   18    7     -1.38      0.00
    4   18    7     -0.55      0.00
    5   18    7      0.16      0.00
    6   18    7      0.56      0.00
    7   18    7      0.58      0.00
    8   18    7     -0.27      0.00
    9   18    7     -1.06      0.00
   10   18    7      1.92      0.00
    1   19    7     -0.30      0.00
    2   19    7     -0.91      0.00
    3   19    7     -1.30      0.00
    4   19    7     -0.41      0.00
    5   19    7     -0.36      0.00
    6   19    7     -0.43      0.00
    7   19    7     -0.84      0.00
    8   19    7     -0.61      0.00
    9   19    7      0.26      0.00
   10   19    7      0.53      0.00
    1   20    7     -0.57      0.00
    2   20    7     -0.46      0.00
    3   20    7      0.26      0.00
    4   20    7     -0.26      0.00
    5   20    7      0.41      0.00
    6   20    7      0.55      0.00
    7   20    7     -1.51      0.00
    8   20    7      0.14      0.00
    9   20    7      0.56      0.00
    1   21    7     -0.19      0.00
    2   21    7      1.24      0.00
    3   21    7      0.54      0.00
    4   21    7     -0.98      0.00
    5   21    7      2.26      0.00
    6   21    7      0.09      0.00
    7   21    7      0.10      0.00
    8   21    7     -0.31      0.00
    1   22    7     -0.75      0.00
    2   22    7     -0.03      0.00
    3   22    7      0.12      0.00
    4   22    7      0.63      0.00
    5   22    7     -0.45      0.00
    6   22    7      1.64      0.00
    7   22    7      0.01      0.00
    1   23    7      1.48      0.00
    2   23    7     -0.51      0.00
    3   23    7     -2.12      0.00
    4   23    7     -0.43      0.00
    5   23    7     -0.14      0.00
    6   23    7     -0.90      0.00
    1   24    7     -0.27      0.00
    2   24    7     -1.18      0.00
    3   24    7     -0.70      0.00
    4   24    7     -2.01      0.00
    5   24    7     -0.02      0.00
    1   25    7      0.38      0.00
    2   25    7      0.33      0.00
    3   25    7     -0.55      0.00
    0    0    8     -3.32      0.00
    2    0    8      8.21      0.00
    8    0    8     -0.80      0.00
   10    0    8     -0.62      0.00
   12    0    8     -0.49      0.00
   14    0    8     -3.50      0.00
    0    1    8     -8.35      0.00
    1    1    8      3.63      0.00
    2    1    8      1.07      0.00
    3    1    8      4.82      0.00
    4    1    8      1.20      0.00
    5    1    8      0.90      0.00
    6    1    8      1.34      0.00
    7    1    8      1.43      0.00
    8    1    8     -2.19      0.00
    9    1    8      0.62      0.00
   10    1    8      1.40      0.00
   11    1    8     -1.01      0.00
   12    1    8     -0.57      0.00
   13    1    8     -1.13      0.00
   14    1    8      0.36      0.00
   15    1    8     -0.53      0.00
    0    2    8      0.49      0.00
    1    2    8     -3.00      0.00
    2    2    8     -3.63      0.00
    3    2    8     -1.24      0.00
    4    2    8      7.33      0.00
    5    2    8      0.55      0.00
    6    2    8      0.34      0.00
    7    2    8      0.96      0.00
    8    2    8      0.50      0.00
    9    2    8      0.75      0.00
   10    2    8      0.17      0.00
   11    2    8      0.16      0.00
   12    2    8     -0.48      0.00
   13    2    8      0.69      0.00
   14    2    8     -1.39      0.00
   15    2    8      1.36      0.00
    0    3    8      2.11      0.00
    1    3    8     -4.32      0.00
    2    3    8     -1.87      0.00
    3    3    8      0.82      0.00
    4    3    8      0.63      0.00
    5    3    8      2.53      0.00
    6    3    8     -1.09      0.00
    7    3    8     -0.85      0.00
    8    3    8      0.13      0.00
    9    3    8     -0.11      0.00
   10    3    8      0.56      0.00
   11    3    8     -0.76      0.00
   12    3    8     -0.12      0.00
   13    3    8      0.45      0.00
   14    3    8      3.88      0.00
    0    4    8     -0.25      0.00
    1    4    8     -0.19      0.00
    2    4    8      2.58      0.00
    3    4    8      1.26      0.00
    4    4    8     -0.85      0.00
    5    4    8     -1.28      0.00
    6    4    8      0.18      0.00
    7    4    8     -2.09      0.00
    8    4    8      0.88      0.00
    9    4    8     -0.36      0.00
   10    4    8     -1.00      0.00
   11    4    8     -2.41      0.00
   12    4    8     -0.09      0.00
   13    4    8      2.12      0.00
   14    4    8     -0.33      0.00
    0    5    8     -4.43      0.00
    1    5    8      4.53      0.00
    2    5    8      0.60      0.00
    3    5    8      0.20      0.00
    4    5    8     -0.26      0.00
    5    5    8     -2.23      0.00
    6    5    8     -1.84      0.00
    7    5    8      2.21      0.00
    8    5    8     -1.69      0.00
    9    5    8     -0.14      0.00
   10    5    8     -1.32      0.00
   11    5    8     -1.61      0.00
   12    5    8     -1.10      0.00
   13    5    8      0.24      0.00
   14    5    8      1.67      0.00
    0    6    8      6.30      0.00
    1    6    8     -1.14      0.00
    2    6    8      3.24      0.00
    3    6    8     -0.26      0.00
    4    6    8      0.09      0.00
    5    6    8     -2.50      0.00
    6    6    8      3.29      0.00
    7    6    8     -0.52      0.00
    8    6    8     -0.59      0.00
    9    6    8      1.19      0.00
   10    6    8      0.72      0.00
   11    6    8     -0.62      0.00
   12    6    8     -0.02      0.00
   13    6    8     -1.04      0.00
   14    6    8     -0.67      0.00
    0    7    8     -2.60      0.00
    1    7    8      1.65      0.00
    2    7    8      0.04      0.00
    3    7    8     -0.61      0.00
    4    7    8      0.03      0.00
    5    7    8      3.74      0.00
    6    7    8     -0.72      0.00
    7    7    8     -0.44      0.00
    8    7    8     -0.57      0.00
    9    7    8      0.99      0.00
   10    7    8      1.31      0.00
   11    7    8      1.22      0.00
   12    7    8     -0.01      0.00
   13    7    8      0.18      0.00
   14    7    8     -0.55      0.00
    0    8    8      0.92      0.00
    1    8    8     -0.36      0.00
    2    8    8     -0.32      0.00
    3    8    8      2.02      0.00
    4    8    8     -1.41      0.00
    5    8    8     -1.66      0.00
    6    8    8     -1.03      0.00
    7    8    8     -2.21      0.00
    8    8    8     -0.59      0.00
    9    8    8      1.24      0.00
   10    8    8      1.68      0.00
   11    8    8      0.10      0.00
   12    8    8      2.43      0.00
   13    8    8     -0.68      0.00
   14    8    8     -0.37      0.00
    0    9    8     -1.21      0.00
    1    9    8     -1.84      0.00
    2    9    8      0.57      0.00
    3    9    8      0.05      0.00
    4    9    8      2.31      0.00
    5    9    8     -2.28      0.00
    6    9    8     -1.95      0.00
    7    9    8      0.25      0.00
    8    9    8     -0.50      0.00
    9    9    8     -0.94      0.00
   10    9    8     -0.76      0.00
   11    9    8     -0.73      0.00
   12    9    8      0.11      0.00
   13    9    8      0.98      0.00
   14    9    8      0.05      0.00
    0   10    8     -0.80      0.00
    1   10    8      0.53      0.00
    2   10    8      1.40      0.00
    3   10    8      1.28      0.00
    4   10    8     -1.21      0.00
    5   10    8      0.13      0.00
    6   10    8     -0.89      0.00
    7   10    8     -0.21      0.00
    8   10    8     -0.69      0.00
    9   10    8     -0.64      0.00
   10   10    8     -0.80      0.00
   11   10    8      0.10      0.00
   12   10    8     -0.07      0.00
   13   10    8      0.24      0.00
    0   11    8      0.20      0.00
    1   11    8      0.61      0.00
    2   11    8      0.90      0.00
    3   11    8     -0.42      0.00
    4   11    8      0.15      0.00
    5   11    8      1.49      0.00
    6   11    8      1.32      0.00
    7   11    8     -0.14      0.00
    8   11    8      0.28      0.00
    9   11    8     -0.57      0.00
   10   11    8     -0.82      0.00
   11   11    8      1.22      0.00
   12   11    8      2.42      0.00
   13   11    8     -1.12      0.00
    0   12    8     -1.16      0.00
    1   12    8      0.79      0.00
    2   12    8      0.54      0.00
    3   12    8      0.80      0.00
    4   12    8      1.57      0.00
    5   12    8      0.31      0.00
    6   12    8     -1.00      0.00
    7   12    8     -1.74      0.00
    8   12    8     -1.86      0.00
    9   12    8      1.41      0.00
   10   12    8      0.02      0.00
   11   12    8     -0.04      0.00
   12   12    8     -0.04      0.00
   13   12    8     -1.48      0.00
    0   13    8      0.89      0.00
    1   13    8     -1.02      0.00
    2   13    8      1.01      0.00
    3   13    8      1.79      0.00
    4   13    8      0.58      0.00
    5   13    8      0.11      0.00
    6   13    8     -0.85      0.00
    7   13    8     -0.35      0.00
    8   13    8      0.57      0.00
    9   13    8     -0.46      0.00
   10   13    8      0.70      0.00
   11   13    8     -0.72      0.00
   12   13    8     -0.63      0.00
    0   14    8     -0.16      0.00
    1   14    8      0.25      0.00
    2   14    8      1.13      0.00
    3   14    8      0.62      0.00
    4   14    8     -0.24      0.00
    5   14    8     -1.36      0.00
    6   14    8     -0.67      0.00
    7   14    8     -0.27      0.00
    8   14    8      0.22      0.00
    9   14    8      0.45      0.00
   10   14    8     -0.05      0.00
   11   14    8     -1.54      0.00
   12   14    8      0.38      0.00
    0   15    8      0.47      0.00
    1   15    8      1.28      0.00
    2   15    8      0.98      0.00
    3   15    8     -0.05      0.00
    4   15    8     -1.06      0.00
    5   15    8      0.76      0.00
    6   15    8      0.39      0.00
    7   15    8      0.63      0.00
    8   15    8     -0.48      0.00
    9   15    8      0.30      0.00
   10   15    8      0.73      0.00
   11   15    8      1.11      0.00
   12   15    8     -1.26      0.00
    0   16    8      0.39      0.00
    1   16    8      0.82      0.00
    2   16    8     -1.40      0.00
    3   16    8      0.58      0.00
    4   16    8      1.65      0.00
    5   16    8      0.51      0.00
    6   16    8      0.13      0.00
    7   16    8     -1.86      0.00
    8   16    8     -0.49      0.00
    9   16    8      1.17      0.00
   10   16    8      0.92      0.00
   11   16    8     -0.80      0.00
    0   17    8      1.92      0.00
    1   17    8     -0.86      0.00
    2   17    8      0.68      0.00
    3   17    8     -1.66      0.00
    4   17    8      0.22      0.00
    5   17    8      0.35      0.00
    6   17    8     -1.85      0.00
    7   17    8      0.02      0.00
    8   17    8      0.93      0.00
    9   17    8      1.95      0.00
   10   17    8      0.71      0.00
   11   17    8      0.55      0.00
    0   18    8     -1.18      0.00
    1   18    8      1.17      0.00
    2   18    8     -0.09      0.00
    3   18    8      0.33      0.00
    4   18    8     -1.40      0.00
    5   18    8      0.26      0.00
    6   18    8      0.36      0.00
    7   18    8      0.80      0.00
    8   18    8      0.82      0.00
    9   18    8      2.02      0.00
   10   18    8     -0.56      0.00
    0   19    8      1.07      0.00
    1   19    8      1.02      0.00
    2   19    8      0.71      0.00
    3   19    8     -0.72      0.00
    4   19    8      1.82      0.00
    5   19    8      0.12      0.00
    6   19    8     -0.63      0.00
    7   19    8     -0.13      0.00
    8   19    8      1.07      0.00
    9   19    8     -1.50      0.00
   10   19    8      1.21      0.00
    0   20    8      0.51      0.00
    1   20    8      0.84      0.00
    2   20    8     -1.00      0.00
    3   20    8      0.63      0.00
    4   20    8      0.08      0.00
    5   20    8      0.83      0.00
    6   20    8      0.27      0.00
    7   20    8     -0.76      0.00
    8   20    8     -0.72      0.00
    9   20    8     -0.05      0.00
    0   21    8      1.84      0.00
    1   21    8     -1.53      0.00
    2   21    8      0.80      0.00
    3   21    8      0.46      0.00
    4   21    8      0.59      0.00
    5   21    8      0.84      0.00
    6   21    8     -0.17      0.00
    7   21    8     -0.77      0.00
    8   21    8     -0.67      0.00
    0   22    8     -1.66      0.00
    1   22    8      0.09      0.00
    2   22    8     -0.70      0.00
    3   22    8      1.44      0.00
    4   22    8      1.73      0.00
    5   22    8      1.24      0.00
    6   22    8     -1.05      0.00
    7   22    8      0.99      0.00
    0   23    8      0.75      0.00
    1   23    8     -0.92      0.00
    2   23    8      0.49      0.00
    3   23    8      1.93      0.00
    4   23    8      2.15      0.00
    5   23    8      0.50      0.00
    6   23    8      0.73      0.00
    0   24    8      0.15      0.00
    1   24    8      1.35      0.00
    2   24    8      0.08      0.00
    3   24    8     -1.14      0.00
    4   24    8      2.48      0.00
    5   24    8      0.20      0.00
    0   25    8      1.17      0.00
    1   25    8     -0.48      0.00
    2   25    8      0.22      0.00
    2    0    9      5.41      0.00
    8    0    9     -0.66      0.00
   10    0    9     -0.95      0.00
   12    0    9     -0.51      0.00
   14    0    9     -0.42      0.00
    1    1    9     -0.25      0.00
    2    1    9      1.45      0.00
    3    1    9      4.12      0.00
    4    1    9     -0.70      0.00
    5    1    9     -1.87      0.00
    6    1    9     -2.04      0.00
    7    1    9     -0.54      0.00
    8    1    9      0.76      0.00
    9    1    9      0.04      0.00
   10    1    9     -0.28      0.00
   11    1    9      0.66      0.00
   12    1    9      0.46      0.00
   13    1    9     -0.57      0.00
   14    1    9     -0.51      0.00
    1    2    9     -2.32      0.00
    2    2    9     -3.26      0.00
    3    2    9      0.39      0.00
    4    2    9     -0.52      0.00
    5    2    9      0.13      0.00
    6    2    9      3.07      0.00
    7    2    9     -1.21      0.00
    8    2    9      0.09      0.00
    9    2    9      0.67      0.00
   10    2    9      0.24      0.00
   11    2    9     -0.48      0.00
   12    2    9      4.01      0.00
   13    2    9      0.06      0.00
   14    2    9     -0.27      0.00
    1    3    9      0.92      0.00
    2    3    9      0.19      0.00
    3    3    9     -1.78      0.00
    4    3    9      1.58      0.00
    5    3    9     -0.07      0.00
    6    3    9     -0.66      0.00
    7    3    9      1.18      0.00
    8    3    9     -0.47      0.00
    9    3    9      0.68      0.00
   10    3    9      0.79      0.00
   11    3    9      1.80      0.00
   12    3    9     -1.33      0.00
   13    3    9      0.70      0.00
   14    3    9      0.12      0.00
    1    4    9     -0.77      0.00
    2    4    9     -0.17      0.00
    3    4    9      1.03      0.00
    4    4    9      0.16      0.00
    5    4    9     -1.09      0.00
    6    4    9      0.57      0.00
    7    4    9     -1.10      0.00
    8    4    9      1.98      0.00
    9    4    9      1.98      0.00
   10    4    9     -0.25      0.00
   11    4    9      0.15      0.00
   12    4    9      0.42      0.00
   13    4    9      0.79      0.00
   14    4    9      0.05      0.00
    1    5    9     -1.74      0.00
    2    5    9     -2.66      0.00
    3    5    9     -0.27      0.00
    4    5    9     -0.60      0.00
    5    5    9      0.74      0.00
    6    5    9     -0.23      0.00
    7    5    9     -0.49      0.00
    8    5    9     -0.61      0.00
    9    5    9      0.18      0.00
   10    5    9     -0.13      0.00
   11    5    9     -0.32      0.00
   12    5    9      0.68      0.00
   13    5    9     -0.38      0.00
   14    5    9      1.43      0.00
    1    6    9     -3.39      0.00
    2    6    9      1.48      0.00
    3    6    9     -0.25      0.00
    4    6    9     -1.05      0.00
    5    6    9     -1.23      0.00
    6    6    9      1.54      0.00
    7    6    9     -0.63      0.00
    8    6    9      0.19      0.00
    9    6    9      0.82      0.00
   10    6    9     -2.42      0.00
   11    6    9      0.18      0.00
   12    6    9      1.62      0.00
   13    6    9     -0.21      0.00
   14    6    9      0.49      0.00
    1    7    9      4.68      0.00
    2    7    9     -0.10      0.00
    3    7    9     -2.08      0.00
    4    7    9     -1.51      0.00
    5    7    9      0.56      0.00
    6    7    9      0.72      0.00
    7    7    9      1.03      0.00
    8    7    9      0.46      0.00
    9    7    9     -0.42      0.00
   10    7    9      0.54      0.00
   11    7    9     -0.43      0.00
   12    7    9      1.00      0.00
   13    7    9      0.66      0.00
   14    7    9     -0.27      0.00
    1    8    9      2.54      0.00
    2    8    9      1.17      0.00
    3    8    9     -1.48      0.00
    4    8    9      1.32      0.00
    5    8    9      1.33      0.00
    6    8    9     -0.48      0.00
    7    8    9     -1.02      0.00
    8    8    9     -1.96      0.00
    9    8    9      0.08      0.00
   10    8    9     -0.33      0.00
   11    8    9      1.17      0.00
   12    8    9      0.02      0.00
   13    8    9      0.08      0.00
   14    8    9      0.00      0.00
    1    9    9     -0.60      0.00
    2    9    9      0.23      0.00
    3    9    9      0.14      0.00
    4    9    9     -0.32      0.00
    5    9    9      0.37      0.00
    6    9    9     -0.08      0.00
    7    9    9     -1.95      0.00
    8    9    9     -0.68      0.00
    9    9    9     -0.80      0.00
   10    9    9     -0.71      0.00
   11    9    9      0.80      0.00
   12    9    9     -0.70      0.00
   13    9    9      0.98      0.00
    1   10    9     -0.39      0.00
    2   10    9      2.25      0.00
    3   10    9      1.42      0.00
    4   10    9      1.27      0.00
    5   10    9     -1.20      0.00
    6   10    9     -1.62      0.00
    7   10    9      1.19      0.00
    8   10    9     -0.20      0.00
    9   10    9     -1.29      0.00
   10   10    9      0.10      0.00
   11   10    9      0.73      0.00
   12   10    9      0.58      0.00
   13   10    9      0.27      0.00
    1   11    9      2.21      0.00
    2   11    9     -0.36      0.00
    3   11    9     -0.81      0.00
    4   11    9     -0.21      0.00
    5   11    9      0.27      0.00
    6   11    9     -0.13      0.00
    7   11    9      0.71      0.00
    8   11    9      2.09      0.00
    9   11    9      0.32      0.00
   10   11    9      0.09      0.00
   11   11    9     -0.58      0.00
   12   11    9      1.78      0.00
   13   11    9     -1.51      0.00
    1   12    9     -0.23      0.00
    2   12    9     -0.09      0.00
    3   12    9     -0.50      0.00
    4   12    9     -1.04      0.00
    5   12    9      0.13      0.00
    6   12    9      3.11      0.00
    7   12    9     -0.43      0.00
    8   12    9     -0.26      0.00
    9   12    9      0.66      0.00
   10   12    9     -0.81      0.00
   11   12    9      1.88      0.00
   12   12    9     -2.09      0.00
   13   12    9     -0.11      0.00
    1   13    9     -0.68      0.00
    2   13    9      0.09      0.00
    3   13    9     -1.33      0.00
    4   13    9      0.54      0.00
    5   13    9      0.74      0.00
    6   13    9     -1.01      0.00
    7   13    9      0.79      0.00
    8   13    9     -1.52      0.00
    9   13    9      0.08      0.00
   10   13    9      0.22      0.00
   11   13    9     -1.02      0.00
   12   13    9      1.99      0.00
    1   14    9      0.27      0.00
    2   14    9     -1.30      0.00
    3   14    9     -0.31      0.00
    4   14    9      0.74      0.00
    5   14    9      2.26      0.00
    6   14    9     -0.80      0.00
    7   14    9     -0.49      0.00
    8   14    9     -0.01      0.00
    9   14    9      0.01      0.00
   10   14    9     -0.29      0.00
   11   14    9      0.72      0.00
   12   14    9     -0.70      0.00
    1   15    9     -0.66      0.00
    2   15    9     -0.03      0.00
    3   15    9      0.06      0.00
    4   15    9      0.52      0.00
    5   15    9     -0.40      0.00
    6   15    9      1.87      0.00
    7   15    9     -0.04      0.00
    8   15    9      0.88      0.00
    9   15    9      0.65      0.00
   10   15    9     -1.19      0.00
   11   15    9      0.93      0.00
    1   16    9     -0.12      0.00
    2   16    9     -0.64      0.00
    3   16    9     -0.74      0.00
    4   16    9      0.16      0.00
    5   16    9      0.71      0.00
    6   16    9      1.69      0.00
    7   16    9      1.00      0.00
    8   16    9      0.81      0.00
    9   16    9     -0.38      0.00
   10   16    9     -1.19      0.00
   11   16    9     -0.28      0.00
    1   17    9      0.08      0.00
    2   17    9      0.42      0.00
    3   17    9     -0.01      0.00
    4   17    9     -0.04      0.00
    5   17    9      1.48      0.00
    6   17    9      0.53      0.00
    7   17    9      0.87      0.00
    8   17    9     -1.43      0.00
    9   17    9      0.01      0.00
   10   17    9     -0.24      0.00
   11   17    9     -0.67      0.00
    1   18    9     -0.33      0.00
    2   18    9     -0.12      0.00
    3   18    9      0.34      0.00
    4   18    9      1.61      0.00
    5   18    9      0.60      0.00
    6   18    9     -1.11      0.00
    7   18    9      0.76      0.00
    8   18    9      0.24      0.00
    9   18    9     -1.39      0.00
   10   18    9      0.06      0.00
    1   19    9      0.94      0.00
    2   19    9     -0.41      0.00
    3   19    9      1.44      0.00
    4   19    9      2.12      0.00
    5   19    9      0.73      0.00
    6   19    9      0.23      0.00
    7   19    9      0.06      0.00
    8   19    9     -0.16      0.00
    9   19    9      0.94      0.00
    1   20    9     -2.20      0.00
    2   20    9      1.18      0.00
    3   20    9      0.91      0.00
    4   20    9     -0.57      0.00
    5   20    9      0.27      0.00
    6   20    9      2.11      0.00
    7   20    9      1.38      0.00
    8   20    9      0.59      0.00
    9   20    9     -0.67      0.00
    1   21    9      0.39      0.00
    2   21    9     -0.20      0.00
    3   21    9     -0.25      0.00
    4   21    9      0.08      0.00
    5   21    9      2.05      0.00
    6   21    9      1.33      0.00
    7   21    9      1.66      0.00
    8   21    9     -0.22      0.00
    1   22    9      0.32      0.00
    2   22    9     -0.98      0.00
    3   22    9     -0.79      0.00
    4   22    9      0.84      0.00
    5   22    9     -2.95      0.00
    6   22    9      0.96      0.00
    7   22    9      0.53      0.00
    1   23    9     -0.96      0.00
    2   23    9      0.13      0.00
    3   23    9      0.02      0.00
    4   23    9     -0.66      0.00
    5   23    9      1.18      0.00
    6   23    9     -1.01      0.00
    1   24    9     -0.41      0.00
    2   24    9     -0.32      0.00
    3   24    9      1.18      0.00
    4   24    9      0.62      0.00
    1   25    9     -0.07      0.00
    0    0   10     -6.60      0.00
    2    0   10      0.40      0.00
    8    0   10     -3.00      0.00
   10    0   10      1.06      0.00
   12    0   10     -1.11      0.00
   14    0   10     -0.72      0.00
    0    1   10     -2.47      0.00
    1    1   10     -2.34      0.00
    2    1   10     -1.11      0.00
    3    1   10     -0.87      0.00
    4    1   10      2.02      0.00
    5    1   10     -1.93      0.00
    6    1   10     -0.55      0.00
    7    1   10     -0.56      0.00
    8    1   10      0.99      0.00
    9    1   10     -0.50      0.00
   10    1   10     -1.96      0.00
   11    1   10      1.61      0.00
   12    1   10     -2.30      0.00
   13    1   10     -0.47      0.00
   14    1   10      1.97      0.00
    0    2   10     -0.12      0.00
    1    2   10     -1.61      0.00
    2    2   10     -1.51      0.00
    3    2   10      1.76      0.00
    4    2   10     -3.14      0.00
    5    2   10      1.74      0.00
    6    2   10     -1.87      0.00
    7    2   10     -0.14      0.00
    8    2   10      3.07      0.00
    9    2   10     -0.96      0.00
   10    2   10     -0.64      0.00
   11    2   10     -1.81      0.00
   12    2   10      0.42      0.00
   13    2   10      0.54      0.00
   14    2   10      3.52      0.00
    0    3   10     -3.52      0.00
    1    3   10     -1.36      0.00
    2    3   10      3.94      0.00
    3    3   10     -1.47      0.00
    4    3   10      1.62      0.00
    5    3   10     -0.32      0.00
    6    3   10     -0.42      0.00
    7    3   10     -1.40      0.00
    8    3   10      0.40      0.00
    9    3   10     -1.27      0.00
   10    3   10     -0.12      0.00
   11    3   10      0.49      0.00
   12    3   10     -0.71      0.00
   13    3   10      1.31      0.00
   14    3   10     -1.55      0.00
    0    4   10     -2.34      0.00
    1    4   10      1.42      0.00
    2    4   10     -1.03      0.00
    3    4   10      2.80      0.00
    4    4   10     -1.65      0.00
    5    4   10     -1.66      0.00
    6    4   10     -1.67      0.00
    7    4   10     -0.37      0.00
    8    4   10     -0.33      0.00
    9    4   10      1.49      0.00
   10    4   10     -0.98      0.00
   11    4   10      1.22      0.00
   12    4   10     -0.54      0.00
   13    4   10     -0.67      0.00
   14    4   10      0.46      0.00
    0    5   10      0.68      0.00
    1    5   10      0.48      0.00
    2    5   10      0.59      0.00
    3    5   10     -0.05      0.00
    4    5   10     -1.14      0.00
    5    5   10     -0.85      0.00
    6    5   10      0.51      0.00
    7    5   10     -0.85      0.00
    8    5   10      0.19      0.00
    9    5   10      0.62      0.00
   10    5   10     -0.13      0.00
   11    5   10      0.76      0.00
   12    5   10     -0.24      0.00
   13    5   10     -0.95      0.00
   14    5   10     -1.54      0.00
    0    6   10      2.38      0.00
    1    6   10      1.44      0.00
    2    6   10     -0.83      0.00
    3    6   10     -1.82      0.00
    4    6   10      0.69      0.00
    5    6   10     -0.06      0.00
    6    6   10     -0.98      0.00
    7    6   10     -0.03      0.00
    8    6   10     -0.30      0.00
    9    6   10      0.06      0.00
   10    6   10      1.39      0.00
   11    6   10     -0.28      0.00
   12    6   10     -0.05      0.00
   13    6   10     -0.26      0.00
   14    6   10      0.31      0.00
    0    7   10      1.04      0.00
    1    7   10      1.00      0.00
    2    7   10      1.67      0.00
    3    7   10     -0.25      0.00
    4    7   10      0.33      0.00
    5    7   10     -0.21      0.00
    6    7   10     -0.50      0.00
    7    7   10      0.25      0.00
    8    7   10      0.52      0.00
    9    7   10     -0.78      0.00
   10    7   10      0.62      0.00
   11    7   10     -0.21      0.00
   12    7   10      0.80      0.00
   13    7   10     -0.40      0.00
   14    7   10      0.21      0.00
    0    8   10     -0.99      0.00
    1    8   10     -0.65      0.00
    2    8   10     -1.39      0.00
    3    8   10      1.16      0.00
    4    8   10      0.36      0.00
    5    8   10     -0.75      0.00
    6    8   10      1.05      0.00
    7    8   10     -0.19      0.00
    8    8   10     -0.72      0.00
    9    8   10     -0.23      0.00
   10    8   10     -1.74      0.00
   11    8   10      1.91      0.00
   12    8   10     -1.32      0.00
   13    8   10     -0.38      0.00
    0    9   10      0.25      0.00
    1    9   10     -0.14      0.00
    2    9   10      0.03      0.00
    3    9   10     -1.52      0.00
    4    9   10      0.24      0.00
    5    9   10      1.95      0.00
    6    9   10      0.24      0.00
    7    9   10     -0.04      0.00
    8    9   10     -0.23      0.00
    9    9   10     -1.22      0.00
   10    9   10      1.00      0.00
   11    9   10     -1.43      0.00
   12    9   10     -2.30      0.00
   13    9   10      1.49      0.00
    0   10   10     -0.71      0.00
    1   10   10     -0.42      0.00
    2   10   10     -1.64      0.00
    3   10   10     -2.03      0.00
    4   10   10      0.49      0.00
    5   10   10      0.90      0.00
    6   10   10      0.85      0.00
    7   10   10      0.30      0.00
    8   10   10     -0.70      0.00
    9   10   10     -0.10      0.00
   10   10   10     -0.71      0.00
   11   10   10      0.99      0.00
   12   10   10      0.54      0.00
   13   10   10     -0.33      0.00
    0   11   10     -0.33      0.00
    1   11   10      0.36      0.00
    2   11   10     -1.04      0.00
    3   11   10     -0.88      0.00
    4   11   10      0.15      0.00
    5   11   10     -1.12      0.00
    6   11   10     -0.25      0.00
    7   11   10     -1.15      0.00
    8   11   10     -0.27      0.00
    9   11   10      0.99      0.00
   10   11   10     -0.37      0.00
   11   11   10      0.51      0.00
   12   11   10      0.35      0.00
   13   11   10      0.60      0.00
    0   12   10     -0.29      0.00
    1   12   10     -1.66      0.00
    2   12   10      0.41      0.00
    3   12   10      0.79      0.00
    4   12   10     -1.43      0.00
    5   12   10     -0.70      0.00
    6   12   10     -0.25      0.00
    7   12   10      0.05      0.00
    8   12   10      0.85      0.00
    9   12   10     -0.38      0.00
   10   12   10      0.46      0.00
   11   12   10      1.08      0.00
   12   12   10      0.06      0.00
    0   13   10     -1.29      0.00
    1   13   10      0.69      0.00
    2   13   10      0.61      0.00
    3   13   10     -0.40      0.00
    4   13   10     -0.28      0.00
    5   13   10     -0.40      0.00
    6   13   10     -0.73      0.00
    7   13   10     -0.15      0.00
    8   13   10      0.29      0.00
    9   13   10     -0.30      0.00
   10   13   10      0.34      0.00
   11   13   10      1.43      0.00
   12   13   10      0.34      0.00
    0   14   10      0.60      0.00
    1   14   10      0.91      0.00
    2   14   10      0.98      0.00
    3   14   10      0.49      0.00
    4   14   10      0.22      0.00
    5   14   10     -0.07      0.00
    6   14   10      0.59      0.00
    7   14   10     -0.65      0.00
    8   14   10     -1.08      0.00
    9   14   10     -0.30      0.00
   10   14   10      1.92      0.00
   11   14   10      1.46      0.00
   12   14   10      0.28      0.00
    0   15   10      0.81      0.00
    1   15   10      0.36      0.00
    2   15   10     -0.16      0.00
    3   15   10      0.98      0.00
    4   15   10      2.52      0.00
    5   15   10      0.74      0.00
    6   15   10     -1.74      0.00
    7   15   10     -0.84      0.00
    8   15   10     -0.76      0.00
    9   15   10     -0.93      0.00
   10   15   10     -2.11      0.00
   11   15   10      0.27      0.00
    0   16   10     -0.30      0.00
    1   16   10     -0.79      0.00
    2   16   10     -0.25      0.00
    3   16   10      1.08      0.00
    4   16   10      0.88      0.00
    5   16   10      0.02      0.00
    6   16   10      0.24      0.00
    7   16   10     -1.35      0.00
    8   16   10     -1.43      0.00
    9   16   10      1.59      0.00
   10   16   10     -1.25      0.00
   11   16   10     -2.50      0.00
    0   17   10     -1.65      0.00
    1   17   10     -1.14      0.00
    2   17   10      0.97      0.00
    3   17   10     -0.16      0.00
    4   17   10      1.06      0.00
    5   17   10      0.34      0.00
    6   17   10      0.16      0.00
    7   17   10     -0.33      0.00
    8   17   10      0.03      0.00
    9   17   10     -2.85      0.00
   10   17   10     -1.19      0.00
    0   18   10     -0.23      0.00
    1   18   10     -0.23      0.00
    2   18   10      0.10      0.00
    3   18   10      0.31      0.00
    4   18   10      0.36      0.00
    5   18   10      0.14      0.00
    6   18   10      0.18      0.00
    7   18   10     -0.20      0.00
    8   18   10     -2.39      0.00
    9   18   10     -0.03      0.00
   10   18   10      0.23      0.00
    0   19   10     -0.64      0.00
    1   19   10      0.19      0.00
    2   19   10     -2.01      0.00
    3   19   10      0.72      0.00
    4   19   10     -0.29      0.00
    5   19   10     -0.19      0.00
    6   19   10      1.34      0.00
    7   19   10     -1.45      0.00
    8   19   10     -0.17      0.00
    9   19   10     -1.67      0.00
    0   20   10      0.71      0.00
    1   20   10     -0.78      0.00
    2   20   10      0.33      0.00
    3   20   10     -2.15      0.00
    4   20   10      0.02      0.00
    5   20   10     -0.49      0.00
    6   20   10     -0.85      0.00
    7   20   10      0.75      0.00
    8   20   10     -1.55      0.00
    0   21   10     -1.02      0.00
    1   21   10     -1.23      0.00
    2   21   10     -0.82      0.00
    3   21   10      1.12      0.00
    4   21   10     -2.07      0.00
    5   21   10      0.11      0.00
    6   21   10      1.06      0.00
    7   21   10     -0.02      0.00
    0   22   10     -1.32      0.00
    1   22   10     -1.45      0.00
    2   22   10     -0.07      0.00
    3   22   10      0.76      0.00
    4   22   10     -0.12      0.00
    5   22   10      0.22      0.00
    6   22   10     -1.16      0.00
    0   23   10     -2.54      0.00
    1   23   10      1.07      0.00
    2   23   10     -1.70      0.00
    3   23   10     -1.62      0.00
    4   23   10      0.78      0.00
    5   23   10     -0.28      0.00
    0   24   10      1.92      0.00
    1   24   10     -0.42      0.00
    2   24   10      0.71      0.00
    3   24   10     -1.53      0.00
    2    0   11     -0.36      0.00
    6    0   11     -0.88      0.00
    8    0   11     -1.97      0.00
   10    0   11     -0.45      0.00
   12    0   11      0.75      0.00
   14    0   11     -0.54      0.00
    1    1   11     -1.01      0.00
    2    1   11      2.51      0.00
    3    1   11     -1.01      0.00
    4    1   11     -1.03      0.00
    5    1   11     -0.66      0.00
    6    1   11      0.02      0.00
    7    1   11      0.15      0.00
    8    1   11      1.61      0.00
    9    1   11     -1.96      0.00
   10    1   11      0.81      0.00
   11    1   11     -0.05      0.00
   12    1   11     -0.42      0.00
   13    1   11      1.26      0.00
   14    1   11     -0.51      0.00
    1    2   11      0.56      0.00
    2    2   11     -0.27      0.00
    3    2   11      0.71      0.00
    4    2   11      0.71      0.00
    5    2   11      0.45      0.00
    6    2   11     -3.05      0.00
    7    2   11      0.47      0.00
    8    2   11      0.27      0.00
    9    2   11      2.41      0.00
   10    2   11      0.71      0.00
   11    2   11     -1.29      0.00
   12    2   11     -1.03      0.00
   13    2   11     -2.22      0.00
   14    2   11     -0.31      0.00
    1    3   11      2.08      0.00
    2    3   11     -3.49      0.00
    3    3   11      0.21      0.00
    4    3   11      1.18      0.00
    5    3   11     -2.23      0.00
    6    3   11     -0.82      0.00
    7    3   11      0.27      0.00
    8    3   11      2.71      0.00
    9    3   11      0.68      0.00
   10    3   11      0.79      0.00
   11    3   11     -0.66      0.00
   12    3   11     -2.40      0.00
   13    3   11      0.60      0.00
   14    3   11     -1.76      0.00
    1    4   11     -0.91      0.00
    2    4   11     -0.46      0.00
    3    4   11     -1.74      0.00
    4    4   11     -1.28      0.00
    5    4   11     -1.81      0.00
    6    4   11      0.09      0.00
    7    4   11     -0.23      0.00
    8    4   11      0.29      0.00
    9    4   11      0.81      0.00
   10    4   11     -0.34      0.00
   11    4   11      0.52      0.00
   12    4   11     -0.04      0.00
   13    4   11     -1.76      0.00
   14    4   11      1.74      0.00
    1    5   11     -1.68      0.00
    2    5   11     -0.40      0.00
    3    5   11     -0.56      0.00
    4    5   11     -1.81      0.00
    5    5   11      0.40      0.00
    6    5   11     -0.52      0.00
    7    5   11      0.81      0.00
    8    5   11      0.45      0.00
    9    5   11     -1.01      0.00
   10    5   11      1.39      0.00
   11    5   11     -0.32      0.00
   12    5   11      0.53      0.00
   13    5   11     -0.42      0.00
   14    5   11      0.45      0.00
    1    6   11      1.60      0.00
    2    6   11      1.68      0.00
    3    6   11      0.78      0.00
    4    6   11     -0.98      0.00
    5    6   11     -0.51      0.00
    6    6   11      0.51      0.00
    7    6   11     -0.94      0.00
    8    6   11     -1.49      0.00
    9    6   11      1.48      0.00
   10    6   11     -0.72      0.00
   11    6   11     -0.27      0.00
   12    6   11     -0.39      0.00
   13    6   11     -0.69      0.00
   14    6   11     -0.31      0.00
    1    7   11      3.13      0.00
    2    7   11     -1.27      0.00
    3    7   11      0.31      0.00
    4    7   11      2.45      0.00
    5    7   11     -1.05      0.00
    6    7   11     -0.53      0.00
    7    7   11     -0.40      0.00
    8    7   11     -0.59      0.00
    9    7   11      0.50      0.00
   10    7   11      1.27      0.00
   11    7   11     -0.38      0.00
   12    7   11     -1.90      0.00
   13    7   11      0.38      0.00
    1    8   11     -4.06      0.00
    2    8   11     -0.58      0.00
    3    8   11      0.56      0.00
    4    8   11      0.06      0.00
    5    8   11      0.77      0.00
    6    8   11     -0.95      0.00
    7    8   11     -1.15      0.00
    8    8   11     -0.14      0.00
    9    8   11     -0.57      0.00
   10    8   11      0.69      0.00
   11    8   11     -0.37      0.00
   12    8   11      0.05      0.00
   13    8   11      0.80      0.00
    1    9   11     -0.91      0.00
    2    9   11     -1.75      0.00
    3    9   11      0.54      0.00
    4    9   11      1.30      0.00
    5    9   11      0.24      0.00
    6    9   11     -0.52      0.00
    7    9   11      0.93      0.00
    8    9   11      0.95      0.00
    9    9   11     -1.06      0.00
   10    9   11     -0.14      0.00
   11    9   11      0.47      0.00
   12    9   11     -0.36      0.00
   13    9   11      0.60      0.00
    1   10   11      0.55      0.00
    2   10   11     -0.94      0.00
    3   10   11     -1.08      0.00
    4   10   11      0.74      0.00
    5   10   11     -0.18      0.00
    6   10   11      0.31      0.00
    7   10   11      0.97      0.00
    8   10   11      0.89      0.00
    9   10   11     -1.10      0.00
   10   10   11      0.07      0.00
   11   10   11     -0.57      0.00
   12   10   11      1.16      0.00
   13   10   11      1.58      0.00
    1   11   11      1.05      0.00
    2   11   11      0.03      0.00
    3   11   11     -0.59      0.00
    4   11   11     -0.32      0.00
    5   11   11      0.78      0.00
    6   11   11      0.60      0.00
    7   11   11     -1.73      0.00
    8   11   11     -0.77      0.00
    9   11   11      1.38      0.00
   10   11   11      0.73      0.00
   11   11   11     -0.63      0.00
   12   11   11      0.40      0.00
    1   12   11     -1.04      0.00
    2   12   11     -0.38      0.00
    3   12   11      1.15      0.00
    4   12   11     -0.30      0.00
    5   12   11     -1.12      0.00
    6   12   11     -0.82      0.00
    7   12   11     -1.60      0.00
    8   12   11     -1.51      0.00
    9   12   11      0.09      0.00
   10   12   11     -0.42      0.00
   11   12   11      0.21      0.00
   12   12   11     -0.07      0.00
    1   13   11      0.01      0.00
    2   13   11     -0.16      0.00
    3   13   11     -1.29      0.00
    4   13   11      0.47      0.00
    5   13   11      1.32      0.00
    6   13   11     -1.61      0.00
    7   13   11     -1.11      0.00
    8   13   11     -0.58      0.00
    9   13   11     -1.86      0.00
   10   13   11     -0.54      0.00
   11   13   11     -0.22      0.00
   12   13   11      0.84      0.00
    1   14   11      0.46      0.00
    2   14   11     -1.34      0.00
    3   14   11     -0.10      0.00
    4   14   11     -0.45      0.00
    5   14   11      0.02      0.00
    6   14   11      0.56      0.00
    7   14   11      1.09      0.00
    8   14   11     -1.22      0.00
    9   14   11     -1.56      0.00
   10   14   11     -1.02      0.00
   11   14   11      0.95      0.00
    1   15   11      0.22      0.00
    2   15   11      0.58      0.00
    3   15   11     -1.40      0.00
    4   15   11      0.84      0.00
    5   15   11      0.47      0.00
    6   15   11      3.51      0.00
    7   15   11     -1.85      0.00
    8   15   11      1.18      0.00
    9   15   11     -0.39      0.00
   10   15   11     -0.22      0.00
   11   15   11     -0.70      0.00
    1   16   11     -0.09      0.00
    2   16   11      0.07      0.00
    3   16   11      0.64      0.00
    4   16   11     -0.76      0.00
    5   16   11      0.83      0.00
    6   16   11     -0.16      0.00
    7   16   11     -0.23      0.00
    8   16   11     -1.79      0.00
    9   16   11     -1.33      0.00
   10   16   11     -0.16      0.00
    1   17   11      0.22      0.00
    2   17   11     -0.71      0.00
    3   17   11     -0.67      0.00
    4   17   11      0.26      0.00
    5   17   11      0.27      0.00
    6   17   11     -1.01      0.00
    7   17   11     -0.31      0.00
    8   17   11     -0.24      0.00
    9   17   11     -0.60      0.00
   10   17   11     -0.17      0.00
    1   18   11     -0.52      0.00
    2   18   11      0.38      0.00
    3   18   11      0.37      0.00
    4   18   11      0.10      0.00
    5   18   11      0.59      0.00
    6   18   11     -0.71      0.00
    7   18   11     -0.47      0.00
    8   18   11     -1.41      0.00
    9   18   11     -0.12      0.00
    1   19   11      0.23      0.00
    2   19   11     -0.27      0.00
    3   19   11      0.22      0.00
    4   19   11     -0.54      0.00
    5   19   11     -0.69      0.00
    6   19   11      1.57      0.00
    7   19   11     -2.53      0.00
    8   19   11     -0.22      0.00
    9   19   11     -0.83      0.00
    1   20   11     -0.01      0.00
    2   20   11      1.35      0.00
    3   20   11     -0.45      0.00
    4   20   11      0.07      0.00
    5   20   11      1.05      0.00
    6   20   11     -0.19      0.00
    7   20   11     -0.48      0.00
    8   20   11     -2.77      0.00
    1   21   11      0.89      0.00
    2   21   11     -0.20      0.00
    3   21   11     -1.05      0.00
    4   21   11     -0.41      0.00
    5   21   11      0.13      0.00
    6   21   11     -0.05      0.00
    7   21   11     -0.72      0.00
    1   22   11     -0.28      0.00
    2   22   11     -0.37      0.00
    3   22   11     -0.09      0.00
    4   22   11      0.60      0.00
    5   22   11      0.44      0.00
    6   22   11      0.29      0.00
    1   23   11     -0.62      0.00
    2   23   11     -0.81      0.00
    3   23   11     -1.14      0.00
    4   23   11      0.47      0.00
    1   24   11     -0.01      0.00
    2   24   11     -1.20      0.00
    0    0   12      1.78      0.00
    2    0   12     -0.94      0.00
    4    0   12     -0.74      0.00
    6    0   12      0.93      0.00
    8    0   12      0.03      0.00
   10    0   12     -0.10      0.00
   12    0   12     -1.70      0.00
   14    0   12      1.26      0.00
    0    1   12      0.03      0.00
    1    1   12     -0.40      0.00
    2    1   12      0.87      0.00
    3    1   12      0.67      0.00
    4    1   12      0.27      0.00
    5    1   12      0.28      0.00
    6    1   12     -1.47      0.00
    7    1   12      1.13      0.00
    8    1   12      3.45      0.00
    9    1   12      0.16      0.00
   10    1   12      0.41      0.00
   11    1   12     -0.79      0.00
   12    1   12     -0.18      0.00
   13    1   12      0.16      0.00
   14    1   12      1.96      0.00
    0    2   12      0.16      0.00
    1    2   12     -0.32      0.00
    2    2   12      1.28      0.00
    3    2   12     -0.38      0.00
    4    2   12      3.07      0.00
    5    2   12      0.29      0.00
    6    2   12      0.81      0.00
    7    2   12     -0.58      0.00
    8    2   12      0.23      0.00
    9    2   12     -0.37      0.00
   10    2   12      2.25      0.00
   11    2   12      1.47      0.00
   12    2   12      0.55      0.00
   13    2   12     -0.48      0.00
   14    2   12     -1.44      0.00
    0    3   12      0.97      0.00
    1    3   12      0.70      0.00
    2    3   12     -1.62      0.00
    3    3   12      1.38      0.00
    4    3   12     -0.92      0.00
    5    3   12      1.24      0.00
    6    3   12     -0.73      0.00
    7    3   12     -0.60      0.00
    8    3   12     -0.81      0.00
    9    3   12      2.96      0.00
   10    3   12     -0.81      0.00
   11    3   12      1.60      0.00
   12    3   12     -0.29      0.00
   13    3   12     -0.64      0.00
   14    3   12     -1.27      0.00
    0    4   12      0.91      0.00
    1    4   12     -0.41      0.00
    2    4   12     -1.57      0.00
    3    4   12     -0.59      0.00
    4    4   12     -1.33      0.00
    5    4   12     -2.09      0.00
    6    4   12      1.45      0.00
    7    4   12     -0.97      0.00
    8    4   12      1.58      0.00
    9    4   12     -0.59      0.00
   10    4   12     -0.40      0.00
   11    4   12     -0.07      0.00
   12    4   12     -0.25      0.00
   13    4   12     -0.96      0.00
   14    4   12     -2.00      0.00
    0    5   12      1.80      0.00
    1    5   12      0.51      0.00
    2    5   12     -0.26      0.00
    3    5   12     -1.41      0.00
    4    5   12     -3.05      0.00
    5    5   12     -1.07      0.00
    6    5   12     -1.06      0.00
    7    5   12      1.75      0.00
    8    5   12     -1.25      0.00
    9    5   12     -0.23      0.00
   10    5   12      1.17      0.00
   11    5   12     -1.44      0.00
   12    5   12      0.58      0.00
   13    5   12     -1.15      0.00
    0    6   12      2.08      0.00
    1    6   12      0.32      0.00
    2    6   12      0.22      0.00
    3    6   12      0.64      0.00
    4    6   12      0.09      0.00
    5    6   12     -1.91      0.00
    6    6   12      0.20      0.00
    7    6   12      0.60      0.00
    8    6   12     -0.19      0.00
    9    6   12     -0.45      0.00
   10    6   12      0.03      0.00
   11    6   12      0.73      0.00
   12    6   12      0.95      0.00
   13    6   12     -2.07      0.00
    0    7   12     -0.43      0.00
    1    7   12      0.46      0.00
    2    7   12      0.68      0.00
    3    7   12      0.50      0.00
    4    7   12     -1.20      0.00
    5    7   12      0.00      0.00
    6    7   12      1.26      0.00
    7    7   12     -0.76      0.00
    8    7   12      0.91      0.00
    9    7   12     -0.36      0.00
   10    7   12      1.72      0.00
   11    7   12      2.69      0.00
   12    7   12      0.28      0.00
   13    7   12     -0.16      0.00
    0    8   12      0.11      0.00
    1    8   12      0.50      0.00
    2    8   12     -0.04      0.00
    3    8   12      0.19      0.00
    4    8   12     -0.46      0.00
    5    8   12      0.95      0.00
    6    8   12      0.11      0.00
    7    8   12      1.36      0.00
    8    8   12     -0.23      0.00
    9    8   12      1.63      0.00
   10    8   12     -0.93      0.00
   11    8   12      1.06      0.00
   12    8   12      0.18      0.00
   13    8   12      1.48      0.00
    0    9   12     -0.53      0.00
    1    9   12      0.22      0.00
    2    9   12     -0.20      0.00
    3    9   12     -1.15      0.00
    4    9   12     -0.52      0.00
    5    9   12     -0.24      0.00
    6    9   12     -0.42      0.00
    7    9   12     -0.07      0.00
    8    9   12      0.14      0.00
    9    9   12     -0.55      0.00
   10    9   12      0.66      0.00
   11    9   12     -1.09      0.00
   12    9   12      2.16      0.00
   13    9   12     -0.10      0.00
    0   10   12      0.46      0.00
    1   10   12     -0.38      0.00
    2   10   12     -0.62      0.00
    3   10   12      1.87      0.00
    4   10   12      0.08      0.00
    5   10   12     -1.70      0.00
    6   10   12     -0.83      0.00
    7   10   12      0.38      0.00
    8   10   12     -0.31      0.00
    9   10   12     -0.66      0.00
   10   10   12     -0.84      0.00
   11   10   12      0.22      0.00
   12   10   12      1.66      0.00
    0   11   12     -2.11      0.00
    1   11   12     -1.81      0.00
    2   11   12      0.49      0.00
    3   11   12      0.48      0.00
    4   11   12      0.00      0.00
    5   11   12     -1.10      0.00
    6   11   12      0.82      0.00
    7   11   12     -0.58      0.00
    8   11   12      0.58      0.00
    9   11   12     -0.96      0.00
   10   11   12     -0.10      0.00
   11   11   12     -0.06      0.00
   12   11   12      1.24      0.00
    0   12   12     -1.63      0.00
    1   12   12     -0.41      0.00
    2   12   12     -0.36      0.00
    3   12   12     -0.62      0.00
    4   12   12     -0.28      0.00
    5   12   12      0.55      0.00
    6   12   12     -0.35      0.00
    7   12   12      0.51      0.00
    8   12   12      0.56      0.00
    9   12   12     -0.10      0.00
   10   12   12     -0.20      0.00
   11   12   12      0.08      0.00
   12   12   12     -1.46      0.00
    0   13   12      0.28      0.00
    1   13   12      0.12      0.00
    2   13   12     -0.95      0.00
    3   13   12     -0.44      0.00
    4   13   12     -1.60      0.00
    5   13   12      0.72      0.00
    6   13   12     -0.58      0.00
    7   13   12      0.44      0.00
    8   13   12     -0.99      0.00
    9   13   12      0.10      0.00
   10   13   12      1.61      0.00
   11   13   12      0.39      0.00
   12   13   12      0.56      0.00
    0   14   12      1.86      0.00
    1   14   12      0.65      0.00
    2   14   12     -0.64      0.00
    3   14   12     -0.70      0.00
    4   14   12      0.83      0.00
    5   14   12     -2.01      0.00
    6   14   12      0.11      0.00
    7   14   12     -0.61      0.00
    8   14   12      0.23      0.00
    9   14   12     -1.18      0.00
   10   14   12      0.02      0.00
   11   14   12     -1.03      0.00
    0   15   12     -1.04      0.00
    1   15   12      0.14      0.00
    2   15   12      0.17      0.00
    3   15   12     -0.81      0.00
    4   15   12     -1.16      0.00
    5   15   12      1.04      0.00
    6   15   12     -0.02      0.00
    7   15   12      0.73      0.00
    8   15   12      0.27      0.00
    9   15   12      1.88      0.00
   10   15   12     -1.57      0.00
   11   15   12     -0.46      0.00
    0   16   12     -0.26      0.00
    1   16   12     -0.87      0.00
    2   16   12     -0.52      0.00
    3   16   12      0.40      0.00
    4   16   12      0.58      0.00
    5   16   12      0.62      0.00
    6   16   12      1.13      0.00
    7   16   12      1.00      0.00
    8   16   12     -0.29      0.00
    9   16   12      0.37      0.00
   10   16   12      0.15      0.00
    0   17   12      0.55      0.00
    1   17   12      0.14      0.00
    2   17   12     -0.32      0.00
    3   17   12      0.06      0.00
    4   17   12     -0.70      0.00
    5   17   12      1.21      0.00
    6   17   12      0.61      0.00
    7   17   12     -0.66      0.00
    8   17   12      1.63      0.00
    9   17   12     -0.46      0.00
   10   17   12      1.62      0.00
    0   18   12     -0.80      0.00
    1   18   12      1.12      0.00
    2   18   12     -0.18      0.00
    3   18   12     -1.07      0.00
    4   18   12      0.55      0.00
    5   18   12     -0.34      0.00
    6   18   12      0.32      0.00
    7   18   12      0.38      0.00
    8   18   12      0.39      0.00
    9   18   12      0.39      0.00
    0   19   12      0.43      0.00
    1   19   12      0.27      0.00
    2   19   12     -0.45      0.00
    3   19   12     -0.25      0.00
    4   19   12      0.20      0.00
    5   19   12      0.33      0.00
    6   19   12     -0.84      0.00
    7   19   12      0.22      0.00
    8   19   12      0.73      0.00
    0   20   12      1.08      0.00
    1   20   12     -0.06      0.00
    2   20   12      1.18      0.00
    3   20   12      0.45      0.00
    4   20   12      0.88      0.00
    5   20   12     -0.05      0.00
    6   20   12      0.91      0.00
    7   20   12     -0.81      0.00
    0   21   12      0.83      0.00
    1   21   12      0.63      0.00
    2   21   12      1.08      0.00
    3   21   12      1.81      0.00
    4   21   12     -0.11      0.00
    5   21   12     -0.71      0.00
    6   21   12     -2.31      0.00
    0   22   12      0.51      0.00
    1   22   12      1.28      0.00
    2   22   12     -0.05      0.00
    3   22   12     -1.30      0.00
    4   22   12      0.62      0.00
    5   22   12     -1.50      0.00
    0   23   12      1.73      0.00
    1   23   12      1.49      0.00
    2   23   12      0.18      0.00
    3   23   12     -0.98      0.00
    4   23   12     -0.91      0.00
    0   24   12      2.42      0.00
    1   24   12      0.39      0.00
    2    0   13      3.87      0.00
    4    0   13     -3.26      0.00
    6    0   13      0.37      0.00
    8    0   13      2.00      0.00
   10    0   13     -0.72      0.00
   12    0   13     -0.20      0.00
    1    1   13      0.12      0.00
    2    1   13      0.90      0.00
    3    1   13      0.63      0.00
    4    1   13      1.21      0.00
    5    1   13     -0.40      0.00
    6    1   13     -1.29      0.00
    7    1   13      1.44      0.00
    8    1   13      1.17      0.00
    9    1   13      0.78      0.00
   10    1   13      0.47      0.00
   11    1   13     -0.95      0.00
   12    1   13     -1.09      0.00
   13    1   13      1.35      0.00
    1    2   13     -1.53      0.00
    2    2   13     -1.78      0.00
    3    2   13      0.99      0.00
    4    2   13      1.46      0.00
    5    2   13      0.06      0.00
    6    2   13     -0.73      0.00
    7    2   13      0.01      0.00
    8    2   13      0.07      0.00
    9    2   13      0.50      0.00
   10    2   13      0.19      0.00
   11    2   13     -1.48      0.00
   12    2   13      1.08      0.00
   13    2   13     -1.36      0.00
    1    3   13     -0.08      0.00
    2    3   13     -0.81      0.00
    3    3   13     -0.74      0.00
    4    3   13     -0.91      0.00
    5    3   13      0.50      0.00
    6    3   13     -0.25      0.00
    7    3   13     -1.07      0.00
    8    3   13      0.54      0.00
    9    3   13     -1.38      0.00
   10    3   13      0.62      0.00
   11    3   13      2.88      0.00
   12    3   13     -2.08      0.00
   13    3   13     -0.12      0.00
    1    4   13      0.32      0.00
    2    4   13      1.08      0.00
    3    4   13     -1.69      0.00
    4    4   13     -1.53      0.00
    5    4   13      0.10      0.00
    6    4   13      0.31      0.00
    7    4   13     -0.36      0.00
    8    4   13     -0.15      0.00
    9    4   13      0.32      0.00
   10    4   13      3.02      0.00
   11    4   13      1.15      0.00
   12    4   13      1.24      0.00
   13    4   13      0.43      0.00
    1    5   13     -0.40      0.00
    2    5   13      0.86      0.00
    3    5   13      1.32      0.00
    4    5   13     -0.50      0.00
    5    5   13      0.98      0.00
    6    5   13     -1.09      0.00
    7    5   13     -0.50      0.00
    8    5   13     -0.12      0.00
    9    5   13      2.13      0.00
   10    5   13      0.91      0.00
   11    5   13      1.74      0.00
   12    5   13      1.06      0.00
   13    5   13     -2.60      0.00
    1    6   13     -0.78      0.00
    2    6   13      0.24      0.00
    3    6   13      0.46      0.00
    4    6   13      0.84      0.00
    5    6   13      0.54      0.00
    6    6   13      1.24      0.00
    7    6   13     -0.63      0.00
    8    6   13     -0.99      0.00
    9    6   13      1.55      0.00
   10    6   13      1.18      0.00
   11    6   13      1.01      0.00
   12    6   13     -2.34      0.00
   13    6   13      1.55      0.00
    1    7   13     -1.27      0.00
    2    7   13     -0.40      0.00
    3    7   13      1.23      0.00
    4    7   13      0.30      0.00
    5    7   13      0.19      0.00
    6    7   13     -0.46      0.00
    7    7   13      0.00      0.00
    8    7   13     -0.93      0.00
    9    7   13     -1.80      0.00
   10    7   13      0.94      0.00
   11    7   13      0.06      0.00
   12    7   13     -0.14      0.00
   13    7   13     -1.59      0.00
    1    8   13     -0.62      0.00
    2    8   13     -0.19      0.00
    3    8   13      0.42      0.00
    4    8   13     -0.50      0.00
    5    8   13      0.61      0.00
    6    8   13     -0.35      0.00
    7    8   13     -0.36      0.00
    8    8   13      0.16      0.00
    9    8   13     -0.87      0.00
   10    8   13      1.19      0.00
   11    8   13     -0.99      0.00
   12    8   13     -1.06      0.00
   13    8   13     -1.58      0.00
    1    9   13      1.00      0.00
    2    9   13      0.06      0.00
    3    9   13     -0.29      0.00
    4    9   13      0.72      0.00
    5    9   13     -0.97      0.00
    6    9   13      0.69      0.00
    7    9   13      0.35      0.00
    8    9   13     -0.05      0.00
    9    9   13     -0.98      0.00
   10    9   13     -0.71      0.00
   11    9   13      1.48      0.00
   12    9   13     -1.54      0.00
    1   10   13     -0.24      0.00
    2   10   13      0.19      0.00
    3   10   13     -0.05      0.00
    4   10   13      0.11      0.00
    5   10   13      2.00      0.00
    6   10   13      0.41      0.00
    7   10   13     -0.09      0.00
    8   10   13     -0.70      0.00
    9   10   13      1.12      0.00
   10   10   13      1.62      0.00
   11   10   13      0.59      0.00
   12   10   13      0.85      0.00
    1   11   13     -1.13      0.00
    2   11   13     -0.93      0.00
    3   11   13      1.66      0.00
    4   11   13     -0.19      0.00
    5   11   13      0.02      0.00
    6   11   13      1.55      0.00
    7   11   13      0.25      0.00
    8   11   13     -0.57      0.00
    9   11   13      2.27      0.00
   10   11   13      1.11      0.00
   11   11   13      1.29      0.00
   12   11   13      1.95      0.00
    1   12   13     -1.05      0.00
    2   12   13     -0.07      0.00
    3   12   13      0.52      0.00
    4   12   13      0.29      0.00
    5   12   13      0.80      0.00
    6   12   13      1.07      0.00
    7   12   13      0.03      0.00
    8   12   13      0.63      0.00
    9   12   13     -0.13      0.00
   10   12   13      0.33      0.00
   11   12   13      1.32      0.00
   12   12   13      0.25      0.00
    1   13   13      0.63      0.00
    2   13   13      0.48      0.00
    3   13   13     -0.94      0.00
    4   13   13     -0.77      0.00
    5   13   13      0.71      0.00
    6   13   13      0.08      0.00
    7   13   13      1.58      0.00
    8   13   13     -0.81      0.00
    9   13   13      0.06      0.00
   10   13   13     -0.34      0.00
   11   13   13      0.96      0.00
    1   14   13      0.86      0.00
    2   14   13      1.21      0.00
    3   14   13      0.15      0.00
    4   14   13      0.15      0.00
    5   14   13      0.31      0.00
    6   14   13      0.75      0.00
    7   14   13     -0.59      0.00
    8   14   13      1.70      0.00
    9   14   13      1.01      0.00
   10   14   13      1.50      0.00
   11   14   13      0.26      0.00
    1   15   13      1.09      0.00
    2   15   13     -0.62      0.00
    3   15   13      0.72      0.00
    4   15   13     -0.25      0.00
    5   15   13     -0.74      0.00
    6   15   13     -0.08      0.00
    7   15   13     -0.60      0.00
    8   15   13     -0.45      0.00
    9   15   13      0.82      0.00
   10   15   13      0.92      0.00
    1   16   13     -0.56      0.00
    2   16   13     -0.19      0.00
    3   16   13     -1.71      0.00
    4   16   13      0.15      0.00
    5   16   13      0.00      0.00
    6   16   13     -0.90      0.00
    7   16   13     -0.41      0.00
    8   16   13      0.87      0.00
    9   16   13     -0.60      0.00
   10   16   13      1.51      0.00
    1   17   13     -0.51      0.00
    2   17   13     -0.63      0.00
    3   17   13      0.44      0.00
    4   17   13     -2.44      0.00
    5   17   13      0.81      0.00
    6   17   13     -1.83      0.00
    7   17   13      1.04      0.00
    8   17   13     -0.84      0.00
    9   17   13      0.88      0.00
    1   18   13      1.34      0.00
    2   18   13     -0.77      0.00
    3   18   13     -0.62      0.00
    4   18   13      0.86      0.00
    5   18   13     -2.33      0.00
    6   18   13      0.92      0.00
    7   18   13     -0.63      0.00
    8   18   13      0.57      0.00
    9   18   13      0.32      0.00
    1   19   13      0.63      0.00
    2   19   13      0.32      0.00
    3   19   13     -0.42      0.00
    4   19   13     -1.12      0.00
    5   19   13      0.28      0.00
    6   19   13     -1.47      0.00
    7   19   13     -1.70      0.00
    8   19   13     -0.25      0.00
    1   20   13      0.07      0.00
    2   20   13      0.84      0.00
    3   20   13     -0.47      0.00
    4   20   13      0.57      0.00
    5   20   13     -1.50      0.00
    6   20   13     -0.36      0.00
    7   20   13      0.57      0.00
    1   21   13      0.85      0.00
    2   21   13      0.15      0.00
    3   21   13      1.87      0.00
    4   21   13     -0.82      0.00
    5   21   13      0.98      0.00
    6   21   13     -0.88      0.00
    1   22   13      0.70      0.00
    2   22   13      0.34      0.00
    3   22   13     -0.02      0.00
    4   22   13      1.20      0.00
    5   22   13     -2.08      0.00
    1   23   13     -0.78      0.00
    2   23   13      0.29      0.00
    3   23   13      1.05      0.00
    0    0   14      0.27      0.00
    2    0   14      1.12      0.00
    4    0   14      0.82      0.00
    6    0   14     -2.79      0.00
    8    0   14      1.44      0.00
   10    0   14      0.14      0.00
   12    0   14     -1.75      0.00
    0    1   14      0.69      0.00
    1    1   14      0.41      0.00
    2    1   14      0.23      0.00
    3    1   14      0.07      0.00
    4    1   14      2.78      0.00
    5    1   14     -0.76      0.00
    6    1   14      0.08      0.00
    7    1   14      0.64      0.00
    8    1   14      0.27      0.00
    9    1   14      0.94      0.00
   10    1   14      0.43      0.00
   11    1   14     -0.59      0.00
   12    1   14     -0.09      0.00
   13    1   14     -0.52      0.00
    0    2   14      0.97      0.00
    1    2   14      0.64      0.00
    2    2   14     -0.89      0.00
    3    2   14     -0.23      0.00
    4    2   14      1.09      0.00
    5    2   14      3.48      0.00
    6    2   14     -0.45      0.00
    7    2   14     -0.74      0.00
    8    2   14      0.01      0.00
    9    2   14      1.51      0.00
   10    2   14      0.06      0.00
   11    2   14      0.77      0.00
   12    2   14      1.35      0.00
   13    2   14      0.05      0.00
    0    3   14     -1.35      0.00
    1    3   14      0.74      0.00
    2    3   14     -1.06      0.00
    3    3   14     -0.46      0.00
    4    3   14      1.07      0.00
    5    3   14      0.37      0.00
    6    3   14      0.10      0.00
    7    3   14      0.21      0.00
    8    3   14      0.01      0.00
    9    3   14      1.06      0.00
   10    3   14      1.14      0.00
   11    3   14     -0.02      0.00
   12    3   14      1.37      0.00
   13    3   14      0.56      0.00
    0    4   14     -0.88      0.00
    1    4   14     -0.90      0.00
    2    4   14      1.80      0.00
    3    4   14     -0.49      0.00
    4    4   14     -0.10      0.00
    5    4   14     -1.33      0.00
    6    4   14      0.18      0.00
    7    4   14      0.18      0.00
    8    4   14     -1.11      0.00
    9    4   14     -0.16      0.00
   10    4   14      1.25      0.00
   11    4   14      0.25      0.00
   12    4   14      0.47      0.00
   13    4   14      1.42      0.00
    0    5   14      0.89      0.00
    1    5   14     -0.89      0.00
    2    5   14     -0.12      0.00
    3    5   14      1.15      0.00
    4    5   14     -0.11      0.00
    5    5   14     -0.57      0.00
    6    5   14     -1.34      0.00
    7    5   14     -0.66      0.00
    8    5   14     -1.99      0.00
    9    5   14     -0.28      0.00
   10    5   14      1.97      0.00
   11    5   14     -0.82      0.00
   12    5   14      2.58      0.00
   13    5   14     -2.97      0.00
    0    6   14      0.50      0.00
    1    6   14      0.61      0.00
    2    6   14      0.82      0.00
    3    6   14     -1.39      0.00
    4    6   14     -0.15      0.00
    5    6   14      1.25      0.00
    6    6   14     -0.97      0.00
    7    6   14     -1.07      0.00
    8    6   14     -0.02      0.00
    9    6   14     -0.38      0.00
   10    6   14      1.53      0.00
   11    6   14      2.18      0.00
   12    6   14     -1.75      0.00
   13    6   14      0.84      0.00
    0    7   14     -0.69      0.00
    1    7   14      0.42      0.00
    2    7   14      0.29      0.00
    3    7   14     -1.58      0.00
    4    7   14      0.22      0.00
    5    7   14      0.56      0.00
    6    7   14      1.65      0.00
    7    7   14     -0.60      0.00
    8    7   14      0.19      0.00
    9    7   14      2.30      0.00
   10    7   14     -1.08      0.00
   11    7   14      1.67      0.00
   12    7   14     -1.34      0.00
   13    7   14      0.58      0.00
    0    8   14     -1.14      0.00
    1    8   14     -0.06      0.00
    2    8   14      0.82      0.00
    3    8   14     -0.28      0.00
    4    8   14     -0.79      0.00
    5    8   14      1.62      0.00
    6    8   14     -0.50      0.00
    7    8   14      0.73      0.00
    8    8   14     -0.53      0.00
    9    8   14      0.76      0.00
   10    8   14      1.19      0.00
   11    8   14     -2.57      0.00
   12    8   14      0.53      0.00
    0    9   14     -0.75      0.00
    1    9   14     -0.82      0.00
    2    9   14     -0.32      0.00
    3    9   14      1.87      0.00
    4    9   14      0.23      0.00
    5    9   14      0.94      0.00
    6    9   14      0.29      0.00
    7    9   14     -1.02      0.00
    8    9   14      0.06      0.00
    9    9   14     -0.62      0.00
   10    9   14     -0.22      0.00
   11    9   14     -0.22      0.00
   12    9   14     -1.71      0.00
    0   10   14     -0.35      0.00
    1   10   14     -0.86      0.00
    2   10   14      0.86      0.00
    3   10   14     -0.96      0.00
    4   10   14      0.84      0.00
    5   10   14      0.38      0.00
    6   10   14      1.62      0.00
    7   10   14      0.14      0.00
    8   10   14     -1.55      0.00
    9   10   14     -0.67      0.00
   10   10   14      0.27      0.00
   11   10   14     -0.79      0.00
   12   10   14      0.08      0.00
    0   11   14     -0.37      0.00
    1   11   14      0.47      0.00
    2   11   14     -0.14      0.00
    3   11   14     -1.69      0.00
    4   11   14     -0.55      0.00
    5   11   14      1.61      0.00
    6   11   14      0.23      0.00
    7   11   14     -0.80      0.00
    8   11   14      1.42      0.00
    9   11   14      0.43      0.00
   10   11   14     -1.08      0.00
   11   11   14      1.51      0.00
   12   11   14     -2.07      0.00
    0   12   14      0.58      0.00
    1   12   14     -0.46      0.00
    2   12   14     -1.40      0.00
    3   12   14     -0.36      0.00
    4   12   14     -1.70      0.00
    5   12   14      0.80      0.00
    6   12   14     -0.70      0.00
    7   12   14      0.04      0.00
    8   12   14     -0.92      0.00
    9   12   14      0.16      0.00
   10   12   14      2.94      0.00
   11   12   14     -0.33      0.00
    0   13   14     -0.97      0.00
    1   13   14     -0.26      0.00
    2   13   14      0.61      0.00
    3   13   14     -0.41      0.00
    4   13   14      0.61      0.00
    5   13   14     -0.68      0.00
    6   13   14     -1.53      0.00
    7   13   14     -1.18      0.00
    8   13   14     -1.40      0.00
    9   13   14      0.74      0.00
   10   13   14      1.17      0.00
   11   13   14      1.60      0.00
    0   14   14     -1.05      0.00
    1   14   14     -0.66      0.00
    2   14   14      0.45      0.00
    3   14   14     -0.31      0.00
    4   14   14      0.39      0.00
    5   14   14     -0.30      0.00
    6   14   14      0.60      0.00
    7   14   14     -1.04      0.00
    8   14   14      0.02      0.00
    9   14   14     -0.15      0.00
   10   14   14     -0.26      0.00
    0   15   14      1.39      0.00
    1   15   14     -1.42      0.00
    2   15   14      0.03      0.00
    3   15   14      0.52      0.00
    4   15   14      0.24      0.00
    5   15   14      0.61      0.00
    6   15   14      0.27      0.00
    7   15   14     -0.23      0.00
    8   15   14     -0.41      0.00
    9   15   14      0.58      0.00
   10   15   14     -1.40      0.00
    0   16   14      0.61      0.00
    1   16   14      1.58      0.00
    2   16   14     -1.10      0.00
    3   16   14      0.61      0.00
    4   16   14     -0.62      0.00
    5   16   14      1.02      0.00
    6   16   14     -0.49      0.00
    7   16   14      1.81      0.00
    8   16   14     -0.90      0.00
    9   16   14     -1.06      0.00
    0   17   14      2.40      0.00
    1   17   14      0.94      0.00
    2   17   14      0.60      0.00
    3   17   14     -0.85      0.00
    4   17   14     -0.34      0.00
    5   17   14     -1.09      0.00
    6   17   14      1.35      0.00
    7   17   14     -0.18      0.00
    8   17   14      1.94      0.00
    9   17   14     -0.32      0.00
    0   18   14     -0.99      0.00
    1   18   14      0.42      0.00
    2   18   14      0.76      0.00
    3   18   14     -0.70      0.00
    4   18   14     -0.48      0.00
    5   18   14     -0.13      0.00
    6   18   14     -0.01      0.00
    7   18   14      2.61      0.00
    8   18   14      1.33      0.00
    0   19   14      1.23      0.00
    1   19   14     -0.62      0.00
    2   19   14     -0.68      0.00
    3   19   14      1.58      0.00
    4   19   14      0.43      0.00
    5   19   14      0.32      0.00
    6   19   14      1.07      0.00
    7   19   14      0.58      0.00
    0   20   14     -0.89      0.00
    1   20   14      0.19      0.00
    2   20   14      0.31      0.00
    3   20   14      1.10      0.00
    4   20   14      0.06      0.00
    5   20   14     -0.93      0.00
    6   20   14     -1.02      0.00
    0   21   14      0.37      0.00
    1   21   14     -0.66      0.00
    2   21   14      0.39      0.00
    3   21   14     -0.38      0.00
    4   21   14     -1.60      0.00
    5   21   14      0.22      0.00
    0   22   14     -1.31      0.00
    1   22   14      0.24      0.00
    2   22   14     -0.67      0.00
    3   22   14     -0.81      0.00
    4   22   14     -0.84      0.00
    0   23   14     -0.84      0.00
    1   23   14      0.82      0.00
    2    0   15      1.06      0.00
    4    0   15      0.23      0.00
    6    0   15      3.24      0.00
    8    0   15      0.32      0.00
   10    0   15     -0.17      0.00
   12    0   15      1.52      0.00
    1    1   15     -0.49      0.00
    2    1   15      0.10      0.00
    3    1   15      0.66      0.00
    4    1   15      0.54      0.00
    5    1   15     -1.13      0.00
    6    1   15     -0.77      0.00
    7    1   15      1.56      0.00
    8    1   15      0.44      0.00
    9    1   15      0.79      0.00
   10    1   15      0.24      0.00
   11    1   15      0.85      0.00
   12    1   15      1.40      0.00
   13    1   15     -0.70      0.00
    1    2   15     -0.80      0.00
    2    2   15     -0.41      0.00
    3    2   15     -0.23      0.00
    4    2   15     -1.69      0.00
    5    2   15     -0.30      0.00
    6    2   15      0.30      0.00
    7    2   15      0.20      0.00
    8    2   15     -0.70      0.00
    9    2   15      0.20      0.00
   10    2   15      0.51      0.00
   11    2   15      0.67      0.00
   12    2   15      0.56      0.00
   13    2   15     -1.20      0.00
    1    3   15      2.75      0.00
    2    3   15     -1.20      0.00
    3    3   15     -3.00      0.00
    4    3   15      0.36      0.00
    5    3   15     -1.69      0.00
    6    3   15      0.25      0.00
    7    3   15     -1.83      0.00
    8    3   15      0.85      0.00
    9    3   15     -0.52      0.00
   10    3   15      0.42      0.00
   11    3   15      2.04      0.00
   12    3   15     -0.02      0.00
   13    3   15     -0.72      0.00
    1    4   15     -0.03      0.00
    2    4   15     -0.65      0.00
    3    4   15      0.08      0.00
    4    4   15     -0.97      0.00
    5    4   15      0.17      0.00
    6    4   15     -0.64      0.00
    7    4   15      0.11      0.00
    8    4   15     -0.59      0.00
    9    4   15      1.76      0.00
   10    4   15     -0.42      0.00
   11    4   15      0.32      0.00
   12    4   15     -0.35      0.00
   13    4   15     -0.81      0.00
    1    5   15     -1.67      0.00
    2    5   15      0.22      0.00
    3    5   15     -0.60      0.00
    4    5   15      1.17      0.00
    5    5   15      0.70      0.00
    6    5   15      0.11      0.00
    7    5   15     -0.57      0.00
    8    5   15     -1.45      0.00
    9    5   15      1.36      0.00
   10    5   15     -2.19      0.00
   11    5   15     -0.31      0.00
   12    5   15      1.19      0.00
   13    5   15     -1.81      0.00
    1    6   15      0.71      0.00
    2    6   15      0.12      0.00
    3    6   15      0.41      0.00
    4    6   15      0.46      0.00
    5    6   15      0.17      0.00
    6    6   15      0.23      0.00
    7    6   15     -0.29      0.00
    8    6   15     -1.02      0.00
    9    6   15     -2.49      0.00
   10    6   15      1.34      0.00
   11    6   15     -0.32      0.00
   12    6   15     -1.41      0.00
    1    7   15      1.04      0.00
    2    7   15     -0.41      0.00
    3    7   15     -1.13      0.00
    4    7   15      0.33      0.00
    5    7   15     -0.46      0.00
    6    7   15     -0.55      0.00
    7    7   15     -0.58      0.00
    8    7   15     -0.32      0.00
    9    7   15     -0.11      0.00
   10    7   15      0.57      0.00
   11    7   15     -0.30      0.00
   12    7   15      1.75      0.00
    1    8   15      0.26      0.00
    2    8   15     -0.86      0.00
    3    8   15     -1.67      0.00
    4    8   15      0.20      0.00
    5    8   15     -0.05      0.00
    6    8   15     -0.72      0.00
    7    8   15     -0.21      0.00
    8    8   15      0.37      0.00
    9    8   15     -0.14      0.00
   10    8   15     -0.35      0.00
   11    8   15     -0.18      0.00
   12    8   15     -1.12      0.00
    1    9   15     -0.64      0.00
    2    9   15     -1.65      0.00
    3    9   15     -1.16      0.00
    4    9   15      0.82      0.00
    5    9   15      1.69      0.00
    6    9   15     -0.54      0.00
    7    9   15     -0.62      0.00
    8    9   15     -0.13      0.00
    9    9   15     -0.81      0.00
   10    9   15     -0.58      0.00
   11    9   15      0.53      0.00
   12    9   15     -0.68      0.00
    1   10   15      0.29      0.00
    2   10   15     -0.49      0.00
    3   10   15     -0.73      0.00
    4   10   15      1.58      0.00
    5   10   15      0.46      0.00
    6   10   15      0.22      0.00
    7   10   15      0.02      0.00
    8   10   15     -0.54      0.00
    9   10   15      1.25      0.00
   10   10   15     -0.73      0.00
   11   10   15     -1.17      0.00
    1   11   15      0.08      0.00
    2   11   15      0.65      0.00
    3   11   15      0.67      0.00
    4   11   15     -0.21      0.00
    5   11   15     -0.17      0.00
    6   11   15      0.19      0.00
    7   11   15      0.36      0.00
    8   11   15      0.49      0.00
    9   11   15      0.70      0.00
   10   11   15      0.09      0.00
   11   11   15     -1.24      0.00
    1   12   15     -0.61      0.00
    2   12   15      0.83      0.00
    3   12   15     -0.56      0.00
    4   12   15     -0.70      0.00
    5   12   15      0.21      0.00
    6   12   15     -0.57      0.00
    7   12   15      0.23      0.00
    8   12   15      0.81      0.00
    9   12   15      0.61      0.00
   10   12   15     -1.15      0.00
   11   12   15     -0.98      0.00
    1   13   15     -0.33      0.00
    2   13   15     -0.45      0.00
    3   13   15      0.00      0.00
    4   13   15      1.02      0.00
    5   13   15     -0.67      0.00
    6   13   15     -0.42      0.00
    7   13   15     -0.54      0.00
    8   13   15     -0.16      0.00
    9   13   15      0.19      0.00
   10   13   15      0.45      0.00
    1   14   15      0.25      0.00
    2   14   15     -0.89      0.00
    3   14   15      0.38      0.00
    4   14   15      1.22      0.00
    5   14   15     -0.53      0.00
    6   14   15     -1.11      0.00
    7   14   15      0.55      0.00
    8   14   15      0.22      0.00
    9   14   15      0.52      0.00
   10   14   15      0.36      0.00
    1   15   15     -0.65      0.00
    2   15   15      0.62      0.00
    3   15   15      0.04      0.00
    4   15   15      0.52      0.00
    5   15   15      0.67      0.00
    6   15   15      0.65      0.00
    7   15   15     -1.54      0.00
    8   15   15      0.78      0.00
    9   15   15     -1.08      0.00
    1   16   15     -0.16      0.00
    2   16   15     -0.12      0.00
    3   16   15      0.88      0.00
    4   16   15     -0.74      0.00
    5   16   15      0.46      0.00
    6   16   15     -0.43      0.00
    7   16   15      1.76      0.00
    8   16   15     -1.66      0.00
    9   16   15      1.88      0.00
    1   17   15     -0.69      0.00
    2   17   15      0.60      0.00
    3   17   15      0.35      0.00
    4   17   15     -0.61      0.00
    5   17   15     -0.46      0.00
    6   17   15      1.33      0.00
    7   17   15      0.51      0.00
    8   17   15      1.37      0.00
    1   18   15      0.01      0.00
    2   18   15     -0.59      0.00
    3   18   15     -1.82      0.00
    4   18   15      0.69      0.00
    5   18   15     -1.24      0.00
    6   18   15     -0.35      0.00
    7   18   15      0.61      0.00
    8   18   15     -1.45      0.00
    1   19   15     -0.42      0.00
    2   19   15      0.14      0.00
    3   19   15      0.68      0.00
    4   19   15     -1.71      0.00
    5   19   15      0.47      0.00
    6   19   15      1.78      0.00
    7   19   15     -0.84      0.00
    1   20   15      0.18      0.00
    2   20   15      1.21      0.00
    3   20   15      0.17      0.00
    4   20   15      0.94      0.00
    5   20   15      1.05      0.00
    6   20   15     -0.36      0.00
    1   21   15      2.29      0.00
    2   21   15      0.56      0.00
    3   21   15      0.74      0.00
    4   21   15      0.13      0.00
    1   22   15     -0.05      0.00
    2   22   15      0.16      0.00
    3   22   15      0.23      0.00
    0    0   16      1.30      0.00
    2    0   16     -0.63      0.00
    4    0   16      0.49      0.00
    6    0   16     -0.29      0.00
    8    0   16      0.74      0.00
   10    0   16     -0.38      0.00
   12    0   16     -1.66      0.00
    0    1   16      0.66      0.00
    1    1   16      0.09      0.00
    2    1   16      0.28      0.00
    3    1   16      0.34      0.00
    4    1   16     -0.37      0.00
    5    1   16      0.65      0.00
    6    1   16     -1.40      0.00
    7    1   16     -1.71      0.00
    8    1   16      1.14      0.00
    9    1   16      0.81      0.00
   10    1   16      0.63      0.00
   11    1   16      0.44      0.00
   12    1   16      1.32      0.00
    0    2   16     -1.42      0.00
    1    2   16      1.41      0.00
    2    2   16      1.03      0.00
    3    2   16      0.74      0.00
    4    2   16      0.07      0.00
    5    2   16     -0.05      0.00
    6    2   16     -1.07      0.00
    7    2   16     -0.58      0.00
    8    2   16      1.55      0.00
    9    2   16      1.06      0.00
   10    2   16     -0.23      0.00
   11    2   16      1.79      0.00
   12    2   16     -0.16      0.00
    0    3   16     -0.47      0.00
    1    3   16      1.19      0.00
    2    3   16      1.58      0.00
    3    3   16      1.60      0.00
    4    3   16      0.28      0.00
    5    3   16     -1.97      0.00
    6    3   16      1.20      0.00
    7    3   16      0.06      0.00
    8    3   16     -0.67      0.00
    9    3   16     -0.02      0.00
   10    3   16      0.77      0.00
   11    3   16     -0.16      0.00
   12    3   16      0.02      0.00
    0    4   16      2.04      0.00
    1    4   16     -0.47      0.00
    2    4   16      0.17      0.00
    3    4   16      1.69      0.00
    4    4   16      0.37      0.00
    5    4   16     -0.67      0.00
    6    4   16      0.52      0.00
    7    4   16      0.35      0.00
    8    4   16      0.55      0.00
    9    4   16      0.15      0.00
   10    4   16      0.88      0.00
   11    4   16      0.32      0.00
   12    4   16     -0.03      0.00
    0    5   16      0.53      0.00
    1    5   16     -0.19      0.00
    2    5   16     -0.26      0.00
    3    5   16      0.27      0.00
    4    5   16      0.14      0.00
    5    5   16      1.54      0.00
    6    5   16     -0.90      0.00
    7    5   16      0.39      0.00
    8    5   16      0.85      0.00
    9    5   16      0.32      0.00
   10    5   16      0.44      0.00
   11    5   16     -0.18      0.00
   12    5   16     -0.77      0.00
    0    6   16     -0.19      0.00
    1    6   16     -0.25      0.00
    2    6   16     -0.71      0.00
    3    6   16     -0.53      0.00
    4    6   16     -0.14      0.00
    5    6   16      0.25      0.00
    6    6   16     -0.56      0.00
    7    6   16     -0.39      0.00
    8    6   16      0.64      0.00
    9    6   16      1.28      0.00
   10    6   16     -0.13      0.00
   11    6   16      1.22      0.00
   12    6   16     -2.58      0.00
    0    7   16     -0.36      0.00
    1    7   16      0.59      0.00
    2    7   16     -0.39      0.00
    3    7   16      0.29      0.00
    4    7   16      0.95      0.00
    5    7   16     -2.80      0.00
    6    7   16      1.69      0.00
    7    7   16     -0.36      0.00
    8    7   16      0.19      0.00
    9    7   16      0.77      0.00
   10    7   16     -0.61      0.00
   11    7   16     -1.27      0.00
   12    7   16      0.36      0.00
    0    8   16      0.14      0.00
    1    8   16     -0.28      0.00
    2    8   16     -0.68      0.00
    3    8   16      1.56      0.00
    4    8   16     -0.44      0.00
    5    8   16      1.85      0.00
    6    8   16     -1.61      0.00
    7    8   16      0.38      0.00
    8    8   16      0.22      0.00
    9    8   16     -0.38      0.00
   10    8   16      0.95      0.00
   11    8   16     -1.62      0.00
   12    8   16     -0.60      0.00
    0    9   16      2.04      0.00
    1    9   16      0.68      0.00
    2    9   16     -0.37      0.00
    3    9   16     -0.91      0.00
    4    9   16      2.95      0.00
    5    9   16     -0.51      0.00
    6    9   16      1.40      0.00
    7    9   16      1.14      0.00
    8    9   16     -0.81      0.00
    9    9   16      0.14      0.00
   10    9   16     -0.77      0.00
   11    9   16      0.40      0.00
    0   10   16      1.68      0.00
    1   10   16      0.60      0.00
    2   10   16     -0.61      0.00
    3   10   16      0.17      0.00
    4   10   16     -0.43      0.00
    5   10   16      0.50      0.00
    6   10   16      1.08      0.00
    7   10   16     -0.41      0.00
    8   10   16      2.02      0.00
    9   10   16     -0.36      0.00
   10   10   16      0.53      0.00
   11   10   16      1.50      0.00
    0   11   16      0.21      0.00
    1   11   16     -0.05      0.00
    2   11   16     -1.24      0.00
    3   11   16     -0.51      0.00
    4   11   16      0.09      0.00
    5   11   16     -0.60      0.00
    6   11   16     -0.98      0.00
    7   11   16      0.39      0.00
    8   11   16      0.30      0.00
    9   11   16      0.23      0.00
   10   11   16      0.41      0.00
   11   11   16     -0.26      0.00
    0   12   16     -1.89      0.00
    1   12   16     -0.42      0.00
    2   12   16      0.21      0.00
    3   12   16     -0.26      0.00
    4   12   16     -0.35      0.00
    5   12   16     -0.36      0.00
    6   12   16     -0.99      0.00
    7   12   16      0.67      0.00
    8   12   16     -1.34      0.00
    9   12   16     -0.33      0.00
   10   12   16      1.14      0.00
    0   13   16      0.29      0.00
    1   13   16     -0.50      0.00
    2   13   16      0.35      0.00
    3   13   16      0.40      0.00
    4   13   16     -0.52      0.00
    5   13   16     -0.19      0.00
    6   13   16      2.65      0.00
    7   13   16     -0.71      0.00
    8   13   16     -0.80      0.00
    9   13   16      0.31      0.00
   10   13   16     -3.38      0.00
    0   14   16      1.44      0.00
    1   14   16     -0.06      0.00
    2   14   16     -0.28      0.00
    3   14   16     -0.96      0.00
    4   14   16     -0.63      0.00
    5   14   16     -0.28      0.00
    6   14   16      0.26      0.00
    7   14   16      1.00      0.00
    8   14   16      0.75      0.00
    9   14   16     -1.00      0.00
   10   14   16     -0.79      0.00
    0   15   16     -0.22      0.00
    1   15   16      0.63      0.00
    2   15   16     -1.24      0.00
    3   15   16      0.53      0.00
    4   15   16     -1.14      0.00
    5   15   16      0.00      0.00
    6   15   16     -0.17      0.00
    7   15   16      0.41      0.00
    8   15   16     -0.27      0.00
    9   15   16      0.06      0.00
    0   16   16     -0.39      0.00
    1   16   16      0.36      0.00
    2   16   16      1.83      0.00
    3   16   16     -0.37      0.00
    4   16   16     -0.83      0.00
    5   16   16     -0.89      0.00
    6   16   16     -0.26      0.00
    7   16   16      0.90      0.00
    8   16   16     -1.12      0.00
    0   17   16     -0.29      0.00
    1   17   16      0.55      0.00
    2   17   16      1.37      0.00
    3   17   16     -0.06      0.00
    4   17   16     -0.35      0.00
    5   17   16     -0.88      0.00
    6   17   16      1.68      0.00
    7   17   16     -1.35      0.00
    8   17   16      3.37      0.00
    0   18   16     -0.12      0.00
    1   18   16     -0.36      0.00
    2   18   16      0.92      0.00
    3   18   16     -0.19      0.00
    4   18   16      0.17      0.00
    5   18   16      0.09      0.00
    6   18   16      0.69      0.00
    7   18   16      0.69      0.00
    0   19   16     -0.26      0.00
    1   19   16     -0.13      0.00
    2   19   16     -0.42      0.00
    3   19   16      0.91      0.00
    4   19   16      0.73      0.00
    5   19   16      0.17      0.00
    6   19   16     -1.84      0.00
    0   20   16      0.73      0.00
    1   20   16     -1.31      0.00
    2   20   16      1.36      0.00
    3   20   16      0.20      0.00
    4   20   16     -1.15      0.00
    5   20   16      0.29      0.00
    0   21   16     -0.50      0.00
    1   21   16     -0.06      0.00
    2   21   16      0.17      0.00
    3   21   16     -0.65      0.00
    2    0   17      2.42      0.00
    4    0   17     -2.14      0.00
    6    0   17     -0.49      0.00
    8    0   17      0.49      0.00
   10    0   17     -0.18      0.00
   12    0   17     -0.41      0.00
    1    1   17      0.35      0.00
    2    1   17      0.50      0.00
    3    1   17      1.03      0.00
    4    1   17     -1.49      0.00
    5    1   17     -0.58      0.00
    6    1   17     -0.80      0.00
    7    1   17      0.81      0.00
    8    1   17      0.11      0.00
    9    1   17     -1.38      0.00
   10    1   17      1.34      0.00
   11    1   17     -1.31      0.00
   12    1   17      0.17      0.00
    1    2   17      1.46      0.00
    2    2   17     -0.80      0.00
    3    2   17     -1.66      0.00
    4    2   17      1.79      0.00
    5    2   17      0.14      0.00
    6    2   17      0.13      0.00
    7    2   17     -0.68      0.00
    8    2   17      0.43      0.00
    9    2   17     -0.64      0.00
   10    2   17      0.52      0.00
   11    2   17      1.35      0.00
   12    2   17     -2.49      0.00
    1    3   17      0.37      0.00
    2    3   17      0.36      0.00
    3    3   17      0.35      0.00
    4    3   17     -0.33      0.00
    5    3   17      1.54      0.00
    6    3   17      0.98      0.00
    7    3   17     -0.17      0.00
    8    3   17      0.11      0.00
    9    3   17      1.17      0.00
   10    3   17     -0.20      0.00
   11    3   17      0.83      0.00
   12    3   17     -0.85      0.00
    1    4   17     -0.22      0.00
    2    4   17      0.48      0.00
    3    4   17      0.36      0.00
    4    4   17     -1.09      0.00
    5    4   17      1.60      0.00
    6    4   17      0.78      0.00
    7    4   17      0.59      0.00
    8    4   17      0.36      0.00
    9    4   17      0.26      0.00
   10    4   17      0.33      0.00
   11    4   17     -0.97      0.00
   12    4   17      0.90      0.00
    1    5   17     -0.28      0.00
    2    5   17      0.84      0.00
    3    5   17     -0.33      0.00
    4    5   17      0.16      0.00
    5    5   17      0.71      0.00
    6    5   17      1.38      0.00
    7    5   17      0.63      0.00
    8    5   17     -0.60      0.00
    9    5   17      0.22      0.00
   10    5   17     -0.33      0.00
   11    5   17      0.37      0.00
   12    5   17      0.84      0.00
    1    6   17      0.03      0.00
    2    6   17     -0.36      0.00
    3    6   17     -0.49      0.00
    4    6   17      0.60      0.00
    5    6   17      0.23      0.00
    6    6   17      1.65      0.00
    7    6   17      0.01      0.00
    8    6   17     -1.29      0.00
    9    6   17     -0.49      0.00
   10    6   17      2.07      0.00
   11    6   17      0.48      0.00
   12    6   17      0.99      0.00
    1    7   17     -0.75      0.00
    2    7   17     -1.31      0.00
    3    7   17      0.80      0.00
    4    7   17     -1.16      0.00
    5    7   17      1.09      0.00
    6    7   17      0.55      0.00
    7    7   17     -0.34      0.00
    8    7   17      1.84      0.00
    9    7   17      0.17      0.00
   10    7   17      0.10      0.00
   11    7   17     -0.70      0.00
    1    8   17     -1.01      0.00
    2    8   17     -0.25      0.00
    3    8   17     -0.01      0.00
    4    8   17      0.33      0.00
    5    8   17     -0.42      0.00
    6    8   17      0.17      0.00
    7    8   17      1.01      0.00
    8    8   17     -1.44      0.00
    9    8   17      0.03      0.00
   10    8   17     -0.99      0.00
   11    8   17      1.27      0.00
    1    9   17      1.16      0.00
    2    9   17      0.11      0.00
    3    9   17     -0.17      0.00
    4    9   17      0.39      0.00
    5    9   17     -0.02      0.00
    6    9   17     -0.56      0.00
    7    9   17     -1.11      0.00
    8    9   17     -0.39      0.00
    9    9   17     -1.58      0.00
   10    9   17      0.00      0.00
   11    9   17     -0.93      0.00
    1   10   17      0.26      0.00
    2   10   17      0.99      0.00
    3   10   17     -0.52      0.00
    4   10   17     -1.08      0.00
    5   10   17     -0.03      0.00
    6   10   17      0.31      0.00
    7   10   17     -0.96      0.00
    8   10   17     -1.03      0.00
    9   10   17      0.45      0.00
   10   10   17     -0.57      0.00
   11   10   17      0.34      0.00
    1   11   17     -2.16      0.00
    2   11   17      0.34      0.00
    3   11   17      0.23      0.00
    4   11   17     -1.47      0.00
    5   11   17      0.24      0.00
    6   11   17      0.23      0.00
    7   11   17      0.69      0.00
    8   11   17     -0.39      0.00
    9   11   17     -0.39      0.00
   10   11   17      0.06      0.00
    1   12   17     -1.10      0.00
    2   12   17     -1.24      0.00
    3   12   17     -0.46      0.00
    4   12   17      0.58      0.00
    5   12   17     -0.05      0.00
    6   12   17      0.32      0.00
    7   12   17     -1.27      0.00
    8   12   17     -0.70      0.00
    9   12   17     -0.02      0.00
   10   12   17      0.23      0.00
    1   13   17     -0.33      0.00
    2   13   17     -0.30      0.00
    3   13   17      0.17      0.00
    4   13   17      0.52      0.00
    5   13   17     -0.31      0.00
    6   13   17      0.01      0.00
    7   13   17     -0.58      0.00
    8   13   17      0.39      0.00
    9   13   17     -1.14      0.00
    1   14   17      1.43      0.00
    2   14   17      1.36      0.00
    3   14   17     -0.15      0.00
    4   14   17      0.09      0.00
    5   14   17      0.78      0.00
    6   14   17     -1.51      0.00
    7   14   17     -1.00      0.00
    8   14   17     -1.10      0.00
    9   14   17     -0.70      0.00
    1   15   17     -0.12      0.00
    2   15   17      0.34      0.00
    3   15   17      1.44      0.00
    4   15   17     -0.21      0.00
    5   15   17      1.38      0.00
    6   15   17      0.37      0.00
    7   15   17     -1.90      0.00
    8   15   17     -0.77      0.00
    1   16   17     -1.19      0.00
    2   16   17      0.30      0.00
    3   16   17      0.48      0.00
    4   16   17      1.72      0.00
    5   16   17     -0.13      0.00
    6   16   17      0.42      0.00
    7   16   17      0.56      0.00
    8   16   17     -1.23      0.00
    1   17   17     -0.97      0.00
    2   17   17     -0.35      0.00
    3   17   17     -0.43      0.00
    4   17   17      0.61      0.00
    5   17   17      0.27      0.00
    6   17   17     -0.09      0.00
    7   17   17      0.12      0.00
    1   18   17      0.31      0.00
    2   18   17     -0.41      0.00
    3   18   17      0.40      0.00
    4   18   17     -0.11      0.00
    5   18   17     -1.40      0.00
    6   18   17      0.36      0.00
    1   19   17      0.46      0.00
    2   19   17      0.92      0.00
    3   19   17     -0.22      0.00
    4   19   17      0.21      0.00
    5   19   17      0.59      0.00
    1   20   17      0.60      0.00
    2   20   17      0.73      0.00
    3   20   17     -0.39      0.00
    4   20   17      0.86      0.00
    1   21   17     -0.14      0.00
    2   21   17     -0.67      0.00
    0    0   18     -2.15      0.00
    2    0   18      0.76      0.00
    4    0   18     -1.07      0.00
    6    0   18     -1.82      0.00
    8    0   18     -1.01      0.00
   10    0   18     -0.04      0.00
   12    0   18     -0.28      0.00
    0    1   18     -1.48      0.00
    1    1   18     -0.96      0.00
    2    1   18      1.41      0.00
    3    1   18      0.36      0.00
    4    1   18      0.45      0.00
    5    1   18      0.18      0.00
    6    1   18     -1.11      0.00
    7    1   18     -0.43      0.00
    8    1   18      1.68      0.00
    9    1   18     -0.57      0.00
   10    1   18      0.09      0.00
   11    1   18     -2.09      0.00
   12    1   18      0.97      0.00
    0    2   18     -0.96      0.00
    1    2   18      0.43      0.00
    2    2   18      0.93      0.00
    3    2   18     -0.24      0.00
    4    2   18     -0.06      0.00
    5    2   18     -0.62      0.00
    6    2   18      1.04      0.00
    7    2   18      0.13      0.00
    8    2   18     -0.95      0.00
    9    2   18      0.06      0.00
   10    2   18     -0.42      0.00
   11    2   18     -0.17      0.00
   12    2   18     -1.05      0.00
    0    3   18      0.58      0.00
    1    3   18      0.25      0.00
    2    3   18     -0.62      0.00
    3    3   18      0.05      0.00
    4    3   18      0.35      0.00
    5    3   18     -0.42      0.00
    6    3   18      0.61      0.00
    7    3   18      0.72      0.00
    8    3   18      0.06      0.00
    9    3   18      0.59      0.00
   10    3   18     -0.21      0.00
   11    3   18      0.34      0.00
   12    3   18      0.09      0.00
    0    4   18     -0.48      0.00
    1    4   18     -0.67      0.00
    2    4   18      0.53      0.00
    3    4   18     -0.10      0.00
    4    4   18     -0.70      0.00
    5    4   18      0.81      0.00
    6    4   18     -1.58      0.00
    7    4   18     -0.30      0.00
    8    4   18      1.75      0.00
    9    4   18     -0.35      0.00
   10    4   18      0.79      0.00
   11    4   18     -1.73      0.00
    0    5   18     -0.85      0.00
    1    5   18     -1.18      0.00
    2    5   18      0.55      0.00
    3    5   18     -0.11      0.00
    4    5   18      0.06      0.00
    5    5   18     -0.50      0.00
    6    5   18     -1.35      0.00
    7    5   18     -1.36      0.00
    8    5   18     -0.20      0.00
    9    5   18      0.94      0.00
   10    5   18     -1.47      0.00
   11    5   18      0.03      0.00
    0    6   18      0.20      0.00
    1    6   18     -0.18      0.00
    2    6   18     -0.72      0.00
    3    6   18      0.33      0.00
    4    6   18     -2.22      0.00
    5    6   18     -0.93      0.00
    6    6   18     -0.27      0.00
    7    6   18     -1.29      0.00
    8    6   18     -0.48      0.00
    9    6   18     -0.92      0.00
   10    6   18     -1.44      0.00
   11    6   18     -0.20      0.00
    0    7   18     -2.76      0.00
    1    7   18      0.48      0.00
    2    7   18     -0.84      0.00
    3    7   18     -1.78      0.00
    4    7   18      0.79      0.00
    5    7   18     -0.78      0.00
    6    7   18     -0.17      0.00
    7    7   18      0.31      0.00
    8    7   18     -1.38      0.00
    9    7   18      0.90      0.00
   10    7   18     -0.24      0.00
   11    7   18     -0.97      0.00
    0    8   18      0.33      0.00
    1    8   18     -1.37      0.00
    2    8   18     -0.88      0.00
    3    8   18     -0.75      0.00
    4    8   18      0.46      0.00
    5    8   18      1.57      0.00
    6    8   18      0.35      0.00
    7    8   18      0.40      0.00
    8    8   18      1.42      0.00
    9    8   18     -0.79      0.00
   10    8   18     -0.19      0.00
   11    8   18     -0.78      0.00
    0    9   18     -0.54      0.00
    1    9   18      0.26      0.00
    2    9   18     -0.50      0.00
    3    9   18      0.65      0.00
    4    9   18      0.05      0.00
    5    9   18      0.38      0.00
    6    9   18      1.02      0.00
    7    9   18      2.46      0.00
    8    9   18     -0.17      0.00
    9    9   18      1.43      0.00
   10    9   18     -0.44      0.00
    0   10   18     -0.26      0.00
    1   10   18      0.47      0.00
    2   10   18      0.96      0.00
    3   10   18     -0.42      0.00
    4   10   18     -0.23      0.00
    5   10   18     -0.02      0.00
    6   10   18      0.64      0.00
    7   10   18     -0.22      0.00
    8   10   18      3.59      0.00
    9   10   18     -2.35      0.00
   10   10   18      1.69      0.00
    0   11   18     -0.03      0.00
    1   11   18      0.74      0.00
    2   11   18     -0.18      0.00
    3   11   18     -1.69      0.00
    4   11   18      0.64      0.00
    5   11   18     -0.73      0.00
    6   11   18     -0.35      0.00
    7   11   18      2.30      0.00
    8   11   18      0.07      0.00
    9   11   18      1.42      0.00
   10   11   18     -0.52      0.00
    0   12   18     -0.38      0.00
    1   12   18      0.56      0.00
    2   12   18      1.01      0.00
    3   12   18      0.25      0.00
    4   12   18     -1.20      0.00
    5   12   18      0.30      0.00
    6   12   18      1.72      0.00
    7   12   18      0.90      0.00
    8   12   18     -0.60      0.00
    9   12   18      0.59      0.00
    0   13   18      1.17      0.00
    1   13   18     -0.08      0.00
    2   13   18     -0.34      0.00
    3   13   18      0.05      0.00
    4   13   18     -0.45      0.00
    5   13   18      0.15      0.00
    6   13   18      0.14      0.00
    7   13   18      0.19      0.00
    8   13   18      2.07      0.00
    9   13   18      0.98      0.00
    0   14   18     -1.36      0.00
    1   14   18     -0.14      0.00
    2   14   18     -0.53      0.00
    3   14   18     -0.16      0.00
    4   14   18      0.70      0.00
    5   14   18     -0.41      0.00
    6   14   18     -1.00      0.00
    7   14   18      0.43      0.00
    8   14   18      0.37      0.00
    0   15   18     -1.99      0.00
    1   15   18      0.18      0.00
    2   15   18      1.34      0.00
    3   15   18      0.40      0.00
    4   15   18      0.00      0.00
    5   15   18      0.14      0.00
    6   15   18      0.57      0.00
    7   15   18      0.73      0.00
    8   15   18      0.23      0.00
    0   16   18     -0.31      0.00
    1   16   18      0.88      0.00
    2   16   18      0.99      0.00
    3   16   18      1.56      0.00
    4   16   18     -0.01      0.00
    5   16   18     -0.10      0.00
    6   16   18      2.60      0.00
    7   16   18      0.44      0.00
    0   17   18      0.47      0.00
    1   17   18      0.39      0.00
    2   17   18      0.30      0.00
    3   17   18     -0.92      0.00
    4   17   18     -0.45      0.00
    5   17   18     -0.13      0.00
    6   17   18      1.16      0.00
    0   18   18     -1.62      0.00
    1   18   18      0.39      0.00
    2   18   18     -0.57      0.00
    3   18   18      0.90      0.00
    4   18   18      0.27      0.00
    5   18   18     -0.25      0.00
    0   19   18     -1.21      0.00
    1   19   18     -0.61      0.00
    2   19   18      0.63      0.00
    3   19   18      1.97      0.00
    4   19   18     -0.50      0.00
    0   20   18     -0.09      0.00
    1   20   18      0.00      0.00
    2   20   18      1.22      0.00
    2    0   19      0.33      0.00
    4    0   19     -0.55      0.00
    6    0   19     -1.14      0.00
    8    0   19      0.25      0.00
   10    0   19      0.22      0.00
    1    1   19      0.64      0.00
    2    1   19     -2.02      0.00
    3    1   19     -1.62      0.00
    4    1   19      0.88      0.00
    5    1   19      0.31      0.00
    6    1   19     -0.36      0.00
    7    1   19     -0.29      0.00
    8    1   19     -0.07      0.00
    9    1   19      1.14      0.00
   10    1   19     -0.30      0.00
   11    1   19     -1.06      0.00
    1    2   19     -0.78      0.00
    2    2   19     -0.55      0.00
    3    2   19     -0.79      0.00
    4    2   19      0.41      0.00
    5    2   19      0.17      0.00
    6    2   19     -0.55      0.00
    7    2   19     -1.03      0.00
    8    2   19     -0.14      0.00
    9    2   19     -0.51      0.00
   10    2   19      0.45      0.00
   11    2   19      1.02      0.00
    1    3   19      0.42      0.00
    2    3   19      0.56      0.00
    3    3   19     -1.18      0.00
    4    3   19     -0.93      0.00
    5    3   19      0.61      0.00
    6    3   19     -0.84      0.00
    7    3   19     -1.18      0.00
    8    3   19      0.39      0.00
    9    3   19      0.91      0.00
   10    3   19     -0.37      0.00
   11    3   19     -0.22      0.00
    1    4   19      1.29      0.00
    2    4   19      0.10      0.00
    3    4   19      1.10      0.00
    4    4   19     -0.18      0.00
    5    4   19      0.22      0.00
    6    4   19     -0.88      0.00
    7    4   19      0.68      0.00
    8    4   19     -0.36      0.00
    9    4   19     -1.05      0.00
   10    4   19     -0.19      0.00
   11    4   19     -1.53      0.00
    1    5   19     -0.51      0.00
    2    5   19      0.68      0.00
    3    5   19     -0.60      0.00
    4    5   19      2.10      0.00
    5    5   19      0.14      0.00
    6    5   19      1.32      0.00
    7    5   19     -0.61      0.00
    8    5   19     -0.05      0.00
    9    5   19     -0.13      0.00
   10    5   19     -0.81      0.00
   11    5   19      0.76      0.00
    1    6   19     -0.36      0.00
    2    6   19     -0.93      0.00
    3    6   19      1.19      0.00
    4    6   19     -0.40      0.00
    5    6   19      0.47      0.00
    6    6   19      0.69      0.00
    7    6   19      0.32      0.00
    8    6   19      1.03      0.00
    9    6   19      0.53      0.00
   10    6   19      0.71      0.00
   11    6   19     -1.08      0.00
    1    7   19     -0.46      0.00
    2    7   19     -1.05      0.00
    3    7   19      0.18      0.00
    4    7   19     -0.60      0.00
    5    7   19     -1.29      0.00
    6    7   19      0.18      0.00
    7    7   19      2.16      0.00
    8    7   19      0.18      0.00
    9    7   19     -0.54      0.00
   10    7   19      0.58      0.00
    1    8   19      1.40      0.00
    2    8   19     -0.20      0.00
    3    8   19     -0.65      0.00
    4    8   19     -0.44      0.00
    5    8   19     -0.65      0.00
    6    8   19     -0.71      0.00
    7    8   19     -0.48      0.00
    8    8   19     -1.23      0.00
    9    8   19      0.12      0.00
   10    8   19     -0.01      0.00
    1    9   19      0.39      0.00
    2    9   19      0.27      0.00
    3    9   19     -0.47      0.00
    4    9   19      0.25      0.00
    5    9   19      0.30      0.00
    6    9   19      0.01      0.00
    7    9   19     -1.44      0.00
    8    9   19      0.05      0.00
    9    9   19     -0.28      0.00
   10    9   19      0.33      0.00
    1   10   19     -0.12      0.00
    2   10   19     -0.13      0.00
    3   10   19      0.26      0.00
    4   10   19     -0.45      0.00
    5   10   19      0.86      0.00
    6   10   19      1.11      0.00
    7   10   19      1.18      0.00
    8   10   19     -0.36      0.00
    9   10   19      0.32      0.00
   10   10   19      0.35      0.00
    1   11   19     -0.53      0.00
    2   11   19     -0.96      0.00
    3   11   19      0.10      0.00
    4   11   19     -0.11      0.00
    5   11   19     -0.72      0.00
    6   11   19      1.10      0.00
    7   11   19      1.38      0.00
    8   11   19      0.17      0.00
    9   11   19      1.26      0.00
    1   12   19      0.07      0.00
    2   12   19     -0.95      0.00
    3   12   19     -0.72      0.00
    4   12   19     -1.18      0.00
    5   12   19      0.08      0.00
    6   12   19      1.11      0.00
    7   12   19     -1.09      0.00
    8   12   19      0.05      0.00
    9   12   19     -0.53      0.00
    1   13   19      1.85      0.00
    2   13   19     -0.33      0.00
    3   13   19     -1.14      0.00
    4   13   19     -0.91      0.00
    5   13   19     -0.51      0.00
    6   13   19     -1.32      0.00
    7   13   19     -0.50      0.00
    8   13   19     -0.55      0.00
    1   14   19      0.39      0.00
    2   14   19     -0.14      0.00
    3   14   19     -0.19      0.00
    4   14   19     -0.81      0.00
    5   14   19      1.08      0.00
    6   14   19     -0.55      0.00
    7   14   19     -1.37      0.00
    8   14   19     -1.65      0.00
    1   15   19     -0.77      0.00
    2   15   19     -0.39      0.00
    3   15   19      0.78      0.00
    4   15   19      0.81      0.00
    5   15   19     -0.54      0.00
    6   15   19     -0.53      0.00
    7   15   19     -0.05      0.00
    1   16   19     -0.24      0.00
    2   16   19     -0.06      0.00
    3   16   19     -0.23      0.00
    4   16   19     -0.48      0.00
    5   16   19      0.00      0.00
    6   16   19      1.85      0.00
    1   17   19      0.16      0.00
    2   17   19      0.09      0.00
    3   17   19      0.07      0.00
    4   17   19     -0.92      0.00
    5   17   19     -1.37      0.00
    6   17   19     -1.56      0.00
    1   18   19      1.74      0.00
    2   18   19     -0.88      0.00
    3   18   19      0.09      0.00
    4   18   19     -0.85      0.00
    1   19   19     -0.05      0.00
    2   19   19      0.62      0.00
    3   19   19     -0.65      0.00
    0    0   20     -0.92      0.00
    2    0   20     -0.09      0.00
    4    0   20      1.14      0.00
    6    0   20     -1.20      0.00
    8    0   20      1.19      0.00
   10    0   20     -0.11      0.00
    0    1   20      1.43      0.00
    1    1   20      0.19      0.00
    2    1   20      0.06      0.00
    3    1   20     -0.44      0.00
    4    1   20      0.29      0.00
    5    1   20     -0.40      0.00
    6    1   20     -0.31      0.00
    7    1   20      0.47      0.00
    8    1   20      0.45      0.00
    9    1   20      0.49      0.00
   10    1   20     -0.71      0.00
   11    1   20      0.40      0.00
    0    2   20      1.37      0.00
    1    2   20      0.63      0.00
    2    2   20     -0.79      0.00
    3    2   20     -0.02      0.00
    4    2   20      0.33      0.00
    5    2   20      0.35      0.00
    6    2   20     -0.66      0.00
    7    2   20      1.12      0.00
    8    2   20      0.01      0.00
    9    2   20     -0.64      0.00
   10    2   20     -0.55      0.00
   11    2   20      1.67      0.00
    0    3   20     -0.30      0.00
    1    3   20      1.57      0.00
    2    3   20      0.63      0.00
    3    3   20      0.87      0.00
    4    3   20      0.99      0.00
    5    3   20     -1.48      0.00
    6    3   20     -0.11      0.00
    7    3   20     -0.03      0.00
    8    3   20      0.73      0.00
    9    3   20      0.71      0.00
   10    3   20      1.42      0.00
   11    3   20      0.26      0.00
    0    4   20      0.28      0.00
    1    4   20     -1.38      0.00
    2    4   20      1.36      0.00
    3    4   20      2.56      0.00
    4    4   20      0.57      0.00
    5    4   20      0.45      0.00
    6    4   20      0.03      0.00
    7    4   20     -0.08      0.00
    8    4   20      1.07      0.00
    9    4   20     -0.01      0.00
   10    4   20      0.41      0.00
    0    5   20      0.44      0.00
    1    5   20     -0.84      0.00
    2    5   20     -0.12      0.00
    3    5   20      0.42      0.00
    4    5   20     -0.73      0.00
    5    5   20     -0.09      0.00
    6    5   20     -0.03      0.00
    7    5   20     -0.65      0.00
    8    5   20     -1.66      0.00
    9    5   20      0.67      0.00
   10    5   20     -0.63      0.00
    0    6   20     -1.76      0.00
    1    6   20      0.13      0.00
    2    6   20      0.45      0.00
    3    6   20     -0.94      0.00
    4    6   20     -0.68      0.00
    5    6   20     -0.29      0.00
    6    6   20     -0.26      0.00
    7    6   20     -0.48      0.00
    8    6   20     -1.42      0.00
    9    6   20     -0.48      0.00
   10    6   20      0.68      0.00
    0    7   20      0.01      0.00
    1    7   20     -0.40      0.00
    2    7   20     -0.79      0.00
    3    7   20     -0.19      0.00
    4    7   20      0.53      0.00
    5    7   20     -1.84      0.00
    6    7   20     -0.30      0.00
    7    7   20     -0.39      0.00
    8    7   20     -1.29      0.00
    9    7   20      0.45      0.00
   10    7   20     -1.57      0.00
    0    8   20     -0.66      0.00
    1    8   20     -0.62      0.00
    2    8   20      0.78      0.00
    3    8   20      1.32      0.00
    4    8   20     -2.27      0.00
    5    8   20      0.61      0.00
    6    8   20      0.04      0.00
    7    8   20      0.70      0.00
    8    8   20      0.36      0.00
    9    8   20     -2.42      0.00
   10    8   20     -1.00      0.00
    0    9   20      0.15      0.00
    1    9   20     -0.41      0.00
    2    9   20      1.49      0.00
    3    9   20     -0.76      0.00
    4    9   20     -0.01      0.00
    5    9   20     -0.56      0.00
    6    9   20     -0.25      0.00
    7    9   20      0.23      0.00
    8    9   20      0.50      0.00
    9    9   20     -1.39      0.00
    0   10   20     -0.01      0.00
    1   10   20      0.43      0.00
    2   10   20     -0.36      0.00
    3   10   20     -0.04      0.00
    4   10   20     -0.66      0.00
    5   10   20     -1.01      0.00
    6   10   20      0.22      0.00
    7   10   20     -0.79      0.00
    8   10   20      0.62      0.00
    9   10   20     -0.50      0.00
    0   11   20      0.56      0.00
    1   11   20      0.10      0.00
    2   11   20      0.61      0.00
    3   11   20      0.02      0.00
    4   11   20     -1.06      0.00
    5   11   20     -0.07      0.00
    6   11   20     -1.49      0.00
    7   11   20      0.08      0.00
    8   11   20     -1.30      0.00
    9   11   20      1.53      0.00
    0   12   20      0.96      0.00
    1   12   20     -0.35      0.00
    2   12   20      1.27      0.00
    3   12   20      1.15      0.00
    4   12   20     -1.62      0.00
    5   12   20     -0.02      0.00
    6   12   20     -0.20      0.00
    7   12   20      0.80      0.00
    8   12   20     -0.92      0.00
    0   13   20     -0.63      0.00
    1   13   20      0.49      0.00
    2   13   20     -0.86      0.00
    3   13   20     -0.08      0.00
    4   13   20     -0.53      0.00
    5   13   20      0.15      0.00
    6   13   20     -0.98      0.00
    7   13   20     -1.55      0.00
    8   13   20      1.25      0.00
    0   14   20      0.43      0.00
    1   14   20     -0.79      0.00
    2   14   20      0.03      0.00
    3   14   20     -2.12      0.00
    4   14   20      0.14      0.00
    5   14   20     -0.99      0.00
    6   14   20      0.96      0.00
    7   14   20      1.32      0.00
    0   15   20     -0.06      0.00
    1   15   20     -0.97      0.00
    2   15   20     -0.53      0.00
    3   15   20      0.59      0.00
    4   15   20     -1.07      0.00
    5   15   20      0.42      0.00
    6   15   20      0.64      0.00
    0   16   20     -0.33      0.00
    1   16   20     -0.60      0.00
    2   16   20     -0.79      0.00
    3   16   20     -1.61      0.00
    4   16   20     -0.94      0.00
    5   16   20     -1.27      0.00
    0   17   20     -0.16      0.00
    1   17   20     -0.79      0.00
    2   17   20     -1.52      0.00
    3   17   20     -1.32      0.00
    4   17   20     -0.07      0.00
    0   18   20      0.01      0.00
    1   18   20     -1.35      0.00
    2   18   20      0.71      0.00
    3   18   20      0.81      0.00
    2    0   21     -0.41      0.00
    4    0   21      0.14      0.00
    6    0   21      1.47      0.00
    8    0   21     -0.17      0.00
   10    0   21     -2.00      0.00
    1    1   21     -0.20      0.00
    2    1   21      0.28      0.00
    3    1   21      0.37      0.00
    4    1   21     -1.89      0.00
    5    1   21     -0.07      0.00
    6    1   21     -0.14      0.00
    7    1   21      0.94      0.00
    8    1   21     -0.35      0.00
    9    1   21     -1.10      0.00
   10    1   21      0.79      0.00
    1    2   21      0.04      0.00
    2    2   21     -0.34      0.00
    3    2   21     -0.28      0.00
    4    2   21     -0.04      0.00
    5    2   21     -1.80      0.00
    6    2   21     -0.22      0.00
    7    2   21     -0.97      0.00
    8    2   21      0.25      0.00
    9    2   21      1.20      0.00
   10    2   21      0.36      0.00
    1    3   21      0.62      0.00
    2    3   21      0.84      0.00
    3    3   21      0.38      0.00
    4    3   21     -0.46      0.00
    5    3   21     -0.09      0.00
    6    3   21     -1.65      0.00
    7    3   21     -0.45      0.00
    8    3   21     -0.17      0.00
    9    3   21      0.08      0.00
   10    3   21     -0.29      0.00
    1    4   21     -0.61      0.00
    2    4   21     -0.15      0.00
    3    4   21      0.51      0.00
    4    4   21     -0.07      0.00
    5    4   21      0.61      0.00
    6    4   21      0.75      0.00
    7    4   21     -0.78      0.00
    8    4   21      1.16      0.00
    9    4   21      0.34      0.00
   10    4   21     -1.23      0.00
    1    5   21      0.18      0.00
    2    5   21     -0.02      0.00
    3    5   21      0.01      0.00
    4    5   21      1.22      0.00
    5    5   21     -0.02      0.00
    6    5   21      0.79      0.00
    7    5   21     -0.04      0.00
    8    5   21     -1.44      0.00
    9    5   21      1.33      0.00
   10    5   21      0.37      0.00
    1    6   21     -0.54      0.00
    2    6   21     -0.08      0.00
    3    6   21      0.01      0.00
    4    6   21     -0.44      0.00
    5    6   21     -0.14      0.00
    6    6   21      1.04      0.00
    7    6   21      0.78      0.00
    8    6   21      0.30      0.00
    9    6   21     -0.04      0.00
   10    6   21      0.76      0.00
    1    7   21      1.76      0.00
    2    7   21     -0.22      0.00
    3    7   21      0.45      0.00
    4    7   21     -0.59      0.00
    5    7   21      0.84      0.00
    6    7   21      0.51      0.00
    7    7   21      1.01      0.00
    8    7   21     -2.01      0.00
    9    7   21     -0.18      0.00
    1    8   21     -0.45      0.00
    2    8   21      2.78      0.00
    3    8   21     -1.02      0.00
    4    8   21      0.61      0.00
    5    8   21      1.08      0.00
    6    8   21     -0.20      0.00
    7    8   21     -1.14      0.00
    8    8   21      1.79      0.00
    9    8   21     -0.40      0.00
    1    9   21      2.11      0.00
    2    9   21     -0.18      0.00
    3    9   21     -0.18      0.00
    4    9   21      0.79      0.00
    5    9   21      0.10      0.00
    6    9   21      0.51      0.00
    7    9   21      0.75      0.00
    8    9   21     -0.55      0.00
    9    9   21      0.79      0.00
    1   10   21     -0.29      0.00
    2   10   21      1.32      0.00
    3   10   21     -0.34      0.00
    4   10   21     -0.99      0.00
    5   10   21      0.61      0.00
    6   10   21      0.77      0.00
    7   10   21      1.05      0.00
    8   10   21      1.31      0.00
    1   11   21      0.56      0.00
    2   11   21      0.21      0.00
    3   11   21     -0.79      0.00
    4   11   21      0.07      0.00
    5   11   21      1.06      0.00
    6   11   21      1.20      0.00
    7   11   21     -0.48      0.00
    8   11   21     -1.19      0.00
    1   12   21      0.54      0.00
    2   12   21      1.18      0.00
    3   12   21      0.19      0.00
    4   12   21      0.30      0.00
    5   12   21      1.13      0.00
    6   12   21      0.66      0.00
    7   12   21     -0.21      0.00
    1   13   21      1.58      0.00
    2   13   21     -0.03      0.00
    3   13   21      0.74      0.00
    4   13   21      0.64      0.00
    5   13   21      0.87      0.00
    6   13   21     -1.01      0.00
    7   13   21      0.67      0.00
    1   14   21     -0.41      0.00
    2   14   21      0.81      0.00
    3   14   21      0.10      0.00
    4   14   21      0.41      0.00
    5   14   21     -1.68      0.00
    6   14   21      0.11      0.00
    1   15   21     -0.86      0.00
    2   15   21      0.01      0.00
    3   15   21     -0.71      0.00
    4   15   21     -0.47      0.00
    5   15   21      0.43      0.00
    1   16   21      0.00      0.00
    2   16   21     -1.14      0.00
    3   16   21     -0.56      0.00
    4   16   21      0.26      0.00
    1   17   21     -0.71      0.00
    2   17   21     -1.34      0.00
    3   17   21     -0.11      0.00
    0    0   22      0.61      0.00
    2    0   22      0.37      0.00
    4    0   22     -0.64      0.00
    6    0   22     -0.13      0.00
    8    0   22      0.88      0.00
    0    1   22     -0.12      0.00
    1    1   22     -0.31      0.00
    2    1   22     -0.26      0.00
    3    1   22     -0.52      0.00
    4    1   22      0.23      0.00
    5    1   22      0.26      0.00
    6    1   22     -1.42      0.00
    7    1   22      0.81      0.00
    8    1   22      0.20      0.00
    9    1   22     -0.57      0.00
    0    2   22      0.27      0.00
    1    2   22      0.53      0.00
    2    2   22      0.53      0.00
    3    2   22      1.02      0.00
    4    2   22     -0.75      0.00
    5    2   22     -0.93      0.00
    6    2   22      1.02      0.00
    7    2   22     -1.62      0.00
    8    2   22      0.03      0.00
    9    2   22      0.40      0.00
    0    3   22      0.63      0.00
    1    3   22      0.39      0.00
    2    3   22      0.84      0.00
    3    3   22      1.82      0.00
    4    3   22     -0.01      0.00
    5    3   22     -1.01      0.00
    6    3   22      0.35      0.00
    7    3   22     -0.19      0.00
    8    3   22      0.71      0.00
    9    3   22      0.18      0.00
    0    4   22      0.78      0.00
    1    4   22      0.24      0.00
    2    4   22      0.31      0.00
    3    4   22      0.15      0.00
    4    4   22     -0.30      0.00
    5    4   22      1.28      0.00
    6    4   22      0.98      0.00
    7    4   22     -0.76      0.00
    8    4   22      0.15      0.00
    9    4   22      0.95      0.00
    0    5   22     -0.24      0.00
    1    5   22      0.28      0.00
    2    5   22      0.33      0.00
    3    5   22      0.06      0.00
    4    5   22      0.47      0.00
    5    5   22      1.69      0.00
    6    5   22      0.10      0.00
    7    5   22      0.90      0.00
    8    5   22     -1.74      0.00
    9    5   22      0.45      0.00
    0    6   22      0.96      0.00
    1    6   22      0.03      0.00
    2    6   22      0.71      0.00
    3    6   22      1.71      0.00
    4    6   22      0.20      0.00
    5    6   22     -0.83      0.00
    6    6   22     -0.86      0.00
    7    6   22     -1.63      0.00
    8    6   22     -0.24      0.00
    9    6   22      0.24      0.00
    0    7   22     -1.93      0.00
    1    7   22      0.83      0.00
    2    7   22      0.22      0.00
    3    7   22     -0.17      0.00
    4    7   22      0.67      0.00
    5    7   22     -0.55      0.00
    6    7   22     -1.14      0.00
    7    7   22      0.39      0.00
    8    7   22      0.03      0.00
    9    7   22     -1.70      0.00
    0    8   22      0.12      0.00
    1    8   22     -0.40      0.00
    2    8   22     -0.19      0.00
    3    8   22     -0.49      0.00
    4    8   22      0.12      0.00
    5    8   22     -0.40      0.00
    6    8   22     -0.57      0.00
    7    8   22     -0.92      0.00
    8    8   22      1.75      0.00
    0    9   22     -0.19      0.00
    1    9   22      0.42      0.00
    2    9   22      0.88      0.00
    3    9   22     -0.40      0.00
    4    9   22      0.99      0.00
    5    9   22     -0.26      0.00
    6    9   22      0.47      0.00
    7    9   22     -0.77      0.00
    8    9   22      0.61      0.00
    0   10   22      1.24      0.00
    1   10   22     -0.16      0.00
    2   10   22     -0.31      0.00
    3   10   22      0.91      0.00
    4   10   22      0.41      0.00
    5   10   22      0.34      0.00
    6   10   22     -1.72      0.00
    7   10   22      0.32      0.00
    8   10   22     -0.13      0.00
    0   11   22     -1.63      0.00
    1   11   22      0.00      0.00
    2   11   22      0.26      0.00
    3   11   22      0.16      0.00
    4   11   22     -1.29      0.00
    5   11   22      0.13      0.00
    6   11   22      1.23      0.00
    7   11   22      0.56      0.00
    0   12   22     -1.52      0.00
    1   12   22     -1.51      0.00
    2   12   22     -0.36      0.00
    3   12   22     -1.42      0.00
    4   12   22      0.23      0.00
    5   12   22      0.38      0.00
    6   12   22     -0.63      0.00
    7   12   22      0.98      0.00
    0   13   22     -0.55      0.00
    1   13   22     -0.89      0.00
    2   13   22     -2.30      0.00
    3   13   22     -0.07      0.00
    4   13   22      0.08      0.00
    5   13   22     -0.59      0.00
    6   13   22      3.07      0.00
    0   14   22     -0.39      0.00
    1   14   22     -1.34      0.00
    2   14   22      0.40      0.00
    3   14   22      0.34      0.00
    4   14   22      1.71      0.00
    5   14   22      1.73      0.00
    0   15   22     -1.53      0.00
    1   15   22      0.35      0.00
    2   15   22     -0.23      0.00
    3   15   22      2.08      0.00
    4   15   22      1.17      0.00
    0   16   22     -0.36      0.00
    1   16   22     -0.39      0.00
    2   16   22     -0.69      0.00
    3   16   22      0.49      0.00
    2    0   23      0.81      0.00
    4    0   23     -1.89      0.00
    6    0   23      2.23      0.00
    8    0   23     -1.52      0.00
    1    1   23     -0.60      0.00
    2    1   23     -1.75      0.00
    3    1   23     -0.65      0.00
    4    1   23     -0.17      0.00
    5    1   23      0.77      0.00
    6    1   23     -0.73      0.00
    7    1   23     -0.45      0.00
    8    1   23     -0.32      0.00
    9    1   23     -0.86      0.00
    1    2   23     -1.45      0.00
    2    2   23     -0.35      0.00
    3    2   23     -0.57      0.00
    4    2   23      0.10      0.00
    5    2   23      0.00      0.00
    6    2   23     -1.18      0.00
    7    2   23     -2.22      0.00
    8    2   23      0.59      0.00
    9    2   23     -0.34      0.00
    1    3   23     -0.88      0.00
    2    3   23      0.61      0.00
    3    3   23     -1.18      0.00
    4    3   23     -0.16      0.00
    5    3   23      0.18      0.00
    6    3   23     -0.74      0.00
    7    3   23     -0.48      0.00
    8    3   23      1.00      0.00
    9    3   23     -0.13      0.00
    1    4   23      0.35      0.00
    2    4   23     -0.14      0.00
    3    4   23      0.44      0.00
    4    4   23     -0.54      0.00
    5    4   23      0.62      0.00
    6    4   23      0.21      0.00
    7    4   23     -0.25      0.00
    8    4   23     -0.18      0.00
    1    5   23      0.35      0.00
    2    5   23     -0.29      0.00
    3    5   23     -0.19      0.00
    4    5   23      0.85      0.00
    5    5   23     -2.04      0.00
    6    5   23     -0.07      0.00
    7    5   23      0.92      0.00
    8    5   23     -0.02      0.00
    1    6   23     -0.69      0.00
    2    6   23     -0.06      0.00
    3    6   23      0.16      0.00
    4    6   23     -1.33      0.00
    5    6   23      1.10      0.00
    6    6   23     -0.60      0.00
    7    6   23      0.61      0.00
    8    6   23     -0.76      0.00
    1    7   23     -0.12      0.00
    2    7   23     -0.33      0.00
    3    7   23     -0.88      0.00
    4    7   23      0.66      0.00
    5    7   23     -1.18      0.00
    6    7   23      0.07      0.00
    7    7   23     -0.02      0.00
    8    7   23      0.49      0.00
    1    8   23      0.55      0.00
    2    8   23      0.03      0.00
    3    8   23     -0.40      0.00
    4    8   23      0.13      0.00
    5    8   23      0.71      0.00
    6    8   23     -2.48      0.00
    7    8   23     -0.95      0.00
    1    9   23      1.00      0.00
    2    9   23      0.01      0.00
    3    9   23     -0.30      0.00
    4    9   23      0.82      0.00
    5    9   23     -1.27      0.00
    6    9   23     -0.04      0.00
    7    9   23     -0.01      0.00
    1   10   23     -0.15      0.00
    2   10   23      1.05      0.00
    3   10   23     -0.21      0.00
    4   10   23     -0.53      0.00
    5   10   23      1.70      0.00
    6   10   23      0.19      0.00
    7   10   23     -1.02      0.00
    1   11   23      0.31      0.00
    2   11   23     -0.03      0.00
    3   11   23      0.54      0.00
    4   11   23      0.82      0.00
    5   11   23      0.00      0.00
    6   11   23      0.14      0.00
    1   12   23     -0.43      0.00
    2   12   23     -0.50      0.00
    3   12   23      0.83      0.00
    4   12   23     -0.41      0.00
    5   12   23     -0.67      0.00
    1   13   23     -0.36      0.00
    2   13   23      0.04      0.00
    3   13   23     -0.96      0.00
    4   13   23     -0.64      0.00
    5   13   23     -1.90      0.00
    1   14   23     -0.77      0.00
    2   14   23     -0.51      0.00
    3   14   23     -0.57      0.00
    4   14   23     -0.72      0.00
    1   15   23     -0.31      0.00
    2   15   23      0.04      0.00
    0    0   24      0.02      0.00
    2    0   24     -0.85      0.00
    4    0   24     -0.61      0.00
    6    0   24     -0.85      0.00
    8    0   24      0.75      0.00
    0    1   24      0.36      0.00
    1    1   24      0.13      0.00
    2    1   24     -0.21      0.00
    3    1   24     -1.74      0.00
    4    1   24     -0.14      0.00
    5    1   24      0.39      0.00
    6    1   24     -0.32      0.00
    7    1   24      0.49      0.00
    8    1   24     -0.46      0.00
    0    2   24     -0.11      0.00
    1    2   24      0.35      0.00
    2    2   24     -0.07      0.00
    3    2   24      0.54      0.00
    4    2   24     -0.81      0.00
    5    2   24     -2.23      0.00
    6    2   24      0.49      0.00
    7    2   24     -2.13      0.00
    8    2   24      0.27      0.00
    0    3   24     -1.23      0.00
    1    3   24      0.67      0.00
    2    3   24      0.92      0.00
    3    3   24     -1.05      0.00
    4    3   24      0.59      0.00
    5    3   24     -0.17      0.00
    6    3   24     -0.74      0.00
    7    3   24      0.03      0.00
    8    3   24     -0.47      0.00
    0    4   24     -0.26      0.00
    1    4   24     -0.80      0.00
    2    4   24     -0.56      0.00
    3    4   24      0.67      0.00
    4    4   24     -0.17      0.00
    5    4   24      1.08      0.00
    6    4   24      0.07      0.00
    7    4   24      0.16      0.00
    8    4   24     -0.94      0.00
    0    5   24     -0.12      0.00
    1    5   24     -0.39      0.00
    2    5   24      1.45      0.00
    3    5   24      1.16      0.00
    4    5   24      0.02      0.00
    5    5   24     -1.12      0.00
    6    5   24     -1.87      0.00
    7    5   24     -0.01      0.00
    0    6   24     -0.54      0.00
    1    6   24      0.50      0.00
    2    6   24     -0.28      0.00
    3    6   24     -0.96      0.00
    4    6   24      0.73      0.00
    5    6   24     -2.04      0.00
    6    6   24     -1.83      0.00
    7    6   24      0.71      0.00
    0    7   24     -1.33      0.00
    1    7   24      0.23      0.00
    2    7   24     -1.61      0.00
    3    7   24     -1.40      0.00
    4    7   24     -0.11      0.00
    5    7   24     -0.68      0.00
    6    7   24      0.39      0.00
    7    7   24      0.46      0.00
    0    8   24      1.57      0.00
    1    8   24     -0.54      0.00
    2    8   24     -1.16      0.00
    3    8   24      0.24      0.00
    4    8   24      0.77      0.00
    5    8   24      0.26      0.00
    6    8   24      1.91      0.00
    7    8   24      1.94      0.00
    0    9   24     -0.57      0.00
    1    9   24      0.21      0.00
    2    9   24      0.97      0.00
    3    9   24      1.82      0.00
    4    9   24      0.57      0.00
    5    9   24      1.25      0.00
    6    9   24      0.00      0.00
    0   10   24     -0.33      0.00
    1   10   24     -0.51      0.00
    2   10   24     -0.01      0.00
    3   10   24      1.50      0.00
    4   10   24      0.60      0.00
    5   10   24      0.45      0.00
    6   10   24      0.42      0.00
    0   11   24     -1.91      0.00
    1   11   24     -0.19      0.00
    2   11   24      0.25      0.00
    3   11   24      0.42      0.00
    4   11   24     -0.05      0.00
    5   11   24     -0.16      0.00
    0   12   24      0.47      0.00
    1   12   24     -0.47      0.00
    2   12   24      0.12      0.00
    3   12   24      0.11      0.00
    4   12   24      0.67      0.00
    0   13   24     -0.33      0.00
    1   13   24      0.54      0.00
    2   13   24     -0.01      0.00
    3   13   24      0.85      0.00
    0   14   24     -0.46      0.00
    1   14   24      0.02      0.00
    2    0   25     -0.91      0.00
    4    0   25      0.04      0.00
    6    0   25      1.52      0.00
    1    1   25      0.04      0.00
    2    1   25      0.00      0.00
    3    1   25      0.04      0.00
    4    1   25      0.21      0.00
    5    1   25      0.41      0.00
    6    1   25     -2.46      0.00
    7    1   25      1.19      0.00
    1    2   25      1.07      0.00
    2    2   25      0.47      0.00
    3    2   25     -0.29      0.00
    4    2   25      0.22      0.00
    5    2   25     -1.86      0.00
    6    2   25     -0.22      0.00
    7    2   25     -1.47      0.00
    1    3   25      0.33      0.00
    2    3   25     -0.11      0.00
    3    3   25      0.03      0.00
    4    3   25     -0.54      0.00
    5    3   25     -0.05      0.00
    6    3   25      0.60      0.00
    7    3   25      0.82      0.00
    1    4   25      1.37      0.00
    2    4   25     -0.84      0.00
    3    4   25      0.76      0.00
    4    4   25      0.47      0.00
    5    4   25     -0.05      0.00
    6    4   25     -0.50      0.00
    7    4   25      0.72      0.00
    1    5   25     -0.85      0.00
    2    5   25      0.41      0.00
    3    5   25      1.01      0.00
    4    5   25      0.57      0.00
    5    5   25     -1.58      0.00
    6    5   25     -0.17      0.00
    1    6   25      0.80      0.00
    2    6   25     -0.65      0.00
    3    6   25      0.28      0.00
    4    6   25     -0.82      0.00
    5    6   25     -0.42      0.00
    6    6   25      1.06      0.00
    1    7   25     -0.98      0.00
    2    7   25      0.12      0.00
    3    7   25      0.09      0.00
    4    7   25      0.31      0.00
    5    7   25     -0.56      0.00
    6    7   25     -1.00      0.00
    1    8   25     -0.12      0.00
    2    8   25      0.29      0.00
    3    8   25     -0.27      0.00
    4    8   25     -0.97      0.00
    5    8   25     -0.10      0.00
    1    9   25     -0.26      0.00
    2    9   25     -0.56      0.00
    3    9   25      1.30      0.00
    4    9   25     -0.15      0.00
    5    9   25     -0.56      0.00
    1   10   25     -0.54      0.00
    2   10   25      0.84      0.00
    3   10   25      0.58      0.00
    4   10   25      0.18      0.00
    1   11   25     -0.52      0.00
    2   11   25     -0.36      0.00
    3   11   25      2.36      0.00
    1   12   25      0.19      0.00
    2   12   25      1.04      0.00
    0    0   26      1.19      0.00
    2    0   26     -0.71      0.00
    4    0   26      0.36      0.00
    6    0   26      0.84      0.00
    0    1   26     -0.83      0.00
    1    1   26      0.06      0.00
    2    1   26     -0.69      0.00
    3    1   26      0.59      0.00
    4    1   26     -0.01      0.00
    5    1   26     -0.45      0.00
    6    1   26     -0.03      0.00
    0    2   26     -0.49      0.00
    1    2   26      0.07      0.00
    2    2   26      0.19      0.00
    3    2   26     -0.22      0.00
    4    2   26      0.25      0.00
    5    2   26     -0.77      0.00
    6    2   26      0.13      0.00
    0    3   26      2.61      0.00
    1    3   26     -0.17      0.00
    2    3   26     -1.11      0.00
    3    3   26      0.98      0.00
    4    3   26     -1.68      0.00
    5    3   26      1.05      0.00
    6    3   26      0.88      0.00
    0    4   26      0.39      0.00
    1    4   26      0.27      0.00
    2    4   26      0.06      0.00
    3    4   26      0.04      0.00
    4    4   26      0.82      0.00
    5    4   26      0.11      0.00
    0    5   26      1.02      0.00
    1    5   26     -0.07      0.00
    2    5   26     -0.04      0.00
    3    5   26     -0.45      0.00
    4    5   26      0.13      0.00
    5    5   26     -0.57      0.00
    0    6   26     -0.92      0.00
    1    6   26     -0.51      0.00
    2    6   26     -0.28      0.00
    3    6   26     -0.82      0.00
    4    6   26      0.19      0.00
    5    6   26      0.35      0.00
    0    7   26      0.10      0.00
    1    7   26     -0.17      0.00
    2    7   26     -0.73      0.00
    3    7   26     -0.74      0.00
    4    7   26      0.23      0.00
    0    8   26      0.04      0.00
    1    8   26      0.24      0.00
    2    8   26      1.41      0.00
    3    8   26      1.90      0.00
    4    8   26     -2.45      0.00
    0    9   26     -0.52      0.00
    1    9   26     -1.25      0.00
    2    9   26      2.01      0.00
    3    9   26     -0.43      0.00
    0   10   26     -1.79      0.00
    1   10   26     -0.89      0.00
    2   10   26     -0.26      0.00
    2    0   27      0.40      0.00
    4    0   27     -0.82      0.00
    1    1   27      0.03      0.00
    2    1   27      0.60      0.00
    3    1   27     -0.56      0.00
    4    1   27      1.13      0.00
    5    1   27     -1.57      0.00
    1    2   27     -0.63      0.00
    2    2   27     -0.32      0.00
    3    2   27      1.00      0.00
    4    2   27     -1.52      0.00
    1    3   27     -0.77      0.00
    2    3   27      0.26      0.00
    3    3   27      0.69      0.00
    4    3   27      0.40      0.00
    1    4   27      0.00      0.00
    2    4   27      0.40      0.00
    3    4   27      1.08      0.00
    4    4   27      0.82      0.00
    1    5   27      0.74      0.00
    2    5   27      0.65      0.00
    3    5   27      0.58      0.00
    4    5   27     -0.66      0.00
    1    6   27     -1.10      0.00
    2    6   27      0.47      0.00
    3    6   27     -1.22      0.00
    1    7   27     -0.16      0.00
    2    7   27     -0.52      0.00
    1    8   27     -0.80      0.00
    0    0   28     -0.83      0.00
    2    0   28      0.68      0.00
    0    1   28     -1.03      0.00
    1    1   28     -0.37      0.00
    2    1   28      0.68      0.00
    0    2   28      1.17      0.00
    1    2   28      0.48      0.00
    2    2   28      0.01      0.00
    0    3   28     -1.23      0.00
    1    3   28     -0.48      0.00
    2    3   28      0.51      0.00
    0    4   28     -0.67      0.00
    1    4   28     -0.69      0.00
    2    0    0     12.58      0.00
    4    0    0    -17.56      0.00
    6    0    0     -2.41      0.00
    8    0    0      4.70      0.00
    1    1    0     63.80      0.00
    0    2    0     11.44      0.00
    2    2    0    -12.04      0.00
    1    3    0     -6.60      0.00
   15    9    0     -0.48      0.00
   15   11    0      0.06      0.00
   15   13    0      0.15      0.00
   14   14    0      0.09      0.00
   13   15    0     -0.15      0.00
   14   16    0     -0.65      0.00
   13   17    0     -0.90      0.00
   12   18    0      0.05      0.00
   11   19    0     -0.11      0.00
   13   19    0      0.43      0.00
   12   20    0      0.63      0.00
   11   21    0      0.91      0.00
   10   22    0      1.59      0.00
    9   23    0      0.68      0.00
    0   24    0     -2.38      0.00
    8   24    0     -0.32      0.00
   10   24    0      0.08      0.00
    7   25    0      0.96      0.00
    9   25    0     -0.26      0.00
    0   26    0     -0.37      0.00
    4   26    0      0.01      0.00
    6   26    0      0.21      0.00
    8   26    0     -0.15      0.00
    2    0    1     42.38      0.00
    4    0    1      8.89      0.00
    6    0    1     -0.45      0.00
    1    1    1    -17.22      0.00
    2    1    1      4.37      0.00
    1    2    1      1.14      0.00
   15    8    1      0.06      0.00
   15    9    1      0.35      0.00
   15   10    1      0.39      0.00
   15   11    1      0.01      0.00
   15   12    1     -0.34      0.00
   14   13    1      0.42      0.00
   15   13    1      0.13      0.00
   14   14    1     -0.47      0.00
   15   14    1      0.20      0.00
   13   15    1     -0.40      0.00
   14   15    1      0.21      0.00
   13   16    1      1.50      0.00
   14   16    1      0.32      0.00
   13   17    1      0.37      0.00
   14   17    1      0.67      0.00
   12   18    1      0.71      0.00
   13   18    1      0.83      0.00
   11   19    1      0.48      0.00
   12   19    1     -1.07      0.00
   13   19    1     -0.05      0.00
   11   20    1      0.54      0.00
   12   20    1     -0.24      0.00
   10   21    1     -0.01      0.00
   11   21    1     -0.57      0.00
   12   21    1     -0.31      0.00
    9   22    1     -0.45      0.00
   10   22    1     -0.45      0.00
   11   22    1      0.10      0.00
    8   23    1     -0.36      0.00
    9   23    1      0.12      0.00
   10   23    1     -0.10      0.00
    7   24    1     -1.44      0.00
    8   24    1     -0.71      0.00
    9   24    1      0.46      0.00
   10   24    1     -0.17      0.00
    6   25    1      0.64      0.00
    7   25    1      0.20      0.00
    8   25    1     -0.13      0.00
    9   25    1      0.07      0.00
    4   26    1     -0.20      0.00
    5   26    1     -0.35      0.00
    6   26    1     -0.24      0.00
    7   26    1      0.64      0.00
    8   26    1     -0.50      0.00
    0    0    2     12.51      0.00
    2    0    2      1.09      0.00
    4    0    2    -10.23      0.00
    6    0    2     -0.99      0.00
    0    1    2    -49.15      0.00
    1    1    2      4.43      0.00
    2    1    2      2.81      0.00
    0    2    2    -41.80      0.00
   15    8    2      0.15      0.00
   15    9    2      0.64      0.00
   15   10    2      0.24      0.00
   15   11    2      0.66      0.00
   14   12    2      0.01      0.00
   15   12    2     -0.10      0.00
   14   13    2      0.61      0.00
   15   13    2     -0.84      0.00
   14   14    2      0.31      0.00
   15   14    2      0.36      0.00
   13   15    2     -0.74      0.00
   14   15    2     -0.14      0.00
   13   16    2     -0.34      0.00
   14   16    2      0.83      0.00
   13   17    2      0.09      0.00
   14   17    2     -1.01      0.00
   12   18    2      0.85      0.00
   13   18    2     -0.31      0.00
   11   19    2      1.13      0.00
   12   19    2     -0.13      0.00
   13   19    2     -0.53      0.00
   11   20    2      0.20      0.00
   12   20    2     -0.94      0.00
   10   21    2      0.26      0.00
   11   21    2     -0.55      0.00
   12   21    2     -0.48      0.00
    9   22    2     -0.17      0.00
   10   22    2     -1.15      0.00
   11   22    2     -0.08      0.00
    8   23    2      0.72      0.00
    9   23    2     -0.43      0.00
   10   23    2      0.03      0.00
    7   24    2      1.09      0.00
    8   24    2     -0.22      0.00
    9   24    2     -0.01      0.00
   10   24    2      0.02      0.00
    6   25    2      0.16      0.00
    7   25    2     -1.02      0.00
    8   25    2      0.53      0.00
    9   25    2      0.29      0.00
    0   26    2     -0.81      0.00
    4   26    2     -0.16      0.00
    5   26    2     -0.04      0.00
    6   26    2     -0.16      0.00
    7   26    2     -0.02      0.00
    8   26    2     -0.25      0.00
    2    0    3    -15.38      0.00
    4    0    3     -3.26      0.00
    6    0    3     -6.59      0.00
    1    1    3     14.17      0.00
   15    8    3      0.49      0.00
   15    9    3     -0.55      0.00
   15   10    3      0.98      0.00
   15   11    3     -0.94      0.00
   14   12    3     -1.12      0.00
   15   12    3     -0.16      0.00
   14   13    3     -0.44      0.00
   15   13    3     -0.59      0.00
   14   14    3     -0.74      0.00
   15   14    3      0.39      0.00
   13   15    3     -0.71      0.00
   14   15    3      0.37      0.00
   13   16    3      0.12      0.00
   14   16    3      0.17      0.00
   12   17    3      0.50      0.00
   13   17    3     -0.43      0.00
   14   17    3      0.25      0.00
   12   18    3     -1.30      0.00
   13   18    3     -0.04      0.00
   11   19    3      1.37      0.00
   12   19    3     -0.16      0.00
   13   19    3     -0.14      0.00
   11   20    3     -0.10      0.00
   12   20    3      1.18      0.00
   10   21    3      0.73      0.00
   11   21    3      0.11      0.00
   12   21    3      0.17      0.00
    9   22    3     -0.24      0.00
   10   22    3      0.23      0.00
   11   22    3      0.39      0.00
    8   23    3      0.50      0.00
    9   23    3     -0.01      0.00
   10   23    3     -0.32      0.00
    7   24    3      0.00      0.00
    8   24    3     -0.51      0.00
    9   24    3     -0.19      0.00
    6   25    3      0.84      0.00
    7   25    3      0.29      0.00
    8   25    3     -0.82      0.00
    9   25    3     -0.76      0.00
    3   26    3     -0.38      0.00
    4   26    3      1.16      0.00
    5   26    3      1.52      0.00
    6   26    3      0.17      0.00
    7   26    3     -0.52      0.00
    0    0    4     17.90      0.00
    2    0    4      5.21      0.00
    4    0    4     -0.72      0.00
    6    0    4      4.61      0.00
   15    7    4     -0.35      0.00
   15    8    4      0.75      0.00
   15    9    4      0.18      0.00
   15   10    4      0.43      0.00
   15   11    4     -0.53      0.00
   14   12    4     -0.34      0.00
   15   12    4     -0.65      0.00
   14   13    4      0.90      0.00
   15   13    4      0.59      0.00
   14   14    4      0.61      0.00
   15   14    4     -0.43      0.00
   13   15    4      0.03      0.00
   14   15    4      0.32      0.00
   13   16    4     -0.50      0.00
   14   16    4      0.03      0.00
   12   17    4      0.62      0.00
   13   17    4      0.20      0.00
   14   17    4     -0.64      0.00
   12   18    4      0.95      0.00
   13   18    4      0.53      0.00
   11   19    4     -0.18      0.00
   12   19    4      1.27      0.00
   13   19    4      0.29      0.00
   11   20    4     -0.42      0.00
   12   20    4      0.39      0.00
   10   21    4     -1.54      0.00
   11   21    4      0.52      0.00
    9   22    4     -0.28      0.00
   10   22    4      0.46      0.00
   11   22    4      0.31      0.00
    8   23    4     -0.32      0.00
    9   23    4     -0.36      0.00
   10   23    4      0.40      0.00
    7   24    4      0.93      0.00
    8   24    4      0.40      0.00
    9   24    4      0.34      0.00
    5   25    4      0.70      0.00
    6   25    4      0.35      0.00
    7   25    4      0.31      0.00
    8   25    4      0.46      0.00
    3   26    4     -0.53      0.00
    4   26    4      0.38      0.00
    5   26    4     -0.65      0.00
    6   26    4     -0.35      0.00
    7   26    4     -0.06      0.00
    2    0    5      3.21      0.00
   15    7    5     -0.08      0.00
   15    8    5      0.56      0.00
   15    9    5     -0.15      0.00
   15   10    5      0.62      0.00
   15   11    5      0.54      0.00
   14   12    5     -0.31      0.00
   15   12    5     -0.06      0.00
   14   13    5     -0.42      0.00
   15   13    5      0.48      0.00
   14   14    5      0.68      0.00
   15   14    5     -0.60      0.00
   13   15    5      0.32      0.00
   14   15    5     -0.42      0.00
   13   16    5     -0.10      0.00
   14   16    5      0.87      0.00
   12   17    5     -0.07      0.00
   13   17    5     -0.68      0.00
   12   18    5     -1.26      0.00
   13   18    5     -0.03      0.00
   11   19    5      0.72      0.00
   12   19    5      0.55      0.00
   10   20    5     -0.31      0.00
   11   20    5     -0.10      0.00
   12   20    5     -0.40      0.00
   10   21    5     -1.09      0.00
   11   21    5      0.23      0.00
    9   22    5     -0.55      0.00
   10   22    5      0.00      0.00
   11   22    5      0.06      0.00
    8   23    5     -0.05      0.00
    9   23    5     -0.47      0.00
   10   23    5     -0.28      0.00
    7   24    5      0.00      0.00
    8   24    5     -0.73      0.00
    9   24    5     -0.47      0.00
    5   25    5      0.18      0.00
    6   25    5     -0.12      0.00
    7   25    5      1.21      0.00
    8   25    5     -0.08      0.00
    2   26    5     -0.42      0.00
    3   26    5     -0.79      0.00
    4   26    5     -0.33      0.00
    5   26    5     -0.74      0.00
    6   26    5     -0.07      0.00
    7   26    5     -0.22      0.00
    0    0    6     -7.94      0.00
    2    0    6      5.38      0.00
    4    0    6     -1.47      0.00
   15    6    6      0.88      0.00
   15    7    6      0.73      0.00
   15    8    6      1.13      0.00
   15    9    6      0.77      0.00
   15   10    6     -0.20      0.00
   14   11    6     -0.23      0.00
   15   11    6      0.26      0.00
   14   12    6     -0.48      0.00
   15   12    6     -0.13      0.00
   14   13    6     -0.07      0.00
   15   13    6     -0.46      0.00
   13   14    6      0.53      0.00
   14   14    6     -0.35      0.00
   13   15    6     -1.00      0.00
   14   15    6     -0.09      0.00
   13   16    6     -0.13      0.00
   14   16    6     -0.39      0.00
   12   17    6     -0.11      0.00
   13   17    6      0.36      0.00
   12   18    6      0.11      0.00
   13   18    6     -0.39      0.00
   11   19    6     -1.20      0.00
   12   19    6     -0.45      0.00
   10   20    6     -0.03      0.00
   11   20    6      0.52      0.00
   12   20    6     -0.31      0.00
   10   21    6      0.33      0.00
   11   21    6     -0.04      0.00
    9   22    6      0.18      0.00
   10   22    6     -0.09      0.00
   11   22    6      0.57      0.00
    8   23    6     -0.29      0.00
    9   23    6     -0.59      0.00
   10   23    6      0.03      0.00
    6   24    6      1.54      0.00
    7   24    6     -0.01      0.00
    8   24    6      0.21      0.00
    9   24    6     -0.31      0.00
    5   25    6      0.08      0.00
    6   25    6      0.26      0.00
    7   25    6     -0.08      0.00
    8   25    6     -0.24      0.00
    0   26    6     -0.43      0.00
    1   26    6     -0.41      0.00
    2   26    6      0.51      0.00
    3   26    6      0.01      0.00
    4   26    6      0.13      0.00
    5   26    6      0.39      0.00
    6   26    6     -0.28      0.00
    7   26    6     -0.39      0.00
    4    0    7     -3.02      0.00
   15    5    7     -0.37      0.00
   15    6    7      0.94      0.00
   15    7    7     -1.08      0.00
   15    8    7     -0.63      0.00
   15    9    7     -0.46      0.00
   15   10    7     -0.29      0.00
   14   11    7     -0.42      0.00
   15   11    7     -0.06      0.00
   14   12    7     -0.79      0.00
   15   12    7     -0.07      0.00
   14   13    7     -0.19      0.00
   15   13    7     -0.25      0.00
   13   14    7     -0.71      0.00
   14   14    7     -0.63      0.00
   13   15    7     -0.20      0.00
   14   15    7     -0.44      0.00
   12   16    7     -1.27      0.00
   13   16    7     -0.62      0.00
   14   16    7      0.22      0.00
   12   17    7      0.80      0.00
   13   17    7      0.03      0.00
   11   18    7      0.95      0.00
   12   18    7      0.02      0.00
   13   18    7      0.09      0.00
   11   19    7      0.09      0.00
   12   19    7      0.34      0.00
   10   20    7      0.15      0.00
   11   20    7     -0.23      0.00
   12   20    7     -0.28      0.00
    9   21    7      0.11      0.00
   10   21    7      0.02      0.00
   11   21    7     -0.39      0.00
    8   22    7      0.25      0.00
    9   22    7     -0.49      0.00
   10   22    7     -1.01      0.00
    7   23    7      0.12      0.00
    8   23    7      0.07      0.00
    9   23    7      0.21      0.00
   10   23    7     -0.01      0.00
    6   24    7      0.25      0.00
    7   24    7      0.24      0.00
    8   24    7     -0.08      0.00
    9   24    7     -0.17      0.00
    4   25    7      0.00      0.00
    5   25    7      0.28      0.00
    6   25    7     -0.78      0.00
    7   25    7     -0.46      0.00
    8   25    7      0.56      0.00
    1   26    7      0.56      0.00
    2   26    7      0.03      0.00
    3   26    7     -0.16      0.00
    4   26    7     -0.19      0.00
    5   26    7     -0.01      0.00
    6   26    7     -0.33      0.00
    7   26    7      0.44      0.00
    4    0    8      6.42      0.00
    6    0    8      0.73      0.00
   15    3    8     -0.08      0.00
   15    4    8      1.48      0.00
   15    5    8     -0.98      0.00
   15    6    8      0.52      0.00
   15    7    8     -0.33      0.00
   15    8    8      0.22      0.00
   15    9    8      0.12      0.00
   14   10    8     -0.16      0.00
   15   10    8     -0.21      0.00
   14   11    8     -0.76      0.00
   15   11    8      0.46      0.00
   14   12    8     -0.27      0.00
   15   12    8     -0.43      0.00
   13   13    8     -1.11      0.00
   14   13    8     -0.09      0.00
   13   14    8     -0.79      0.00
   14   14    8     -0.10      0.00
   13   15    8      0.01      0.00
   14   15    8     -0.47      0.00
   12   16    8      1.51      0.00
   13   16    8     -0.15      0.00
   12   17    8      0.08      0.00
   13   17    8      0.37      0.00
   11   18    8     -0.88      0.00
   12   18    8      1.31      0.00
   13   18    8      0.85      0.00
   11   19    8     -0.39      0.00
   12   19    8     -0.05      0.00
   10   20    8     -0.70      0.00
   11   20    8      0.47      0.00
    9   21    8      0.06      0.00
   10   21    8      0.22      0.00
   11   21    8      0.50      0.00
    8   22    8      0.55      0.00
    9   22    8      0.48      0.00
   10   22    8     -0.14      0.00
    7   23    8     -0.05      0.00
    8   23    8      1.08      0.00
    9   23    8     -0.67      0.00
    6   24    8     -0.03      0.00
    7   24    8      0.07      0.00
    8   24    8     -0.17      0.00
    9   24    8     -0.40      0.00
    3   25    8      0.05      0.00
    4   25    8      0.47      0.00
    5   25    8      0.66      0.00
    6   25    8      0.10      0.00
    7   25    8     -0.76      0.00
    8   25    8     -0.47      0.00
    0   26    8      1.09      0.00
    1   26    8     -0.50      0.00
    2   26    8     -0.64      0.00
    3   26    8     -0.19      0.00
    4   26    8     -0.67      0.00
    5   26    8      0.09      0.00
    6   26    8     -0.34      0.00
    4    0    9      0.71      0.00
    6    0    9     -0.84      0.00
   15    1    9      0.25      0.00
   15    2    9     -1.49      0.00
   15    3    9      0.28      0.00
   15    4    9      0.94      0.00
   15    5    9      0.77      0.00
   15    6    9     -0.43      0.00
   15    7    9      0.31      0.00
   15    8    9     -0.01      0.00
   14    9    9      0.74      0.00
   15    9    9      0.12      0.00
   14   10    9      1.08      0.00
   15   10    9     -0.29      0.00
   14   11    9      0.18      0.00
   15   11    9     -0.07      0.00
   14   12    9     -0.02      0.00
   15   12    9     -0.33      0.00
   13   13    9     -1.46      0.00
   14   13    9     -0.10      0.00
   13   14    9      0.02      0.00
   14   14    9      0.11      0.00
   12   15    9      0.05      0.00
   13   15    9      0.16      0.00
   14   15    9      0.25      0.00
   12   16    9      0.28      0.00
   13   16    9      0.64      0.00
   12   17    9      1.12      0.00
   13   17    9     -0.34      0.00
   11   18    9     -0.41      0.00
   12   18    9     -0.84      0.00
   10   19    9     -0.81      0.00
   11   19    9     -0.19      0.00
   12   19    9      0.29      0.00
   10   20    9     -0.50      0.00
   11   20    9      0.01      0.00
    9   21    9     -0.71      0.00
   10   21    9      0.18      0.00
   11   21    9      0.27      0.00
    8   22    9      0.05      0.00
    9   22    9      0.30      0.00
   10   22    9      0.64      0.00
    7   23    9      0.70      0.00
    8   23    9      0.51      0.00
    9   23    9     -0.40      0.00
    5   24    9      0.17      0.00
    6   24    9      1.19      0.00
    7   24    9      0.04      0.00
    8   24    9      0.18      0.00
    2   25    9     -0.18      0.00
    3   25    9      0.17      0.00
    4   25    9      0.62      0.00
    5   25    9      0.13      0.00
    6   25    9      0.47      0.00
    7   25    9     -0.10      0.00
    1   26    9     -0.48      0.00
    2   26    9      0.55      0.00
    3   26    9      0.08      0.00
    4   26    9      0.08      0.00
    5   26    9     -0.01      0.00
    6   26    9     -0.56      0.00
    4    0   10     -3.45      0.00
    6    0   10     -0.66      0.00
   15    1   10      0.30      0.00
   15    2   10      0.06      0.00
   15    3   10      0.46      0.00
   15    4   10     -1.05      0.00
   15    5   10      0.65      0.00
   15    6   10      0.13      0.00
   15    7   10      0.43      0.00
   14    8   10     -0.58      0.00
   15    8   10      0.04      0.00
   14    9   10     -0.25      0.00
   15    9   10     -0.08      0.00
   14   10   10      0.47      0.00
   15   10   10     -0.10      0.00
   14   11   10      0.68      0.00
   15   11   10     -0.61      0.00
   13   12   10      0.77      0.00
   14   12   10      0.11      0.00
   13   13   10      0.72      0.00
   14   13   10      0.34      0.00
   13   14   10      0.79      0.00
   14   14   10     -0.29      0.00
   12   15   10     -1.14      0.00
   13   15   10      0.03      0.00
   12   16   10      0.25      0.00
   13   16   10     -0.32      0.00
   11   17   10      0.46      0.00
   12   17   10      0.53      0.00
   13   17   10      0.01      0.00
   11   18   10      0.37      0.00
   12   18   10      0.04      0.00
   10   19   10      0.73      0.00
   11   19   10      0.37      0.00
   12   19   10     -0.20      0.00
    9   20   10      0.37      0.00
   10   20   10     -0.70      0.00
   11   20   10     -0.44      0.00
    8   21   10     -0.68      0.00
    9   21   10     -0.36      0.00
   10   21   10     -0.93      0.00
    7   22   10     -0.21      0.00
    8   22   10     -0.44      0.00
    9   22   10     -0.29      0.00
   10   22   10     -0.06      0.00
    6   23   10      1.04      0.00
    7   23   10     -0.18      0.00
    8   23   10     -0.14      0.00
    9   23   10     -0.29      0.00
    4   24   10     -0.55      0.00
    5   24   10      1.25      0.00
    6   24   10     -0.06      0.00
    7   24   10     -0.05      0.00
    8   24   10      0.16      0.00
    0   25   10      0.82      0.00
    1   25   10      0.67      0.00
    2   25   10     -0.64      0.00
    3   25   10      0.64      0.00
    4   25   10     -1.63      0.00
    5   25   10      0.58      0.00
    6   25   10      0.62      0.00
    7   25   10      0.40      0.00
    0   26   10     -0.04      0.00
    1   26   10      0.11      0.00
    2   26   10     -0.02      0.00
    3   26   10      0.26      0.00
    4   26   10      0.38      0.00
    5   26   10      0.16      0.00
    4    0   11     -2.35      0.00
   15    1   11     -1.88      0.00
   15    2   11     -0.44      0.00
   15    3   11      0.78      0.00
   15    4   11      0.51      0.00
   15    5   11      0.40      0.00
   15    6   11      1.22      0.00
   14    7   11     -0.28      0.00
   15    7   11     -0.05      0.00
   14    8   11     -0.78      0.00
   15    8   11     -0.67      0.00
   14    9   11     -0.17      0.00
   15    9   11     -0.47      0.00
   14   10   11     -0.53      0.00
   15   10   11     -0.41      0.00
   13   11   11     -0.19      0.00
   14   11   11      0.48      0.00
   13   12   11      1.42      0.00
   14   12   11      0.22      0.00
   13   13   11      0.30      0.00
   14   13   11     -0.76      0.00
   12   14   11     -0.62      0.00
   13   14   11     -0.51      0.00
   14   14   11     -0.43      0.00
   12   15   11     -0.26      0.00
   13   15   11     -0.65      0.00
   11   16   11      0.01      0.00
   12   16   11     -0.41      0.00
   13   16   11     -0.55      0.00
   11   17   11     -1.61      0.00
   12   17   11      0.01      0.00
   10   18   11     -0.52      0.00
   11   18   11      0.81      0.00
   12   18   11      0.08      0.00
   10   19   11     -0.64      0.00
   11   19   11     -0.21      0.00
    9   20   11      0.67      0.00
   10   20   11     -0.40      0.00
   11   20   11      0.27      0.00
    8   21   11      0.58      0.00
    9   21   11     -0.51      0.00
   10   21   11      0.15      0.00
    7   22   11      0.74      0.00
    8   22   11      0.11      0.00
    9   22   11      0.33      0.00
    5   23   11      1.25      0.00
    6   23   11      0.43      0.00
    7   23   11      0.10      0.00
    8   23   11      0.69      0.00
    3   24   11      0.41      0.00
    4   24   11      0.41      0.00
    5   24   11      1.28      0.00
    6   24   11      0.29      0.00
    7   24   11      0.25      0.00
    8   24   11     -0.73      0.00
    1   25   11     -0.34      0.00
    2   25   11      0.39      0.00
    3   25   11     -0.44      0.00
    4   25   11      0.03      0.00
    5   25   11     -0.75      0.00
    6   25   11     -0.16      0.00
    1   26   11     -0.25      0.00
    2   26   11     -0.27      0.00
    3   26   11      0.20      0.00
    4   26   11      0.34      0.00
    5   26   11     -0.02      0.00
   15    1   12      0.02      0.00
   15    2   12     -0.98      0.00
   15    3   12     -0.42      0.00
   15    4   12     -1.02      0.00
   14    5   12     -0.85      0.00
   15    5   12     -0.16      0.00
   14    6   12     -0.74      0.00
   15    6   12     -0.54      0.00
   14    7   12     -0.62      0.00
   15    7   12      0.09      0.00
   14    8   12     -0.66      0.00
   15    8   12      0.32      0.00
   14    9   12      0.95      0.00
   15    9   12      0.01      0.00
   13   10   12      0.88      0.00
   14   10   12     -0.01      0.00
   13   11   12     -1.14      0.00
   14   11   12     -0.14      0.00
   13   12   12      0.16      0.00
   14   12   12     -0.25      0.00
   13   13   12      0.11      0.00
   14   13   12     -0.15      0.00
   12   14   12      0.17      0.00
   13   14   12      0.37      0.00
   12   15   12     -0.02      0.00
   13   15   12     -0.12      0.00
   11   16   12     -0.39      0.00
   12   16   12      0.14      0.00
   13   16   12     -0.18      0.00
   11   17   12      0.76      0.00
   12   17   12     -0.17      0.00
   10   18   12     -0.44      0.00
   11   18   12     -0.29      0.00
   12   18   12     -0.75      0.00
    9   19   12     -0.18      0.00
   10   19   12     -0.94      0.00
   11   19   12      0.03      0.00
    8   20   12     -0.72      0.00
    9   20   12     -0.97      0.00
   10   20   12     -0.84      0.00
    7   21   12     -0.95      0.00
    8   21   12     -0.02      0.00
    9   21   12      0.49      0.00
   10   21   12     -0.02      0.00
    6   22   12     -0.73      0.00
    7   22   12     -0.47      0.00
    8   22   12      1.06      0.00
    9   22   12      0.35      0.00
    5   23   12     -0.69      0.00
    6   23   12     -0.91      0.00
    7   23   12     -0.09      0.00
    8   23   12      0.62      0.00
    2   24   12      0.25      0.00
    3   24   12      0.23      0.00
    4   24   12     -0.55      0.00
    5   24   12     -0.47      0.00
    6   24   12      0.38      0.00
    7   24   12      0.39      0.00
    0   25   12      0.38      0.00
    1   25   12      0.40      0.00
    2   25   12      0.54      0.00
    3   25   12      0.58      0.00
    4   25   12      0.02      0.00
    5   25   12      0.17      0.00
    6   25   12     -0.09      0.00
    0   26   12     -0.48      0.00
    1   26   12      0.12      0.00
    2   26   12     -0.18      0.00
    3   26   12     -0.17      0.00
    4   26   12      0.12      0.00
   14    0   13      1.04      0.00
   14    1   13     -0.75      0.00
   15    1   13      0.33      0.00
   14    2   13     -0.74      0.00
   15    2   13     -0.04      0.00
   14    3   13      0.30      0.00
   15    3   13      0.35      0.00
   14    4   13     -0.43      0.00
   15    4   13     -0.42      0.00
   14    5   13      0.30      0.00
   15    5   13      0.14      0.00
   14    6   13     -1.60      0.00
   15    6   13     -0.19      0.00
   14    7   13      0.12      0.00
   15    7   13     -0.05      0.00
   14    8   13     -0.13      0.00
   15    8   13      0.17      0.00
   13    9   13     -0.75      0.00
   14    9   13      0.47      0.00
   13   10   13     -0.20      0.00
   14   10   13      0.40      0.00
   13   11   13     -0.38      0.00
   14   11   13      0.50      0.00
   13   12   13     -0.13      0.00
   14   12   13     -0.73      0.00
   12   13   13     -0.09      0.00
   13   13   13      0.17      0.00
   12   14   13      1.29      0.00
   13   14   13     -0.32      0.00
   11   15   13      1.55      0.00
   12   15   13      0.38      0.00
   13   15   13      1.13      0.00
   11   16   13      0.01      0.00
   12   16   13      0.97      0.00
   10   17   13      0.28      0.00
   11   17   13      1.11      0.00
   12   17   13      0.25      0.00
   10   18   13      0.70      0.00
   11   18   13      0.19      0.00
    9   19   13      0.19      0.00
   10   19   13     -0.14      0.00
   11   19   13      0.27      0.00
    8   20   13     -0.10      0.00
    9   20   13     -0.69      0.00
   10   20   13      0.36      0.00
    7   21   13     -0.32      0.00
    8   21   13      0.63      0.00
    9   21   13     -0.23      0.00
    6   22   13     -0.80      0.00
    7   22   13     -0.21      0.00
    8   22   13     -0.12      0.00
    9   22   13     -0.50      0.00
    4   23   13      0.00      0.00
    5   23   13      0.43      0.00
    6   23   13     -1.24      0.00
    7   23   13     -0.74      0.00
    8   23   13     -0.55      0.00
    1   24   13     -0.24      0.00
    2   24   13     -0.06      0.00
    3   24   13      0.25      0.00
    4   24   13     -0.88      0.00
    5   24   13     -0.60      0.00
    6   24   13     -0.42      0.00
    7   24   13      0.20      0.00
    1   25   13     -0.42      0.00
    2   25   13      0.07      0.00
    3   25   13      0.03      0.00
    4   25   13      0.07      0.00
    5   25   13     -0.42      0.00
    1   26   13     -0.08      0.00
    2   26   13      0.05      0.00
    3   26   13     -0.56      0.00
   14    0   14      0.31      0.00
   14    1   14     -0.35      0.00
   15    1   14     -0.28      0.00
   14    2   14     -0.58      0.00
   15    2   14     -0.29      0.00
   14    3   14     -0.86      0.00
   15    3   14      0.51      0.00
   14    4   14     -0.89      0.00
   15    4   14      0.20      0.00
   14    5   14     -0.05      0.00
   15    5   14     -0.15      0.00
   14    6   14     -0.40      0.00
   15    6   14      0.32      0.00
   14    7   14     -0.80      0.00
   15    7   14     -0.57      0.00
   13    8   14     -0.58      0.00
   14    8   14      0.06      0.00
   13    9   14     -0.27      0.00
   14    9   14      0.31      0.00
   13   10   14     -0.19      0.00
   14   10   14      0.25      0.00
   13   11   14      0.35      0.00
   14   11   14      1.08      0.00
   12   12   14      0.80      0.00
   13   12   14      0.37      0.00
   12   13   14      0.92      0.00
   13   13   14      0.24      0.00
   11   14   14      0.01      0.00
   12   14   14      0.24      0.00
   13   14   14      0.14      0.00
   11   15   14     -1.07      0.00
   12   15   14     -0.27      0.00
   10   16   14      1.60      0.00
   11   16   14     -0.27      0.00
   12   16   14      0.44      0.00
   10   17   14     -0.72      0.00
   11   17   14      0.02      0.00
    9   18   14      0.22      0.00
   10   18   14      0.50      0.00
   11   18   14      0.71      0.00
    8   19   14     -0.67      0.00
    9   19   14     -0.04      0.00
   10   19   14     -0.10      0.00
    7   20   14      0.36      0.00
    8   20   14     -0.20      0.00
    9   20   14      0.25      0.00
   10   20   14     -0.05      0.00
    6   21   14     -0.82      0.00
    7   21   14      0.46      0.00
    8   21   14      0.50      0.00
    9   21   14      0.09      0.00
    5   22   14     -1.02      0.00
    6   22   14      0.49      0.00
    7   22   14      0.20      0.00
    8   22   14      0.31      0.00
    2   23   14      0.18      0.00
    3   23   14     -0.31      0.00
    4   23   14     -0.43      0.00
    5   23   14     -0.13      0.00
    6   23   14      0.33      0.00
    7   23   14      0.05      0.00
    0   24   14      0.43      0.00
    1   24   14      0.10      0.00
    2   24   14      1.07      0.00
    3   24   14      0.30      0.00
    4   24   14     -0.59      0.00
    5   24   14     -0.44      0.00
    6   24   14     -0.14      0.00
    0   25   14     -0.34      0.00
    1   25   14      0.33      0.00
    2   25   14      0.18      0.00
    3   25   14     -0.47      0.00
    4   25   14     -0.45      0.00
    0   26   14     -0.18      0.00
    1   26   14      0.39      0.00
    2   26   14     -0.08      0.00
   14    0   15      0.41      0.00
   14    1   15     -0.77      0.00
   15    1   15      0.42      0.00
   14    2   15      0.53      0.00
   15    2   15     -0.34      0.00
   14    3   15     -0.29      0.00
   15    3   15     -0.33      0.00
   14    4   15     -0.67      0.00
   15    4   15      0.17      0.00
   14    5   15     -0.39      0.00
   15    5   15     -0.09      0.00
   13    6   15      1.48      0.00
   14    6   15     -0.53      0.00
   13    7   15     -0.54      0.00
   14    7   15     -0.35      0.00
   13    8   15     -0.66      0.00
   14    8   15     -0.08      0.00
   13    9   15      0.08      0.00
   14    9   15     -0.96      0.00
   12   10   15      0.48      0.00
   13   10   15     -0.14      0.00
   14   10   15      0.02      0.00
   12   11   15     -0.33      0.00
   13   11   15     -0.57      0.00
   12   12   15     -0.92      0.00
   13   12   15      0.19      0.00
   11   13   15     -0.29      0.00
   12   13   15     -0.22      0.00
   13   13   15      0.75      0.00
   11   14   15     -0.12      0.00
   12   14   15      0.85      0.00
   10   15   15      0.60      0.00
   11   15   15      0.30      0.00
   12   15   15     -0.89      0.00
   10   16   15     -0.17      0.00
   11   16   15     -0.90      0.00
   12   16   15      0.38      0.00
    9   17   15      0.35      0.00
   10   17   15      0.64      0.00
   11   17   15      1.02      0.00
    9   18   15      1.04      0.00
   10   18   15      0.23      0.00
   11   18   15     -0.36      0.00
    8   19   15      0.61      0.00
    9   19   15     -0.69      0.00
   10   19   15      0.36      0.00
    7   20   15      1.37      0.00
    8   20   15     -0.44      0.00
    9   20   15     -0.03      0.00
    5   21   15     -0.41      0.00
    6   21   15      0.54      0.00
    7   21   15      0.02      0.00
    8   21   15      0.59      0.00
    4   22   15      0.15      0.00
    5   22   15      0.11      0.00
    6   22   15     -1.04      0.00
    7   22   15     -0.43      0.00
    8   22   15      0.85      0.00
    1   23   15      0.08      0.00
    2   23   15     -0.28      0.00
    3   23   15      0.26      0.00
    4   23   15     -0.68      0.00
    5   23   15     -0.18      0.00
    6   23   15      0.33      0.00
    7   23   15      0.10      0.00
    1   24   15      0.49      0.00
    2   24   15      0.17      0.00
    3   24   15     -0.21      0.00
    4   24   15      0.03      0.00
    5   24   15      0.49      0.00
    1   25   15      0.60      0.00
    2   25   15     -0.01      0.00
    3   25   15     -0.36      0.00
   14    0   16      1.50      0.00
   13    1   16      0.20      0.00
   14    1   16      0.23      0.00
   13    2   16      0.02      0.00
   14    2   16      0.65      0.00
   13    3   16      0.19      0.00
   14    3   16     -0.59      0.00
   13    4   16     -0.99      0.00
   14    4   16     -0.59      0.00
   13    5   16     -1.27      0.00
   14    5   16      0.62      0.00
   13    6   16     -0.06      0.00
   14    6   16     -0.46      0.00
   13    7   16     -0.27      0.00
   14    7   16      0.15      0.00
   13    8   16     -1.02      0.00
   14    8   16      0.14      0.00
   12    9   16      0.16      0.00
   13    9   16      0.09      0.00
   14    9   16      0.03      0.00
   12   10   16     -0.77      0.00
   13   10   16     -0.18      0.00
   12   11   16      0.36      0.00
   13   11   16     -0.96      0.00
   11   12   16     -0.36      0.00
   12   12   16     -0.85      0.00
   13   12   16     -0.07      0.00
   11   13   16      0.35      0.00
   12   13   16     -0.10      0.00
   11   14   16     -1.48      0.00
   12   14   16      0.01      0.00
   10   15   16     -0.61      0.00
   11   15   16      0.48      0.00
   12   15   16      0.84      0.00
    9   16   16      0.07      0.00
   10   16   16      0.57      0.00
   11   16   16      0.84      0.00
    9   17   16     -0.58      0.00
   10   17   16      0.28      0.00
   11   17   16      0.16      0.00
    8   18   16     -1.53      0.00
    9   18   16      0.93      0.00
   10   18   16     -0.46      0.00
    7   19   16      0.02      0.00
    8   19   16     -0.48      0.00
    9   19   16      0.15      0.00
    6   20   16      0.11      0.00
    7   20   16     -0.61      0.00
    8   20   16     -0.19      0.00
    9   20   16     -0.24      0.00
    4   21   16      0.44      0.00
    5   21   16     -0.29      0.00
    6   21   16      0.39      0.00
    7   21   16      0.51      0.00
    8   21   16      0.40      0.00
    0   22   16      0.37      0.00
    1   22   16      0.35      0.00
    2   22   16      0.03      0.00
    3   22   16     -0.20      0.00
    4   22   16      0.15      0.00
    5   22   16      0.90      0.00
    6   22   16      0.44      0.00
    7   22   16     -0.23      0.00
    0   23   16     -0.10      0.00
    1   23   16     -0.08      0.00
    2   23   16      0.43      0.00
    3   23   16      0.05      0.00
    4   23   16      0.27      0.00
    5   23   16     -0.29      0.00
    6   23   16     -0.24      0.00
    0   24   16      0.84      0.00
    1   24   16     -0.56      0.00
    2   24   16     -0.45      0.00
    3   24   16     -0.32      0.00
    4   24   16     -0.59      0.00
    0   25   16      0.34      0.00
    1   25   16     -0.50      0.00
    2   25   16     -0.51      0.00
   14    0   17      1.17      0.00
   13    1   17     -0.15      0.00
   14    1   17     -0.08      0.00
   13    2   17     -0.25      0.00
   14    2   17      0.15      0.00
   13    3   17     -0.13      0.00
   14    3   17      0.20      0.00
   13    4   17      0.76      0.00
   14    4   17     -1.00      0.00
   13    5   17      0.22      0.00
   14    5   17      0.48      0.00
   13    6   17      1.48      0.00
   14    6   17     -0.76      0.00
   12    7   17      0.28      0.00
   13    7   17     -0.45      0.00
   14    7   17     -0.24      0.00
   12    8   17     -1.22      0.00
   13    8   17     -0.45      0.00
   12    9   17     -0.26      0.00
   13    9   17      0.67      0.00
   12   10   17      0.88      0.00
   13   10   17     -0.19      0.00
   11   11   17     -0.43      0.00
   12   11   17     -0.35      0.00
   13   11   17      0.10      0.00
   11   12   17     -0.12      0.00
   12   12   17     -0.38      0.00
   10   13   17      0.37      0.00
   11   13   17      0.55      0.00
   12   13   17     -0.80      0.00
   10   14   17      0.35      0.00
   11   14   17     -0.13      0.00
   12   14   17     -0.48      0.00
    9   15   17     -0.41      0.00
   10   15   17     -0.04      0.00
   11   15   17      0.40      0.00
    9   16   17      0.02      0.00
   10   16   17      0.67      0.00
   11   16   17      0.21      0.00
    8   17   17      0.22      0.00
    9   17   17     -0.14      0.00
   10   17   17      0.06      0.00
    7   18   17     -0.37      0.00
    8   18   17     -0.01      0.00
    9   18   17      0.18      0.00
   10   18   17     -0.23      0.00
    6   19   17     -1.22      0.00
    7   19   17      0.09      0.00
    8   19   17     -0.13      0.00
    9   19   17     -0.19      0.00
    5   20   17     -0.61      0.00
    6   20   17     -0.40      0.00
    7   20   17      0.50      0.00
    8   20   17      0.73      0.00
    3   21   17      0.16      0.00
    4   21   17      0.04      0.00
    5   21   17     -0.23      0.00
    6   21   17     -0.39      0.00
    7   21   17     -0.67      0.00
    1   22   17     -1.34      0.00
    2   22   17      0.21      0.00
    3   22   17     -0.03      0.00
    4   22   17     -0.40      0.00
    5   22   17     -0.12      0.00
    6   22   17      0.29      0.00
    1   23   17      0.12      0.00
    2   23   17      0.13      0.00
    3   23   17     -0.31      0.00
    4   23   17      0.40      0.00
    5   23   17      0.26      0.00
    1   24   17      0.14      0.00
    2   24   17      0.40      0.00
    3   24   17     -0.02      0.00
   14    0   18      0.78      0.00
   13    1   18      0.12      0.00
   14    1   18      0.11      0.00
   13    2   18      0.44      0.00
   14    2   18     -0.68      0.00
   13    3   18     -0.28      0.00
   14    3   18     -0.18      0.00
   12    4   18      0.34      0.00
   13    4   18      0.28      0.00
   14    4   18     -0.15      0.00
   12    5   18     -1.14      0.00
   13    5   18     -0.53      0.00
   12    6   18     -0.29      0.00
   13    6   18      0.34      0.00
   12    7   18      0.32      0.00
   13    7   18      0.37      0.00
   12    8   18      0.32      0.00
   13    8   18     -0.20      0.00
   11    9   18      0.70      0.00
   12    9   18     -0.36      0.00
   13    9   18     -0.27      0.00
   11   10   18     -0.05      0.00
   12   10   18     -0.16      0.00
   13   10   18      0.02      0.00
   11   11   18     -1.21      0.00
   12   11   18      0.01      0.00
   10   12   18     -0.05      0.00
   11   12   18     -0.43      0.00
   12   12   18     -0.15      0.00
   10   13   18     -0.60      0.00
   11   13   18      0.29      0.00
   12   13   18      0.60      0.00
    9   14   18      0.49      0.00
   10   14   18      0.81      0.00
   11   14   18     -0.61      0.00
    9   15   18     -0.83      0.00
   10   15   18      0.78      0.00
   11   15   18     -0.43      0.00
    8   16   18      0.46      0.00
    9   16   18      0.29      0.00
   10   16   18     -0.93      0.00
    7   17   18      0.74      0.00
    8   17   18      1.42      0.00
    9   17   18     -0.51      0.00
   10   17   18     -0.65      0.00
    6   18   18     -1.33      0.00
    7   18   18      0.77      0.00
    8   18   18     -0.72      0.00
    9   18   18      0.25      0.00
    5   19   18     -0.38      0.00
    6   19   18     -0.62      0.00
    7   19   18      0.11      0.00
    8   19   18     -1.18      0.00
    3   20   18      0.47      0.00
    4   20   18      0.13      0.00
    5   20   18     -0.93      0.00
    6   20   18      0.59      0.00
    7   20   18     -0.27      0.00
    8   20   18      0.55      0.00
    0   21   18     -0.91      0.00
    1   21   18      1.53      0.00
    2   21   18     -0.18      0.00
    3   21   18     -0.51      0.00
    4   21   18     -0.21      0.00
    5   21   18      0.06      0.00
    6   21   18      0.41      0.00
    7   21   18     -0.21      0.00
    0   22   18     -0.70      0.00
    1   22   18      0.22      0.00
    2   22   18      0.18      0.00
    3   22   18      0.21      0.00
    4   22   18     -0.11      0.00
    5   22   18     -0.43      0.00
    0   23   18     -0.70      0.00
    1   23   18     -0.17      0.00
    2   23   18     -0.03      0.00
    3   23   18      0.36      0.00
    4   23   18     -0.25      0.00
    0   24   18      0.71      0.00
    1   24   18     -0.21      0.00
   12    0   19      0.00      0.00
   12    1   19     -0.40      0.00
   13    1   19     -0.15      0.00
   12    2   19     -0.54      0.00
   13    2   19      0.04      0.00
   12    3   19      0.26      0.00
   13    3   19      0.46      0.00
   12    4   19      0.91      0.00
   13    4   19     -0.27      0.00
   12    5   19     -0.31      0.00
   13    5   19     -0.57      0.00
   12    6   19     -0.16      0.00
   13    6   19      0.31      0.00
   11    7   19      0.45      0.00
   12    7   19     -0.12      0.00
   13    7   19     -0.06      0.00
   11    8   19      0.95      0.00
   12    8   19     -0.23      0.00
   13    8   19     -0.13      0.00
   11    9   19      0.64      0.00
   12    9   19      0.56      0.00
   11   10   19     -0.47      0.00
   12   10   19      0.69      0.00
   10   11   19      0.45      0.00
   11   11   19      0.29      0.00
   12   11   19      0.13      0.00
   10   12   19      0.39      0.00
   11   12   19      0.55      0.00
    9   13   19     -0.72      0.00
   10   13   19      0.40      0.00
   11   13   19      0.61      0.00
    9   14   19     -0.61      0.00
   10   14   19     -0.08      0.00
   11   14   19      0.50      0.00
    8   15   19     -0.49      0.00
    9   15   19     -0.44      0.00
   10   15   19      0.00      0.00
    7   16   19     -0.42      0.00
    8   16   19      0.56      0.00
    9   16   19      0.05      0.00
   10   16   19      0.08      0.00
    7   17   19      0.96      0.00
    8   17   19      0.09      0.00
    9   17   19      0.15      0.00
    5   18   19     -0.06      0.00
    6   18   19     -0.45      0.00
    7   18   19     -0.98      0.00
    8   18   19     -0.14      0.00
    4   19   19      0.11      0.00
    5   19   19      0.51      0.00
    6   19   19     -0.41      0.00
    7   19   19     -0.06      0.00
    8   19   19      0.49      0.00
    1   20   19      0.28      0.00
    2   20   19     -0.19      0.00
    3   20   19      0.17      0.00
    4   20   19      0.11      0.00
    5   20   19      0.65      0.00
    6   20   19     -0.14      0.00
    7   20   19     -0.79      0.00
    1   21   19      0.05      0.00
    2   21   19     -0.29      0.00
    3   21   19      0.83      0.00
    4   21   19     -0.57      0.00
    5   21   19     -0.67      0.00
    6   21   19      0.47      0.00
    1   22   19      0.29      0.00
    2   22   19      0.62      0.00
    3   22   19     -0.04      0.00
    4   22   19     -0.49      0.00
    1   23   19      0.41      0.00
    2   23   19      0.11      0.00
   12    0   20      1.30      0.00
   12    1   20     -0.08      0.00
   13    1   20     -0.10      0.00
   12    2   20      0.04      0.00
   13    2   20      0.11      0.00
   12    3   20      1.57      0.00
   13    3   20      0.26      0.00
   11    4   20     -0.51      0.00
   12    4   20      0.64      0.00
   13    4   20      0.55      0.00
   11    5   20      0.60      0.00
   12    5   20     -0.40      0.00
   13    5   20      0.26      0.00
   11    6   20     -0.26      0.00
   12    6   20      0.31      0.00
   11    7   20     -1.19      0.00
   12    7   20     -0.03      0.00
   11    8   20     -0.28      0.00
   12    8   20     -0.38      0.00
   10    9   20     -0.23      0.00
   11    9   20      0.32      0.00
   12    9   20      0.71      0.00
   10   10   20     -0.38      0.00
   11   10   20      0.63      0.00
   12   10   20      0.22      0.00
   10   11   20     -0.62      0.00
   11   11   20     -0.56      0.00
    9   12   20      0.74      0.00
   10   12   20     -0.81      0.00
   11   12   20      0.36      0.00
    9   13   20     -0.85      0.00
   10   13   20      0.17      0.00
   11   13   20      0.01      0.00
    8   14   20     -0.80      0.00
    9   14   20     -0.65      0.00
   10   14   20      0.01      0.00
    7   15   20     -0.59      0.00
    8   15   20      0.20      0.00
    9   15   20     -0.66      0.00
   10   15   20     -0.02      0.00
    6   16   20     -0.26      0.00
    7   16   20      0.91      0.00
    8   16   20      0.27      0.00
    9   16   20      0.26      0.00
    5   17   20     -0.29      0.00
    6   17   20     -1.66      0.00
    7   17   20     -0.11      0.00
    8   17   20      0.48      0.00
    4   18   20     -0.27      0.00
    5   18   20     -0.02      0.00
    6   18   20     -0.54      0.00
    7   18   20      0.84      0.00
    8   18   20     -0.54      0.00
    0   19   20      0.74      0.00
    1   19   20     -0.04      0.00
    2   19   20      0.49      0.00
    3   19   20      0.24      0.00
    4   19   20      0.88      0.00
    5   19   20      0.34      0.00
    6   19   20     -0.02      0.00
    7   19   20      0.13      0.00
    0   20   20      1.19      0.00
    1   20   20      0.57      0.00
    2   20   20     -0.28      0.00
    3   20   20     -0.80      0.00
    4   20   20      0.23      0.00
    5   20   20     -0.38      0.00
    6   20   20      0.31      0.00
    0   21   20      0.26      0.00
    1   21   20      0.57      0.00
    2   21   20     -0.02      0.00
    3   21   20      0.12      0.00
    4   21   20     -0.27      0.00
    5   21   20      0.08      0.00
    0   22   20     -0.46      0.00
    1   22   20     -0.13      0.00
    2   22   20      0.10      0.00
    3   22   20      0.73      0.00
   12    0   21     -1.06      0.00
   11    1   21      0.07      0.00
   12    1   21     -0.29      0.00
   11    2   21      0.38      0.00
   12    2   21     -0.14      0.00
   11    3   21     -0.34      0.00
   12    3   21      0.19      0.00
   11    4   21     -0.27      0.00
   12    4   21      0.59      0.00
   11    5   21     -0.03      0.00
   12    5   21     -0.14      0.00
   11    6   21     -0.19      0.00
   12    6   21      0.21      0.00
   10    7   21      1.15      0.00
   11    7   21      1.02      0.00
   12    7   21     -0.22      0.00
   10    8   21     -0.02      0.00
   11    8   21      0.93      0.00
   12    8   21     -0.41      0.00
   10    9   21     -0.25      0.00
   11    9   21     -0.59      0.00
    9   10   21     -0.56      0.00
   10   10   21     -0.08      0.00
   11   10   21     -0.05      0.00
    9   11   21      0.01      0.00
   10   11   21     -0.23      0.00
   11   11   21      0.71      0.00
    8   12   21      0.24      0.00
    9   12   21     -0.19      0.00
   10   12   21      0.29      0.00
    8   13   21     -0.76      0.00
    9   13   21     -0.54      0.00
   10   13   21      0.15      0.00
    7   14   21     -0.30      0.00
    8   14   21      0.53      0.00
    9   14   21      0.54      0.00
   10   14   21     -0.42      0.00
    6   15   21      0.43      0.00
    7   15   21      0.53      0.00
    8   15   21      0.01      0.00
    9   15   21     -0.26      0.00
    5   16   21     -1.38      0.00
    6   16   21      0.43      0.00
    7   16   21      0.78      0.00
    8   16   21     -0.25      0.00
    4   17   21     -0.52      0.00
    5   17   21      0.03      0.00
    6   17   21     -0.72      0.00
    7   17   21      0.34      0.00
    8   17   21     -0.45      0.00
    1   18   21     -0.25      0.00
    2   18   21     -0.04      0.00
    3   18   21     -0.97      0.00
    4   18   21      0.36      0.00
    5   18   21     -0.11      0.00
    6   18   21     -0.62      0.00
    7   18   21     -0.07      0.00
    1   19   21     -0.72      0.00
    2   19   21      0.14      0.00
    3   19   21     -0.30      0.00
    4   19   21     -0.24      0.00
    5   19   21     -0.13      0.00
    6   19   21      0.60      0.00
    1   20   21     -0.37      0.00
    2   20   21     -0.45      0.00
    3   20   21      0.87      0.00
    4   20   21     -0.24      0.00
    5   20   21     -0.37      0.00
    1   21   21     -0.23      0.00
    2   21   21      0.18      0.00
    3   21   21      0.62      0.00
   10    0   22      0.30      0.00
   12    0   22     -1.09      0.00
   10    1   22     -0.66      0.00
   11    1   22      0.08      0.00
   12    1   22     -0.14      0.00
   10    2   22      0.68      0.00
   11    2   22      1.30      0.00
   12    2   22      0.40      0.00
   10    3   22      0.33      0.00
   11    3   22     -0.22      0.00
   12    3   22      0.08      0.00
   10    4   22     -0.04      0.00
   11    4   22     -0.49      0.00
   12    4   22      0.28      0.00
   10    5   22     -0.64      0.00
   11    5   22      0.46      0.00
   12    5   22      0.08      0.00
   10    6   22     -0.18      0.00
   11    6   22     -0.13      0.00
   10    7   22      0.07      0.00
   11    7   22     -0.57      0.00
    9    8   22     -0.48      0.00
   10    8   22      0.22      0.00
   11    8   22      0.13      0.00
    9    9   22      0.43      0.00
   10    9   22      0.88      0.00
   11    9   22      0.54      0.00
    9   10   22      1.37      0.00
   10   10   22      0.00      0.00
    8   11   22      0.00      0.00
    9   11   22     -0.37      0.00
   10   11   22     -0.56      0.00
    8   12   22     -0.25      0.00
    9   12   22     -0.01      0.00
   10   12   22     -0.12      0.00
    7   13   22     -1.13      0.00
    8   13   22      0.97      0.00
    9   13   22     -0.61      0.00
    6   14   22     -0.33      0.00
    7   14   22      0.80      0.00
    8   14   22      0.02      0.00
    9   14   22     -0.10      0.00
    5   15   22      0.15      0.00
    6   15   22      1.15      0.00
    7   15   22      0.55      0.00
    8   15   22     -0.40      0.00
    4   16   22     -0.08      0.00
    5   16   22      0.68      0.00
    6   16   22     -0.28      0.00
    7   16   22      0.01      0.00
    8   16   22     -0.43      0.00
    0   17   22      0.49      0.00
    1   17   22     -0.11      0.00
    2   17   22      0.47      0.00
    3   17   22     -0.56      0.00
    4   17   22      0.21      0.00
    5   17   22      0.08      0.00
    6   17   22      0.21      0.00
    7   17   22      0.78      0.00
    0   18   22     -0.07      0.00
    1   18   22     -0.11      0.00
    2   18   22      0.32      0.00
    3   18   22      0.55      0.00
    4   18   22      0.19      0.00
    5   18   22      0.24      0.00
    6   18   22      0.16      0.00
    0   19   22      0.13      0.00
    1   19   22      0.45      0.00
    2   19   22     -0.48      0.00
    3   19   22     -0.42      0.00
    4   19   22     -0.25      0.00
    5   19   22     -0.16      0.00
    0   20   22      0.27      0.00
    1   20   22     -0.18      0.00
    2   20   22     -0.19      0.00
    3   20   22     -0.09      0.00
    0   21   22     -0.43      0.00
    1   21   22      0.01      0.00
   10    0   23     -0.53      0.00
   10    1   23      0.79      0.00
   11    1   23     -0.10      0.00
   10    2   23     -0.34      0.00
   11    2   23      0.26      0.00
   10    3   23     -0.88      0.00
   11    3   23     -0.12      0.00
    9    4   23      0.37      0.00
   10    4   23      0.01      0.00
   11    4   23     -0.01      0.00
    9    5   23      0.71      0.00
   10    5   23      0.36      0.00
   11    5   23     -0.69      0.00
    9    6   23     -1.11      0.00
   10    6   23      0.10      0.00
   11    6   23     -0.39      0.00
    9    7   23     -0.82      0.00
   10    7   23     -0.20      0.00
   11    7   23      0.00      0.00
    8    8   23      0.43      0.00
    9    8   23     -0.13      0.00
   10    8   23     -0.35      0.00
    8    9   23      0.24      0.00
    9    9   23     -0.64      0.00
   10    9   23     -0.65      0.00
    8   10   23     -0.61      0.00
    9   10   23     -0.22      0.00
   10   10   23      0.02      0.00
    7   11   23      0.98      0.00
    8   11   23      0.13      0.00
    9   11   23     -0.12      0.00
    6   12   23     -0.33      0.00
    7   12   23      0.30      0.00
    8   12   23      0.44      0.00
    9   12   23      0.43      0.00
    6   13   23     -0.55      0.00
    7   13   23      0.09      0.00
    8   13   23      1.05      0.00
    9   13   23     -0.13      0.00
    5   14   23     -0.32      0.00
    6   14   23     -0.36      0.00
    7   14   23     -0.31      0.00
    8   14   23     -0.38      0.00
    3   15   23     -0.09      0.00
    4   15   23      0.44      0.00
    5   15   23      0.04      0.00
    6   15   23      0.47      0.00
    7   15   23      0.61      0.00
    1   16   23     -0.23      0.00
    2   16   23     -0.37      0.00
    3   16   23      0.71      0.00
    4   16   23     -0.17      0.00
    5   16   23      0.10      0.00
    6   16   23      0.00      0.00
    7   16   23      0.08      0.00
    1   17   23      0.12      0.00
    2   17   23      0.89      0.00
    3   17   23     -0.11      0.00
    4   17   23      0.06      0.00
    5   17   23     -0.57      0.00
    6   17   23     -0.66      0.00
    1   18   23      0.31      0.00
    2   18   23      0.31      0.00
    3   18   23     -0.35      0.00
    4   18   23     -0.48      0.00
    5   18   23     -0.03      0.00
    1   19   23     -0.35      0.00
    2   19   23     -0.06      0.00
    3   19   23      0.00      0.00
    1   20   23     -0.54      0.00
   10    0   24     -1.13      0.00
    9    1   24     -1.02      0.00
   10    1   24     -0.14      0.00
   11    1   24     -0.04      0.00
    9    2   24      0.08      0.00
   10    2   24      0.43      0.00
   11    2   24      0.11      0.00
    9    3   24      1.04      0.00
   10    3   24      0.76      0.00
   11    3   24     -0.48      0.00
    9    4   24      0.02      0.00
   10    4   24     -0.28      0.00
   11    4   24     -0.29      0.00
    8    5   24     -0.86      0.00
    9    5   24      0.28      0.00
   10    5   24      0.53      0.00
    8    6   24      0.53      0.00
    9    6   24     -0.90      0.00
   10    6   24      0.37      0.00
    8    7   24      1.82      0.00
    9    7   24     -0.16      0.00
   10    7   24     -0.22      0.00
    8    8   24      0.89      0.00
    9    8   24      0.19      0.00
   10    8   24     -0.49      0.00
    7    9   24      1.34      0.00
    8    9   24     -0.22      0.00
    9    9   24      0.57      0.00
    7   10   24      1.07      0.00
    8   10   24     -0.45      0.00
    9   10   24     -0.72      0.00
    6   11   24      0.32      0.00
    7   11   24      0.34      0.00
    8   11   24     -0.58      0.00
    9   11   24      0.02      0.00
    5   12   24     -0.86      0.00
    6   12   24      0.58      0.00
    7   12   24     -1.18      0.00
    8   12   24     -0.19      0.00
    4   13   24      0.42      0.00
    5   13   24     -0.37      0.00
    6   13   24      0.02      0.00
    7   13   24     -0.04      0.00
    8   13   24      0.15      0.00
    2   14   24      0.59      0.00
    3   14   24      0.70      0.00
    4   14   24      0.46      0.00
    5   14   24      0.58      0.00
    6   14   24      0.03      0.00
    7   14   24      0.03      0.00
    0   15   24     -0.91      0.00
    1   15   24     -0.93      0.00
    2   15   24      0.46      0.00
    3   15   24      0.32      0.00
    4   15   24     -0.04      0.00
    5   15   24     -0.41      0.00
    6   15   24      0.15      0.00
    7   15   24     -0.03      0.00
    0   16   24     -0.82      0.00
    1   16   24     -0.03      0.00
    2   16   24     -0.49      0.00
    3   16   24     -0.49      0.00
    4   16   24     -0.27      0.00
    5   16   24      0.37      0.00
    6   16   24      0.25      0.00
    0   17   24     -0.16      0.00
    1   17   24     -0.17      0.00
    2   17   24      0.53      0.00
    3   17   24     -0.49      0.00
    4   17   24      0.94      0.00
    5   17   24      0.46      0.00
    0   18   24      0.02      0.00
    1   18   24      0.12      0.00
    2   18   24     -0.32      0.00
    3   18   24      0.32      0.00
    0   19   24     -0.28      0.00
    1   19   24      0.08      0.00
    8    0   25      0.16      0.00
   10    0   25      0.45      0.00
    8    1   25      0.42      0.00
    9    1   25      0.54      0.00
   10    1   25      0.07      0.00
    8    2   25      0.94      0.00
    9    2   25      0.11      0.00
   10    2   25     -0.36      0.00
    8    3   25     -0.17      0.00
    9    3   25      0.03      0.00
   10    3   25     -0.36      0.00
    8    4   25     -0.89      0.00
    9    4   25      0.88      0.00
   10    4   25      0.06      0.00
    7    5   25      0.42      0.00
    8    5   25     -0.67      0.00
    9    5   25     -0.27      0.00
   10    5   25     -0.04      0.00
    7    6   25     -0.13      0.00
    8    6   25     -0.33      0.00
    9    6   25     -0.37      0.00
   10    6   25      0.13      0.00
    7    7   25      0.14      0.00
    8    7   25      0.01      0.00
    9    7   25     -0.43      0.00
    6    8   25     -0.66      0.00
    7    8   25     -0.51      0.00
    8    8   25      0.86      0.00
    9    8   25      0.43      0.00
    6    9   25      0.79      0.00
    7    9   25     -0.20      0.00
    8    9   25     -0.75      0.00
    9    9   25      0.07      0.00
    5   10   25      0.69      0.00
    6   10   25      0.12      0.00
    7   10   25     -0.05      0.00
    8   10   25     -0.20      0.00
    4   11   25      0.16      0.00
    5   11   25     -0.56      0.00
    6   11   25      0.10      0.00
    7   11   25      0.10      0.00
    8   11   25      0.11      0.00
    3   12   25      0.49      0.00
    4   12   25      0.13      0.00
    5   12   25     -0.38      0.00
    6   12   25      0.25      0.00
    7   12   25     -0.19      0.00
    1   13   25      1.05      0.00
    2   13   25      0.44      0.00
    3   13   25      0.34      0.00
    4   13   25     -0.08      0.00
    5   13   25     -0.07      0.00
    6   13   25     -0.59      0.00
    7   13   25     -0.50      0.00
    1   14   25      0.45      0.00
    2   14   25      0.55      0.00
    3   14   25      0.30      0.00
    4   14   25      0.35      0.00
    5   14   25      0.38      0.00
    6   14   25     -0.14      0.00
    1   15   25     -0.04      0.00
    2   15   25     -0.04      0.00
    3   15   25     -0.16      0.00
    4   15   25      0.07      0.00
    5   15   25      0.24      0.00
    1   16   25     -0.10      0.00
    2   16   25     -0.51      0.00
    3   16   25     -0.19      0.00
    4   16   25     -0.52      0.00
    1   17   25      0.15      0.00
    2   17   25     -0.37      0.00
    3   17   25     -0.47      0.00
    8    0   26      0.08      0.00
    7    1   26     -0.26      0.00
    8    1   26     -0.63      0.00
    9    1   26      0.54      0.00
    7    2   26     -0.97      0.00
    8    2   26      0.31      0.00
    9    2   26      0.85      0.00
    7    3   26      0.61      0.00
    8    3   26     -0.23      0.00
    9    3   26      0.22      0.00
    6    4   26     -0.17      0.00
    7    4   26      1.42      0.00
    8    4   26     -0.73      0.00
    9    4   26     -0.25      0.00
    6    5   26     -0.59      0.00
    7    5   26     -0.81      0.00
    8    5   26      0.70      0.00
    9    5   26     -0.29      0.00
    6    6   26     -0.06      0.00
    7    6   26     -0.22      0.00
    8    6   26      0.29      0.00
    9    6   26     -0.14      0.00
    5    7   26     -0.19      0.00
    6    7   26      1.68      0.00
    7    7   26     -0.52      0.00
    8    7   26      0.24      0.00
    5    8   26      0.23      0.00
    6    8   26      0.09      0.00
    7    8   26      0.01      0.00
    8    8   26     -0.07      0.00
    4    9   26      0.56      0.00
    5    9   26      0.14      0.00
    6    9   26     -0.59      0.00
    7    9   26      0.23      0.00
    8    9   26     -0.17      0.00
    3   10   26      0.50      0.00
    4   10   26     -0.72      0.00
    5   10   26      0.18      0.00
    6   10   26      0.90      0.00
    7   10   26     -0.17      0.00
    0   11   26     -1.07      0.00
    1   11   26     -0.32      0.00
    2   11   26     -0.10      0.00
    3   11   26     -0.30      0.00
    4   11   26      0.23      0.00
    5   11   26      0.44      0.00
    6   11   26     -0.12      0.00
    7   11   26      0.15      0.00
    0   12   26     -0.53      0.00
    1   12   26     -0.07      0.00
    2   12   26      0.26      0.00
    3   12   26      0.02      0.00
    4   12   26     -0.10      0.00
    5   12   26     -0.62      0.00
    6   12   26      0.26      0.00
    0   13   26      0.21      0.00
    1   13   26     -0.01      0.00
    2   13   26     -0.01      0.00
    3   13   26      0.32      0.00
    4   13   26     -0.09      0.00
    5   13   26      0.37      0.00
    6   13   26     -0.34      0.00
    0   14   26      0.12      0.00
    1   14   26     -0.22      0.00
    2   14   26      0.47      0.00
    3   14   26      0.46      0.00
    4   14   26     -0.03      0.00
    5   14   26      0.24      0.00
    0   15   26     -0.60      0.00
    1   15   26     -0.03      0.00
    2   15   26      0.33      0.00
    3   15   26      0.02      0.00
    4   15   26      0.11      0.00
    0   16   26      0.39      0.00
    1   16   26      0.28      0.00
    2   16   26      0.03      0.00
    6    0   27     -0.28      0.00
    8    0   27      0.54      0.00
    6    1   27     -0.45      0.00
    7    1   27     -0.18      0.00
    8    1   27      0.21      0.00
    9    1   27     -0.32      0.00
    5    2   27      0.01      0.00
    6    2   27      0.48      0.00
    7    2   27      0.12      0.00
    8    2   27      0.71      0.00
    5    3   27      0.21      0.00
    6    3   27      0.07      0.00
    7    3   27      0.57      0.00
    8    3   27     -0.77      0.00
    5    4   27     -0.65      0.00
    6    4   27     -0.53      0.00
    7    4   27      0.29      0.00
    8    4   27     -0.06      0.00
    5    5   27     -0.72      0.00
    6    5   27      0.48      0.00
    7    5   27      0.16      0.00
    8    5   27     -0.01      0.00
    4    6   27      0.34      0.00
    5    6   27      0.69      0.00
    6    6   27      0.37      0.00
    7    6   27     -0.20      0.00
    8    6   27      0.04      0.00
    3    7   27     -0.38      0.00
    4    7   27     -0.82      0.00
    5    7   27      0.94      0.00
    6    7   27     -0.85      0.00
    7    7   27     -0.21      0.00
    8    7   27      0.68      0.00
    2    8   27      0.08      0.00
    3    8   27     -0.49      0.00
    4    8   27      0.30      0.00
    5    8   27     -0.28      0.00
    6    8   27     -0.30      0.00
    7    8   27     -0.15      0.00
    1    9   27      0.65      0.00
    2    9   27     -0.42      0.00
    3    9   27     -0.02      0.00
    4    9   27     -0.12      0.00
    5    9   27      0.13      0.00
    6    9   27      0.25      0.00
    7    9   27     -0.32      0.00
    1   10   27     -0.43      0.00
    2   10   27      0.31      0.00
    3   10   27      0.09      0.00
    4   10   27      0.29      0.00
    5   10   27     -0.33      0.00
    6   10   27     -0.25      0.00
    1   11   27     -0.36      0.00
    2   11   27      0.15      0.00
    3   11   27     -0.04      0.00
    4   11   27     -0.20      0.00
    5   11   27      0.17      0.00
    6   11   27      0.37      0.00
    1   12   27      1.02      0.00
    2   12   27      0.07      0.00
    3   12   27     -0.03      0.00
    4   12   27      0.34      0.00
    5   12   27     -0.06      0.00
    1   13   27     -0.20      0.00
    2   13   27      0.40      0.00
    3   13   27      0.13      0.00
    4   13   27      0.20      0.00
    1   14   27      0.17      0.00
    2   14   27     -0.11      0.00
    3   14   27     -0.11      0.00
    1   15   27     -0.03      0.00
    4    0   28      0.37      0.00
    6    0   28      0.27      0.00
    8    0   28      0.42      0.00
    3    1   28      0.39      0.00
    4    1   28     -0.26      0.00
    5    1   28     -0.43      0.00
    6    1   28     -0.39      0.00
    7    1   28     -0.23      0.00
    8    1   28     -0.06      0.00
    3    2   28      0.47      0.00
    4    2   28     -0.56      0.00
    5    2   28      0.15      0.00
    6    2   28      0.24      0.00
    7    2   28      0.15      0.00
    3    3   28      0.08      0.00
    4    3   28      0.33      0.00
    5    3   28      0.19      0.00
    6    3   28      0.66      0.00
    7    3   28      0.75      0.00
    2    4   28     -0.16      0.00
    3    4   28      0.04      0.00
    4    4   28      0.59      0.00
    5    4   28      0.14      0.00
    6    4   28     -1.07      0.00
    7    4   28      0.09      0.00
    0    5   28     -1.55      0.00
    1    5   28      0.05      0.00
    2    5   28      0.48      0.00
    3    5   28     -0.47      0.00
    4    5   28      0.21      0.00
    5    5   28      0.28      0.00
    6    5   28     -0.31      0.00
    7    5   28     -0.09      0.00
    0    6   28     -0.12      0.00
    1    6   28      0.61      0.00
    2    6   28     -0.44      0.00
    3    6   28     -0.50      0.00
    4    6   28     -0.33      0.00
    5    6   28      0.34      0.00
    6    6   28      0.35      0.00
    7    6   28     -0.27      0.00
    0    7   28      0.81      0.00
    1    7   28      0.41      0.00
    2    7   28      0.04      0.00
    3    7   28      0.26      0.00
    4    7   28     -1.33      0.00
    5    7   28     -0.43      0.00
    6    7   28      0.38      0.00
    0    8   28      0.17      0.00
    1    8   28      0.15      0.00
    2    8   28      0.36      0.00
    3    8   28     -0.67      0.00
    4    8   28     -0.45      0.00
    5    8   28      0.25      0.00
    6    8   28     -0.25      0.00
    0    9   28     -0.64      0.00
    1    9   28     -0.22      0.00
    2    9   28     -0.27      0.00
    3    9   28     -0.14      0.00
    4    9   28      0.69      0.00
    5    9   28      0.28      0.00
    6    9   28     -0.09      0.00
    0   10   28     -0.02      0.00
    1   10   28      0.33      0.00
    2   10   28     -0.07      0.00
    3   10   28     -0.19      0.00
    4   10   28      0.53      0.00
    5   10   28      0.44      0.00
    0   11   28      0.39      0.00
    1   11   28      0.84      0.00
    2   11   28     -0.12      0.00
    3   11   28      0.16      0.00
    4   11   28     -0.21      0.00
    0   12   28     -0.07      0.00
    1   12   28     -0.31      0.00
    2   12   28      0.20      0.00
    3   12   28     -0.35      0.00
    0   13   28      0.37      0.00
    1   13   28     -0.60      0.00
    2   13   28     -0.50      0.00
    0    0    0      0.00      0.00
# SQUEEZE RESULTS
# Note: Data are Listed for all Voids in the P1 Unit Cell
# i.e. Centre of Gravity, Solvent Accessible Volume,
# Recovered number of Electrons in the Void and
# Details about the Squeezed Material
loop_
  _platon_squeeze_void_nr
  _platon_squeeze_void_average_x
  _platon_squeeze_void_average_y
  _platon_squeeze_void_average_z
  _platon_squeeze_void_volume
  _platon_squeeze_void_count_electrons
  _platon_squeeze_void_content
   1 -0.033  0.002  0.000      3785       256 ' '
_platon_squeeze_details
(replace by semicolon in column 1 when used as .sqf)
TITL pcan in Pcan
CELL   13.2144   22.3311   23.9725     90.00     90.00     90.00
SPGR Pbcn   .ba-c
# Solvent Accessible Volume =    3789.6
# Electrons Found in S.A.V. =     253.1
# Note: Atoms in Void as Cxxx and Qxxx all others
Q101 0.266 0.276 0.273 !       1.02 eA-3
Q102 0.811 0.790 0.311 !       0.83 eA-3
Q103 0.276 0.257 0.744 !       0.81 eA-3
C104 0.678 0.006 0.758 !       0.62 eA-3
Q105 0.528 0.998 0.509 !       0.61 eA-3
C106 0.125 0.492 0.753 !       0.60 eA-3
C107 0.967 0.016 0.256 !       0.59 eA-3
Q108 0.773 0.231 0.181 !       0.58 eA-3
C109 0.470 0.493 0.334 !       0.57 eA-3
C110 0.653 0.979 0.773 !       0.56 eA-3
C111 0.429 0.451 0.321 !       0.56 eA-3
Q112 0.169 0.459 0.507 !       0.55 eA-3
C113 0.928 0.992 0.297 !       0.54 eA-3
C114 0.024 0.079 0.748 !       0.54 eA-3
C115 0.855 0.273 0.031 !       0.53 eA-3
C116 0.601 0.561 0.592 !       0.52 eA-3
C117 0.538 0.393 0.713 !       0.52 eA-3
C118 0.650 0.019 0.796 !       0.51 eA-3
C119 0.118 0.517 0.681 !       0.51 eA-3
C120 0.377 0.422 0.428 !       0.50 eA-3
Q121 0.845 0.741 0.337 !       0.50 eA-3
(replace by semicolon in column 1 when used as .sqf)
;
_shelx_fab_checksum              60504
loop_
_space_group_symop_operation_xyz
'x, y, z'
'-x+1/2, -y+1/2, z+1/2'
'x, -y, -z+1/2'
'-x+1/2, y+1/2, -z'
'-x, -y, -z'
'x-1/2, y-1/2, -z-1/2'
'-x, y, z-1/2'
'x-1/2, -y-1/2, z'
loop_
_atom_site_label
_atom_site_type_symbol
_atom_site_fract_x
_atom_site_fract_y
_atom_site_fract_z
_atom_site_U_iso_or_equiv
_atom_site_adp_type
_atom_site_occupancy
_atom_site_site_symmetry_order
_atom_site_calc_flag
_atom_site_refinement_flags_posn
_atom_site_refinement_flags_adp
_atom_site_refinement_flags_occupancy
Cu1 Cu 0.41341(4) 0.02957(2) 0.00242(2) 0.0441(2) Uani 1 1 d . . .
O4 O 1.0098(2) 0.40510(10) 0.46737(10) 0.0575(7) Uani 1 1 d . . .
O1 O 0.4637(2) 0.05596(12) 0.07559(10) 0.0597(7) Uani 1 1 d . . .
O2 O 0.6099(2) 0.00467(12) 0.07183(10) 0.0611(8) Uani 1 1 d . . .
O1W O 0.2721(3) 0.07734(15) 0.00994(12) 0.0778(9) Uani 1 1 d . . .
C19 C 0.9181(4) 0.40981(18) 0.45562(14) 0.0510(10) Uani 1 1 d . . .
C1 C 0.5477(4) 0.03972(16) 0.09508(14) 0.0512(10) Uani 1 1 d . . .
C2 C 0.5772(4) 0.06515(17) 0.15067(15) 0.0606(12) Uani 1 1 d . . .
N2 N 0.7238(3) 0.20696(15) 0.36002(13) 0.0690(11) Uani 1 1 d . . .
C16 C 0.8678(3) 0.35651(16) 0.42939(15) 0.0542(10) Uani 1 1 d . . .
N1 N 0.6623(3) 0.14340(14) 0.30216(13) 0.0688(11) Uani 1 1 d . . .
C6 C 0.6314(4) 0.11538(19) 0.25073(15) 0.0630(12) Uani 1 1 d . . .
C3 C 0.5119(4) 0.1047(2) 0.17837(17) 0.0764(14) Uani 1 1 d . . .
H3 H 0.4482 0.1142 0.1623 0.092 Uiso 1 1 calc R U .
C12 C 0.7717(4) 0.25960(19) 0.38268(16) 0.0652(13) Uani 1 1 d . . .
C17 C 0.9152(4) 0.30251(19) 0.4285(2) 0.0764(14) Uani 1 1 d . . .
H17 H 0.9816 0.2985 0.4432 0.092 Uiso 1 1 calc R U .
C8 C 0.6693(4) 0.05079(19) 0.17447(16) 0.0657(12) Uani 1 1 d . . .
H8 H 0.7138 0.0237 0.1562 0.079 Uiso 1 1 calc R U .
C10 C 0.6433(4) 0.12255(19) 0.35502(15) 0.0795(16) Uani 1 1 d . . .
H10 H 0.6096 0.0863 0.3643 0.095 Uiso 1 1 calc R U .
C11 C 0.6805(4) 0.16182(18) 0.39058(16) 0.0751(15) Uani 1 1 d . . .
H11 H 0.6777 0.1593 0.4301 0.090 Uiso 1 1 calc R U .
C7 C 0.6963(4) 0.0759(2) 0.22448(17) 0.0745(14) Uani 1 1 d . . .
H7 H 0.7595 0.0661 0.2411 0.089 Uiso 1 1 calc R U .
C4 C 0.5389(5) 0.1298(2) 0.22846(19) 0.0805(15) Uani 1 1 d . . .
C13 C 0.7235(4) 0.3139(2) 0.3806(2) 0.0839(15) Uani 1 1 d . . .
C9 C 0.7128(4) 0.1957(2) 0.30513(17) 0.0762(14) Uani 1 1 d . . .
C15 C 0.7746(4) 0.3626(2) 0.4051(2) 0.0765(14) Uani 1 1 d . . .
H15 H 0.7434 0.4010 0.4046 0.092 Uiso 1 1 calc R U .
C18 C 0.8650(4) 0.25277(19) 0.4058(2) 0.0828(15) Uani 1 1 d . . .
H18 H 0.8961 0.2144 0.4065 0.099 Uiso 1 1 calc R U .
O3 O 0.8634(2) 0.45545(12) 0.46295(11) 0.0602(7) Uani 1 1 d . . .
C14 C 0.6211(6) 0.3218(3) 0.3533(4) 0.144(3) Uani 1 1 d . . .
H14A H 0.6274 0.3156 0.3130 0.216 Uiso 1 1 calc R U .
H14B H 0.5962 0.3624 0.3605 0.216 Uiso 1 1 calc R U .
H14C H 0.5734 0.2926 0.3688 0.216 Uiso 1 1 calc R U .
C5 C 0.4683(6) 0.1743(3) 0.2579(3) 0.142(3) Uani 1 1 d . . .
H5A H 0.3989 0.1684 0.2447 0.214 Uiso 1 1 calc R U .
H5B H 0.4900 0.2153 0.2497 0.214 Uiso 1 1 calc R U .
H5C H 0.4710 0.1675 0.2983 0.214 Uiso 1 1 calc R U .
Cu2 Cu 0.7275(3) 0.24807(14) 0.24402(11) 0.160(2) Uani 0.309(3) 1 d . . P
Cl1 Cl 0.7430(9) 0.3086(5) 0.1717(6) 0.240 Uiso 0.309(3) 1 d . U P
loop_
_atom_site_aniso_label
_atom_site_aniso_U_11
_atom_site_aniso_U_22
_atom_site_aniso_U_33
_atom_site_aniso_U_23
_atom_site_aniso_U_13
_atom_site_aniso_U_12
Cu1 0.0714(4) 0.0292(3) 0.0318(3) 0.00174(16) -0.0011(2) -0.0120(2)
O4 0.084(2) 0.0322(15) 0.0565(17) -0.0111(12) -0.0036(15) -0.0108(14)
O1 0.088(2) 0.0522(17) 0.0389(14) -0.0112(12) -0.0069(15) -0.0040(16)
O2 0.095(2) 0.0456(17) 0.0428(14) -0.0106(13) -0.0104(14) -0.0061(15)
O1W 0.088(2) 0.075(2) 0.0703(19) 0.0128(15) 0.0068(16) 0.0078(17)
C19 0.080(3) 0.043(2) 0.0302(18) -0.0051(16) 0.000(2) -0.016(2)
C1 0.088(3) 0.033(2) 0.0324(19) 0.0019(16) 0.003(2) -0.015(2)
C2 0.104(4) 0.037(2) 0.041(2) -0.0003(17) -0.003(2) -0.029(2)
N2 0.112(3) 0.054(2) 0.0411(17) -0.0110(15) -0.0009(18) -0.035(2)
C16 0.085(3) 0.035(2) 0.0422(19) -0.0065(16) -0.004(2) -0.015(2)
N1 0.114(3) 0.047(2) 0.0450(17) -0.0103(15) -0.0036(19) -0.036(2)
C6 0.101(4) 0.051(3) 0.037(2) -0.0083(19) -0.003(2) -0.027(3)
C3 0.103(4) 0.072(3) 0.053(2) -0.027(2) -0.007(2) -0.007(3)
C12 0.102(4) 0.052(3) 0.042(2) -0.0140(19) 0.000(2) -0.031(3)
C17 0.089(3) 0.049(3) 0.091(3) -0.020(2) -0.017(3) -0.014(2)
C8 0.098(4) 0.050(3) 0.049(2) -0.0133(19) -0.009(2) -0.007(2)
C10 0.154(5) 0.046(3) 0.038(2) -0.0010(18) 0.001(2) -0.046(3)
C11 0.137(4) 0.051(3) 0.037(2) 0.0019(19) -0.004(2) -0.034(3)
C7 0.108(4) 0.063(3) 0.052(2) -0.009(2) -0.014(2) -0.016(3)
C4 0.123(5) 0.063(3) 0.056(3) -0.026(2) 0.000(3) -0.007(3)
C13 0.118(4) 0.051(3) 0.083(3) -0.015(2) -0.029(3) -0.010(3)
C9 0.123(4) 0.058(3) 0.048(2) -0.017(2) 0.000(2) -0.034(3)
C15 0.102(4) 0.048(3) 0.080(3) -0.012(2) -0.012(3) -0.020(2)
C18 0.120(4) 0.037(3) 0.091(3) -0.021(2) -0.016(3) -0.009(3)
O3 0.080(2) 0.0404(16) 0.0606(17) -0.0141(13) -0.0028(15) -0.0147(15)
C14 0.133(6) 0.102(5) 0.198(8) -0.026(5) -0.065(6) -0.019(4)
C5 0.171(7) 0.153(7) 0.104(5) -0.076(5) -0.030(5) 0.037(5)
Cu2 0.240(4) 0.144(3) 0.096(2) -0.0257(19) 0.033(2) -0.117(3)
loop_
_atom_type_symbol
_atom_type_description
_atom_type_scat_dispersion_real
_atom_type_scat_dispersion_imag
_atom_type_scat_source
C C 0.0033 0.0016 'International Tables Vol C Tables 4.2.6.8 and 6.1.1.4'
H H 0.0000 0.0000 'International Tables Vol C Tables 4.2.6.8 and 6.1.1.4'
N N 0.0061 0.0033 'International Tables Vol C Tables 4.2.6.8 and 6.1.1.4'
O O 0.0106 0.0060 'International Tables Vol C Tables 4.2.6.8 and 6.1.1.4'
Cl Cl 0.1484 0.1585 'International Tables Vol C Tables 4.2.6.8 and 6.1.1.4'
Cu Cu 0.3201 1.2651 'International Tables Vol C Tables 4.2.6.8 and 6.1.1.4'
loop_
_geom_angle_atom_site_label_1
_geom_angle_atom_site_label_2
_geom_angle_atom_site_label_3
_geom_angle
_geom_angle_site_symmetry_1
_geom_angle_site_symmetry_3
O2 Cu1 O3 90.13(11) 5_655 6_556
O2 Cu1 O1 168.37(12) 5_655 .
O3 Cu1 O1 89.38(11) 6_556 .
O2 Cu1 O4 88.99(11) 5_655 2_654
O3 Cu1 O4 168.20(12) 6_556 2_654
O1 Cu1 O4 89.11(11) . 2_654
O2 Cu1 O1W 97.63(12) 5_655 .
O3 Cu1 O1W 95.15(12) 6_556 .
O1 Cu1 O1W 93.98(12) . .
O4 Cu1 O1W 96.63(12) 2_654 .
O2 Cu1 Cu1 84.33(9) 5_655 5_655
O3 Cu1 Cu1 83.64(9) 6_556 5_655
O1 Cu1 Cu1 84.07(9) . 5_655
O4 Cu1 Cu1 84.56(9) 2_654 5_655
O1W Cu1 Cu1 177.71(8) . 5_655
C19 O4 Cu1 122.3(2) . 2_655
C1 O1 Cu1 122.9(2) . .
C1 O2 Cu1 122.6(3) . 5_655
O4 C19 O3 126.3(3) . .
O4 C19 C16 117.2(4) . .
O3 C19 C16 116.4(4) . .
O1 C1 O2 126.0(3) . .
O1 C1 C2 116.8(4) . .
O2 C1 C2 117.2(4) . .
C8 C2 C3 119.5(4) . .
C8 C2 C1 120.6(4) . .
C3 C2 C1 119.9(4) . .
C9 N2 C11 109.8(3) . .
C9 N2 C12 124.6(3) . .
C11 N2 C12 125.6(3) . .
C17 C16 C15 119.8(4) . .
C17 C16 C19 120.4(4) . .
C15 C16 C19 119.8(4) . .
C9 N1 C10 109.6(3) . .
C9 N1 C6 124.2(3) . .
C10 N1 C6 126.2(3) . .
C4 C6 C7 121.7(4) . .
C4 C6 N1 118.9(4) . .
C7 C6 N1 119.4(5) . .
C4 C3 C2 120.8(5) . .
C18 C12 C13 122.4(4) . .
C18 C12 N2 117.4(4) . .
C13 C12 N2 120.2(5) . .
C16 C17 C18 119.3(5) . .
C7 C8 C2 119.7(4) . .
C11 C10 N1 107.7(4) . .
C10 C11 N2 107.4(3) . .
C8 C7 C6 119.8(5) . .
C3 C4 C6 118.4(5) . .
C3 C4 C5 120.6(6) . .
C6 C4 C5 121.0(4) . .
C12 C13 C15 116.5(5) . .
C12 C13 C14 122.4(5) . .
C15 C13 C14 121.1(5) . .
N2 C9 N1 105.5(4) . .
N2 C9 Cu2 129.2(3) . .
N1 C9 Cu2 123.2(3) . .
C16 C15 C13 122.0(5) . .
C12 C18 C17 119.9(4) . .
C19 O3 Cu1 123.1(3) . 6_666
C9 Cu2 Cl1 179.1(4) . .
loop_
_geom_bond_atom_site_label_1
_geom_bond_atom_site_label_2
_geom_bond_distance
_geom_bond_site_symmetry_2
Cu1 O2 1.961(2) 5_655
Cu1 O3 1.966(2) 6_556
Cu1 O1 1.966(2) .
Cu1 O4 1.966(2) 2_654
Cu1 O1W 2.158(3) .
Cu1 Cu1 2.6447(10) 5_655
O4 C19 1.249(5) .
O4 Cu1 1.966(2) 2_655
O1 C1 1.258(5) .
O2 C1 1.264(5) .
O2 Cu1 1.962(2) 5_655
C19 O3 1.262(5) .
C19 C16 1.501(5) .
C1 C2 1.500(5) .
C2 C8 1.382(6) .
C2 C3 1.402(6) .
N2 C9 1.347(5) .
N2 C11 1.371(5) .
N2 C12 1.442(5) .
C16 C17 1.359(6) .
C16 C15 1.369(6) .
N1 C9 1.347(5) .
N1 C10 1.373(5) .
N1 C6 1.442(5) .
C6 C4 1.372(7) .
C6 C7 1.382(6) .
C3 C4 1.373(6) .
C12 C18 1.360(7) .
C12 C13 1.370(7) .
C17 C18 1.404(6) .
C8 C7 1.370(5) .
C10 C11 1.318(5) .
C4 C5 1.534(8) .
C13 C15 1.409(6) .
C13 C14 1.514(8) .
C9 Cu2 1.885(5) .
O3 Cu1 1.966(2) 6_666
Cu2 Cl1 2.207(13) .
