#------------------------------------------------------------------------------
#$Date: 2019-11-08 01:47:03 +0200 (Fri, 08 Nov 2019) $
#$Revision: 224573 $
#$URL: file:///home/coder/svn-repositories/cod/cif/7/04/91/7049139.cif $
#------------------------------------------------------------------------------
#
# This file is available in the Crystallography Open Database (COD),
# http://www.crystallography.net/
#
# All data on this site have been placed in the public domain by the
# contributors.
#
data_7049139
loop_
_publ_author_name
'Zhai, Zhi-Wei'
'Yang, Shuang-Hua'
'Lv, Ya-Ru'
'Du, Chen-Xia'
'Li, Lin-Ke'
'Zang, Shuang-Quan'
_publ_section_title
;
 Amino functionalized Zn/Cd-metal-organic frameworks for selective
 CO<sub>2</sub> adsorption and Knoevenagel condensation reactions.
;
_journal_issue                   12
_journal_name_full
'Dalton transactions (Cambridge, England : 2003)'
_journal_page_first              4007
_journal_page_last               4014
_journal_paper_doi               10.1039/c9dt00391f
_journal_volume                  48
_journal_year                    2019
_chemical_formula_moiety         'C22 H13 Cd N5 O4 S2, 0.5[H2O], 1[C3H7NO]'
_chemical_formula_sum            'C25 H21 Cd N6 O5.5 S2'
_chemical_formula_weight         670.01
_space_group_crystal_system      monoclinic
_space_group_IT_number           14
_space_group_name_Hall           '-P 2yn'
_space_group_name_H-M_alt        'P 1 21/n 1'
_symmetry_space_group_name_Hall  '-P 2yn'
_symmetry_space_group_name_H-M   'P 1 21/n 1'
_atom_sites_solution_hydrogens   geom
_atom_sites_solution_primary     dual
_audit_creation_date             2019-02-16
_audit_creation_method
;
Olex2 1.2
(compiled 2018.05.29 svn.r3508 for OlexSys, GUI svn.r5506)
;
_audit_update_record
;
2019-02-17 deposited with the CCDC.    2019-02-25 downloaded from the CCDC.
;
_cell_angle_alpha                90
_cell_angle_beta                 100.8040(10)
_cell_angle_gamma                90
_cell_formula_units_Z            4
_cell_length_a                   13.56520(10)
_cell_length_b                   14.40230(10)
_cell_length_c                   13.93520(10)
_cell_measurement_reflns_used    9254
_cell_measurement_temperature    149.99(10)
_cell_measurement_theta_max      73.9630
_cell_measurement_theta_min      3.0680
_cell_volume                     2674.26(3)
_computing_cell_refinement       'CrysAlisPro 1.171.39.7b (Rigaku OD, 2015)'
_computing_data_collection       'CrysAlisPro 1.171.39.7b (Rigaku OD, 2015)'
_computing_data_reduction        'CrysAlisPro 1.171.39.7b (Rigaku OD, 2015)'
_computing_molecular_graphics    'Olex2 (Dolomanov et al., 2009)'
_computing_publication_material  'Olex2 (Dolomanov et al., 2009)'
_computing_structure_refinement  'ShelXL (Sheldrick, 2015)'
_computing_structure_solution    'ShelXT (Sheldrick, 2015)'
_diffrn_ambient_environment      N~2~
_diffrn_ambient_temperature      149.99(10)
_diffrn_detector                 'CCD plate'
_diffrn_measured_fraction_theta_full 0.998
_diffrn_measured_fraction_theta_max 0.969
_diffrn_measurement_details
;
List of Runs (angles in degrees, time in seconds):

  # Type    Start    End  Width  t~exp~   \w     \q     \k     \f   Frames
#--------------------------------------------------------------------------
  1  \w    -88.00  13.00   0.50    0.50    --    0.00 -19.00 -90.00  202
  2  \w    -22.00  33.00   0.50    0.50    --    0.00  57.00 120.00  110
  3  \w    -32.00  -6.00   0.50    0.50    --    0.00 -38.00-120.00   52
  4  \w    -89.00 -51.00   0.50    0.50    --    0.00 -38.00-120.00   76
  5  \w      6.00 118.00   0.50    0.84    --   95.20 -61.00  90.00  224
  6  \w     31.00 120.00   0.50    0.84    --   95.20 -61.00-120.00  178
  7  \w     31.00  73.00   0.50    0.84    --   95.20 -77.00  90.00   84
  8  \w     76.00 116.00   0.50    0.84    --   95.20  15.00 -60.00   80
  9  \w     18.00  44.00   0.50    0.84    --   95.20 -77.00-150.00   52
 10  \w     44.00 122.00   0.50    0.84    --   95.20 -82.00-120.00  156
 11  \w     88.00 126.00   0.50    0.84    --   95.20 -77.00  90.00   76
 12  \w     49.00 110.00   0.50    0.84    --   95.20 -30.00 120.00  122
 13  \w     68.00 102.00   0.50    0.84    --   95.20 -30.00 -90.00   68
 14  \w      6.00  45.00   0.50    0.84    --   95.20 -30.00 120.00   78
;
_diffrn_measurement_device       'four-circle diffractometer'
_diffrn_measurement_device_type  'XtaLAB Pro: Kappa single'
_diffrn_measurement_method       '\w scans'
_diffrn_orient_matrix_type
'CrysAlisPro convention (1999,Acta A55,543-557)'
_diffrn_orient_matrix_UB_11      0.0726647000
_diffrn_orient_matrix_UB_12      -0.0393359000
_diffrn_orient_matrix_UB_13      -0.0625438000
_diffrn_orient_matrix_UB_21      0.0885452000
_diffrn_orient_matrix_UB_22      0.0146139000
_diffrn_orient_matrix_UB_23      0.0856378000
_diffrn_orient_matrix_UB_31      -0.0159408000
_diffrn_orient_matrix_UB_32      -0.0983451000
_diffrn_orient_matrix_UB_33      0.0377250000
_diffrn_radiation_monochromator  graphite
_diffrn_radiation_probe          x-ray
_diffrn_radiation_type           CuK\a
_diffrn_radiation_wavelength     1.54184
_diffrn_reflns_av_R_equivalents  0.0375
_diffrn_reflns_av_unetI/netI     0.0408
_diffrn_reflns_Laue_measured_fraction_full 0.998
_diffrn_reflns_Laue_measured_fraction_max 0.969
_diffrn_reflns_limit_h_max       16
_diffrn_reflns_limit_h_min       -16
_diffrn_reflns_limit_k_max       9
_diffrn_reflns_limit_k_min       -17
_diffrn_reflns_limit_l_max       17
_diffrn_reflns_limit_l_min       -13
_diffrn_reflns_number            14867
_diffrn_reflns_point_group_measured_fraction_full 0.998
_diffrn_reflns_point_group_measured_fraction_max 0.969
_diffrn_reflns_theta_full        67.684
_diffrn_reflns_theta_max         74.004
_diffrn_reflns_theta_min         4.174
_diffrn_source                   'fine-focus sealed X-ray tube'
_diffrn_source_type              'Enhance (Cu) X-ray Source'
_exptl_absorpt_coefficient_mu    8.438
_exptl_absorpt_correction_T_max  1.00000
_exptl_absorpt_correction_T_min  0.46808
_exptl_absorpt_correction_type   multi-scan
_exptl_absorpt_process_details
;
CrysAlisPro 1.171.39.7b (Rigaku Oxford Diffraction, 2015)
Empirical absorption correction using spherical harmonics,
 implemented in SCALE3 ABSPACK scaling algorithm.
;
_exptl_crystal_colour            'light yellow'
_exptl_crystal_colour_modifier   light
_exptl_crystal_colour_primary    yellow
_exptl_crystal_density_diffrn    1.664
_exptl_crystal_description       block
_exptl_crystal_F_000             1168
_exptl_crystal_size_max          0.2
_exptl_crystal_size_mid          0.1
_exptl_crystal_size_min          0.05
_refine_diff_density_max         1.275
_refine_diff_density_min         -1.715
_refine_diff_density_rms         0.100
_refine_ls_extinction_method     none
_refine_ls_goodness_of_fit_ref   1.097
_refine_ls_hydrogen_treatment    constr
_refine_ls_matrix_type           full
_refine_ls_number_parameters     317
_refine_ls_number_reflns         5251
_refine_ls_number_restraints     0
_refine_ls_restrained_S_all      1.097
_refine_ls_R_factor_all          0.0428
_refine_ls_R_factor_gt           0.0397
_refine_ls_shift/su_max          0.004
_refine_ls_shift/su_mean         0.000
_refine_ls_structure_factor_coef Fsqd
_refine_ls_weighting_details
;
 w=1/[\s^2^(Fo^2^)+(0.0765P)^2^]
 where P=(Fo^2^+2Fc^2^)/3
;
_refine_ls_weighting_scheme      calc
_refine_ls_wR_factor_gt          0.1120
_refine_ls_wR_factor_ref         0.1140
_reflns_Friedel_coverage         0.000
_reflns_number_gt                4722
_reflns_number_total             5251
_reflns_threshold_expression     'I > 2\s(I)'
_cod_data_source_file            c9dt00391f2.cif
_cod_data_source_block           20170629e2-hy
_cod_depositor_comments
'Adding full bibliography for 7049138--7049139.cif.'
_cod_database_code               7049139
_shelxl_version_number           2013-2
_chemical_oxdiff_formula         'C H O N S Cd'
_shelx_space_group_comment
;
The symmetry employed for this shelxl refinement is uniquely defined
by the following loop, which should always be used as a source of
symmetry information in preference to the above space-group names.
They are only intended as comments.
;
_shelx_estimated_absorpt_t_max   0.682
_shelx_estimated_absorpt_t_min   0.288
_reflns_odcompleteness_completeness 99.98
_reflns_odcompleteness_iscentric 1
_reflns_odcompleteness_theta     66.97
_olex2_refinement_description
;
1. Fixed Uiso
 At 1.2 times of:
  All C(H) groups, All N(H,H) groups
2. Shared sites
{C3A, C3B}
{C4A, C4B}
3. Uiso/Uaniso restraints and constraints
Uanis(C4A) = Uanis(C4B)
Uanis(C3A) = Uanis(C3B)
4. Others
 Sof(N5B)=Sof(H5Ba)=Sof(H5Bb)=Sof(C4A)=Sof(C3B)=Sof(H3B)=1-FVAR(1)
 Sof(N5A)=Sof(H5Aa)=Sof(H5Ab)=Sof(C3A)=Sof(C4B)=Sof(H4B)=FVAR(1)
5.a Aromatic/amide H refined with riding coordinates:
 C9(H9), C13(H13), C19(H19), C10(H10), C21(H21), C12(H12), C7(H7), C18(H18),
 C22(H22), C6(H6), C4B(H4B), C3B(H3B)
5.b X=CH2 refined with riding coordinates:
 N5A(H5Aa,H5Ab), N5B(H5Ba,H5Bb)
;
_shelx_res_file
;
TITL 20170629e2-hy_a.res in P2(1)/n
REM Old TITL 20170629E2-hy in P2(1)/n
REM SHELXT solution in P2(1)/n
REM R1 0.093, Rweak 0.005, Alpha 0.050, Orientation as input
REM Formula found by SHELXT: C25 N4 O4 S2 Cd
CELL 1.54184 13.5652 14.4023 13.9352 90 100.804 90
ZERR 4 0.0001 0.0001 0.0001 0 0.001 0
LATT 1
SYMM 0.5-X,0.5+Y,0.5-Z
SFAC C H Cd N O S
UNIT 88 52 4 20 16 8
EQIV $1 2-X,1-Y,2-Z
EQIV $2 0.5+X,1.5-Y,1.5+Z
EQIV $3 0.5+X,1.5-Y,-0.5+Z
EADP C4A C4B
EADP C3A C3B
EXYZ C3A C3B
EXYZ C4A C4B

L.S. 20
PLAN  20
SIZE 0.1 0.2 0.05
FREE Cd1 Cd1_$1
FREE Cd1 Cd1_$2
FREE Cd1 C8_$3
FREE C8 C8_$1
FREE C8 C8_$2
FREE C8 Cd1
BOND $H
LIST 6
MORE -1
CONF
ABIN
fmap 2
acta
REM <olex2.extras>
REM <HklSrc "%.\\20170629E2-hy.hkl">
REM </olex2.extras>

WGHT    0.076500
FVAR       0.27172   0.31885
CD1   3    1.083616    0.604179    0.955491    11.00000    0.02139    0.02853 =
         0.02084   -0.00008    0.00622   -0.00025
S1    6    0.726254    0.523129    0.465863    11.00000    0.02945    0.05289 =
         0.03260    0.00044   -0.00053    0.00289
S2    6    0.446950    0.640486    0.442452    11.00000    0.03190    0.03637 =
         0.03159   -0.00105   -0.00251    0.00163
O1    5    0.999629    0.680124    1.055378    11.00000    0.03088    0.03717 =
         0.02856   -0.00306    0.01281    0.00505
O4    5    0.636995    0.760560    1.377265    11.00000    0.05592    0.03987 =
         0.05715   -0.00041    0.03995   -0.00110
O3    5    0.706118    0.895007    1.357626    11.00000    0.04284    0.04005 =
         0.04702   -0.00731    0.02639    0.00085
O2    5    0.904605    0.554358    1.049047    11.00000    0.05334    0.02458 =
         0.03440   -0.00416    0.01524    0.00284
N1    4    0.952496    0.588922    0.823094    11.00000    0.02857    0.03993 =
         0.02785    0.00178    0.00310   -0.00153
N3    4    0.628512    0.619635    0.576915    11.00000    0.02873    0.03804 =
         0.03412    0.00388   -0.00286   -0.00249
N2    4    0.212927    0.591800    0.091910    11.00000    0.02805    0.03734 =
         0.02820   -0.00264    0.00041    0.00161
N4    4    0.542555    0.541360    0.332353    11.00000    0.03023    0.03675 =
         0.03454    0.00123   -0.00086    0.00008
C15   1    0.604065    0.554429    0.420400    11.00000    0.02941    0.03185 =
         0.03616    0.00334   -0.00068   -0.00392
C11   1    0.797758    0.582261    0.659624    11.00000    0.03267    0.03957 =
         0.02983    0.00301    0.00005   -0.00459
C9    1    0.966001    0.546887    0.741377    11.00000    0.03079    0.05962 =
         0.03137   -0.00296    0.00150    0.00704
AFIX  43
H9    2    1.027992    0.520000    0.739719    11.00000   -1.20000
AFIX   0
C17   1    0.456798    0.583217    0.334611    11.00000    0.03406    0.03141 =
         0.02945    0.00220   -0.00453   -0.00280
C13   1    0.862903    0.626629    0.824636    11.00000    0.03026    0.04388 =
         0.03343    0.00110    0.00367    0.00294
AFIX  43
H13   2    0.852745    0.655307    0.881783    11.00000   -1.20000
AFIX   0
C19   1    0.284094    0.632072    0.256366    11.00000    0.03571    0.04176 =
         0.03250   -0.00760   -0.00219    0.00377
AFIX  43
H19   2    0.276635    0.662177    0.313613    11.00000   -1.20000
AFIX   0
C10   1    0.891550    0.541662    0.659005    11.00000    0.03610    0.07318 =
         0.02865   -0.00880    0.00164    0.00761
AFIX  43
H10   2    0.903602    0.511355    0.603412    11.00000   -1.20000
AFIX   0
C21   1    0.377567    0.539473    0.165127    11.00000    0.03154    0.06496 =
         0.03736   -0.01124   -0.00071    0.01305
AFIX  43
H21   2    0.434929    0.506494    0.158751    11.00000   -1.20000
AFIX   0
C12   1    0.783736    0.625085    0.744608    11.00000    0.02959    0.03990 =
         0.03557    0.00367    0.00181    0.00174
AFIX  43
H12   2    0.722530    0.652479    0.748512    11.00000   -1.20000
AFIX   0
C7    1    0.793840    0.630925    1.180886    11.00000    0.04206    0.02638 =
         0.04092   -0.00052    0.01880   -0.00489
AFIX  43
H7    2    0.777846    0.570923    1.158618    11.00000   -1.20000
AFIX   0
C8    1    0.697825    0.809017    1.341311    11.00000    0.03723    0.03457 =
         0.03245    0.00211    0.01335    0.00446
C16   1    0.567440    0.605170    0.489616    11.00000    0.03220    0.03320 =
         0.03031    0.00328   -0.00009   -0.00563
C1    1    0.929884    0.633594    1.080823    11.00000    0.02809    0.03517 =
         0.02106    0.00445    0.00840    0.00734
C18   1    0.207479    0.634369    0.175619    11.00000    0.03328    0.04063 =
         0.03543   -0.00369    0.00311    0.00578
AFIX  43
H18   2    0.149404    0.667160    0.179910    11.00000   -1.20000
AFIX   0
C2    1    0.873135    0.679055    1.151579    11.00000    0.03115    0.02882 =
         0.02614    0.00030    0.01179    0.00289
C20   1    0.372086    0.584795    0.251840    11.00000    0.02908    0.03129 =
         0.03207    0.00057   -0.00060   -0.00211
C5    1    0.760513    0.764151    1.275677    11.00000    0.04044    0.03276 =
         0.03591    0.00042    0.01996    0.00215
C22   1    0.296426    0.543932    0.088003    11.00000    0.03370    0.06719 =
         0.03489   -0.01435    0.00094    0.01110
AFIX  43
H22   2    0.300396    0.512036    0.030824    11.00000   -1.20000
AFIX   0
C6    1    0.739795    0.673654    1.243182    11.00000    0.04440    0.03644 =
         0.04423   -0.00269    0.02813   -0.00604
AFIX  43
H6    2    0.688347    0.641151    1.263883    11.00000   -1.20000
AFIX   0
C14   1    0.715062    0.579473    0.574838    11.00000    0.03512    0.03812 =
         0.02918    0.00620   -0.00094   -0.00294
PART 1
N5A   4    0.982632    0.818395    1.182650    21.00000    0.05981    0.03907 =
         0.07396   -0.01364    0.04654   -0.02235
AFIX  93
H5AA  2    1.029007    0.794720    1.155847    21.00000   -1.20000
H5AB  2    0.989659    0.873428    1.206918    21.00000   -1.20000
AFIX   0
C3A   1    0.897051    0.768140    1.186711    21.00000    0.03205    0.03179 =
         0.03992    0.00038    0.01878   -0.00215
C4B   1    0.841064    0.812160    1.248034    21.00000    0.04627    0.02952 =
         0.04207   -0.00304    0.02117   -0.00015
AFIX  43
H4B   2    0.856807    0.872231    1.270214    21.00000   -1.20000
AFIX   0
PART 0
PART 2
N5B   4    0.871056    0.901015    1.280616   -21.00000    0.07702    0.03833 =
         0.07290   -0.01717    0.05183   -0.01690
AFIX  93
H5BA  2    0.922115    0.926487    1.262878   -21.00000   -1.20000
H5BB  2    0.838515    0.930404    1.318473   -21.00000   -1.20000
AFIX   0
C4A   1    0.841064    0.812160    1.248034   -21.00000    0.04627    0.02952 =
         0.04207   -0.00304    0.02117   -0.00015
C3B   1    0.897051    0.768140    1.186711   -21.00000    0.03205    0.03179 =
         0.03992    0.00038    0.01878   -0.00215
AFIX  43
H3B   2    0.951224    0.798969    1.169109   -21.00000   -1.20000
AFIX   0
HKLF 4

REM  20170629e2-hy_a.res in P2(1)/n
REM R1 =  0.0397 for    4722 Fo > 4sig(Fo)  and  0.0428 for all    5251 data
REM    317 parameters refined using      0 restraints

END

WGHT      0.0764      0.0000

REM Highest difference peak  1.275,  deepest hole -1.715,  1-sigma level  0.100
Q1    1   1.1396  0.6032  0.9023  11.00000  0.05    1.27
Q2    1   1.0204  0.6051  1.0051  11.00000  0.05    1.08
Q3    1   1.0196  0.6016  0.8948  11.00000  0.05    0.82
Q4    1   1.1476  0.6039  1.0177  11.00000  0.05    0.80
Q5    1   0.7809  0.5341  0.4140  11.00000  0.05    0.41
Q6    1   0.9242  0.4804  1.0424  11.00000  0.05    0.36
Q7    1   1.0142  0.5955  0.8005  11.00000  0.05    0.36
Q8    1   1.0744  0.6897  0.9448  11.00000  0.05    0.36
Q9    1   0.6804  0.5077  0.5141  11.00000  0.05    0.34
Q10   1   0.6821  0.5719  0.4972  11.00000  0.05    0.34
Q11   1   0.8950  0.6568  1.1199  11.00000  0.05    0.33
Q12   1   0.5726  0.5165  0.2973  11.00000  0.05    0.33
Q13   1   1.1065  0.5295  1.0126  11.00000  0.05    0.32
Q14   1   0.7544  0.5713  0.6207  11.00000  0.05    0.31
Q15   1   0.6139  0.8938  1.3028  11.00000  0.05    0.31
Q16   1   0.5973  0.7340  1.4425  11.00000  0.05    0.31
Q17   1   0.0637  0.6196  0.1257  11.00000  0.05    0.31
Q18   1   1.0230  0.5940  1.0838  11.00000  0.05    0.31
Q19   1   0.1382  0.5988  0.1146  11.00000  0.05    0.30
Q20   1   0.7486  0.9060  1.3355  11.00000  0.05    0.29
;
_shelx_res_checksum              41925
_shelx_fab_file
;
-16 0 -2 0.0414 1.2417
-16 0 0 0.5418 1.7201
-16 0 2 0.8154 2.1539
-16 0 4 1.5240 1.9028
-16 0 6 1.4689 1.0170
-16 0 8 1.8982 -0.0716
-16 1 -2 1.8618 0.9689
-16 1 -1 -0.0917 -1.3625
-16 1 0 0.3104 0.8394
-16 1 1 -1.2443 -1.8509
-16 1 2 -0.0822 0.3694
-16 1 3 -1.3728 -2.5560
-16 1 4 -1.0748 0.0697
-16 1 5 -1.1595 -1.9564
-16 1 6 -0.3209 -0.4594
-16 1 7 -0.2396 -1.1013
-16 1 8 -1.1899 -0.9129
-16 2 -1 -1.4609 -1.3845
-16 2 0 0.9360 0.1358
-16 2 1 -0.0854 -1.0387
-16 2 2 0.9778 0.3368
-16 2 3 0.5893 0.3932
-16 2 4 0.8546 0.2028
-16 2 5 1.9245 1.2503
-16 2 6 0.0008 0.0355
-16 2 7 1.9835 1.1069
-16 2 8 -1.6369 -0.2039
-16 3 -1 0.8516 0.5486
-16 3 0 0.9263 0.2028
-16 3 1 0.3879 0.5997
-16 3 2 0.4254 0.7852
-16 3 5 -0.2052 0.2876
-16 3 6 -0.5256 -0.3411
-16 3 7 0.3533 0.5740
-16 4 0 -1.2604 -1.1737
-16 4 1 -1.2291 0.0703
-16 4 2 -1.5816 -2.1516
-16 4 3 -0.8867 -0.1467
-16 4 4 -2.2398 -2.2429
-16 4 5 -0.0257 0.1075
-16 4 6 -1.7967 -1.5846
-16 5 1 1.7949 1.2501
-16 5 3 4.1721 2.1769
-16 5 4 -1.2651 -0.1643
-16 5 5 2.6255 1.1652
-15 0 -3 1.5429 0.1102
-15 0 -1 0.3185 -0.2364
-15 0 1 -0.0614 -0.2917
-15 0 3 -1.0625 -0.2830
-15 0 5 -1.0543 -0.0904
-15 0 7 -0.5694 0.2715
-15 0 9 -1.1888 0.0583
-15 1 -4 0.4365 0.9590
-15 1 -3 -2.0495 -0.8094
-15 1 -2 -0.5951 0.7385
-15 1 -1 -2.2916 -0.9625
-15 1 0 0.1780 0.4508
-15 1 1 -1.1005 -0.5448
-15 1 2 1.0639 0.6506
-15 1 3 -0.3041 0.0992
-15 1 4 0.8590 0.6161
-15 1 5 0.1847 0.2339
-15 1 6 0.5362 0.4521
-15 1 7 0.2596 0.6557
-15 1 8 -0.4876 -0.1780
-15 1 9 -0.4402 0.5930
-15 1 10 -0.4184 -0.8292
-15 2 -3 0.3471 -0.5235
-15 2 -2 -0.0061 -0.3174
-15 2 -1 -1.0812 -0.5579
-15 2 0 0.8894 0.7292
-15 2 1 -0.8300 -0.2039
-15 2 2 -0.0083 -0.0441
-15 2 3 -0.9473 -0.2884
-15 2 4 -0.4814 -0.3297
-15 2 5 -0.2062 -0.2657
-15 2 6 -1.6478 -0.6008
-15 2 7 0.2773 0.2645
-15 2 8 -0.1635 0.5823
-15 2 9 1.8041 0.5576
-15 2 10 1.7784 1.7725
-15 3 -4 -0.1482 -0.4753
-15 3 -3 -0.6711 0.9216
-15 3 -2 0.1934 0.0377
-15 3 -1 -0.9318 0.6892
-15 3 0 -0.2796 -0.0687
-15 3 1 0.1781 -0.2412
-15 3 2 0.0708 -0.3805
-15 3 3 0.3433 -0.0519
-15 3 4 0.6293 -0.1363
-15 3 5 -0.6844 0.4671
-15 3 6 -0.4958 -0.0948
-15 3 7 0.3728 -0.8366
-15 3 8 -0.0065 -0.1897
-15 3 9 0.5553 -1.0736
-15 3 10 0.4941 0.5600
-15 4 -3 0.0546 0.9702
-15 4 -2 -0.1505 -0.6025
-15 4 -1 1.6113 0.6567
-15 4 0 -0.0299 -0.4941
-15 4 1 0.8716 0.3774
-15 4 2 1.4125 0.2850
-15 4 3 1.1653 0.7902
-15 4 4 0.1204 -0.1344
-15 4 5 0.8368 0.9505
-15 4 6 0.4049 -0.1090
-15 4 7 1.1957 -0.1502
-15 4 8 0.1335 -0.4147
-15 4 9 -0.7597 -1.2253
-15 5 -3 1.2676 -0.7200
-15 5 -2 0.1314 -0.1520
-15 5 -1 0.2671 -0.1750
-15 5 0 0.3946 -0.4677
-15 5 1 -0.4462 0.4824
-15 5 2 -0.7424 -1.0293
-15 5 3 -0.0151 0.7325
-15 5 4 -1.9863 -0.8365
-15 5 5 1.0318 0.2807
-15 5 6 0.4768 0.4310
-15 5 7 -0.2682 0.0656
-15 5 8 1.1177 0.9798
-15 6 -1 -0.8960 -0.2914
-15 6 0 -0.6544 1.6440
-15 6 1 -0.6604 -0.5694
-15 6 2 -0.1705 -0.0865
-15 6 3 -0.8500 -1.1499
-15 6 4 -0.5953 -0.5400
-15 6 5 -0.3549 -1.0559
-15 6 6 -0.4706 -0.9030
-15 6 7 -0.4954 -0.4267
-15 7 -1 -1.0677 -1.5611
-15 7 0 -0.5057 0.1605
-15 7 1 -1.4445 -2.0910
-15 7 2 0.1922 -0.1321
-15 7 3 0.4059 -1.0636
-15 7 4 0.4615 0.3148
-15 7 5 -0.1246 0.0462
-15 8 1 0.0421 0.8894
-15 8 3 0.5901 0.8752
-15 8 4 0.1532 0.2370
-14 0 -6 -4.1761 -2.3917
-14 0 -4 -3.5544 -1.4714
-14 0 -2 -1.3385 -0.2512
-14 0 0 -1.9581 -0.2472
-14 0 2 -0.7598 -0.2261
-14 0 4 0.5883 -0.1356
-14 0 6 0.0184 -0.0423
-14 0 8 0.1728 0.1016
-14 0 10 -0.1836 0.4336
-14 0 12 1.5945 0.1122
-14 1 -6 -0.2005 -0.2964
-14 1 -5 -0.6868 0.2073
-14 1 -4 0.6478 -0.2224
-14 1 -3 -0.3612 -0.2084
-14 1 -2 2.5684 -0.0399
-14 1 -1 0.1133 -0.1229
-14 1 0 1.1135 -0.0779
-14 1 1 -0.8343 0.4093
-14 1 2 0.8585 -0.5598
-14 1 3 -0.6014 0.5929
-14 1 4 0.3502 -0.5512
-14 1 5 -0.1697 0.8161
-14 1 6 -0.0625 -0.2216
-14 1 7 0.6525 0.3918
-14 1 8 -0.4041 -0.1483
-14 1 9 0.9730 0.8002
-14 1 10 0.6924 -0.3335
-14 1 11 0.6155 0.0726
-14 1 12 -1.0031 -0.9982
-14 2 -6 -0.0888 -0.3266
-14 2 -5 -0.7411 0.6148
-14 2 -4 -0.4500 -0.2885
-14 2 -3 1.0953 0.7071
-14 2 -2 0.4768 0.4135
-14 2 -1 0.6794 0.0944
-14 2 0 1.7989 0.1075
-14 2 1 -0.0449 0.2735
-14 2 2 1.9968 0.0168
-14 2 3 -0.1580 0.3336
-14 2 4 0.5176 0.0819
-14 2 5 -0.1230 0.1602
-14 2 6 -0.3971 -0.0305
-14 2 7 0.4972 -0.0014
-14 2 8 -0.6881 -0.4059
-14 2 9 -0.8026 -0.7573
-14 2 10 0.5284 -0.0970
-14 2 11 -1.3079 -0.5143
-14 2 12 0.8030 0.3498
-14 3 -6 -0.6524 -0.5309
-14 3 -5 0.2317 0.0206
-14 3 -4 0.5389 -0.2778
-14 3 -3 0.7234 0.2915
-14 3 -2 1.0866 -0.3834
-14 3 -1 0.0954 0.0786
-14 3 0 -0.1459 -0.3206
-14 3 1 1.0604 0.1508
-14 3 2 -1.4608 -0.4122
-14 3 3 0.4741 0.1652
-14 3 4 -0.4286 -0.5448
-14 3 5 0.1518 -0.4341
-14 3 6 -0.1293 -0.1212
-14 3 7 0.1827 -0.1190
-14 3 8 -0.0909 0.4485
-14 3 9 -0.4520 -0.4453
-14 3 10 -1.0611 -0.0336
-14 3 11 -0.6890 -0.4882
-14 4 -6 1.2861 1.6021
-14 4 -5 -0.3039 0.0063
-14 4 -4 1.4213 0.7067
-14 4 -3 -0.0849 -0.0221
-14 4 -2 -0.1029 -0.6036
-14 4 -1 0.3089 0.0359
-14 4 0 -0.5131 0.1973
-14 4 1 0.0086 -0.0251
-14 4 2 -0.4945 0.2954
-14 4 3 1.5774 0.2191
-14 4 4 -0.1908 0.2544
-14 4 5 1.1564 0.4302
-14 4 6 0.1580 0.2813
-14 4 7 -0.3240 0.1955
-14 4 8 0.1609 0.7491
-14 4 9 0.8987 0.2520
-14 4 10 -0.0866 0.3652
-14 4 11 0.5357 0.3477
-14 5 -5 -1.2996 -1.4956
-14 5 -4 -0.8512 0.2185
-14 5 -3 -0.6710 -0.7670
-14 5 -2 -0.5422 0.6346
-14 5 -1 -0.8199 0.3027
-14 5 0 -0.3508 0.5873
-14 5 1 -1.8740 0.1734
-14 5 2 0.5108 0.4330
-14 5 3 -0.9234 -0.1097
-14 5 4 0.7545 -0.0727
-14 5 5 -1.2624 -0.2602
-14 5 6 -0.1578 0.3050
-14 5 7 -1.3847 -0.6646
-14 5 8 0.1647 0.1953
-14 5 9 -1.0916 0.0142
-14 5 10 0.4808 0.4701
-14 6 -4 -0.6128 0.2945
-14 6 -3 0.5769 -0.5040
-14 6 -2 -0.0770 0.7524
-14 6 -1 0.5424 -1.2288
-14 6 0 0.1235 -0.3526
-14 6 1 -0.6387 -0.7436
-14 6 2 0.2508 0.0755
-14 6 3 -1.3489 0.2375
-14 6 4 0.2807 -0.1515
-14 6 5 -0.0726 0.0911
-14 6 6 -0.9061 0.0426
-14 6 7 -1.1509 0.2953
-14 6 8 -0.0581 -0.5308
-14 6 9 -1.5800 -0.1150
-14 7 -4 -0.3442 -0.5244
-14 7 -3 0.2202 0.4873
-14 7 -2 0.5309 0.3108
-14 7 -1 0.1817 -0.8748
-14 7 0 1.7762 1.0856
-14 7 1 -0.0190 0.1540
-14 7 2 -0.0052 0.5467
-14 7 3 -0.2286 0.4302
-14 7 4 -1.0647 0.0712
-14 7 5 2.3061 0.4862
-14 7 6 0.5377 -0.3645
-14 7 7 0.9153 0.7256
-14 8 -2 -0.3164 -0.9831
-14 8 -1 0.5398 1.7419
-14 8 0 -0.1917 -0.4638
-14 8 1 1.9416 1.1056
-14 8 2 -0.0588 -0.1329
-14 8 3 1.1231 0.2706
-14 8 4 0.3516 0.7403
-14 8 5 -0.8511 0.5233
-14 8 6 1.7012 1.6712
-14 9 -1 1.8508 0.7054
-14 9 0 0.3628 -0.0011
-14 9 1 1.2196 -0.0148
-14 9 2 -0.1218 -0.3839
-14 9 3 0.3091 -1.5241
-14 9 4 0.3377 -0.0063
-14 9 5 -0.2642 -1.8770
-14 10 2 -0.6232 0.5371
-13 0 -7 2.8375 -0.4293
-13 0 -5 4.3780 0.5023
-13 0 -3 1.4283 -0.4519
-13 0 -1 1.2595 -0.4826
-13 0 1 1.6994 -0.4057
-13 0 3 0.6302 -0.2958
-13 0 5 -0.5099 -0.2059
-13 0 7 -0.6789 -0.1258
-13 0 9 -0.5175 -0.1025
-13 0 11 -0.8397 0.1144
-13 1 -8 -0.0960 1.1309
-13 1 -7 0.5140 0.5297
-13 1 -6 0.3983 -0.3537
-13 1 -5 0.1317 0.4919
-13 1 -4 0.8929 -0.5867
-13 1 -3 -1.2325 0.3291
-13 1 -2 0.8629 -0.3675
-13 1 -1 -1.1310 0.1802
-13 1 0 0.9799 -0.2862
-13 1 1 0.7501 0.3089
-13 1 2 1.2720 -0.4347
-13 1 3 -0.3891 0.3311
-13 1 4 -0.0053 -0.4295
-13 1 5 -1.5700 -0.1695
-13 1 6 -0.9350 -0.2288
-13 1 7 -0.4268 -0.4625
-13 1 8 -1.0447 0.0382
-13 1 9 0.1807 -0.1273
-13 1 10 -0.6943 0.3773
-13 1 11 0.7907 0.4790
-13 1 12 -0.1902 0.7185
-13 1 13 0.2673 0.8593
-13 2 -8 1.5567 1.1849
-13 2 -7 -0.5086 0.3269
-13 2 -6 0.8289 0.6826
-13 2 -5 -0.6138 0.4366
-13 2 -4 -0.2941 -0.1159
-13 2 -3 0.1228 0.5459
-13 2 -2 -1.0104 0.3392
-13 2 -1 -1.2810 0.3069
-13 2 0 -0.2088 -0.0343
-13 2 1 -2.6504 0.3178
-13 2 2 -0.1196 -0.2904
-13 2 3 -2.2300 0.1256
-13 2 4 0.8067 -0.1732
-13 2 5 0.3529 -0.0114
-13 2 6 0.5192 -0.0610
-13 2 7 0.9659 -0.1570
-13 2 8 -0.2505 -0.0818
-13 2 9 -0.1508 -0.2156
-13 2 10 0.4666 -0.0429
-13 2 11 -2.0761 0.0534
-13 2 12 0.2427 -0.3908
-13 2 13 -0.2665 0.1889
-13 3 -8 1.2469 -0.7905
-13 3 -7 0.4153 0.1783
-13 3 -6 0.7340 0.5302
-13 3 -5 0.1436 0.3387
-13 3 -4 -0.6894 0.0118
-13 3 -3 -1.1148 0.0118
-13 3 -2 -0.9340 -0.0298
-13 3 -1 0.9065 -0.1874
-13 3 0 -0.8720 -0.1614
-13 3 1 0.7872 0.1602
-13 3 2 -1.3698 -0.1182
-13 3 3 0.5006 0.3838
-13 3 4 0.2803 0.1092
-13 3 5 1.6443 0.2091
-13 3 6 0.0205 0.2131
-13 3 7 0.7904 -0.1315
-13 3 8 0.1528 -0.1526
-13 3 9 -0.0272 0.1457
-13 3 10 0.5540 0.0180
-13 3 11 0.2933 -0.7504
-13 3 12 0.2695 -0.1722
-13 4 -7 0.0294 -0.0729
-13 4 -6 0.3819 -0.6083
-13 4 -5 -0.0921 -0.9204
-13 4 -4 -0.6158 -0.3215
-13 4 -3 -0.2964 -0.1428
-13 4 -2 -0.7833 0.0894
-13 4 -1 0.3466 0.0524
-13 4 0 -0.3457 0.0302
-13 4 1 0.1500 -0.0796
-13 4 2 -2.9339 -0.2032
-13 4 3 1.8309 -0.0852
-13 4 4 -3.0132 -0.3821
-13 4 5 0.4880 -0.4041
-13 4 6 -0.1631 -0.1297
-13 4 7 -0.7378 -0.0619
-13 4 8 0.5302 0.2193
-13 4 9 -0.3160 0.0715
-13 4 10 -0.3964 0.1167
-13 4 11 1.3973 0.4667
-13 4 12 0.8506 -0.2870
-13 5 -7 0.6235 0.2925
-13 5 -6 0.4585 0.1647
-13 5 -5 0.7000 0.1741
-13 5 -4 0.4201 0.9516
-13 5 -3 -0.0783 -0.1032
-13 5 -2 0.5978 0.1936
-13 5 -1 -0.7928 -0.3905
-13 5 0 1.3244 0.1394
-13 5 1 0.3652 -0.5333
-13 5 2 1.2456 0.2655
-13 5 3 -1.2308 -0.3249
-13 5 4 0.8233 0.2564
-13 5 5 -1.2019 -0.0791
-13 5 6 1.2471 -0.0340
-13 5 7 -0.1553 -0.1289
-13 5 8 0.1204 0.0613
-13 5 9 0.7374 -0.0946
-13 5 10 1.2389 -0.3849
-13 5 11 1.3089 -0.1563
-13 5 12 1.4015 -0.3200
-13 6 -6 -1.0468 -0.7908
-13 6 -5 -0.3525 0.4892
-13 6 -4 -0.5685 -0.1667
-13 6 -3 0.0523 -0.2690
-13 6 -2 -0.6452 -0.3286
-13 6 -1 -0.5190 0.0284
-13 6 0 -0.0453 0.2647
-13 6 1 -0.5987 -0.0533
-13 6 2 2.2836 -0.2372
-13 6 3 -2.0133 -0.1141
-13 6 4 1.4596 0.0230
-13 6 5 -0.2529 0.0711
-13 6 6 1.2077 -0.0104
-13 6 7 1.1514 -0.2050
-13 6 8 0.6988 -0.0208
-13 6 9 0.1975 0.1667
-13 6 10 0.8008 0.0594
-13 7 -5 0.2147 0.3177
-13 7 -4 -0.5666 -0.8459
-13 7 -3 0.4784 0.0950
-13 7 -2 -0.5387 -0.0609
-13 7 -1 -0.5064 -0.0089
-13 7 0 0.3876 0.2531
-13 7 1 -0.5901 0.2038
-13 7 2 1.0585 -0.2032
-13 7 3 1.3184 0.4315
-13 7 4 -1.0159 0.1779
-13 7 5 0.3908 0.1340
-13 7 6 -1.4144 0.0287
-13 7 7 -0.9456 0.2801
-13 7 8 1.1114 0.0895
-13 7 9 -0.8586 0.5497
-13 7 10 -0.1611 0.0327
-13 8 -5 -0.6983 -1.4699
-13 8 -4 0.8091 -0.0190
-13 8 -3 -0.1682 -0.6514
-13 8 -2 0.0971 -0.2425
-13 8 -1 1.4686 0.3126
-13 8 0 -0.4820 -0.3336
-13 8 1 1.7225 -0.2120
-13 8 2 -0.5375 -0.0493
-13 8 3 0.5492 -0.1428
-13 8 4 0.7329 -0.3685
-13 8 5 -0.7496 -0.9432
-13 8 6 0.1266 -0.2442
-13 8 7 -0.9265 -0.6112
-13 8 8 0.1671 -0.0217
-13 9 -4 0.9152 1.6190
-13 9 -2 -0.5584 1.2171
-13 9 -1 -0.6837 -0.1752
-13 9 0 -1.0610 -0.3981
-13 9 1 0.0253 -0.0188
-13 9 2 -0.5192 0.6335
-13 9 3 0.1175 -0.3797
-13 9 4 -0.7479 0.7142
-13 9 5 -0.4356 -0.9207
-13 9 6 -0.0452 0.5508
-13 9 7 0.0717 -0.0694
-13 10 -2 -0.0943 -0.2612
-13 10 -1 -2.0165 -1.1886
-13 10 0 -0.3036 -0.5853
-13 10 1 -1.6092 -0.7912
-13 10 2 -0.3661 -0.4181
-13 10 3 -0.2526 -0.4087
-13 10 4 -0.8556 -0.4777
-13 10 5 -0.5725 1.2018
-13 11 0 0.0013 0.3689
-13 11 2 0.1689 0.1364
-13 11 3 0.1265 1.8430
-13 11 4 0.0356 0.0591
-12 0 -8 -0.9471 0.5016
-12 0 -6 -2.5152 0.4648
-12 0 -4 -1.6225 0.4695
-12 0 -2 1.1573 0.3242
-12 0 0 0.4220 0.0518
-12 0 2 -0.3945 -0.0597
-12 0 4 -1.1088 -0.2069
-12 0 6 -0.3566 -0.2945
-12 0 8 1.7184 -0.2376
-12 0 10 1.6716 -0.3557
-12 0 12 2.0198 0.0126
-12 0 14 -0.2141 -0.0175
-12 1 -9 -0.6759 -0.0853
-12 1 -8 -0.8587 0.1586
-12 1 -7 -0.3348 -0.3749
-12 1 -6 -0.3071 0.0220
-12 1 -5 -0.5632 0.3234
-12 1 -4 0.3996 0.1187
-12 1 -3 -1.0125 0.4316
-12 1 -2 1.1646 0.3969
-12 1 -1 -0.9457 0.2092
-12 1 0 -0.1989 0.2905
-12 1 1 -1.6547 0.0666
-12 1 2 -0.6418 0.1118
-12 1 3 -0.9336 -0.2676
-12 1 4 2.2425 0.2647
-12 1 5 1.2597 -0.5288
-12 1 6 4.5536 0.4167
-12 1 7 1.4936 -0.3043
-12 1 8 2.3436 0.0227
-12 1 9 0.6464 -0.5232
-12 1 10 -0.2214 -0.1066
-12 1 11 0.2009 -0.6152
-12 1 12 -0.8616 -0.1993
-12 1 13 -0.2391 0.3367
-12 1 14 0.9956 -0.0866
-12 2 -9 -1.1871 -0.2186
-12 2 -8 0.3682 -0.3693
-12 2 -7 -1.1836 -0.8202
-12 2 -6 0.4029 0.0850
-12 2 -5 0.3547 0.3474
-12 2 -4 0.0848 -0.1113
-12 2 -3 0.0239 -0.2640
-12 2 -2 -0.1853 -0.2568
-12 2 -1 -0.4599 -0.0460
-12 2 0 1.5633 -0.1668
-12 2 1 0.1390 0.1015
-12 2 2 1.7412 -0.1501
-12 2 3 -0.4155 -0.0118
-12 2 4 1.9335 0.0935
-12 2 5 -1.0845 -0.1059
-12 2 6 0.5813 0.1993
-12 2 7 -0.5632 -0.2098
-12 2 8 -0.6774 0.4531
-12 2 9 -0.3357 -0.0527
-12 2 10 0.6896 0.1431
-12 2 11 -0.0437 0.0991
-12 2 12 1.0024 -0.4944
-12 2 13 0.1301 -0.1840
-12 2 14 0.6880 -0.1442
-12 3 -9 -0.1775 0.3505
-12 3 -8 0.4175 0.2669
-12 3 -7 -0.9526 -0.0605
-12 3 -6 -0.0542 0.0700
-12 3 -5 -0.4190 -0.3810
-12 3 -4 1.3902 -0.0295
-12 3 -3 0.3363 -0.2865
-12 3 -2 -0.7842 0.2625
-12 3 -1 0.3833 -0.0904
-12 3 0 -1.8839 0.3953
-12 3 1 0.7201 -0.0996
-12 3 2 1.1893 0.1531
-12 3 3 -0.2622 -0.0375
-12 3 4 -0.8239 0.1573
-12 3 5 -0.8706 0.1150
-12 3 6 -3.8248 0.1793
-12 3 7 -0.3555 0.1988
-12 3 8 -2.0164 0.2041
-12 3 9 -0.4211 0.3542
-12 3 10 0.0404 -0.1869
-12 3 11 -0.6889 0.1087
-12 3 12 0.6953 1.2989
-12 3 13 0.0277 0.0202
-12 4 -8 -0.0613 -0.4127
-12 4 -7 0.2967 0.7407
-12 4 -6 -0.2830 -0.1371
-12 4 -5 0.1516 0.1976
-12 4 -4 -0.3322 0.1110
-12 4 -3 1.6560 0.1375
-12 4 -2 -0.4344 0.0974
-12 4 -1 0.5085 -0.1196
-12 4 0 -0.0123 0.1737
-12 4 1 1.8348 0.0051
-12 4 2 -0.9753 0.0121
-12 4 3 3.4177 0.0757
-12 4 4 -3.5483 0.2103
-12 4 5 0.3597 -0.0220
-12 4 6 -1.2398 0.2166
-12 4 7 -0.5434 -0.1493
-12 4 8 0.6370 -0.1830
-12 4 9 -0.3792 -0.1669
-12 4 10 0.1215 -0.2355
-12 4 11 -0.7722 0.1671
-12 4 12 -1.2330 0.2467
-12 4 13 -0.7960 0.0663
-12 5 -8 -0.3218 -0.0215
-12 5 -7 0.3367 -0.2754
-12 5 -6 -1.4971 -0.4490
-12 5 -5 0.7231 -0.0003
-12 5 -4 -0.5217 -0.3555
-12 5 -3 0.6736 -0.1346
-12 5 -2 1.1613 -0.1250
-12 5 -1 -0.5531 -0.2335
-12 5 0 0.2482 -0.3203
-12 5 1 0.2901 -0.2307
-12 5 2 -0.6441 -0.2781
-12 5 3 1.2324 -0.1132
-12 5 4 0.5948 -0.3344
-12 5 5 0.2956 0.1060
-12 5 6 1.9706 -0.1547
-12 5 7 0.4123 0.1828
-12 5 8 0.9095 -0.5789
-12 5 9 -0.2671 0.0365
-12 5 10 -1.9400 0.1418
-12 5 11 -0.8530 0.3193
-12 5 12 -1.9506 -0.2639
-12 5 13 -0.6747 -0.2143
-12 6 -8 -0.5288 0.0778
-12 6 -7 -0.1385 0.4609
-12 6 -6 -0.0114 0.0046
-12 6 -5 0.4849 0.5358
-12 6 -4 0.5956 0.0667
-12 6 -3 0.4527 0.4847
-12 6 -2 0.9935 -0.0345
-12 6 -1 0.2374 0.3145
-12 6 0 1.6333 0.0681
-12 6 1 -1.0713 0.2742
-12 6 2 2.6395 0.3097
-12 6 3 -1.8603 0.3614
-12 6 4 3.2759 0.1905
-12 6 5 -1.3056 0.1771
-12 6 6 0.6484 0.2605
-12 6 7 -0.7896 0.2812
-12 6 8 -0.4515 0.1617
-12 6 9 0.2313 0.0981
-12 6 10 -0.6441 0.0386
-12 6 11 0.5180 -0.0289
-12 6 12 0.4322 0.3795
-12 7 -7 -0.9150 -0.0228
-12 7 -6 1.3931 -0.0456
-12 7 -5 -0.4717 -0.2146
-12 7 -4 -0.1164 -0.0791
-12 7 -3 0.0474 0.1769
-12 7 -2 0.0131 -0.1838
-12 7 -1 -0.3329 0.1151
-12 7 0 0.6962 -0.3208
-12 7 1 -1.6193 0.1358
-12 7 2 -0.0612 -0.2239
-12 7 3 -1.1212 -0.3772
-12 7 4 -0.5636 0.3215
-12 7 5 0.1420 -0.4569
-12 7 6 -0.4096 0.3402
-12 7 7 -0.9917 -0.3023
-12 7 8 -0.0460 0.2218
-12 7 9 -0.1281 -0.2373
-12 7 10 0.5946 -0.3841
-12 7 11 0.5808 -0.0756
-12 7 12 0.7401 -0.2505
-12 8 -6 0.3405 0.2327
-12 8 -5 -0.4114 -0.8217
-12 8 -4 0.1874 0.8636
-12 8 -3 0.0866 0.2102
-12 8 -2 -0.8948 0.4162
-12 8 -1 0.9253 -0.2526
-12 8 0 -3.5441 0.1678
-12 8 1 0.5543 -0.1666
-12 8 2 -1.8855 0.0394
-12 8 3 -0.5069 -0.2794
-12 8 4 -0.8358 -0.1297
-12 8 5 0.2124 -0.0816
-12 8 6 -0.5458 -0.0111
-12 8 7 0.6621 -0.3334
-12 8 8 0.5444 -0.3939
-12 8 9 0.0309 0.3380
-12 8 10 1.0221 -0.1369
-12 8 11 0.3710 0.2080
-12 9 -5 0.2257 0.0136
-12 9 -4 -0.1580 0.3995
-12 9 -3 0.3409 -0.7918
-12 9 -2 -0.3024 0.0654
-12 9 -1 0.3750 -0.3787
-12 9 0 -1.0036 -0.1685
-12 9 1 -0.0401 -0.1088
-12 9 2 -1.1639 -0.1113
-12 9 3 1.5682 -0.1704
-12 9 4 -0.0950 0.2911
-12 9 5 0.8398 0.0941
-12 9 6 0.7861 0.1081
-12 9 7 -0.4621 0.2737
-12 9 8 0.2212 -0.7487
-12 9 9 -1.0030 0.3915
-12 9 10 0.0437 0.0324
-12 10 -3 -0.3158 0.0702
-12 10 -2 0.7170 -0.6228
-12 10 -1 -0.4713 0.3124
-12 10 0 3.0615 0.3310
-12 10 1 -0.5743 0.5287
-12 10 2 1.7204 0.1255
-12 10 3 0.5528 0.5377
-12 10 4 1.5817 -0.0211
-12 10 5 0.9446 0.6570
-12 10 6 0.7181 -0.5461
-12 10 7 0.6340 -0.1510
-12 10 8 -1.3593 -0.0052
-12 10 9 0.3278 -0.1714
-12 11 -3 0.8036 0.8311
-12 11 -2 -0.1488 -0.0715
-12 11 -1 0.3887 0.6203
-12 11 0 0.0648 -0.2253
-12 11 1 -0.0230 -0.3131
-12 11 2 0.6375 -0.4903
-12 11 3 -0.5163 0.1043
-12 11 4 0.0591 -0.2933
-12 11 5 -0.3046 -0.5226
-12 11 7 -0.6723 -0.2592
-12 11 8 0.0643 0.9758
-12 12 -1 -0.8099 -0.6692
-12 12 0 -1.5165 -0.0540
-12 12 1 -0.8531 -1.4010
-12 12 2 -1.6753 -0.0069
-12 12 3 -1.3556 -1.8379
-12 12 4 -0.9626 -0.2795
-11 0 -9 0.3268 1.7496
-11 0 -7 0.4893 0.2654
-11 0 -5 1.7137 0.5121
-11 0 -3 -0.8125 0.3768
-11 0 -1 -2.1030 0.7432
-11 0 1 -1.0136 0.5367
-11 0 3 1.6651 0.4243
-11 0 5 4.1021 0.2801
-11 0 7 2.3722 0.0353
-11 0 9 -1.5865 -0.0474
-11 0 11 -2.6941 -0.1240
-11 0 13 -0.3780 -0.2327
-11 0 15 2.4429 1.3832
-11 1 -10 0.9441 -0.5560
-11 1 -9 1.1893 -0.0254
-11 1 -8 0.5910 -0.0338
-11 1 -7 0.7995 -0.1794
-11 1 -6 0.4595 0.4072
-11 1 -5 -0.8234 0.1171
-11 1 -4 1.0147 0.4908
-11 1 -3 -0.5613 -0.1237
-11 1 -2 0.6510 0.3735
-11 1 -1 -1.1048 -0.0564
-11 1 0 1.0478 0.3404
-11 1 1 -0.1785 0.0744
-11 1 2 1.7579 0.2400
-11 1 3 -0.6059 0.0670
-11 1 4 -0.5900 0.4217
-11 1 5 -4.0492 0.0693
-11 1 6 -2.2701 0.1886
-11 1 7 -6.4929 0.2090
-11 1 8 -1.4907 -0.2751
-11 1 9 -4.5906 0.3715
-11 1 10 -0.3016 -0.0901
-11 1 11 -0.5729 -0.3845
-11 1 12 0.2376 -0.5996
-11 1 13 -0.0379 -0.2010
-11 1 14 0.4233 -0.3736
-11 2 -10 0.4875 -0.0073
-11 2 -9 -0.3711 -0.4279
-11 2 -8 1.5462 -0.1400
-11 2 -7 -0.1575 0.0012
-11 2 -6 -0.3661 -0.4398
-11 2 -5 -0.2092 -0.5120
-11 2 -4 -0.5211 -0.3809
-11 2 -3 0.1782 -0.3265
-11 2 -2 0.7765 -0.0461
-11 2 -1 -1.1941 -0.3887
-11 2 0 -0.0847 -0.2658
-11 2 1 -0.2830 -0.1316
-11 2 2 0.2204 0.1306
-11 2 3 -1.5817 -0.1145
-11 2 4 0.9083 0.1745
-11 2 5 -4.3355 -0.0506
-11 2 6 0.7782 0.2601
-11 2 7 -3.3771 -0.0508
-11 2 8 1.1676 0.2134
-11 2 9 -0.2853 0.0002
-11 2 10 0.5515 -0.0120
-11 2 11 1.0400 -0.1085
-11 2 12 -0.4686 -0.0295
-11 2 13 -0.1599 0.0882
-11 2 14 0.1780 0.2267
-11 3 -10 -0.6269 0.3479
-11 3 -9 -0.2411 -0.0160
-11 3 -8 -0.0059 0.2325
-11 3 -7 -0.0492 -0.2244
-11 3 -6 0.2112 0.0149
-11 3 -5 0.0086 -0.0838
-11 3 -4 -0.0652 -0.0986
-11 3 -3 -0.3413 -0.0916
-11 3 -2 -0.0703 0.0813
-11 3 -1 2.4744 -0.1579
-11 3 0 -0.0193 0.0156
-11 3 1 -0.2034 -0.0926
-11 3 2 0.1008 0.2014
-11 3 3 -1.9362 -0.1436
-11 3 4 0.7004 -0.0341
-11 3 5 2.3776 -0.0548
-11 3 6 1.6736 -0.1069
-11 3 7 5.4719 0.0305
-11 3 8 1.7394 0.0686
-11 3 9 4.4917 0.1523
-11 3 10 1.3586 0.0920
-11 3 11 0.6385 0.1394
-11 3 12 0.6937 0.2180
-11 3 13 -0.9477 -0.4138
-11 3 14 -0.2140 -0.1050
-11 4 -10 0.3479 0.0745
-11 4 -9 -0.0703 0.1660
-11 4 -8 -0.9670 -0.3563
-11 4 -7 0.3931 0.2193
-11 4 -6 0.1930 0.0032
-11 4 -5 -0.0372 0.0956
-11 4 -4 -0.8228 0.0392
-11 4 -3 0.2202 0.1217
-11 4 -2 -0.8274 0.0703
-11 4 -1 0.5738 -0.2007
-11 4 0 -0.1874 0.1370
-11 4 1 -0.7826 -0.2514
-11 4 2 -2.0291 0.1044
-11 4 3 2.3207 -0.1665
-11 4 4 0.2775 0.1026
-11 4 5 4.6777 -0.1284
-11 4 6 0.9431 0.0431
-11 4 7 3.3625 -0.0411
-11 4 8 -0.2518 0.0045
-11 4 9 0.0638 -0.0325
-11 4 10 0.2397 -0.1437
-11 4 11 -1.2489 0.0149
-11 4 12 0.7105 -0.0154
-11 4 13 0.4394 -0.2574
-11 4 14 -0.1591 0.4853
-11 5 -9 -1.4603 -0.4984
-11 5 -8 0.1880 0.1773
-11 5 -7 -0.2539 0.0778
-11 5 -6 -0.5491 -0.0890
-11 5 -5 -0.5511 0.2868
-11 5 -4 -1.2004 -0.1873
-11 5 -3 -0.7819 0.1459
-11 5 -2 0.3346 -0.1029
-11 5 -1 -0.8543 0.1040
-11 5 0 -0.0800 0.1102
-11 5 1 0.8204 0.2879
-11 5 2 -2.2161 0.0373
-11 5 3 1.5582 0.1382
-11 5 4 -2.2313 -0.0100
-11 5 5 -0.4959 -0.1108
-11 5 6 -2.1255 -0.0088
-11 5 7 -3.6726 0.0800
-11 5 8 -1.1204 0.0279
-11 5 9 -1.6790 0.0911
-11 5 10 -0.0397 -0.1045
-11 5 11 1.4973 -0.4504
-11 5 12 0.4890 0.1041
-11 5 13 1.7340 0.1505
-11 5 14 0.9767 1.7191
-11 6 -9 0.1593 -0.0383
-11 6 -8 0.6023 0.6367
-11 6 -7 0.7796 -0.0727
-11 6 -6 -0.3404 -0.2300
-11 6 -5 0.2451 -0.3062
-11 6 -4 -1.1875 -0.1667
-11 6 -3 -0.5947 -0.0815
-11 6 -2 -0.1319 -0.1585
-11 6 -1 -1.5675 -0.0742
-11 6 0 0.4214 0.1276
-11 6 1 -1.9885 0.0535
-11 6 2 1.1125 -0.1069
-11 6 3 -2.9581 -0.0207
-11 6 4 0.5037 0.0045
-11 6 5 -3.5657 0.0353
-11 6 6 1.2674 -0.0562
-11 6 7 -2.9890 -0.0434
-11 6 8 0.7388 -0.0528
-11 6 9 -0.4456 0.3979
-11 6 10 0.1048 0.0093
-11 6 11 0.9738 -0.2215
-11 6 12 -1.1503 0.0316
-11 6 13 -0.2189 -0.1189
-11 7 -8 0.2996 -0.3178
-11 7 -7 0.3528 0.4049
-11 7 -6 0.7988 -0.1048
-11 7 -5 0.0409 -0.1416
-11 7 -4 0.3620 0.4769
-11 7 -3 0.5013 -0.0600
-11 7 -2 0.3234 0.2580
-11 7 -1 -0.1432 0.3356
-11 7 0 1.4473 -0.0157
-11 7 1 -0.9661 0.0198
-11 7 2 1.6437 0.1603
-11 7 3 -0.2337 -0.1918
-11 7 4 2.1136 0.2846
-11 7 5 -0.0122 -0.5134
-11 7 6 2.1636 -0.0552
-11 7 7 2.0198 -0.0946
-11 7 8 0.7707 -0.0786
-11 7 9 1.4001 -0.1161
-11 7 10 -1.0744 -0.0727
-11 7 11 -0.3661 0.1481
-11 7 12 -0.9368 -0.2088
-11 7 13 -0.5114 -0.6146
-11 8 -7 -0.3784 0.4258
-11 8 -6 0.4607 0.5072
-11 8 -5 -0.4895 0.4480
-11 8 -4 0.6719 -0.1021
-11 8 -3 -0.3440 -0.2297
-11 8 -2 -0.9414 0.0368
-11 8 -1 1.8581 -0.0015
-11 8 0 -1.4984 -0.0877
-11 8 1 2.2053 -0.1094
-11 8 2 -0.6181 -0.0036
-11 8 3 0.5582 0.1238
-11 8 4 0.2375 0.0415
-11 8 5 2.5766 -0.0180
-11 8 6 -1.8384 0.0808
-11 8 7 2.0686 0.4068
-11 8 8 -1.2959 -0.1189
-11 8 9 -0.0651 -0.1125
-11 8 10 -1.0221 -0.1561
-11 8 11 -0.5421 0.1026
-11 8 12 -0.0714 0.1565
-11 9 -7 1.2361 0.0431
-11 9 -6 -0.6271 0.1104
-11 9 -5 1.0895 -0.0250
-11 9 -4 -1.1655 -0.5313
-11 9 -3 0.1384 0.0633
-11 9 -2 -0.4597 -0.2051
-11 9 -1 1.3990 0.1479
-11 9 0 -0.1871 -0.0967
-11 9 1 1.8931 0.2855
-11 9 2 -1.3962 -0.0925
-11 9 3 0.6368 0.1277
-11 9 4 -2.1339 -0.1478
-11 9 5 -0.4485 0.1344
-11 9 6 -0.5264 -0.0849
-11 9 7 -1.9202 0.3371
-11 9 8 0.5571 -0.0918
-11 9 9 -1.6775 0.0037
-11 9 10 0.7072 -0.2565
-11 9 11 -0.6531 -0.0476
-11 10 -6 1.3770 0.0880
-11 10 -5 0.7693 -0.0842
-11 10 -4 0.1195 -0.2667
-11 10 -3 0.5355 0.7044
-11 10 -2 0.5806 0.3071
-11 10 -1 -0.6920 0.2605
-11 10 0 1.5483 0.0591
-11 10 1 -2.3385 0.3151
-11 10 2 0.5928 0.3444
-11 10 3 -1.1090 0.2541
-11 10 4 -1.3889 -0.1365
-11 10 5 -2.0224 0.2774
-11 10 6 -0.5215 0.0714
-11 10 7 -0.3519 -0.0032
-11 10 8 -0.1607 0.3407
-11 10 9 1.1254 0.1032
-11 10 10 0.0771 -0.0863
-11 11 -5 -0.6754 -1.3253
-11 11 -4 0.4136 -0.0596
-11 11 -3 -0.2646 -0.8368
-11 11 -2 -0.2687 -0.4863
-11 11 -1 -0.2255 0.0222
-11 11 0 0.1699 0.1969
-11 11 1 -0.3637 -0.0643
-11 11 2 0.2349 -0.0196
-11 11 3 -0.6092 -0.2482
-11 11 4 0.3664 0.0972
-11 11 5 -0.0181 -0.5665
-11 11 6 0.7448 0.2894
-11 11 7 1.0800 -0.5062
-11 11 8 0.7498 0.1334
-11 11 9 0.9492 0.2601
-11 12 -4 2.4173 1.2462
-11 12 -3 0.8917 0.0498
-11 12 -2 1.4928 0.6076
-11 12 -1 1.1334 0.2593
-11 12 0 0.8347 0.4963
-11 12 1 2.3901 0.0913
-11 12 2 1.5972 0.6888
-11 12 3 1.1911 0.2025
-11 12 4 0.7324 0.4287
-11 12 5 0.6444 -0.1495
-11 12 6 0.1900 -0.9954
-11 13 -1 -1.2514 -0.5122
-11 13 1 -0.2102 -0.0146
-11 13 2 0.9910 -0.8537
-11 13 3 0.9013 0.8188
-10 0 -8 -0.3320 -0.5293
-10 0 -6 -1.6398 -0.3917
-10 0 -4 -1.8199 -0.0491
-10 0 -2 0.8882 -0.1406
-10 0 0 0.3090 0.0842
-10 0 2 -0.3300 0.2565
-10 0 4 -3.8242 0.3546
-10 0 6 -6.7066 0.3940
-10 0 8 -5.3167 0.3675
-10 0 10 -0.7853 0.1814
-10 0 12 2.2784 0.2713
-10 0 14 -0.4913 -1.0145
-10 1 -9 -0.5960 0.1647
-10 1 -8 -1.9065 0.0497
-10 1 -7 -0.1476 -0.2229
-10 1 -6 -0.1853 -0.2091
-10 1 -5 -1.3792 -0.4351
-10 1 -4 0.3768 -0.3373
-10 1 -3 -1.0868 -0.3220
-10 1 -2 0.2164 -0.3076
-10 1 -1 -0.4917 -0.2744
-10 1 0 1.2971 -0.3569
-10 1 1 -1.2650 -0.0275
-10 1 2 0.9177 -0.0955
-10 1 3 -0.3501 0.2407
-10 1 4 -0.0764 -0.0875
-10 1 5 1.6670 0.1824
-10 1 6 2.2030 -0.0126
-10 1 7 2.1756 0.4690
-10 1 8 6.1741 -0.1043
-10 1 9 0.5767 0.3246
-10 1 10 5.9954 0.3335
-10 1 11 -0.6264 0.4583
-10 1 12 1.9317 0.4195
-10 1 13 -0.6410 -0.0830
-10 1 14 -0.4994 0.0042
-10 1 15 -0.6995 -0.5362
-10 2 -9 -1.1049 0.2271
-10 2 -8 0.8577 -0.0909
-10 2 -7 -0.6171 0.1530
-10 2 -6 0.9990 -0.0999
-10 2 -5 0.6884 0.1273
-10 2 -4 1.3376 0.0998
-10 2 -3 -0.0321 -0.2535
-10 2 -2 2.2411 0.1110
-10 2 -1 0.6134 -0.0497
-10 2 0 1.8451 0.2104
-10 2 1 0.7507 -0.0938
-10 2 2 -0.4172 0.0441
-10 2 3 -1.4190 -0.1235
-10 2 4 3.7143 -0.0469
-10 2 5 -0.2145 0.1300
-10 2 6 7.4800 -0.1615
-10 2 7 -0.3008 0.1600
-10 2 8 6.8789 -0.3033
-10 2 9 -1.2289 0.2737
-10 2 10 1.2838 0.0700
-10 2 11 0.4639 0.3287
-10 2 12 -2.2415 0.3026
-10 2 13 -0.0145 -0.0033
-10 2 14 -0.4337 0.1582
-10 2 15 -0.7561 0.2167
-10 3 -9 0.6226 -0.2845
-10 3 -8 1.3566 0.0479
-10 3 -7 0.3273 0.0232
-10 3 -6 -0.4320 -0.3103
-10 3 -5 1.0572 0.4079
-10 3 -4 -0.2203 -0.0279
-10 3 -3 0.7607 0.0850
-10 3 -2 -0.5744 -0.1329
-10 3 -1 0.2875 0.0636
-10 3 0 -0.8158 -0.1311
-10 3 1 -0.0210 -0.0875
-10 3 2 1.4858 -0.1442
-10 3 3 0.7422 -0.1362
-10 3 4 1.6232 0.0834
-10 3 5 -0.6956 0.0018
-10 3 6 -1.4377 -0.2413
-10 3 7 -3.4724 -0.1109
-10 3 8 -6.0607 -0.1471
-10 3 9 -2.3604 -0.1550
-10 3 10 -6.5663 -0.0961
-10 3 11 -1.3553 -0.0737
-10 3 12 -1.9876 0.1387
-10 3 13 0.0332 0.1204
-10 3 14 0.4142 -0.0868
-10 4 -9 0.8574 -0.2956
-10 4 -8 -1.4285 -0.0727
-10 4 -7 1.0441 -0.1222
-10 4 -6 -1.0879 0.2718
-10 4 -5 0.2985 -0.1211
-10 4 -4 -0.8500 -0.1823
-10 4 -3 0.5366 0.1685
-10 4 -2 -1.3350 -0.0425
-10 4 -1 -0.2625 -0.0744
-10 4 0 -0.7466 -0.1416
-10 4 1 -0.0302 -0.0450
-10 4 2 0.4284 -0.0526
-10 4 3 -0.3634 -0.0235
-10 4 4 -3.1948 -0.3101
-10 4 5 -3.2226 -0.0124
-10 4 6 -6.6743 -0.3057
-10 4 7 -1.1198 -0.0142
-10 4 8 -6.2682 -0.0613
-10 4 9 0.1157 0.1219
-10 4 10 -0.7661 0.0025
-10 4 11 0.0140 -0.0066
-10 4 12 1.8493 -0.0809
-10 4 13 0.7460 -0.1265
-10 4 14 1.1705 -0.0612
-10 5 -9 -0.4945 0.4040
-10 5 -8 1.0165 0.1651
-10 5 -7 -0.4577 0.1007
-10 5 -6 2.0653 0.1933
-10 5 -5 0.3211 0.0807
-10 5 -4 2.0475 0.0850
-10 5 -3 -0.6354 0.1089
-10 5 -2 0.5260 0.1952
-10 5 -1 -1.2744 0.1223
-10 5 0 -0.1067 0.1450
-10 5 1 0.4800 -0.0253
-10 5 2 -1.3802 0.3060
-10 5 3 1.4106 0.0603
-10 5 4 -2.4870 0.2617
-10 5 5 2.3912 -0.0614
-10 5 6 -0.1578 0.3862
-10 5 7 3.3488 -0.0261
-10 5 8 3.1347 0.0403
-10 5 9 1.7719 -0.0252
-10 5 10 2.5163 0.4301
-10 5 11 0.9193 0.1178
-10 5 12 0.3738 0.0077
-10 5 13 -1.2176 -1.1046
-10 5 14 -1.2023 -0.0451
-10 6 -9 -0.5004 -0.3462
-10 6 -8 0.7974 0.0347
-10 6 -7 -0.3998 -0.3363
-10 6 -6 0.0401 -0.1515
-10 6 -5 1.3772 0.0210
-10 6 -4 1.1521 0.1194
-10 6 -3 0.6907 -0.1302
-10 6 -2 1.8872 0.0851
-10 6 -1 -0.8540 -0.1242
-10 6 0 2.1483 0.0602
-10 6 1 -0.6475 -0.1947
-10 6 2 1.0953 -0.0705
-10 6 3 0.0821 -0.2754
-10 6 4 2.1809 0.0128
-10 6 5 1.0637 -0.2928
-10 6 6 5.4317 0.0740
-10 6 7 -0.8230 -0.1990
-10 6 8 5.1205 -0.1586
-10 6 9 -0.9805 -0.0772
-10 6 10 1.0200 -0.1351
-10 6 11 -0.5491 -0.0961
-10 6 12 -1.4618 0.1033
-10 6 13 -0.2540 -0.3339
-10 6 14 -1.0835 -0.1743
-10 7 -9 0.3802 -0.4369
-10 7 -8 -2.0282 -0.8172
-10 7 -7 -0.1643 0.1476
-10 7 -6 -0.9533 0.0921
-10 7 -5 0.3381 0.0280
-10 7 -4 -1.2764 0.1690
-10 7 -3 0.5607 -0.3571
-10 7 -2 -1.1276 -0.0659
-10 7 -1 -0.3757 -0.0987
-10 7 0 0.2898 0.0472
-10 7 1 -0.2190 -0.0747
-10 7 2 0.6434 -0.1057
-10 7 3 -1.2059 -0.0483
-10 7 4 1.5503 -0.0099
-10 7 5 -2.8183 0.0967
-10 7 6 0.7252 -0.2692
-10 7 7 -2.4293 0.1955
-10 7 8 -2.0665 -0.1961
-10 7 9 -0.2605 0.1942
-10 7 10 -1.1899 -0.0913
-10 7 11 1.1631 0.1569
-10 7 12 -0.3580 0.4778
-10 7 13 1.1382 -0.0147
-10 8 -9 -0.5827 -0.0975
-10 8 -8 -1.3356 -0.2858
-10 8 -7 -0.9355 0.3287
-10 8 -6 0.2764 -0.2988
-10 8 -5 -1.0235 0.2882
-10 8 -4 -0.0601 -0.3877
-10 8 -3 -0.3221 -0.1249
-10 8 -2 -1.0534 -0.0300
-10 8 -1 1.3351 -0.0296
-10 8 0 -1.3872 -0.2132
-10 8 1 1.6739 0.0407
-10 8 2 0.0627 -0.1052
-10 8 3 -0.1435 0.0921
-10 8 4 -1.4034 0.0962
-10 8 5 0.0252 0.1878
-10 8 6 -3.8914 -0.0978
-10 8 7 1.5939 0.2453
-10 8 8 -2.9509 -0.0983
-10 8 9 1.5345 0.1212
-10 8 10 -0.8045 0.2785
-10 8 11 1.1473 -0.1070
-10 8 12 0.5210 0.0915
-10 8 13 0.1028 0.0480
-10 9 -8 -0.1197 0.1584
-10 9 -7 -0.4436 -0.0765
-10 9 -6 -0.9732 -0.0570
-10 9 -5 0.6288 -0.0848
-10 9 -4 0.0024 -0.1652
-10 9 -3 0.0692 0.6551
-10 9 -2 -0.0447 -0.1013
-10 9 -1 -0.5668 0.0456
-10 9 0 -1.1198 -0.1560
-10 9 1 0.6339 0.2555
-10 9 2 -0.3950 -0.0002
-10 9 3 0.8722 0.0941
-10 9 4 -0.4401 0.0928
-10 9 5 0.5990 0.0764
-10 9 6 0.3932 0.0052
-10 9 7 0.7269 -0.2115
-10 9 8 2.5704 0.3335
-10 9 9 0.0955 0.0333
-10 9 10 1.9832 0.1223
-10 9 11 -0.3463 -0.4065
-10 9 12 0.7894 -0.2177
-10 10 -7 -0.7231 -0.1623
-10 10 -6 -0.4528 0.6628
-10 10 -5 -0.2097 -0.1990
-10 10 -4 -0.1553 0.1544
-10 10 -3 0.3220 -0.0769
-10 10 -2 -0.5060 -0.2085
-10 10 -1 -1.3738 -0.3246
-10 10 0 1.2224 -0.0281
-10 10 1 -1.4504 -0.3698
-10 10 2 1.1386 -0.2673
-10 10 3 1.1370 -0.4786
-10 10 4 0.7642 -0.1065
-10 10 5 1.7396 -0.0716
-10 10 6 2.0035 0.0286
-10 10 7 0.5553 -0.1262
-10 10 8 0.8697 0.1939
-10 10 9 -0.0431 0.0856
-10 10 10 0.1295 0.2214
-10 10 11 -0.1386 0.0223
-10 11 -6 -0.2813 0.0458
-10 11 -5 -0.4794 -0.1293
-10 11 -4 0.2253 0.8167
-10 11 -3 0.1347 0.3749
-10 11 -2 -0.3462 0.1241
-10 11 -1 0.3361 -0.0364
-10 11 0 -0.4612 -0.0890
-10 11 1 0.5810 -0.0261
-10 11 2 -0.5716 -0.0356
-10 11 3 0.6031 -0.0476
-10 11 4 0.3185 0.2897
-10 11 5 0.1886 0.0073
-10 11 6 -0.2077 0.1109
-10 11 7 -0.9893 -0.0634
-10 11 8 -1.7323 -0.1834
-10 11 9 -0.5918 0.0576
-10 11 10 -0.9717 -0.2983
-10 12 -4 -0.5561 0.2875
-10 12 -3 -1.9036 -0.4288
-10 12 -2 -1.2092 -0.3227
-10 12 -1 -0.4502 0.1084
-10 12 0 -1.7033 -0.2883
-10 12 1 -1.2429 -0.2523
-10 12 2 -1.2821 -0.1927
-10 12 3 -0.7349 0.2883
-10 12 4 0.1863 -0.2188
-10 12 5 0.6596 0.6044
-10 12 6 -0.3670 0.2718
-10 12 7 0.0267 0.8198
-10 12 8 -0.2404 -0.2897
-10 12 9 -0.0170 0.0612
-10 13 -4 -1.3467 -1.7728
-10 13 -3 -0.5900 -0.8694
-10 13 -2 -0.0806 -0.7044
-10 13 -1 -0.1449 0.4108
-10 13 0 0.4428 0.2368
-10 13 1 -1.3856 0.3478
-10 13 2 -0.4768 -0.3396
-10 13 3 -1.0114 0.0345
-10 13 4 -0.5396 -0.5870
-10 13 5 -0.9636 -0.1752
-10 13 6 -0.1550 0.0739
-10 13 7 -0.1618 0.0810
-10 14 -1 0.8784 0.4376
-10 14 1 1.1345 0.3880
-10 14 2 -0.4345 1.8916
-10 14 3 0.4646 0.1131
-9 0 -7 1.3823 -0.2830
-9 0 -5 2.5965 -0.5110
-9 0 -3 0.9713 -0.5565
-9 0 -1 1.6419 -0.4881
-9 0 1 2.0891 -0.4631
-9 0 3 1.1798 -0.3004
-9 0 5 2.9795 -0.1759
-9 0 7 7.3984 0.0811
-9 0 9 9.6290 0.2291
-9 0 11 3.4634 0.1523
-9 0 13 -1.5993 0.3947
-9 0 15 -1.5718 0.8428
-9 1 -8 0.0988 -0.1844
-9 1 -7 2.5624 -0.2982
-9 1 -6 0.8913 -0.3041
-9 1 -5 0.8358 -0.0931
-9 1 -4 1.8329 -0.5354
-9 1 -3 0.7269 -0.2213
-9 1 -2 0.7345 -0.4606
-9 1 -1 -0.2504 -0.1260
-9 1 0 0.4479 -0.3378
-9 1 1 -2.9925 -0.3619
-9 1 2 -0.0396 -0.2988
-9 1 3 -1.9910 -0.3734
-9 1 4 -0.6543 -0.2504
-9 1 5 1.9168 -0.3304
-9 1 6 -1.0926 -0.1329
-9 1 7 2.1089 -0.2188
-9 1 8 -0.7684 0.2204
-9 1 9 -3.2814 -0.2436
-9 1 10 1.2250 0.1954
-9 1 11 -5.2071 -0.1843
-9 1 12 1.1177 0.3402
-9 1 13 -2.2940 0.0457
-9 1 14 0.5886 0.5683
-9 1 15 -0.0245 0.1986
-9 2 -8 1.4602 0.1025
-9 2 -7 -1.1479 0.2136
-9 2 -6 0.4288 0.3877
-9 2 -5 -1.7350 0.2039
-9 2 -4 -0.1282 0.0997
-9 2 -3 -2.7047 0.3259
-9 2 -2 -1.1623 0.2616
-9 2 -1 -4.0455 0.2077
-9 2 0 -2.8809 -0.0575
-9 2 1 -1.6651 0.0358
-9 2 2 0.2150 0.0618
-9 2 3 -1.2521 0.0581
-9 2 4 1.8094 -0.3121
-9 2 5 -4.3216 0.1854
-9 2 6 -0.7192 -0.2584
-9 2 7 -8.8633 0.0889
-9 2 8 0.8643 -0.2499
-9 2 9 -9.4219 0.1750
-9 2 10 0.9505 -0.1253
-9 2 11 -2.7935 -0.2491
-9 2 12 -0.1622 0.1231
-9 2 13 1.3756 0.3505
-9 2 14 1.2288 0.1726
-9 2 15 2.0421 -0.0079
-9 3 -8 -0.8831 -0.0691
-9 3 -7 -2.2730 0.2490
-9 3 -6 -1.0940 -0.1392
-9 3 -5 -0.1276 0.2716
-9 3 -4 -1.5120 0.0982
-9 3 -3 -1.0323 0.1069
-9 3 -2 -0.8229 0.1641
-9 3 -1 -1.1793 0.1529
-9 3 0 -0.0623 0.1086
-9 3 1 -0.0642 -0.0250
-9 3 2 -1.2041 0.0208
-9 3 3 0.2041 -0.1643
-9 3 4 -2.2573 -0.0277
-9 3 5 -2.0128 -0.1626
-9 3 6 1.3330 -0.0992
-9 3 7 -1.7002 0.0354
-9 3 8 2.9335 -0.0849
-9 3 9 4.4830 -0.1749
-9 3 10 1.3502 -0.2149
-9 3 11 5.7591 -0.2521
-9 3 12 0.5835 0.0829
-9 3 13 3.0711 -0.0032
-9 3 14 0.0217 -0.4518
-9 3 15 0.7639 0.1168
-9 4 -8 -3.1246 0.2963
-9 4 -7 1.3606 -0.1062
-9 4 -6 -1.5776 0.1243
-9 4 -5 1.6246 0.0308
-9 4 -4 -0.6378 -0.2029
-9 4 -3 1.5411 0.0589
-9 4 -2 0.2282 -0.0226
-9 4 -1 3.0832 0.1440
-9 4 0 1.1199 -0.0044
-9 4 1 1.4190 0.1758
-9 4 2 0.4926 -0.0490
-9 4 3 0.4460 0.1747
-9 4 4 2.4478 -0.0183
-9 4 5 3.0521 0.2211
-9 4 6 4.5589 0.0555
-9 4 7 7.5517 0.1217
-9 4 8 1.8663 -0.0679
-9 4 9 7.5836 -0.1119
-9 4 10 0.0343 -0.1263
-9 4 11 2.8521 -0.0320
-9 4 12 -1.1347 0.0390
-9 4 13 -1.0951 -0.1142
-9 4 14 -1.1220 -0.1685
-9 4 15 -2.4145 0.1251
-9 5 -8 0.9066 -0.0658
-9 5 -7 -0.2940 0.1563
-9 5 -6 0.1983 0.0535
-9 5 -5 -1.6094 -0.3426
-9 5 -4 0.4688 0.0514
-9 5 -3 0.4224 -0.0037
-9 5 -2 1.3296 -0.0056
-9 5 -1 1.2976 -0.0815
-9 5 0 1.1028 0.0160
-9 5 1 0.4740 -0.0732
-9 5 2 1.1448 -0.0487
-9 5 3 0.9349 -0.0029
-9 5 4 1.1930 0.0015
-9 5 5 3.9051 0.0943
-9 5 6 -1.4962 -0.0443
-9 5 7 3.3426 0.1435
-9 5 8 -2.7134 -0.0141
-9 5 9 -0.9525 0.0282
-9 5 10 -2.7028 -0.1329
-9 5 11 -3.0314 0.0141
-9 5 12 -0.7113 0.1555
-9 5 13 -2.0650 0.1279
-9 5 14 0.6768 0.4298
-9 5 15 -0.1835 -0.3826
-9 6 -8 1.6861 0.0610
-9 6 -7 -0.4830 0.2428
-9 6 -6 -0.3129 -0.1949
-9 6 -5 -1.8269 0.1741
-9 6 -4 -0.6000 0.2896
-9 6 -3 -3.1425 0.1259
-9 6 -2 1.1277 0.0392
-9 6 -1 -4.1196 0.0890
-9 6 0 1.4527 0.0852
-9 6 1 -2.0298 0.1556
-9 6 2 0.9634 0.1082
-9 6 3 -0.1219 -0.0628
-9 6 4 -1.5087 0.1819
-9 6 5 -1.8832 0.0293
-9 6 6 -1.9535 0.0043
-9 6 7 -5.6383 -0.0776
-9 6 8 -0.4738 0.0010
-9 6 9 -5.4516 0.0507
-9 6 10 0.5501 -0.1694
-9 6 11 -2.0851 -0.0935
-9 6 12 1.6082 0.2033
-9 6 13 1.4831 0.3536
-9 6 14 0.7490 -0.0882
-9 7 -8 0.3970 0.2967
-9 7 -7 0.3915 -0.0678
-9 7 -6 -0.1200 -0.2035
-9 7 -5 0.1469 0.0942
-9 7 -4 -1.0525 -0.1519
-9 7 -3 0.2096 -0.0208
-9 7 -2 -0.5263 -0.2310
-9 7 -1 -0.2226 -0.1393
-9 7 0 -0.9307 -0.1999
-9 7 1 -0.3836 -0.0506
-9 7 2 -1.5544 -0.2125
-9 7 3 -0.8532 0.1702
-9 7 4 -0.0439 -0.1404
-9 7 5 -3.3811 0.2073
-9 7 6 1.2797 0.0334
-9 7 7 -2.1167 0.1330
-9 7 8 1.5238 -0.0261
-9 7 9 0.1280 -0.0212
-9 7 10 0.3071 -0.0506
-9 7 11 1.4832 -0.3736
-9 7 12 -0.8781 0.3218
-9 7 13 1.5725 0.1815
-9 7 14 -0.3670 0.5157
-9 8 -8 0.8342 0.1943
-9 8 -7 0.6001 -0.2193
-9 8 -6 0.6275 -0.3823
-9 8 -5 0.0851 0.0322
-9 8 -4 0.3936 -0.0183
-9 8 -3 2.3313 -0.0480
-9 8 -2 -0.9938 0.1196
-9 8 -1 2.8409 0.1144
-9 8 0 -2.1266 0.1338
-9 8 1 0.9750 0.0650
-9 8 2 -2.0081 0.2341
-9 8 3 0.6162 0.1766
-9 8 4 0.6056 0.0055
-9 8 5 1.6157 -0.0901
-9 8 6 0.3421 -0.0049
-9 8 7 3.0660 0.2715
-9 8 8 -0.0508 0.0065
-9 8 9 3.0747 -0.1654
-9 8 10 -1.0130 0.2335
-9 8 11 0.9859 0.0167
-9 8 12 -0.7531 -0.1151
-9 8 13 -0.6895 -0.4579
-9 9 -8 0.7314 -0.0581
-9 9 -7 1.1490 0.1397
-9 9 -6 -0.3251 0.2221
-9 9 -5 1.0076 -0.1088
-9 9 -4 0.0814 -0.0963
-9 9 -3 0.7713 0.0423
-9 9 -2 1.7359 0.1221
-9 9 -1 0.7279 -0.0410
-9 9 0 0.4352 0.1428
-9 9 1 0.0330 0.1676
-9 9 2 0.9441 0.0550
-9 9 3 0.0583 -0.2053
-9 9 4 1.7254 0.0415
-9 9 5 1.1898 0.0029
-9 9 6 0.3277 0.1901
-9 9 7 -0.0326 -0.2476
-9 9 8 -1.0456 0.0868
-9 9 9 -1.8613 -0.1139
-9 9 10 -0.5734 0.1263
-9 9 11 -1.5521 0.2889
-9 9 12 0.3658 0.3140
-9 9 13 -0.9627 -0.5328
-9 10 -8 -0.1377 -0.4375
-9 10 -7 -0.7745 -0.4722
-9 10 -6 0.4786 -0.0531
-9 10 -5 -0.2179 -0.1612
-9 10 -4 -0.4911 0.1236
-9 10 -3 -0.6872 -0.0797
-9 10 -2 1.3629 0.0970
-9 10 -1 -1.2927 -0.1542
-9 10 0 2.2800 0.0957
-9 10 1 -2.1728 -0.0048
-9 10 2 1.0679 0.0550
-9 10 3 -0.5507 -0.0954
-9 10 4 -1.8438 -0.0546
-9 10 5 -1.0497 -0.1657
-9 10 6 -1.7604 -0.2572
-9 10 7 -1.4087 -0.1142
-9 10 8 -1.1445 -0.2627
-9 10 9 -1.5252 -0.1970
-9 10 10 -0.1971 -0.0879
-9 10 11 -0.6254 0.0958
-9 10 12 0.0997 0.1917
-9 11 -7 0.2124 -0.1567
-9 11 -6 0.2715 0.6300
-9 11 -5 0.0957 0.5102
-9 11 -4 0.1506 -0.2426
-9 11 -3 0.2760 -0.0505
-9 11 -2 -0.7494 -0.0217
-9 11 -1 0.6194 0.2555
-9 11 0 -1.2536 -0.1305
-9 11 1 1.4263 0.1238
-9 11 2 -1.3218 0.0263
-9 11 3 0.8061 0.0666
-9 11 4 -1.2952 -0.0150
-9 11 5 -0.7602 -0.1315
-9 11 6 -0.2994 -0.1325
-9 11 7 -0.1816 0.1685
-9 11 8 1.1377 -0.0996
-9 11 9 0.9648 -0.0774
-9 11 10 0.6227 -0.0145
-9 11 11 0.1062 -0.3943
-9 12 -6 -0.2125 0.3007
-9 12 -5 -0.2073 -0.2674
-9 12 -4 1.2246 -0.3412
-9 12 -3 0.9939 -0.2461
-9 12 -2 -0.2436 -0.1485
-9 12 -1 0.9844 0.0874
-9 12 0 -0.5900 -0.0614
-9 12 1 1.2447 -0.1387
-9 12 2 -0.0931 -0.0526
-9 12 3 0.0157 0.1868
-9 12 4 -1.0555 -0.4338
-9 12 5 -0.5024 -0.0402
-9 12 6 -0.4592 -0.1383
-9 12 7 0.1375 -0.1353
-9 12 8 0.7083 0.1525
-9 12 9 0.8103 -0.2124
-9 12 10 -0.2521 0.2542
-9 13 -4 0.9325 0.2818
-9 13 -3 0.8321 0.8389
-9 13 -2 0.0986 0.4167
-9 13 -1 0.2280 -0.1160
-9 13 0 0.4447 -0.0178
-9 13 1 -0.4302 -0.0419
-9 13 2 0.7296 0.3534
-9 13 3 -0.5480 0.2942
-9 13 4 0.7637 0.3766
-9 13 5 -0.4043 -0.1711
-9 13 6 0.6056 0.2207
-9 13 7 0.1223 0.3533
-9 13 8 -0.5163 0.0129
-9 13 9 -0.2485 1.0057
-9 14 -3 -1.1914 0.2337
-9 14 -2 0.1458 -0.1562
-9 14 -1 0.7668 -0.5818
-9 14 0 0.0665 -0.0947
-9 14 1 1.9366 -0.5383
-9 14 2 -0.5014 0.1520
-9 14 3 0.5099 -0.9061
-9 14 4 0.9408 -0.0184
-9 14 5 1.2961 0.7920
-9 14 6 1.7639 -0.4556
-9 15 0 0.8876 -0.9900
-9 15 1 0.3673 0.3564
-9 15 2 -1.5006 -1.9056
-8 0 -6 -0.8782 0.2878
-8 0 -4 -0.4851 -0.0245
-8 0 -2 -0.4157 -0.2393
-8 0 0 -5.1398 -0.3314
-8 0 2 -4.6145 -0.4751
-8 0 4 -1.5227 -0.4198
-8 0 6 -0.4424 -0.4396
-8 0 8 -7.3757 -0.3933
-8 0 10 -10.8847 -0.1321
-8 0 12 -4.1290 -0.0593
-8 0 14 0.4816 -0.0649
-8 0 16 1.9435 1.1493
-8 1 -7 -0.2997 0.2983
-8 1 -6 -2.5091 0.0691
-8 1 -5 -1.8156 0.3472
-8 1 -4 -0.9949 0.2557
-8 1 -3 -1.4278 0.1950
-8 1 -2 -1.5457 0.2370
-8 1 -1 -0.5703 0.0179
-8 1 0 0.1106 0.3379
-8 1 1 0.3718 -0.0879
-8 1 2 4.3731 0.1701
-8 1 3 0.9424 -0.2542
-8 1 4 3.2706 0.1355
-8 1 5 -0.1227 -0.1378
-8 1 6 -2.6551 -0.0436
-8 1 7 0.1933 -0.2188
-8 1 8 -6.3223 -0.1136
-8 1 9 -0.5071 -0.4018
-8 1 10 -1.1679 -0.1268
-8 1 11 -1.3132 -0.1409
-8 1 12 2.6479 -0.2468
-8 1 13 -0.1548 -0.1656
-8 1 14 2.5647 0.1588
-8 1 15 -0.3010 0.9586
-8 1 16 1.6905 0.1824
-8 2 -7 -1.8500 -0.1622
-8 2 -6 -0.0479 0.0260
-8 2 -5 -0.4546 0.1560
-8 2 -4 0.7696 0.0163
-8 2 -3 0.7043 0.2010
-8 2 -2 2.1514 -0.1313
-8 2 -1 3.8263 0.2118
-8 2 0 4.8608 -0.0525
-8 2 1 3.5632 0.0905
-8 2 2 4.8614 0.0847
-8 2 3 -2.1826 0.0258
-8 2 4 4.1952 -0.0722
-8 2 5 -1.9242 -0.0085
-8 2 6 3.0005 0.0056
-8 2 7 -0.2754 -0.1412
-8 2 8 7.3119 0.0293
-8 2 9 -2.0600 -0.2522
-8 2 10 8.7017 0.0698
-8 2 11 -1.0401 -0.2591
-8 2 12 4.4422 -0.2336
-8 2 13 -1.0179 -0.2694
-8 2 14 -0.1666 -0.3123
-8 2 15 -0.7020 0.4099
-8 3 -7 0.7307 -0.0491
-8 3 -6 1.6226 0.2143
-8 3 -5 1.1911 -0.1323
-8 3 -4 1.4494 0.2360
-8 3 -3 1.3541 -0.0900
-8 3 -2 3.6771 -0.0471
-8 3 -1 0.6241 0.0271
-8 3 0 3.7403 0.2001
-8 3 1 1.2247 0.0687
-8 3 2 -1.9262 0.0848
-8 3 3 2.8934 0.1842
-8 3 4 -3.6045 0.1663
-8 3 5 2.4244 0.1501
-8 3 6 1.6370 -0.0260
-8 3 7 -0.9838 0.0287
-8 3 8 4.0850 0.1678
-8 3 9 -1.7545 0.1021
-8 3 10 -0.2243 0.0509
-8 3 11 -1.1645 -0.1009
-8 3 12 -2.4218 0.0130
-8 3 13 -0.8532 -0.4028
-8 3 14 -3.1681 -0.2708
-8 3 15 -0.4294 0.1580
-8 3 16 -0.5872 0.5841
-8 4 -7 4.3864 -0.0013
-8 4 -6 -0.1964 -0.0889
-8 4 -5 1.4793 0.0392
-8 4 -4 0.1212 -0.0642
-8 4 -3 0.0972 -0.1244
-8 4 -2 -1.6170 0.0722
-8 4 -1 -0.8521 -0.0306
-8 4 0 -4.5122 0.0805
-8 4 1 -1.0940 -0.0041
-8 4 2 -3.2307 0.1784
-8 4 3 0.3989 0.0202
-8 4 4 -2.2146 0.2306
-8 4 5 -2.7221 -0.0261
-8 4 6 -1.5196 0.2639
-8 4 7 -4.2722 0.0098
-8 4 8 -5.1891 0.1888
-8 4 9 -1.6623 0.1930
-8 4 10 -7.2872 0.0532
-8 4 11 0.5437 -0.0652
-8 4 12 -5.0289 0.0567
-8 4 13 1.0449 -0.0552
-8 4 14 0.0927 -0.0784
-8 4 15 -0.3722 -0.1236
-8 5 -7 -0.4443 -0.1333
-8 5 -6 -0.0552 -0.1204
-8 5 -5 0.1747 0.0006
-8 5 -4 -1.4991 -0.0692
-8 5 -3 -0.6221 -0.0183
-8 5 -2 -3.8334 -0.0704
-8 5 -1 -0.7478 -0.0685
-8 5 0 -3.4013 -0.1056
-8 5 1 -1.7863 0.1380
-8 5 2 0.4318 -0.0774
-8 5 3 -3.5882 0.0369
-8 5 4 0.1729 -0.2054
-8 5 5 -3.5311 -0.0136
-8 5 6 -4.6675 -0.0877
-8 5 7 -0.3046 0.0640
-8 5 8 -5.5222 -0.1612
-8 5 9 2.3113 0.0880
-8 5 10 -1.6009 -0.0038
-8 5 11 2.8974 -0.1056
-8 5 12 1.9691 -0.0852
-8 5 13 0.4347 0.1721
-8 5 14 2.4048 0.1641
-8 5 15 0.1745 0.3561
-8 6 -7 -1.5462 0.1095
-8 6 -6 0.5529 -0.1305
-8 6 -5 -0.1705 0.0124
-8 6 -4 2.2877 0.0231
-8 6 -3 -1.2205 -0.1770
-8 6 -2 3.9660 -0.2920
-8 6 -1 -2.3953 0.0096
-8 6 0 4.4629 -0.2462
-8 6 1 -2.5978 -0.0105
-8 6 2 2.2912 -0.1270
-8 6 3 -2.0637 0.0787
-8 6 4 0.6168 -0.1641
-8 6 5 0.8014 0.2201
-8 6 6 0.8061 -0.1786
-8 6 7 1.9266 0.1614
-8 6 8 3.8515 -0.1488
-8 6 9 1.5518 0.2406
-8 6 10 5.9536 0.1507
-8 6 11 -0.9939 0.0799
-8 6 12 3.5715 -0.2407
-8 6 13 -1.4862 0.1701
-8 6 14 0.0482 0.4223
-8 6 15 1.1573 1.5911
-8 7 -7 -0.5661 -0.0638
-8 7 -6 0.6886 0.0753
-8 7 -5 0.4337 0.1782
-8 7 -4 1.5905 -0.2016
-8 7 -3 0.5507 0.1588
-8 7 -2 2.9914 0.0777
-8 7 -1 0.5810 0.2470
-8 7 0 2.4266 -0.0652
-8 7 1 1.5559 0.1640
-8 7 2 0.5641 -0.0264
-8 7 3 1.8123 0.1650
-8 7 4 0.7084 -0.0598
-8 7 5 1.6041 -0.0186
-8 7 6 3.0783 0.1182
-8 7 7 0.3359 -0.1246
-8 7 8 3.3529 0.1454
-8 7 9 -0.6138 0.0301
-8 7 10 1.3154 0.3825
-8 7 11 -0.3449 -0.1207
-8 7 12 -1.8495 -0.1526
-8 7 13 0.3498 -0.2935
-8 7 14 -0.6766 -0.3518
-8 8 -7 -0.5750 0.0310
-8 8 -6 0.6858 0.3586
-8 8 -5 0.3785 -0.0683
-8 8 -4 -1.0125 -0.0436
-8 8 -3 1.3116 -0.0078
-8 8 -2 -3.6652 0.0820
-8 8 -1 2.4040 0.0652
-8 8 0 -3.2337 0.0244
-8 8 1 3.6095 -0.1953
-8 8 2 -2.8547 -0.0093
-8 8 3 2.6534 -0.0435
-8 8 4 -1.5944 0.0096
-8 8 5 -0.0527 -0.1038
-8 8 6 -0.8409 -0.0088
-8 8 7 -0.8237 -0.0424
-8 8 8 -2.0808 0.0674
-8 8 9 -0.6521 -0.2431
-8 8 10 -3.1794 -0.0700
-8 8 11 0.7231 0.2515
-8 8 12 -1.8504 -0.0665
-8 8 13 0.5466 -0.7924
-8 8 14 -0.1208 -0.0760
-8 9 -7 0.3043 -0.0342
-8 9 -6 -1.1212 0.0108
-8 9 -5 0.6022 -0.0675
-8 9 -4 -2.0959 0.0656
-8 9 -3 -1.4598 0.0092
-8 9 -2 -2.9212 0.1244
-8 9 -1 -0.9270 -0.1854
-8 9 0 -1.6242 -0.1496
-8 9 1 -0.3253 -0.0540
-8 9 2 -0.1500 -0.0255
-8 9 3 -2.3906 -0.1104
-8 9 4 -0.1176 -0.0228
-8 9 5 -2.1569 -0.1261
-8 9 6 -0.7040 -0.1132
-8 9 7 -0.5114 -0.1053
-8 9 8 -0.2539 0.0783
-8 9 9 1.0127 0.1924
-8 9 10 0.5774 -0.2418
-8 9 11 0.4817 -0.1135
-8 9 12 0.8439 0.2715
-8 9 13 -0.5060 0.1622
-8 10 -7 0.1699 0.3728
-8 10 -6 0.8733 -0.1526
-8 10 -5 0.1081 0.0536
-8 10 -4 0.2777 0.1380
-8 10 -3 -1.1462 0.1878
-8 10 -2 1.9188 0.1151
-8 10 -1 -2.9689 0.0044
-8 10 0 2.9253 0.1329
-8 10 1 -3.0705 0.2092
-8 10 2 2.2593 -0.1023
-8 10 3 -0.8504 0.1829
-8 10 4 1.6529 0.2178
-8 10 5 1.6302 0.2417
-8 10 6 0.9541 -0.0929
-8 10 7 1.5087 0.2113
-8 10 8 0.6040 0.0882
-8 10 9 1.4844 0.0310
-8 10 10 1.6845 -0.2117
-8 10 11 0.0930 -0.1097
-8 10 12 1.2036 0.1773
-8 11 -7 -0.2824 -0.0223
-8 11 -6 0.1435 -0.1643
-8 11 -5 -0.5159 -0.1208
-8 11 -4 -0.2913 -0.3219
-8 11 -3 0.6419 -0.0789
-8 11 -2 0.1066 -0.1175
-8 11 -1 1.1667 -0.0242
-8 11 0 -0.2360 0.0244
-8 11 1 0.5475 0.0085
-8 11 2 -1.1104 -0.1964
-8 11 3 0.5732 -0.0893
-8 11 4 0.7646 0.0585
-8 11 5 1.6173 0.0332
-8 11 6 1.3722 -0.0923
-8 11 7 0.5268 0.0387
-8 11 8 0.9505 -0.1208
-8 11 9 -0.8939 -0.0311
-8 11 10 0.5736 0.2256
-8 11 11 -0.2595 -0.3608
-8 11 12 0.0501 0.6568
-8 12 -7 0.7916 -0.7179
-8 12 -6 -0.4670 -0.5017
-8 12 -5 -0.1741 -0.1469
-8 12 -4 0.2064 0.0911
-8 12 -3 -0.1459 0.1359
-8 12 -2 -0.9723 0.1201
-8 12 -1 1.6108 0.0554
-8 12 0 -0.7250 0.2494
-8 12 1 1.5610 -0.1026
-8 12 2 -1.4372 0.2519
-8 12 3 1.7780 -0.0368
-8 12 4 -0.4580 -0.0609
-8 12 5 1.0530 0.0069
-8 12 6 0.5810 0.0330
-8 12 7 -0.9945 -0.2934
-8 12 8 0.0600 0.3033
-8 12 9 -1.0020 -0.0740
-8 12 10 -1.0539 0.4032
-8 12 11 0.6172 -0.9164
-8 13 -6 -0.2166 0.1760
-8 13 -5 -0.9562 0.7553
-8 13 -4 -0.1622 0.3752
-8 13 -3 -0.4473 -0.1892
-8 13 -2 -0.9227 -0.0362
-8 13 -1 1.1131 0.1083
-8 13 0 -0.2355 0.1823
-8 13 1 0.9715 -0.0533
-8 13 2 0.9494 -0.0456
-8 13 3 0.5838 0.0497
-8 13 4 1.0234 0.1844
-8 13 5 -1.1263 -0.0043
-8 13 6 0.1543 0.2815
-8 13 7 -0.7460 0.2025
-8 13 8 -0.6646 -0.4931
-8 13 9 -0.1866 0.0985
-8 14 -5 -0.4272 -0.1115
-8 14 -4 -0.1629 -0.3249
-8 14 -3 -0.4655 -0.5157
-8 14 -2 -0.2452 -0.0293
-8 14 -1 -0.9654 -0.2292
-8 14 0 -2.2829 -0.4061
-8 14 1 -0.8936 -0.5851
-8 14 2 0.1230 0.0108
-8 14 3 -1.2203 -0.5794
-8 14 4 -0.0096 -0.4324
-8 14 5 -2.0535 -0.0112
-8 14 6 -0.2449 -0.5677
-8 14 7 -0.7817 0.0386
-8 14 8 0.6838 -0.1195
-8 15 -2 1.0491 0.4195
-8 15 0 -0.2209 -0.0586
-8 15 1 0.5717 0.8094
-8 15 2 -0.1359 -0.2338
-8 15 3 2.4905 0.7470
-7 0 -5 -0.5937 0.2795
-7 0 -3 -2.5171 0.5120
-7 0 -1 -0.6427 0.3247
-7 0 1 5.1948 0.2383
-7 0 3 6.1724 0.0631
-7 0 5 2.7516 -0.0929
-7 0 7 -0.3469 -0.1332
-7 0 9 5.0388 -0.3513
-7 0 11 6.9729 -0.3487
-7 0 13 4.2867 -0.0898
-7 0 15 1.3617 -0.6995
-7 1 -6 1.2449 0.4133
-7 1 -5 1.0154 0.2540
-7 1 -4 1.8579 0.4978
-7 1 -3 0.3003 0.3847
-7 1 -2 0.9888 0.6036
-7 1 -1 3.7666 0.1922
-7 1 0 0.5797 0.3737
-7 1 1 4.7163 0.3865
-7 1 2 -0.7881 0.2284
-7 1 3 -0.1533 0.4352
-7 1 4 -0.1401 0.1875
-7 1 5 -2.8973 0.3218
-7 1 6 0.7791 -0.2576
-7 1 7 1.8066 0.3586
-7 1 8 -0.0923 -0.0218
-7 1 9 7.4347 0.1220
-7 1 10 0.2650 -0.3048
-7 1 11 4.0874 0.1887
-7 1 12 -0.2512 -0.0603
-7 1 13 -0.2493 -0.1122
-7 1 14 -0.5277 -0.4960
-7 1 15 -1.9793 -0.5473
-7 1 16 0.2174 -0.5565
-7 2 -6 0.6348 -0.0817
-7 2 -5 1.1321 0.0110
-7 2 -4 0.1478 -0.0309
-7 2 -3 1.7743 -0.0501
-7 2 -2 -2.5649 0.1076
-7 2 -1 0.3201 0.0112
-7 2 0 -4.9763 0.0963
-7 2 1 -5.9760 -0.0354
-7 2 2 -0.5362 0.2701
-7 2 3 -10.4834 -0.0725
-7 2 4 4.9334 0.2113
-7 2 5 -7.8475 -0.0145
-7 2 6 2.7888 0.2528
-7 2 7 -1.6261 -0.0897
-7 2 8 1.1078 0.0676
-7 2 9 -2.8236 -0.1038
-7 2 10 1.3005 0.0563
-7 2 11 -5.2650 0.0252
-7 2 12 0.8303 -0.0869
-7 2 13 -4.3980 0.0973
-7 2 14 0.2778 -0.3435
-7 2 15 -0.7721 -0.2026
-7 2 16 0.2466 -0.3338
-7 3 -6 -0.2374 0.0309
-7 3 -5 -1.0013 -0.2908
-7 3 -4 -1.4833 -0.1619
-7 3 -3 -2.8367 -0.1184
-7 3 -2 -1.6790 -0.2576
-7 3 -1 -8.1757 -0.0974
-7 3 0 -2.4029 -0.1644
-7 3 1 -6.4602 0.0780
-7 3 2 -2.6949 -0.0784
-7 3 3 2.3692 0.0456
-7 3 4 -2.5022 -0.0884
-7 3 5 5.6878 0.2494
-7 3 6 -1.7458 0.1715
-7 3 7 0.6092 -0.0500
-7 3 8 0.9334 0.1182
-7 3 9 -4.2458 0.1439
-7 3 10 1.8580 0.1712
-7 3 11 -3.9685 0.0515
-7 3 12 1.4569 0.1656
-7 3 13 -0.3712 0.0810
-7 3 14 0.9855 0.0684
-7 3 15 1.2459 -0.6339
-7 3 16 -0.3406 -0.1962
-7 4 -6 -2.4886 -0.0875
-7 4 -5 -1.3802 -0.0486
-7 4 -4 -0.6574 0.2407
-7 4 -3 -1.9792 -0.0235
-7 4 -2 -0.2491 0.0544
-7 4 -1 0.9402 -0.0020
-7 4 0 -0.0239 -0.0308
-7 4 1 4.3039 -0.0797
-7 4 2 -0.9400 0.0792
-7 4 3 7.6760 0.0277
-7 4 4 -2.2688 -0.0221
-7 4 5 5.1645 -0.0512
-7 4 6 1.6950 0.0093
-7 4 7 -0.1667 0.0145
-7 4 8 3.1064 -0.0831
-7 4 9 1.5725 0.1415
-7 4 10 1.3921 0.0927
-7 4 11 4.8090 0.2786
-7 4 12 -0.5152 0.0519
-7 4 13 4.3953 -0.0606
-7 4 14 0.2498 0.2317
-7 4 15 0.5797 0.6815
-7 4 16 0.0960 -0.3535
-7 5 -6 -0.4676 -0.1130
-7 5 -5 1.4197 -0.0053
-7 5 -4 0.0748 -0.1782
-7 5 -3 3.5004 0.0860
-7 5 -2 0.7257 0.0759
-7 5 -1 7.1619 0.0353
-7 5 0 0.8050 -0.2189
-7 5 1 5.7522 0.0323
-7 5 2 2.4936 -0.0917
-7 5 3 0.4626 -0.0038
-7 5 4 4.2225 0.0439
-7 5 5 -0.8341 -0.2393
-7 5 6 3.8020 0.0627
-7 5 7 2.9174 -0.1481
-7 5 8 0.5460 -0.0478
-7 5 9 5.5141 -0.1595
-7 5 10 -2.6796 0.1796
-7 5 11 3.5807 0.0586
-7 5 12 -1.9724 0.1706
-7 5 13 -0.3140 -0.2517
-7 5 14 0.0404 -0.1560
-7 5 15 -0.9567 0.6035
-7 5 16 0.5316 0.5382
-7 6 -6 1.1651 -0.0763
-7 6 -5 -1.3971 -0.2411
-7 6 -4 1.5192 0.0390
-7 6 -3 -0.8555 0.0318
-7 6 -2 3.0121 -0.1201
-7 6 -1 -2.0096 -0.0840
-7 6 0 3.7932 -0.0049
-7 6 1 -2.9265 -0.0651
-7 6 2 4.1718 -0.1846
-7 6 3 -4.5298 -0.0494
-7 6 4 3.9011 -0.1628
-7 6 5 -2.2752 -0.0048
-7 6 6 0.7148 -0.0753
-7 6 7 -0.0690 0.0868
-7 6 8 -1.5455 0.0549
-7 6 9 -2.5836 -0.0512
-7 6 10 -0.9002 -0.1687
-7 6 11 -5.1343 -0.0629
-7 6 12 1.5145 0.4492
-7 6 13 -3.6506 0.0128
-7 6 14 0.0609 -0.9018
-7 6 15 -1.0951 -0.5061
-7 7 -6 -0.2060 0.0349
-7 7 -5 -0.9575 0.0673
-7 7 -4 -0.3125 0.1185
-7 7 -3 -3.1233 -0.0800
-7 7 -2 -0.2223 0.0681
-7 7 -1 -5.6653 0.1259
-7 7 0 0.0997 0.1670
-7 7 1 -5.0294 0.1060
-7 7 2 0.5012 0.1076
-7 7 3 -1.5567 -0.0952
-7 7 4 -0.4879 0.1196
-7 7 5 0.6057 -0.0366
-7 7 6 -1.5830 0.0971
-7 7 7 -2.0740 -0.0860
-7 7 8 -0.8289 0.0275
-7 7 9 -4.1498 -0.0553
-7 7 10 0.5067 -0.0334
-7 7 11 -2.0438 -0.0278
-7 7 12 0.7179 0.0935
-7 7 13 -0.0426 0.4675
-7 7 14 -0.7033 -0.6130
-7 7 15 -1.2446 -1.6347
-7 8 -6 -1.0122 0.1216
-7 8 -5 -0.2559 0.0048
-7 8 -4 -2.1827 0.0603
-7 8 -3 0.8729 -0.0169
-7 8 -2 -3.2396 -0.0645
-7 8 -1 2.1790 0.1272
-7 8 0 -3.5718 -0.0360
-7 8 1 3.6938 -0.0607
-7 8 2 -4.5719 -0.1086
-7 8 3 4.7312 -0.0457
-7 8 4 -2.7612 -0.0982
-7 8 5 2.7013 -0.0918
-7 8 6 -0.9759 -0.1179
-7 8 7 0.6867 -0.1505
-7 8 8 0.2301 -0.0307
-7 8 9 1.4289 -0.0086
-7 8 10 0.0569 -0.1692
-7 8 11 3.1165 0.2012
-7 8 12 -0.8237 -0.1856
-7 8 13 2.2994 0.1774
-7 8 14 -1.1366 0.6037
-7 9 -6 -0.7330 -0.0246
-7 9 -5 0.7583 -0.0142
-7 9 -4 0.4963 0.0424
-7 9 -3 2.7856 -0.0431
-7 9 -2 0.6574 -0.0820
-7 9 -1 4.1425 0.0582
-7 9 0 -0.6524 -0.1280
-7 9 1 2.6184 0.0176
-7 9 2 -0.0196 -0.1575
-7 9 3 1.0104 0.0121
-7 9 4 1.2323 -0.0899
-7 9 5 -0.5845 0.0337
-7 9 6 1.5536 0.0098
-7 9 7 0.2230 0.0779
-7 9 8 0.2282 -0.2627
-7 9 9 1.1038 -0.0405
-7 9 10 -1.0364 -0.1493
-7 9 11 1.1813 -0.1639
-7 9 12 -0.4637 -0.1536
-7 9 13 0.8011 0.0254
-7 9 14 1.0086 0.4715
-7 10 -6 0.3974 -0.0734
-7 10 -5 -0.3793 0.0693
-7 10 -4 1.3943 -0.0938
-7 10 -3 -0.4425 0.0506
-7 10 -2 3.2150 -0.2347
-7 10 -1 -2.1452 -0.1692
-7 10 0 3.3001 -0.0412
-7 10 1 -2.3597 0.1508
-7 10 2 2.6335 -0.0153
-7 10 3 -2.9466 -0.0842
-7 10 4 0.2156 0.0409
-7 10 5 -2.9752 0.1096
-7 10 6 0.0086 0.0337
-7 10 7 0.2065 0.0034
-7 10 8 -0.6289 0.1689
-7 10 9 -0.2796 0.0377
-7 10 10 -0.9845 0.0800
-7 10 11 -1.4872 0.0432
-7 10 12 0.2838 0.0634
-7 10 13 -1.8627 -1.1935
-7 11 -6 0.6040 0.0074
-7 11 -5 1.0944 0.0133
-7 11 -4 -0.6926 0.0118
-7 11 -3 0.8032 -0.0530
-7 11 -2 -1.4631 -0.0096
-7 11 -1 -1.1888 -0.1687
-7 11 0 -0.0655 0.0082
-7 11 1 -0.1578 0.0131
-7 11 2 1.4058 0.0033
-7 11 3 -1.8494 0.1330
-7 11 4 -0.3874 -0.0169
-7 11 5 -1.8502 -0.0423
-7 11 6 -1.7163 0.0970
-7 11 7 -1.2792 0.1545
-7 11 8 -0.6412 -0.0254
-7 11 9 -1.9278 -0.0224
-7 11 10 0.2516 0.1153
-7 11 11 -0.9954 -0.2231
-7 11 12 -0.4952 -0.0935
-7 12 -6 -1.2312 0.3334
-7 12 -5 -0.0507 0.3383
-7 12 -4 0.1769 -0.1706
-7 12 -3 0.3872 -0.1721
-7 12 -2 -0.6344 0.1607
-7 12 -1 0.7470 -0.0640
-7 12 0 -1.2298 0.0520
-7 12 1 1.3080 -0.1621
-7 12 2 -1.5367 0.3145
-7 12 3 1.7846 0.0102
-7 12 4 -2.2147 0.1393
-7 12 5 0.6153 0.2622
-7 12 6 -0.5138 0.2086
-7 12 7 -1.3374 0.1339
-7 12 8 0.2034 -0.2076
-7 12 9 -0.0225 -0.2772
-7 12 10 0.1833 0.4493
-7 12 11 0.5817 0.0184
-7 13 -6 0.9298 -0.1173
-7 13 -5 -0.3608 -0.0212
-7 13 -4 1.2400 -0.2270
-7 13 -3 0.2911 0.0597
-7 13 -2 -0.5430 -0.0352
-7 13 -1 1.4854 0.0006
-7 13 0 -2.2275 -0.2615
-7 13 1 0.3547 0.1442
-7 13 2 -2.6906 -0.1883
-7 13 3 0.1638 -0.0764
-7 13 4 -0.7999 -0.1881
-7 13 5 -0.3161 -0.2176
-7 13 6 1.6600 -0.1817
-7 13 7 0.7717 0.1677
-7 13 8 1.7072 -0.1586
-7 13 9 0.8507 -0.1544
-7 13 10 0.8281 0.1920
-7 14 -6 0.7896 -0.4783
-7 14 -5 0.1270 -0.3697
-7 14 -4 0.0635 0.0051
-7 14 -3 0.3244 -0.2150
-7 14 -2 0.0057 0.1664
-7 14 -1 1.1698 0.1109
-7 14 0 0.2079 0.1886
-7 14 1 -0.1605 0.2421
-7 14 2 1.1708 0.2828
-7 14 3 -2.1037 0.1917
-7 14 4 3.0455 0.1060
-7 14 5 -0.9841 0.1800
-7 14 6 2.0540 -0.0185
-7 14 7 -0.7278 -0.2873
-7 14 8 0.7355 0.0406
-7 14 9 -0.7453 0.7922
-7 15 -4 0.2820 0.2775
-7 15 -3 -1.3852 -0.0139
-7 15 -2 1.2353 -0.4080
-7 15 -1 -1.4285 0.1169
-7 15 0 0.9266 0.3194
-7 15 1 -0.7116 0.0670
-7 15 2 -0.9382 0.3020
-7 15 3 -0.3212 -0.4023
-7 15 4 -1.3489 0.7085
-7 15 5 0.7144 0.1797
-7 15 6 -1.4134 0.1716
-7 16 0 -1.9942 -1.3639
-7 16 1 0.4228 -0.5820
-7 16 2 -2.4655 -1.9143
-6 0 -4 -0.6322 -0.1764
-6 0 -2 5.0042 0.3563
-6 0 0 7.1189 0.5704
-6 0 2 3.2438 0.6127
-6 0 4 -4.9195 0.5949
-6 0 6 -5.2757 0.4711
-6 0 8 -0.7371 0.2390
-6 0 10 -0.8242 0.1825
-6 0 12 -2.4231 -0.0455
-6 0 14 -3.9320 -0.1831
-6 0 16 -1.0048 0.4646
-6 1 -5 -1.9746 -0.1636
-6 1 -4 1.7045 -0.1466
-6 1 -3 -0.8395 0.0150
-6 1 -2 2.9590 -0.0758
-6 1 -1 -0.9851 0.1121
-6 1 0 -6.8544 -0.0422
-6 1 1 -0.0528 0.3880
-6 1 2 -12.7479 -0.1394
-6 1 3 0.7588 0.1791
-6 1 4 -8.2928 -0.0210
-6 1 5 -0.3872 0.2916
-6 1 6 1.5074 0.0496
-6 1 7 -0.7128 0.1256
-6 1 8 0.7709 0.0839
-6 1 9 -0.1574 0.1204
-6 1 10 -4.7898 0.2395
-6 1 11 0.2515 0.0840
-6 1 12 -4.1203 0.0225
-6 1 13 0.7439 -0.0370
-6 1 14 -0.8685 0.4149
-6 1 15 0.1095 -0.3029
-6 1 16 -0.3411 0.3754
-6 1 17 0.1323 -0.4953
-6 2 -4 -0.3749 0.0664
-6 2 -3 2.1605 -0.2891
-6 2 -2 -4.8911 -0.0558
-6 2 -1 4.0098 -0.2920
-6 2 0 -4.5797 0.0370
-6 2 1 1.1425 -0.2054
-6 2 2 3.8412 -0.0492
-6 2 3 -5.1144 0.0472
-6 2 4 13.7694 0.0507
-6 2 5 -7.4473 -0.0303
-6 2 6 10.7147 0.0190
-6 2 7 -2.4642 0.3405
-6 2 8 0.9579 0.0326
-6 2 9 0.1012 0.1421
-6 2 10 -1.1619 0.0875
-6 2 11 0.0239 0.4015
-6 2 12 1.2222 -0.1427
-6 2 13 0.1819 0.0765
-6 2 14 2.6918 0.2573
-6 2 15 0.7556 0.0926
-6 2 16 0.6495 -0.1418
-6 2 17 -1.7821 -1.6876
-6 3 -5 1.1351 0.1300
-6 3 -4 0.9831 -0.3290
-6 3 -3 2.0944 -0.0004
-6 3 -2 3.8675 -0.0701
-6 3 -1 3.5456 -0.0188
-6 3 0 9.6287 -0.2388
-6 3 1 3.5712 -0.1179
-6 3 2 7.6401 -0.1339
-6 3 3 1.0023 -0.1045
-6 3 4 1.7276 -0.0375
-6 3 5 0.8047 -0.1879
-6 3 6 -5.1114 0.0201
-6 3 7 1.1275 -0.0717
-6 3 8 -3.0602 0.1098
-6 3 9 -0.3442 0.0077
-6 3 10 2.6743 -0.2080
-6 3 11 -0.8404 0.0772
-6 3 12 4.5684 0.2228
-6 3 13 -1.0180 0.2260
-6 3 14 1.2821 0.1982
-6 3 15 -0.1985 0.1944
-6 3 16 1.3051 0.9418
-6 4 -5 -0.4481 -0.1094
-6 4 -4 1.3529 -0.0298
-6 4 -3 0.1320 -0.0731
-6 4 -2 2.9829 -0.1029
-6 4 -1 1.4812 0.1246
-6 4 0 3.3686 -0.0978
-6 4 1 1.6647 -0.0643
-6 4 2 -3.0894 -0.2633
-6 4 3 3.0845 0.0159
-6 4 4 -11.7388 -0.2014
-6 4 5 3.1649 -0.0007
-6 4 6 -7.5704 -0.2875
-6 4 7 -1.0310 0.0391
-6 4 8 0.0970 -0.1095
-6 4 9 -2.4902 -0.0525
-6 4 10 1.3707 -0.2795
-6 4 11 -1.0623 0.0257
-6 4 12 -0.9974 0.1611
-6 4 13 0.0643 0.1049
-6 4 14 -2.3625 -0.0347
-6 4 15 0.1892 0.3967
-6 4 16 -0.4299 0.1023
-6 5 -5 0.4362 0.0902
-6 5 -4 -2.1580 0.1164
-6 5 -3 -0.9723 -0.0550
-6 5 -2 -3.9382 -0.0314
-6 5 -1 -0.6983 0.0349
-6 5 0 -8.2849 -0.1991
-6 5 1 -1.5112 -0.0394
-6 5 2 -8.2788 -0.0687
-6 5 3 -2.0260 -0.0907
-6 5 4 -4.5754 -0.0020
-6 5 5 -2.7754 -0.1209
-6 5 6 0.8825 0.0113
-6 5 7 -2.3669 -0.0093
-6 5 8 -0.8716 0.0455
-6 5 9 0.3744 -0.0773
-6 5 10 -3.3864 -0.1217
-6 5 11 2.1439 -0.1539
-6 5 12 -2.8571 0.1118
-6 5 13 0.9712 0.1685
-6 5 14 -0.6860 0.1478
-6 5 15 -0.4223 -0.3882
-6 5 16 -0.5591 -0.7819
-6 6 -5 -0.5622 0.1246
-6 6 -4 1.0815 0.0734
-6 6 -3 -2.6508 0.0790
-6 6 -2 -1.7297 0.1129
-6 6 -1 -4.2572 0.1494
-6 6 0 -3.0986 0.2383
-6 6 1 -3.9020 0.1006
-6 6 2 0.7806 0.1339
-6 6 3 -4.3476 0.0529
-6 6 4 6.4528 0.1336
-6 6 5 -3.7176 -0.0687
-6 6 6 4.0171 0.2404
-6 6 7 -1.0287 -0.2792
-6 6 8 0.3801 0.0457
-6 6 9 0.6880 0.1049
-6 6 10 0.8479 0.0594
-6 6 11 -0.0625 -0.2952
-6 6 12 2.2369 0.0344
-6 6 13 -0.6876 -0.0812
-6 6 14 2.1325 -0.1723
-6 6 15 -0.1428 0.1604
-6 6 16 0.6358 -0.1030
-6 7 -5 -0.0637 -0.0088
-6 7 -4 1.1019 0.1084
-6 7 -3 -0.5263 -0.1656
-6 7 -2 2.8275 0.0028
-6 7 -1 -1.0842 -0.0811
-6 7 0 7.1566 -0.0098
-6 7 1 -2.5403 -0.1335
-6 7 2 8.0710 0.1554
-6 7 3 -3.1083 -0.0928
-6 7 4 3.2096 0.0641
-6 7 5 -0.8310 -0.0533
-6 7 6 -0.7143 0.0582
-6 7 7 0.7995 -0.0468
-6 7 8 1.5394 -0.1833
-6 7 9 0.1301 0.1044
-6 7 10 3.2303 0.0684
-6 7 11 -1.2709 -0.1307
-6 7 12 2.0340 -0.5170
-6 7 13 -0.7593 0.0087
-6 7 14 1.8656 1.1169
-6 7 15 1.0370 0.3632
-6 8 -5 2.3294 -0.0643
-6 8 -4 -0.1252 -0.0190
-6 8 -3 3.7187 0.1206
-6 8 -2 0.8712 0.0778
-6 8 -1 4.0102 -0.0169
-6 8 0 0.2020 -0.1543
-6 8 1 3.6939 0.0750
-6 8 2 -2.8032 0.1575
-6 8 3 3.1610 0.0820
-6 8 4 -4.8409 0.0412
-6 8 5 2.6827 0.0372
-6 8 6 -3.0857 0.0765
-6 8 7 2.0121 0.0867
-6 8 8 0.2908 -0.0341
-6 8 9 0.5505 0.0723
-6 8 10 -0.2909 -0.0790
-6 8 11 -0.0145 0.0206
-6 8 12 -1.7191 -0.0230
-6 8 13 0.9097 0.0582
-6 8 14 -1.1157 0.1108
-6 8 15 2.2023 1.0534
-6 9 -5 1.0849 -0.1498
-6 9 -4 -0.1246 0.0648
-6 9 -3 1.0395 0.0701
-6 9 -2 -1.9854 -0.0028
-6 9 -1 1.5983 0.0245
-6 9 0 -4.1277 0.0333
-6 9 1 1.6636 0.2032
-6 9 2 -4.2114 0.0298
-6 9 3 1.0603 0.2025
-6 9 4 -2.3899 0.1339
-6 9 5 -0.1196 0.0148
-6 9 6 0.2713 -0.0131
-6 9 7 -0.6107 0.1649
-6 9 8 -0.3150 0.0339
-6 9 9 0.6857 0.0056
-6 9 10 -2.0187 0.2601
-6 9 11 1.2394 0.1761
-6 9 12 -2.0363 0.0428
-6 9 13 0.0125 -0.3173
-6 9 14 -1.3301 -0.8247
-6 10 -5 -1.9823 -0.1042
-6 10 -4 -0.1515 -0.0442
-6 10 -3 -3.4192 0.0153
-6 10 -2 0.1354 -0.0273
-6 10 -1 -3.5739 -0.0604
-6 10 0 -0.0014 0.0369
-6 10 1 -2.3320 -0.1478
-6 10 2 1.0928 0.0472
-6 10 3 -0.7089 -0.3143
-6 10 4 2.9430 -0.0268
-6 10 5 -1.1869 -0.0204
-6 10 6 1.9314 -0.1571
-6 10 7 -1.4087 -0.1189
-6 10 8 -1.0491 0.1481
-6 10 9 0.2623 -0.1116
-6 10 10 -0.0500 -0.2673
-6 10 11 0.5765 0.0408
-6 10 12 1.1865 0.7190
-6 10 13 0.3930 -0.1048
-6 11 -5 -0.7057 -0.0194
-6 11 -4 -2.8459 0.0134
-6 11 -3 1.1442 0.0977
-6 11 -2 -0.2069 0.0024
-6 11 -1 0.1051 0.1604
-6 11 0 1.2070 0.0980
-6 11 1 -1.6629 -0.0098
-6 11 2 2.7252 -0.0766
-6 11 3 -1.5032 0.1758
-6 11 4 4.3449 0.1127
-6 11 5 -0.1566 -0.0206
-6 11 6 0.9795 0.0399
-6 11 7 0.3485 0.0424
-6 11 8 1.2583 0.1949
-6 11 9 0.2845 0.1339
-6 11 10 1.6354 0.1175
-6 11 11 0.4595 0.2513
-6 11 12 0.4603 0.3909
-6 11 13 1.0405 0.8509
-6 12 -5 0.7237 0.1301
-6 12 -4 -0.2898 0.0755
-6 12 -3 0.3181 0.0517
-6 12 -2 -0.8311 0.1530
-6 12 -1 0.2655 0.0207
-6 12 0 -0.4914 -0.0824
-6 12 1 -0.2822 -0.0970
-6 12 2 -0.6690 -0.1272
-6 12 3 1.0884 -0.0134
-6 12 4 -0.8320 -0.1601
-6 12 5 1.5006 -0.1078
-6 12 6 -0.2505 -0.2005
-6 12 7 1.5185 0.1513
-6 12 8 1.4080 -0.0253
-6 12 9 1.2325 0.2799
-6 12 10 -0.1125 0.2620
-6 12 11 0.0247 -0.7902
-6 12 12 -0.1978 -0.1385
-6 13 -5 -0.4008 -0.1659
-6 13 -4 1.0623 -0.0530
-6 13 -3 -0.5506 0.0376
-6 13 -2 -0.8126 -0.0790
-6 13 -1 1.1985 -0.0681
-6 13 0 -1.3875 -0.1102
-6 13 1 2.4538 -0.0068
-6 13 2 -1.4244 -0.0863
-6 13 3 3.3260 -0.1972
-6 13 4 -1.1670 0.0453
-6 13 5 1.0508 -0.2151
-6 13 6 -0.0953 -0.2445
-6 13 7 -1.1520 0.0351
-6 13 8 -0.4977 -0.1930
-6 13 9 -1.2675 -0.2103
-6 13 10 -0.6067 0.3985
-6 13 11 -0.4425 -0.7599
-6 14 -5 -0.4440 0.3612
-6 14 -4 -0.4328 0.2678
-6 14 -3 0.3700 0.2082
-6 14 -2 -0.7157 0.1315
-6 14 -1 1.5811 0.2719
-6 14 0 -0.3108 0.0474
-6 14 1 1.2601 0.3131
-6 14 2 2.0014 0.0041
-6 14 3 -1.5877 0.2604
-6 14 4 2.3241 -0.0868
-6 14 5 -2.6738 -0.0278
-6 14 6 1.6421 0.2756
-6 14 7 -1.8963 0.0731
-6 14 8 0.5281 -0.5361
-6 14 9 -1.0997 -0.2603
-6 15 -5 -0.1314 0.1947
-6 15 -4 0.9162 0.0399
-6 15 -3 -0.1797 -0.0851
-6 15 -2 1.6949 0.1449
-6 15 -1 -0.3098 -0.2223
-6 15 0 1.6342 -0.3015
-6 15 1 0.2168 -0.3203
-6 15 2 1.0904 0.5077
-6 15 3 -0.4785 -0.4360
-6 15 4 0.1855 0.0335
-6 15 5 -0.3175 0.1731
-6 15 6 0.0114 -0.1535
-6 15 7 -0.1325 0.1514
-6 16 -3 0.5852 0.1435
-6 16 -2 -0.7904 -0.4329
-6 16 -1 0.9466 0.4858
-6 16 0 -0.4606 -0.0764
-6 16 1 1.1017 0.4901
-6 16 2 -0.8400 -0.4276
-6 16 3 -0.3381 0.3685
-5 0 -3 5.8092 -0.2063
-5 0 -1 -6.7035 -0.3471
-5 0 1 -19.3823 -0.0730
-5 0 3 -14.5001 0.2466
-5 0 5 2.4005 0.0784
-5 0 7 8.4008 0.4254
-5 0 9 2.0969 0.3386
-5 0 11 -1.5448 0.3654
-5 0 13 0.5103 0.1300
-5 0 15 1.8692 0.2657
-5 0 17 -0.9775 -0.6380
-5 1 -4 1.3530 -0.6069
-5 1 -3 -5.7129 -0.1232
-5 1 -2 0.6486 -0.4527
-5 1 -1 -6.8414 -0.2316
-5 1 0 -0.1771 -0.4734
-5 1 1 6.3735 -0.2275
-5 1 2 -1.7924 -0.1088
-5 1 3 15.3522 -0.3168
-5 1 4 -1.5364 0.1092
-5 1 5 13.6539 -0.3316
-5 1 6 0.0136 0.1791
-5 1 7 -1.4039 -0.2349
-5 1 8 1.2395 0.3950
-5 1 9 -2.6917 -0.0808
-5 1 10 0.8565 0.0536
-5 1 11 0.9909 -0.0759
-5 1 12 -0.0645 0.1887
-5 1 13 1.6456 0.0112
-5 1 14 0.2446 0.1966
-5 1 15 0.6987 -0.2642
-5 1 16 0.0967 0.3088
-5 1 17 1.2403 0.3593
-5 2 -4 -4.0541 -0.1940
-5 2 -3 -2.8645 -0.0737
-5 2 -2 -6.0843 -0.2516
-5 2 -1 4.3313 -0.2301
-5 2 0 -0.4965 -0.1600
-5 2 1 8.7912 -0.0190
-5 2 2 5.5305 -0.3975
-5 2 3 0.8859 -0.0182
-5 2 4 9.8726 -0.2209
-5 2 5 -12.2190 -0.1241
-5 2 6 7.2045 -0.2752
-5 2 7 -11.0731 0.0914
-5 2 8 1.2079 0.0352
-5 2 9 -1.6174 -0.0860
-5 2 10 -0.0129 -0.0713
-5 2 11 2.4867 0.0956
-5 2 12 -0.2846 0.0956
-5 2 13 0.9819 -0.0017
-5 2 14 -1.2462 -0.0896
-5 2 15 -1.3252 -0.0859
-5 2 16 0.3089 1.0732
-5 2 17 0.3863 0.1578
-5 3 -4 -2.9791 0.1290
-5 3 -3 -2.0649 0.0879
-5 3 -2 -4.5201 0.2449
-5 3 -1 0.3803 0.1385
-5 3 0 -4.2593 0.1432
-5 3 1 -1.1575 0.1666
-5 3 2 -0.5551 0.0702
-5 3 3 -5.3747 -0.0851
-5 3 4 2.0909 0.0845
-5 3 5 -6.8482 0.0335
-5 3 6 0.0727 0.0296
-5 3 7 2.4933 -0.2079
-5 3 8 -2.0097 -0.2629
-5 3 9 3.2013 0.2391
-5 3 10 -1.7987 0.0107
-5 3 11 -0.6021 -0.0791
-5 3 12 -0.3361 -0.1623
-5 3 13 -1.9395 -0.0377
-5 3 14 0.2383 -0.0050
-5 3 15 -1.5027 -0.1488
-5 3 16 0.0199 0.3467
-5 4 -4 2.5167 0.0283
-5 4 -3 1.2284 -0.0064
-5 4 -2 0.5167 -0.1306
-5 4 -1 -3.0436 -0.0187
-5 4 0 -2.6887 0.0038
-5 4 1 -5.7902 0.0267
-5 4 2 -3.0830 -0.1221
-5 4 3 2.0480 -0.1417
-5 4 4 -4.0752 0.0610
-5 4 5 10.9820 -0.0896
-5 4 6 -2.5332 0.0011
-5 4 7 8.1574 -0.2573
-5 4 8 0.5461 -0.0478
-5 4 9 1.0776 -0.0439
-5 4 10 1.1297 -0.0076
-5 4 11 -2.1694 -0.3771
-5 4 12 0.5305 -0.2627
-5 4 13 -0.6445 -0.0363
-5 4 14 0.4381 0.1858
-5 4 15 1.4067 -0.1666
-5 4 16 -1.1213 -1.2257
-5 5 -4 1.2696 0.1412
-5 5 -3 2.3085 -0.0515
-5 5 -2 1.5839 0.0978
-5 5 -1 0.3850 0.1380
-5 5 0 2.3921 0.1597
-5 5 1 2.6822 -0.0315
-5 5 2 2.9642 0.1551
-5 5 3 8.6321 0.0217
-5 5 4 1.4964 -0.0054
-5 5 5 8.1483 0.0657
-5 5 6 1.6102 -0.0049
-5 5 7 0.6995 0.2394
-5 5 8 0.9958 -0.0714
-5 5 9 -0.2390 0.0134
-5 5 10 -0.4150 -0.0127
-5 5 11 0.0295 0.1865
-5 5 12 -0.9423 -0.3440
-5 5 13 1.2481 -0.4915
-5 5 14 -0.4492 0.0905
-5 5 15 1.2402 0.0351
-5 5 16 -0.2180 -0.7806
-5 6 -4 -0.2492 0.0836
-5 6 -3 -0.6860 0.0417
-5 6 -2 2.4055 0.0267
-5 6 -1 3.6935 0.0391
-5 6 0 3.5145 0.0041
-5 6 1 7.3489 0.1105
-5 6 2 2.7288 0.2046
-5 6 3 0.8117 0.0810
-5 6 4 2.3333 0.1467
-5 6 5 -6.2010 -0.0061
-5 6 6 2.1016 0.2143
-5 6 7 -4.9286 0.0042
-5 6 8 1.0440 -0.0893
-5 6 9 -0.8994 0.0436
-5 6 10 -0.2479 -0.1166
-5 6 11 0.3790 0.1191
-5 6 12 -0.6027 -0.0062
-5 6 13 -0.1111 -0.0768
-5 6 14 -1.1734 -0.4751
-5 6 15 -0.8657 0.3458
-5 6 16 0.5556 1.1453
-5 7 -4 0.8837 0.0199
-5 7 -3 -0.3268 0.0863
-5 7 -2 2.2038 -0.0724
-5 7 -1 -1.2240 -0.0209
-5 7 0 2.4135 -0.0536
-5 7 1 -5.8993 0.0394
-5 7 2 3.3709 -0.2271
-5 7 3 -8.7631 -0.0897
-5 7 4 2.4966 -0.0250
-5 7 5 -4.8669 0.0655
-5 7 6 0.4951 -0.1047
-5 7 7 0.2313 -0.0151
-5 7 8 0.0032 -0.0451
-5 7 9 -0.4889 -0.0145
-5 7 10 0.5920 -0.1859
-5 7 11 -0.7432 0.1579
-5 7 12 1.1058 0.2527
-5 7 13 -1.5693 -0.2568
-5 7 14 -0.2238 -0.0210
-5 7 15 -1.4871 -1.4796
-5 8 -4 -1.5967 -0.1437
-5 8 -3 0.3775 -0.1977
-5 8 -2 -2.9333 0.0007
-5 8 -1 -1.4649 0.0208
-5 8 0 -3.0335 0.0005
-5 8 1 -2.5050 -0.0923
-5 8 2 -1.5839 0.0679
-5 8 3 0.0553 -0.0735
-5 8 4 -1.6802 0.0816
-5 8 5 2.9187 0.1312
-5 8 6 -2.9616 0.1012
-5 8 7 1.9062 0.0383
-5 8 8 -1.8099 -0.0003
-5 8 9 -0.7391 0.2419
-5 8 10 -0.2331 0.0671
-5 8 11 -0.4210 -0.2459
-5 8 12 0.6395 0.3361
-5 8 13 0.4276 -0.1102
-5 8 14 -0.7711 -0.7082
-5 8 15 -0.1299 -0.6946
-5 9 -4 -2.7181 0.0129
-5 9 -3 -1.1998 -0.0173
-5 9 -2 -3.7409 -0.0392
-5 9 -1 0.5668 0.0218
-5 9 0 -2.3440 0.0690
-5 9 1 3.4051 -0.1257
-5 9 2 -1.2654 0.0247
-5 9 3 5.5765 0.0362
-5 9 4 -0.5461 0.1020
-5 9 5 3.6742 -0.1940
-5 9 6 -0.1200 0.0891
-5 9 7 0.1888 0.1160
-5 9 8 -0.3135 0.0931
-5 9 9 0.4463 -0.1521
-5 9 10 -1.0576 0.0829
-5 9 11 1.4032 -0.1852
-5 9 12 -0.5174 0.0980
-5 9 13 0.8966 0.3771
-5 9 14 0.8457 1.3802
-5 10 -4 2.0870 0.1282
-5 10 -3 0.1819 -0.0166
-5 10 -2 2.6890 0.0356
-5 10 -1 1.7722 -0.0077
-5 10 0 2.3165 0.0931
-5 10 1 2.1529 -0.0636
-5 10 2 0.0430 0.1609
-5 10 3 1.5394 0.0216
-5 10 4 0.2285 -0.0043
-5 10 5 -0.8348 0.1223
-5 10 6 1.3753 -0.1401
-5 10 7 -0.7157 0.0391
-5 10 8 0.2740 -0.0726
-5 10 9 0.3344 0.0477
-5 10 10 -0.2791 0.1173
-5 10 11 0.0861 -0.0583
-5 10 12 -1.1991 -0.1717
-5 10 13 -0.7427 -0.5554
-5 11 -4 0.4841 0.0152
-5 11 -3 2.7074 0.0985
-5 11 -2 0.9549 -0.0815
-5 11 -1 0.0746 0.0114
-5 11 0 1.5917 0.1177
-5 11 1 -1.8111 0.0362
-5 11 2 0.7285 -0.0295
-5 11 3 -5.4553 -0.1689
-5 11 4 1.0935 0.0602
-5 11 5 -3.8073 0.0161
-5 11 6 1.4438 -0.0362
-5 11 7 -0.9682 -0.0436
-5 11 8 0.5316 -0.0947
-5 11 9 -0.8236 -0.3211
-5 11 10 -0.4794 0.0255
-5 11 11 -0.0649 0.1441
-5 11 12 -0.9927 -0.5588
-5 11 13 -0.0873 -0.4780
-5 12 -4 0.4643 -0.1072
-5 12 -3 0.7724 -0.0622
-5 12 -2 0.0601 -0.0611
-5 12 -1 0.1673 0.0829
-5 12 0 0.7039 -0.0970
-5 12 1 -1.3878 0.1296
-5 12 2 0.9250 -0.1333
-5 12 3 -1.9920 -0.0188
-5 12 4 0.0292 -0.0875
-5 12 5 1.0675 -0.0629
-5 12 6 -0.2669 -0.0210
-5 12 7 0.6131 -0.0583
-5 12 8 -1.6738 -0.1071
-5 12 9 0.2570 -0.0056
-5 12 10 -0.7619 -0.0363
-5 12 11 0.1455 -0.1536
-5 12 12 -0.0246 0.7086
-5 13 -4 -0.3215 -0.0372
-5 13 -3 -0.8469 -0.0335
-5 13 -2 -0.5307 0.1587
-5 13 -1 0.6637 -0.0687
-5 13 0 -0.8233 -0.0009
-5 13 1 1.2586 -0.0616
-5 13 2 -2.1121 0.2483
-5 13 3 2.3311 -0.0731
-5 13 4 -2.8798 0.1803
-5 13 5 1.6826 0.0974
-5 13 6 -0.9854 0.1415
-5 13 7 0.0098 -0.0065
-5 13 8 -0.0191 -0.1437
-5 13 9 -0.0017 -0.0301
-5 13 10 0.5578 0.4078
-5 14 -4 -0.7945 -0.1998
-5 14 -3 0.8050 0.1458
-5 14 -2 -1.5169 -0.2545
-5 14 -1 0.6545 -0.0852
-5 14 0 -2.2846 -0.2008
-5 14 1 -0.1260 -0.0973
-5 14 2 -0.7583 -0.2015
-5 14 3 -1.6143 0.0367
-5 14 4 1.0789 0.1017
-5 14 5 -2.2796 -0.1307
-5 14 6 0.8719 0.0708
-5 14 7 -1.5761 0.2852
-5 14 8 1.3264 -0.1489
-5 14 9 -0.6472 0.6650
-5 14 10 0.8620 0.7381
-5 15 -4 0.3356 -0.0906
-5 15 -3 -0.3769 -0.4164
-5 15 -2 -0.1751 0.0170
-5 15 -1 -0.4688 0.0564
-5 15 0 -1.0034 -0.0546
-5 15 1 -0.3895 0.0111
-5 15 2 -0.0975 -0.1908
-5 15 3 -0.2958 -0.1704
-5 15 4 1.4700 -0.2267
-5 15 5 -0.6988 0.4406
-5 15 6 1.2219 -0.3208
-5 15 7 0.1253 -0.4972
-5 15 8 0.8665 0.2636
-5 16 -4 -0.2294 0.3586
-5 16 -3 -0.4238 -0.0170
-5 16 -2 -0.7468 -0.0145
-5 16 -1 -0.6135 0.3890
-5 16 0 -0.2247 0.1143
-5 16 1 -0.6899 0.1779
-5 16 2 1.3588 0.2200
-5 16 3 0.5307 0.1013
-5 16 4 1.4964 0.2171
-5 16 5 0.1760 -0.1789
-5 17 -1 -1.0151 -0.0667
-5 17 0 -0.0349 -0.1175
-4 0 -2 -6.6587 0.3301
-4 0 0 11.6166 -0.4025
-4 0 2 27.8504 -0.7730
-4 0 4 19.0113 -0.5079
-4 0 6 -1.1315 -0.4328
-4 0 8 -9.8412 -0.2149
-4 0 10 -2.9867 -0.0548
-4 0 12 0.3514 0.2389
-4 0 14 -1.0141 0.0837
-4 0 16 0.3999 0.5864
-4 1 -3 -1.9223 -0.2523
-4 1 -2 -0.6495 -0.2883
-4 1 -1 0.4277 -0.2199
-4 1 0 1.2114 -0.3175
-4 1 1 3.6821 -0.4727
-4 1 2 -1.7289 -0.2201
-4 1 3 4.0352 -0.4335
-4 1 4 -11.6145 -0.2216
-4 1 5 2.6695 -0.1997
-4 1 6 -12.0117 -0.0313
-4 1 7 -0.5634 -0.2354
-4 1 8 -0.0299 -0.2773
-4 1 9 -1.7434 0.1636
-4 1 10 2.0418 -0.2156
-4 1 11 -0.9440 -0.0549
-4 1 12 1.7974 -0.1809
-4 1 13 -0.4924 0.2162
-4 1 14 0.6956 0.0485
-4 1 15 -1.0383 -0.3494
-4 1 16 0.1229 -0.3460
-4 1 17 0.6693 1.4645
-4 2 -3 9.5220 0.5554
-4 2 -2 6.5100 -0.1602
-4 2 -1 2.9099 0.1015
-4 2 0 0.6937 -0.0165
-4 2 1 -6.5992 0.2146
-4 2 2 -8.8147 -0.2580
-4 2 3 -10.9412 -0.0036
-4 2 4 -4.0425 0.1779
-4 2 5 -10.3555 -0.1584
-4 2 6 6.5295 0.0281
-4 2 7 -4.6830 -0.1876
-4 2 8 9.0765 -0.0957
-4 2 9 -2.1876 -0.4332
-4 2 10 2.5377 0.1093
-4 2 11 -1.0500 0.0211
-4 2 12 -1.3798 -0.1228
-4 2 13 0.4727 -0.1494
-4 2 14 0.2581 0.2983
-4 2 15 0.6285 0.3616
-4 2 16 0.5761 -0.2292
-4 2 17 -1.4933 -1.2683
-4 3 -3 7.3047 -0.0197
-4 3 -2 5.7363 0.0753
-4 3 -1 5.7039 0.0246
-4 3 0 -5.9718 0.1825
-4 3 1 -0.2883 0.1207
-4 3 2 -11.1076 -0.0217
-4 3 3 -3.9888 0.1145
-4 3 4 1.8020 -0.0811
-4 3 5 -3.3220 -0.0391
-4 3 6 9.0904 -0.0631
-4 3 7 1.2591 0.1855
-4 3 8 1.4549 -0.1831
-4 3 9 3.4498 -0.0714
-4 3 10 -1.0403 -0.1139
-4 3 11 2.5801 -0.0766
-4 3 12 -1.1087 0.0860
-4 3 13 0.3607 -0.1354
-4 3 14 -0.0620 0.0783
-4 3 15 0.3572 0.0101
-4 3 16 1.6136 -0.3877
-4 4 -3 -3.4757 0.0933
-4 4 -2 -4.7690 0.1717
-4 4 -1 0.7920 0.0069
-4 4 0 -4.6225 0.0584
-4 4 1 5.8581 0.1023
-4 4 2 0.5788 0.1559
-4 4 3 5.3129 -0.0503
-4 4 4 -0.6013 0.2388
-4 4 5 4.2421 -0.1605
-4 4 6 -5.3226 0.2550
-4 4 7 1.9757 -0.0013
-4 4 8 -6.1341 0.1400
-4 4 9 1.0991 -0.0027
-4 4 10 -2.0240 0.0840
-4 4 11 0.3300 0.0722
-4 4 12 0.7982 0.1641
-4 4 13 -0.8345 -0.0859
-4 4 14 -0.4131 -0.4558
-4 4 15 -0.6201 -0.2325
-4 4 16 -0.8239 1.0207
-4 5 -3 -3.1335 0.0912
-4 5 -2 -3.0319 0.0760
-4 5 -1 -3.8715 -0.0997
-4 5 0 6.2037 0.1197
-4 5 1 -4.8308 0.0928
-4 5 2 6.4396 0.2901
-4 5 3 -3.3042 0.1702
-4 5 4 -6.7115 0.1720
-4 5 5 -1.8533 0.0280
-4 5 6 -9.5835 0.0363
-4 5 7 -1.0972 0.1256
-4 5 8 -3.2575 0.1017
-4 5 9 -0.6615 0.0040
-4 5 10 0.4549 -0.0308
-4 5 11 -0.7602 0.2404
-4 5 12 0.9930 0.1901
-4 5 13 -0.5232 -0.2207
-4 5 14 -0.7917 0.2191
-4 5 15 -0.1318 0.3886
-4 5 16 -1.1442 0.0205
-4 6 -3 0.6071 -0.1974
-4 6 -2 1.9198 0.0335
-4 6 -1 -1.6591 -0.0229
-4 6 0 -1.1456 -0.1770
-4 6 1 -4.5619 -0.1656
-4 6 2 -4.9991 0.1194
-4 6 3 -2.1296 -0.1543
-4 6 4 -1.2536 -0.1354
-4 6 5 -1.6456 -0.0468
-4 6 6 3.8806 -0.0311
-4 6 7 -1.7734 0.1552
-4 6 8 4.1986 -0.0586
-4 6 9 -0.8722 0.1861
-4 6 10 1.4047 -0.0937
-4 6 11 0.2707 -0.0253
-4 6 12 -0.4814 0.0925
-4 6 13 2.2520 0.4589
-4 6 14 -0.3783 0.0671
-4 6 15 2.0971 -0.1117
-4 6 16 0.7490 0.5871
-4 7 -3 -1.5579 -0.0535
-4 7 -2 1.4268 -0.0877
-4 7 -1 -2.1613 -0.0109
-4 7 0 -1.1950 -0.0867
-4 7 1 -1.5043 0.1238
-4 7 2 1.1722 -0.0446
-4 7 3 -0.9229 0.0237
-4 7 4 7.3577 -0.0393
-4 7 5 0.2261 0.0619
-4 7 6 4.7837 -0.0032
-4 7 7 -0.0104 -0.0303
-4 7 8 0.8648 0.0648
-4 7 9 0.0036 0.1903
-4 7 10 0.0105 0.0688
-4 7 11 0.0186 -0.0188
-4 7 12 -0.2204 0.0443
-4 7 13 0.9207 0.0507
-4 7 14 1.0313 0.6595
-4 7 15 2.3067 0.1470
-4 8 -3 0.0090 -0.0587
-4 8 -2 -2.4561 0.0432
-4 8 -1 1.4055 -0.0045
-4 8 0 -0.0740 -0.0281
-4 8 1 1.8510 -0.1372
-4 8 2 2.8543 0.0085
-4 8 3 0.9514 -0.0119
-4 8 4 2.8585 -0.1815
-4 8 5 2.7532 -0.0908
-4 8 6 -0.5315 -0.0450
-4 8 7 2.3396 -0.0037
-4 8 8 -1.4254 -0.1784
-4 8 9 1.2640 0.1073
-4 8 10 0.0311 0.2415
-4 8 11 0.0749 -0.1468
-4 8 12 -0.0849 -0.0257
-4 8 13 -0.3602 0.3133
-4 8 14 0.1234 0.6607
-4 8 15 -0.3891 0.5779
-4 9 -3 3.0377 0.1007
-4 9 -2 0.7457 -0.0773
-4 9 -1 2.8198 -0.1281
-4 9 0 0.4698 0.0259
-4 9 1 0.3197 -0.1862
-4 9 2 -1.7774 -0.0866
-4 9 3 -1.1992 -0.2208
-4 9 4 -4.7359 -0.0092
-4 9 5 -0.5468 -0.1258
-4 9 6 -3.7056 -0.1540
-4 9 7 -0.4553 0.0077
-4 9 8 -1.0428 0.0740
-4 9 9 0.5978 -0.1296
-4 9 10 -0.7005 -0.0544
-4 9 11 0.6101 0.3175
-4 9 12 0.0969 0.0008
-4 9 13 -0.6295 -1.1597
-4 9 14 0.3422 -0.1668
-4 10 -3 -0.3267 0.0924
-4 10 -2 -0.5080 -0.0822
-4 10 -1 -1.1280 0.0020
-4 10 0 -2.2281 -0.0269
-4 10 1 -0.9201 0.1631
-4 10 2 -3.6675 -0.0350
-4 10 3 0.4248 -0.0086
-4 10 4 -4.5579 -0.0535
-4 10 5 -0.4148 0.2097
-4 10 6 -0.6233 -0.0189
-4 10 7 0.4969 0.0669
-4 10 8 1.3324 0.0392
-4 10 9 0.2389 0.0315
-4 10 10 0.6889 -0.0760
-4 10 11 0.1871 -0.0277
-4 10 12 0.4957 0.4389
-4 10 13 1.3860 0.2206
-4 11 -3 -0.5548 -0.0654
-4 11 -2 -1.2727 0.0515
-4 11 -1 -2.2900 -0.0679
-4 11 0 -0.3580 -0.0202
-4 11 1 -0.0591 -0.0949
-4 11 2 2.4101 0.0380
-4 11 3 0.9594 -0.0933
-4 11 4 4.4918 -0.0481
-4 11 5 -0.9423 -0.1288
-4 11 6 3.9771 -0.1993
-4 11 7 -0.3352 -0.0219
-4 11 8 1.7002 0.0180
-4 11 9 0.0028 -0.0718
-4 11 10 -0.1393 0.0851
-4 11 11 0.6513 -0.3719
-4 11 12 -1.2463 -0.1458
-4 11 13 0.5137 0.9935
-4 12 -3 -1.0431 0.0017
-4 12 -2 -0.5405 -0.1136
-4 12 -1 -0.5525 0.0706
-4 12 0 1.9740 0.0337
-4 12 1 -0.0250 -0.0877
-4 12 2 4.7296 0.0715
-4 12 3 -0.4552 0.0694
-4 12 4 2.1167 0.1341
-4 12 5 -0.8981 -0.1173
-4 12 6 -1.6495 0.0286
-4 12 7 -0.2934 0.0121
-4 12 8 -2.0695 -0.3198
-4 12 9 0.4176 -0.1258
-4 12 10 -1.7965 -0.0763
-4 12 11 0.9947 -0.1864
-4 12 12 0.1140 -0.1518
-4 13 -3 0.2355 0.1049
-4 13 -2 -0.1214 -0.0078
-4 13 -1 0.6070 0.0400
-4 13 0 -0.2825 0.0476
-4 13 1 0.6673 0.1528
-4 13 2 -1.3227 0.1442
-4 13 3 1.2988 0.1185
-4 13 4 -2.8589 -0.0413
-4 13 5 0.7473 0.0571
-4 13 6 -2.6091 0.1776
-4 13 7 0.1405 0.2493
-4 13 8 -0.2608 0.1346
-4 13 9 -0.1943 -0.1366
-4 13 10 0.0232 0.5295
-4 13 11 -0.2065 -0.1349
-4 14 -3 1.6248 0.0950
-4 14 -2 -0.5422 -0.1548
-4 14 -1 1.3442 -0.1125
-4 14 0 -0.7856 0.0657
-4 14 1 0.0670 -0.1202
-4 14 2 -0.7819 -0.0289
-4 14 3 -0.8486 -0.1471
-4 14 4 0.3100 0.1256
-4 14 5 -0.2335 -0.0704
-4 14 6 1.3033 -0.1488
-4 14 7 -0.3934 0.2904
-4 14 8 1.5480 -0.0093
-4 14 9 -0.7570 -0.1705
-4 14 10 0.4183 0.2096
-4 15 -3 -0.0450 -0.1854
-4 15 -2 -0.8133 0.1847
-4 15 -1 0.7810 0.0111
-4 15 0 -1.1017 -0.1078
-4 15 1 0.4553 0.1612
-4 15 2 -0.8124 0.0147
-4 15 3 -0.7119 0.0292
-4 15 4 0.5429 -0.2340
-4 15 5 -1.3500 -0.0431
-4 15 6 1.3029 0.1699
-4 15 7 -0.4300 -0.4598
-4 15 8 -0.4371 0.4369
-4 16 -3 0.5339 -0.0490
-4 16 -2 1.4584 0.3066
-4 16 -1 0.3795 0.1242
-4 16 0 2.0965 0.0928
-4 16 1 -0.3076 -0.0516
-4 16 2 1.0007 0.2252
-4 16 3 -1.0600 -0.0661
-4 16 4 0.5425 0.1046
-4 16 5 0.1952 -0.0169
-4 16 6 -0.0696 -0.1182
-4 17 -1 -0.0066 -0.0163
-4 17 0 0.5177 0.0585
-4 17 1 0.7573 0.0152
-3 0 -1 -13.8232 0.3278
-3 0 1 -23.0091 0.2266
-3 0 3 -25.9171 -0.2828
-3 0 5 -16.1183 -0.4549
-3 0 7 1.0595 -0.2834
-3 0 9 6.7989 -0.5941
-3 0 11 3.9086 -0.2317
-3 0 13 1.7030 -0.3696
-3 0 15 1.3488 0.0600
-3 0 17 -1.4763 -1.7951
-3 1 -2 0.4218 0.2297
-3 1 -1 25.7102 -0.0737
-3 1 0 -5.2413 0.3860
-3 1 1 14.9965 0.2606
-3 1 2 -7.2644 0.0875
-3 1 3 -1.2349 0.3180
-3 1 4 -5.3991 -0.3101
-3 1 5 5.5484 0.2517
-3 1 6 -1.4434 -0.2509
-3 1 7 8.3228 0.0954
-3 1 8 1.4724 -0.4694
-3 1 9 4.2434 0.1149
-3 1 10 1.1980 -0.1762
-3 1 11 -0.1905 0.0512
-3 1 12 0.5784 -0.1468
-3 1 13 -1.4114 -0.0375
-3 1 14 0.9183 0.1084
-3 1 15 -0.8869 0.1265
-3 1 16 0.2025 -0.3703
-3 1 17 -1.1876 0.3514
-3 2 -2 -5.2396 0.5972
-3 2 -1 -0.0690 0.1482
-3 2 0 5.9782 0.1642
-3 2 1 -1.0844 0.5855
-3 2 2 12.3176 0.4015
-3 2 3 3.9979 0.0556
-3 2 4 12.1986 0.3563
-3 2 5 6.4723 -0.0050
-3 2 6 7.0393 0.2018
-3 2 7 -0.3251 0.1312
-3 2 8 4.1293 0.1526
-3 2 9 -5.0296 0.0450
-3 2 10 3.0091 -0.2025
-3 2 11 -2.8483 -0.0194
-3 2 12 0.5778 0.0477
-3 2 13 -1.0769 -0.0781
-3 2 14 -0.0155 -0.3361
-3 2 15 -1.8302 -0.1138
-3 2 16 0.7663 0.1525
-3 2 17 0.1529 0.4385
-3 3 -2 -8.2217 0.0056
-3 3 -1 -17.2359 -0.1569
-3 3 0 1.3671 -0.1360
-3 3 1 1.4810 -0.1190
-3 3 2 7.8351 -0.0971
-3 3 3 16.2536 0.1091
-3 3 4 6.2109 0.0212
-3 3 5 -0.1129 -0.1054
-3 3 6 1.1187 0.0053
-3 3 7 -7.8891 0.0302
-3 3 8 -2.9162 -0.0233
-3 3 9 -5.0820 -0.0276
-3 3 10 -3.0158 0.0636
-3 3 11 -0.8923 -0.0977
-3 3 12 -1.3790 0.1020
-3 3 13 1.5255 -0.3071
-3 3 14 -0.0820 -0.2662
-3 3 15 -0.5349 0.1040
-3 3 16 0.1151 0.3344
-3 4 -2 0.8768 -0.0169
-3 4 -1 8.1937 0.1021
-3 4 0 -6.4044 0.1092
-3 4 1 15.4238 -0.0003
-3 4 2 -9.7313 0.0449
-3 4 3 7.1225 0.1554
-3 4 4 -6.7016 0.2144
-3 4 5 -3.4741 0.1223
-3 4 6 -4.1667 -0.0512
-3 4 7 -1.6051 0.0896
-3 4 8 -2.7178 0.0313
-3 4 9 2.5834 0.3810
-3 4 10 -2.3818 0.0673
-3 4 11 2.3278 -0.1177
-3 4 12 -0.4631 -0.1692
-3 4 13 1.1412 0.4222
-3 4 14 0.8113 0.0649
-3 4 15 1.2562 -0.6894
-3 4 16 0.2244 0.1229
-3 5 -2 5.1150 0.0320
-3 5 -1 6.9481 0.0035
-3 5 0 4.3283 -0.1496
-3 5 1 -7.2272 -0.0480
-3 5 2 1.8887 -0.2305
-3 5 3 -10.1965 0.1116
-3 5 4 1.7674 0.0997
-3 5 5 5.2256 -0.0638
-3 5 6 1.0542 0.0120
-3 5 7 8.1670 -0.0255
-3 5 8 0.6115 0.0590
-3 5 9 4.5175 0.0375
-3 5 10 1.1635 -0.0485
-3 5 11 0.4945 -0.0675
-3 5 12 1.9761 0.2066
-3 5 13 -0.3759 0.0162
-3 5 14 1.1358 0.2092
-3 5 15 0.3150 -0.0976
-3 5 16 -0.1059 -1.7927
-3 6 -2 -0.4752 -0.0349
-3 6 -1 -3.5701 0.0468
-3 6 0 4.9467 -0.1212
-3 6 1 -6.3604 -0.2348
-3 6 2 6.0832 -0.1218
-3 6 3 -1.2865 -0.0235
-3 6 4 3.2287 -0.1231
-3 6 5 2.8560 -0.1122
-3 6 6 3.4101 -0.0650
-3 6 7 -0.1675 0.0456
-3 6 8 1.7296 -0.2029
-3 6 9 -1.5169 -0.2281
-3 6 10 1.4176 0.2481
-3 6 11 -1.0637 0.1517
-3 6 12 -0.1594 0.0363
-3 6 13 0.6658 -0.4214
-3 6 14 -1.9827 -0.0024
-3 6 15 -0.6119 -0.2727
-3 6 16 -0.9133 0.1519
-3 7 -2 1.2629 0.1049
-3 7 -1 -4.6042 -0.0739
-3 7 0 1.0837 0.1300
-3 7 1 3.1581 0.0688
-3 7 2 1.2813 0.0552
-3 7 3 1.8506 -0.2405
-3 7 4 -0.6578 0.1719
-3 7 5 -4.3421 0.1403
-3 7 6 -0.2515 -0.0329
-3 7 7 -3.8010 -0.0745
-3 7 8 -0.2433 0.1243
-3 7 9 -2.7321 0.0444
-3 7 10 -0.4845 -0.0621
-3 7 11 -0.4619 -0.0360
-3 7 12 -1.0525 0.2393
-3 7 13 -0.3371 -0.3342
-3 7 14 -3.1928 -0.2997
-3 7 15 0.3477 0.6370
-3 7 16 -3.0525 0.1478
-3 8 -2 0.2257 0.0740
-3 8 -1 3.6099 0.0779
-3 8 0 -1.6540 0.0176
-3 8 1 3.4890 0.0415
-3 8 2 -2.6310 0.0304
-3 8 3 -1.5346 -0.0143
-3 8 4 -3.4232 0.0298
-3 8 5 -4.7078 0.0311
-3 8 6 -3.4899 -0.0741
-3 8 7 -0.9329 -0.1672
-3 8 8 -2.0055 -0.0452
-3 8 9 0.2392 -0.0221
-3 8 10 -1.5972 -0.0754
-3 8 11 0.3821 -0.2826
-3 8 12 -0.8133 -0.1132
-3 8 13 0.1150 0.3187
-3 8 14 -0.0860 -0.4982
-3 8 15 -0.1559 -1.3061
-3 9 -2 -0.7114 0.0871
-3 9 -1 1.8807 0.0841
-3 9 0 0.3054 -0.0071
-3 9 1 -0.7300 -0.0024
-3 9 2 1.6631 0.1633
-3 9 3 -1.1083 0.1540
-3 9 4 1.6079 -0.1053
-3 9 5 2.1347 0.1484
-3 9 6 0.8983 -0.0716
-3 9 7 3.2882 -0.0137
-3 9 8 0.4437 -0.0433
-3 9 9 2.1179 -0.0797
-3 9 10 -1.0433 -0.2063
-3 9 11 0.6044 0.0964
-3 9 12 -0.3026 0.0481
-3 9 13 -0.4914 0.0212
-3 9 14 0.5073 1.1372
-3 9 15 -0.4874 -0.4477
-3 10 -2 -0.1780 -0.0896
-3 10 -1 0.6928 0.0636
-3 10 0 1.0963 0.0153
-3 10 1 0.4825 -0.0520
-3 10 2 0.9245 0.0273
-3 10 3 4.0101 0.0566
-3 10 4 0.4709 -0.0485
-3 10 5 4.9427 -0.1541
-3 10 6 0.1499 0.1276
-3 10 7 0.9729 0.1072
-3 10 8 -0.4625 -0.1064
-3 10 9 -1.5215 -0.0589
-3 10 10 0.2825 0.1009
-3 10 11 -0.7715 -0.0445
-3 10 12 -0.2878 -0.5005
-3 10 13 -0.9776 0.4431
-3 11 -2 0.8915 -0.0419
-3 11 -1 -0.0184 -0.0011
-3 11 0 0.9677 0.0294
-3 11 1 0.2329 0.0973
-3 11 2 -1.1144 -0.1559
-3 11 3 -0.3026 0.0810
-3 11 4 -0.1693 0.1864
-3 11 5 -3.1830 0.0470
-3 11 6 -0.3886 0.0183
-3 11 7 -4.0178 0.1189
-3 11 8 -0.8728 0.0482
-3 11 9 -1.3363 -0.2144
-3 11 10 0.1731 0.1149
-3 11 11 1.1708 0.2631
-3 11 12 -0.0463 0.0128
-3 12 -2 0.9681 0.0413
-3 12 -1 -0.9474 -0.0408
-3 12 0 -0.4064 0.0782
-3 12 1 -4.0844 -0.1295
-3 12 2 -1.2747 0.0619
-3 12 3 -4.0247 -0.0674
-3 12 4 -0.6405 0.1759
-3 12 5 -0.5663 0.1713
-3 12 6 -0.0312 -0.2086
-3 12 7 0.9432 0.1324
-3 12 8 0.3541 0.1603
-3 12 9 3.6159 0.3437
-3 12 10 -0.5700 -0.2426
-3 12 11 1.1980 -0.0886
-3 13 -2 -0.2922 0.0661
-3 13 -1 0.9874 0.1575
-3 13 0 -1.2369 -0.2309
-3 13 1 0.0336 -0.0522
-3 13 2 -1.2203 -0.0139
-3 13 3 0.6407 0.1257
-3 13 4 -0.0519 -0.0599
-3 13 5 2.6113 0.0732
-3 13 6 0.5976 0.0206
-3 13 7 2.1168 -0.1211
-3 13 8 0.7720 -0.0166
-3 13 9 0.7291 0.0866
-3 13 10 0.5854 0.4464
-3 13 11 -0.9070 -1.2989
-3 14 -2 -0.7023 -0.0736
-3 14 -1 0.1503 -0.0816
-3 14 0 0.7300 0.2108
-3 14 1 1.3483 0.0889
-3 14 2 2.1267 0.1136
-3 14 3 1.7317 -0.0509
-3 14 4 1.5650 -0.1369
-3 14 5 1.4115 0.0098
-3 14 6 0.8277 -0.0390
-3 14 7 0.1502 0.2387
-3 14 8 1.1808 -0.2249
-3 14 9 -1.2007 -0.3787
-3 14 10 0.5282 0.5446
-3 15 -2 -0.4771 0.0419
-3 15 -1 1.1225 -0.0808
-3 15 0 0.0410 0.0476
-3 15 1 1.1390 0.1466
-3 15 2 1.1127 -0.0804
-3 15 3 1.2565 -0.0446
-3 15 4 1.1958 0.2062
-3 15 5 -0.3464 -0.0558
-3 15 6 0.3347 0.2606
-3 15 7 -0.3306 -0.2857
-3 15 8 -1.1381 -0.2667
-3 15 9 0.3544 0.0688
-3 16 -2 -0.5624 -0.0294
-3 16 -1 -1.8627 -0.1365
-3 16 0 -0.2950 -0.1102
-3 16 1 -1.7498 -0.1606
-3 16 2 -0.2335 -0.0631
-3 16 3 -1.0523 -0.0763
-3 16 4 -0.5353 0.0770
-3 16 5 -1.4783 0.0886
-3 16 6 -1.4170 0.2102
-3 17 -2 0.7483 0.0411
-3 17 -1 -0.3943 0.0679
-3 17 0 -0.8683 -0.0720
-3 17 1 0.1153 -0.1800
-3 17 2 -0.8126 -0.1106
-3 17 3 -0.5692 0.1485
-3 17 4 0.2519 -0.1153
-2 0 0 52.6087 -1.7072
-2 0 2 35.4920 0.5977
-2 0 4 15.2012 0.4653
-2 0 6 9.2949 0.2352
-2 0 8 1.4114 0.1819
-2 0 10 -1.9012 -0.1530
-2 0 12 -3.2558 -0.1449
-2 0 14 -1.2816 -0.4829
-2 0 16 -0.0703 0.6434
-2 1 -1 6.7862 0.3303
-2 1 0 -50.6835 0.5482
-2 1 1 10.6296 0.3154
-2 1 2 -28.2177 0.3488
-2 1 3 9.2827 0.6603
-2 1 4 0.8538 0.3562
-2 1 5 3.3702 0.2192
-2 1 6 -0.5192 0.2731
-2 1 7 -0.8994 0.0964
-2 1 8 -7.2695 0.3619
-2 1 9 -1.1044 0.0206
-2 1 10 -6.2330 0.1753
-2 1 11 -0.8075 -0.3719
-2 1 12 -2.3237 0.1869
-2 1 13 -0.4262 0.2385
-2 1 14 -0.9554 -0.0546
-2 1 15 -0.5869 -0.4462
-2 1 16 1.1707 0.0609
-2 1 17 1.1160 1.4775
-2 2 -1 -4.3575 -0.1292
-2 2 0 -24.3127 0.1898
-2 2 1 -10.9351 -0.0090
-2 2 2 -5.4623 0.0704
-2 2 3 -13.1257 -0.0567
-2 2 4 1.2319 0.1588
-2 2 5 -8.7271 0.0661
-2 2 6 -8.3290 -0.1407
-2 2 7 -5.3754 0.1931
-2 2 8 -3.6672 -0.0259
-2 2 9 -3.7916 0.2829
-2 2 10 0.3658 0.0299
-2 2 11 -1.2666 0.1514
-2 2 12 2.4732 0.0241
-2 2 13 -0.1554 0.0524
-2 2 14 1.9547 0.1522
-2 2 15 -0.7494 -0.2520
-2 2 16 1.0936 -0.2413
-2 2 17 -0.5186 -0.1642
-2 3 -1 -2.2243 -0.0021
-2 3 0 33.7353 0.2663
-2 3 1 -12.8091 -0.0009
-2 3 2 7.9355 -0.2711
-2 3 3 -11.8805 -0.0833
-2 3 4 -11.3704 0.2455
-2 3 5 -3.7987 -0.1138
-2 3 6 -1.5406 0.1993
-2 3 7 1.6144 0.0931
-2 3 8 5.6554 0.0941
-2 3 9 2.1794 0.0637
-2 3 10 5.9315 0.1000
-2 3 11 1.7095 0.1602
-2 3 12 1.5927 -0.0254
-2 3 13 -0.0122 -0.1759
-2 3 14 0.3558 0.1649
-2 3 15 -0.0207 0.3976
-2 3 16 1.2357 -1.3746
-2 3 17 -0.9552 -1.2009
-2 4 -1 4.2865 -0.0456
-2 4 0 -3.1001 0.0904
-2 4 1 9.5624 -0.1114
-2 4 2 -18.2410 -0.2230
-2 4 3 8.0909 0.0041
-2 4 4 -8.8213 -0.0430
-2 4 5 5.6519 0.0957
-2 4 6 8.1912 -0.0478
-2 4 7 4.0893 0.1455
-2 4 8 4.8486 -0.1749
-2 4 9 3.0466 -0.0819
-2 4 10 0.5809 -0.0296
-2 4 11 1.9842 0.0003
-2 4 12 -2.5381 0.0358
-2 4 13 0.2896 0.3641
-2 4 14 -1.8784 0.4109
-2 4 15 -0.3310 -0.1577
-2 4 16 -0.8500 1.3931
-2 5 -1 -4.1773 -0.1389
-2 5 0 -14.8233 -0.2243
-2 5 1 1.9277 0.0752
-2 5 2 0.8699 -0.2269
-2 5 3 2.7696 -0.2685
-2 5 4 5.4774 -0.3211
-2 5 5 1.3210 -0.0915
-2 5 6 -2.3987 -0.0527
-2 5 7 0.9394 -0.0310
-2 5 8 -4.9151 -0.2046
-2 5 9 -0.0510 0.0548
-2 5 10 -4.0825 -0.0869
-2 5 11 -1.3387 -0.1401
-2 5 12 -1.5723 0.1059
-2 5 13 -1.3501 -0.0520
-2 5 14 0.1132 -0.1762
-2 5 15 0.3178 0.9256
-2 5 16 0.3230 0.5758
-2 6 -1 -2.1671 -0.0422
-2 6 0 3.7345 -0.0582
-2 6 1 -5.9435 0.2034
-2 6 2 11.7117 -0.0833
-2 6 3 -3.5591 0.0525
-2 6 4 3.7226 -0.1287
-2 6 5 -4.9385 -0.0575
-2 6 6 -4.9139 0.0989
-2 6 7 -3.3688 0.0252
-2 6 8 -3.1950 0.0115
-2 6 9 -2.3223 -0.1607
-2 6 10 -1.0862 0.0085
-2 6 11 -1.9239 -0.0771
-2 6 12 0.1331 -0.0483
-2 6 13 -0.2989 -0.1411
-2 6 14 0.3166 0.4692
-2 6 15 0.2360 0.6024
-2 6 16 1.7602 0.3025
-2 7 -1 -0.4490 -0.0067
-2 7 0 6.5434 -0.1024
-2 7 1 -2.9508 -0.0005
-2 7 2 -0.7729 0.0498
-2 7 3 -3.0293 -0.1195
-2 7 4 -2.0645 -0.1546
-2 7 5 -1.8230 0.1245
-2 7 6 0.7964 -0.0907
-2 7 7 -1.4104 -0.1542
-2 7 8 3.2177 -0.0982
-2 7 9 0.1142 0.0338
-2 7 10 2.6821 -0.1137
-2 7 11 0.0954 -0.2303
-2 7 12 1.2396 0.2979
-2 7 13 1.4276 -0.0045
-2 7 14 -0.0154 -0.5134
-2 7 15 2.6187 -0.0825
-2 8 -1 0.3361 0.1066
-2 8 0 -3.1557 0.0401
-2 8 1 2.1121 -0.0436
-2 8 2 -5.8998 0.0452
-2 8 3 3.1435 -0.0036
-2 8 4 0.4520 0.1195
-2 8 5 4.2573 -0.0719
-2 8 6 4.6102 0.1098
-2 8 7 3.2820 0.1342
-2 8 8 2.8580 -0.0563
-2 8 9 2.7319 -0.0749
-2 8 10 1.4869 0.1994
-2 8 11 1.3877 -0.1181
-2 8 12 0.3515 -0.4739
-2 8 13 1.0890 0.0829
-2 8 14 0.3578 0.3674
-2 8 15 -0.4438 -1.0479
-2 9 -1 -1.7157 0.0822
-2 9 0 -4.1021 -0.0679
-2 9 1 -1.1721 0.1743
-2 9 2 0.4942 -0.0269
-2 9 3 -0.0391 0.1661
-2 9 4 3.3488 0.0605
-2 9 5 0.4623 0.0583
-2 9 6 -0.1461 -0.0888
-2 9 7 0.2252 0.0518
-2 9 8 -2.0416 0.2692
-2 9 9 0.9389 -0.1779
-2 9 10 -1.7986 -0.0601
-2 9 11 0.7973 0.1598
-2 9 12 -0.6711 -0.0473
-2 9 13 0.6023 -0.3611
-2 9 14 -0.0301 0.3883
-2 10 -1 -0.4082 -0.1306
-2 10 0 -0.4507 0.0963
-2 10 1 -0.7654 -0.0324
-2 10 2 0.9742 0.1102
-2 10 3 0.0014 -0.1666
-2 10 4 -2.2108 0.0791
-2 10 5 -0.9060 0.0314
-2 10 6 -4.1092 -0.0541
-2 10 7 -1.0880 -0.1518
-2 10 8 -1.2548 -0.0073
-2 10 9 -0.4035 0.0103
-2 10 10 0.1268 -0.0915
-2 10 11 -0.1283 0.1276
-2 10 12 0.5950 0.0257
-2 10 13 0.6488 0.4102
-2 11 -1 -0.3434 0.0929
-2 11 0 1.2595 -0.0398
-2 11 1 -0.3392 0.0988
-2 11 2 -0.1582 -0.0885
-2 11 3 -1.1063 -0.0581
-2 11 4 -0.7083 0.0004
-2 11 5 -1.2328 0.0310
-2 11 6 1.9628 0.1225
-2 11 7 0.6584 -0.1194
-2 11 8 1.8819 0.0476
-2 11 9 -0.1075 0.2218
-2 11 10 0.2653 0.0031
-2 11 11 -0.1039 -0.0749
-2 11 12 -1.7250 0.0919
-2 12 -1 -1.0820 0.0436
-2 12 0 2.3929 0.0845
-2 12 1 0.7407 -0.0794
-2 12 2 2.6001 0.0268
-2 12 3 1.4208 0.0583
-2 12 4 -0.0973 -0.1280
-2 12 5 1.5338 0.0586
-2 12 6 0.9330 0.0633
-2 12 7 0.5671 0.1648
-2 12 8 -1.5123 0.0275
-2 12 9 0.0262 0.1808
-2 12 10 -2.5607 0.3735
-2 12 11 1.3189 -0.2519
-2 13 -1 1.0084 -0.1169
-2 13 0 -1.0899 -0.0629
-2 13 1 2.1188 0.0234
-2 13 2 0.0881 -0.0412
-2 13 3 1.3542 -0.1692
-2 13 4 0.5378 -0.1925
-2 13 5 0.4195 -0.3199
-2 13 6 -0.3908 0.0165
-2 13 7 -0.2902 0.2553
-2 13 8 -0.4446 -0.1813
-2 13 9 -1.2739 -0.5606
-2 13 10 -0.2125 0.6383
-2 14 -1 -0.2413 -0.0454
-2 14 0 0.0188 -0.0265
-2 14 1 -1.5301 0.0028
-2 14 2 -1.0861 -0.0609
-2 14 3 -2.2302 0.0167
-2 14 4 -0.9888 0.1214
-2 14 5 -1.2373 0.0390
-2 14 6 -2.2592 -0.2469
-2 14 7 -2.0762 -0.2493
-2 14 8 -0.5391 -0.0559
-2 14 9 -0.8217 0.0212
-2 14 10 0.1248 -0.7305
-2 15 -1 0.1457 0.1468
-2 15 0 0.1095 0.0542
-2 15 1 -1.2772 0.1188
-2 15 2 -0.3689 0.0029
-2 15 3 -1.4380 0.0578
-2 15 4 -2.4442 0.0367
-2 15 5 -0.8021 0.0164
-2 15 6 -1.4916 -0.1144
-2 15 7 0.7134 0.1974
-2 15 8 -1.5192 -0.2204
-2 15 9 1.4929 1.4555
-2 16 -1 0.6343 0.0324
-2 16 0 0.7642 -0.1387
-2 16 1 0.4392 -0.0980
-2 16 2 0.2236 -0.1646
-2 16 3 0.5852 0.0112
-2 16 4 0.5550 -0.2581
-2 16 5 0.9136 -0.2338
-2 16 6 1.2524 0.3905
-2 17 -1 -0.4479 -0.0435
-2 17 0 -1.0183 0.0538
-2 17 1 1.1503 -0.0471
-2 17 2 -0.5596 -0.0962
-2 17 3 -0.2187 0.0137
-2 17 4 0.8232 0.3536
-2 17 5 -0.4316 -0.2507
-1 0 1 -87.1609 0.1786
-1 0 3 -35.7315 -0.0233
-1 0 5 -1.1835 0.5798
-1 0 7 -4.0833 0.4751
-1 0 9 -4.6016 0.4652
-1 0 11 -0.7482 0.4626
-1 0 13 0.1712 0.2499
-1 0 15 -0.4319 0.0942
-1 1 0 -13.1431 0.2503
-1 1 1 52.2477 0.2608
-1 1 2 -13.5163 -0.2762
-1 1 3 28.6013 -0.3466
-1 1 4 -6.2259 0.4423
-1 1 5 1.4481 -0.2019
-1 1 6 0.4305 0.3984
-1 1 7 -0.9895 -0.1252
-1 1 8 1.2260 0.3364
-1 1 9 5.1808 0.0054
-1 1 10 1.1173 0.3164
-1 1 11 4.7944 0.0734
-1 1 12 0.8200 -0.0604
-1 1 13 3.8272 0.0139
-1 1 14 0.3074 0.2054
-1 1 15 1.3142 0.1693
-1 1 16 -0.3855 -0.3964
-1 1 17 -1.7957 -0.7337
-1 2 0 6.0176 -0.5781
-1 2 1 52.5709 -0.1899
-1 2 2 8.8719 -0.1965
-1 2 3 9.5164 -0.5867
-1 2 4 8.0991 -0.3198
-1 2 5 -2.4154 0.0665
-1 2 6 5.8555 -0.1079
-1 2 7 6.7621 -0.1921
-1 2 8 4.2546 -0.0527
-1 2 9 5.9898 -0.0279
-1 2 10 1.4551 0.1680
-1 2 11 2.3813 -0.1550
-1 2 12 0.3357 0.0470
-1 2 13 -0.6546 -0.0195
-1 2 14 0.6641 0.0620
-1 2 15 -0.5910 -0.3149
-1 2 16 0.6806 0.9738
-1 2 17 -0.2391 -0.0178
-1 3 0 15.0136 -0.2132
-1 3 1 -36.6865 0.0459
-1 3 2 17.0749 0.1658
-1 3 3 -13.5026 0.0512
-1 3 4 6.9709 -0.0377
-1 3 5 3.8411 -0.0930
-1 3 6 -0.3694 0.0528
-1 3 7 3.1110 0.0401
-1 3 8 -1.5694 -0.1713
-1 3 9 -3.7627 0.0705
-1 3 10 -1.2049 -0.0045
-1 3 11 -3.4674 0.2243
-1 3 12 -0.8141 0.0646
-1 3 13 -2.6914 -0.0349
-1 3 14 0.2531 -0.0375
-1 3 15 -2.5462 0.8198
-1 3 16 -0.2424 0.1798
-1 4 0 -4.7162 0.0072
-1 4 1 -10.7809 -0.0760
-1 4 2 -3.9858 -0.2222
-1 4 3 12.2946 0.0014
-1 4 4 -2.2470 -0.0084
-1 4 5 2.8236 -0.2791
-1 4 6 -3.6364 -0.0905
-1 4 7 -7.3254 -0.0642
-1 4 8 -3.0423 0.0848
-1 4 9 -6.0407 -0.1118
-1 4 10 -2.0587 0.1142
-1 4 11 -2.0250 -0.0329
-1 4 12 -1.6280 -0.0551
-1 4 13 1.5170 -0.2897
-1 4 14 -0.3889 -0.0913
-1 4 15 0.8507 -0.8502
-1 4 16 0.2673 0.8645
-1 5 0 -1.3765 -0.0610
-1 5 1 19.1890 -0.0653
-1 5 2 -5.0148 0.1607
-1 5 3 8.2438 0.0615
-1 5 4 -3.8635 -0.0373
-1 5 5 0.4139 -0.0662
-1 5 6 -3.8526 -0.0990
-1 5 7 -0.7525 -0.0993
-1 5 8 -1.8659 -0.0929
-1 5 9 2.8006 0.1499
-1 5 10 -0.7603 -0.0432
-1 5 11 3.1091 -0.3463
-1 5 12 0.8881 0.2157
-1 5 13 2.4377 0.2951
-1 5 14 -0.8457 -0.4524
-1 5 15 0.2614 -0.4125
-1 5 16 -0.7258 -0.5152
-1 6 0 2.3693 0.1498
-1 6 1 0.0893 0.0476
-1 6 2 -0.2957 0.1398
-1 6 3 -9.2198 0.2289
-1 6 4 1.0491 0.2115
-1 6 5 -1.6021 -0.2190
-1 6 6 3.5536 0.0540
-1 6 7 4.9302 0.2069
-1 6 8 2.5438 0.0062
-1 6 9 4.8717 -0.0797
-1 6 10 2.6467 0.0554
-1 6 11 2.0301 0.3575
-1 6 12 1.3554 -0.1125
-1 6 13 0.4082 -0.2251
-1 6 14 0.5250 -0.1173
-1 6 15 -1.6933 -0.0971
-1 6 16 -0.2788 -1.7487
-1 7 0 1.0148 -0.1007
-1 7 1 -8.5840 0.2491
-1 7 2 4.5806 -0.0467
-1 7 3 -4.0767 0.1497
-1 7 4 4.6997 -0.0680
-1 7 5 0.7247 0.1713
-1 7 6 4.8550 -0.0276
-1 7 7 0.2801 -0.0268
-1 7 8 2.1915 0.0739
-1 7 9 -1.9212 0.0308
-1 7 10 0.9950 -0.0211
-1 7 11 -1.7679 0.0496
-1 7 12 0.0446 -0.0704
-1 7 13 -1.3933 -0.2127
-1 7 14 -0.2650 -0.1423
-1 7 15 0.1306 1.7753
-1 8 0 -0.1554 -0.0852
-1 8 1 1.0314 0.0399
-1 8 2 -0.2527 0.0118
-1 8 3 4.8228 -0.0237
-1 8 4 -1.4490 0.1057
-1 8 5 0.3437 0.1449
-1 8 6 -3.2093 -0.1571
-1 8 7 -3.8564 0.0186
-1 8 8 -3.5558 0.0641
-1 8 9 -4.0495 0.2180
-1 8 10 -2.2754 0.0221
-1 8 11 -2.3013 0.0685
-1 8 12 -0.5337 0.1426
-1 8 13 -1.7566 0.4059
-1 8 14 -0.1233 0.5257
-1 8 15 0.0233 -0.4789
-1 9 0 2.8838 -0.2342
-1 9 1 4.9528 0.0900
-1 9 2 -0.5210 -0.0028
-1 9 3 0.2401 -0.0813
-1 9 4 -2.2545 -0.0186
-1 9 5 -2.3077 0.0006
-1 9 6 -3.2106 0.1632
-1 9 7 -1.0697 -0.0008
-1 9 8 -2.3728 0.1051
-1 9 9 0.5268 0.1603
-1 9 10 -1.0530 0.0582
-1 9 11 0.9770 -0.0746
-1 9 12 -0.2469 0.0471
-1 9 13 0.7316 0.1689
-1 9 14 -0.7303 -0.9818
-1 10 0 -0.0923 -0.0232
-1 10 1 1.6502 -0.0472
-1 10 2 -1.7437 0.0755
-1 10 3 -0.7912 0.0384
-1 10 4 -1.0365 -0.1461
-1 10 5 0.9064 -0.0785
-1 10 6 2.0370 0.1676
-1 10 7 3.1438 0.1562
-1 10 8 1.4997 -0.2202
-1 10 9 1.7604 -0.1129
-1 10 10 0.8728 0.3827
-1 10 11 0.9549 0.0126
-1 10 12 0.2997 -0.3500
-1 10 13 0.3247 0.1144
-1 11 0 -0.7616 0.0029
-1 11 1 -2.5900 -0.0450
-1 11 2 1.4283 -0.0647
-1 11 3 -1.2159 0.0529
-1 11 4 3.1773 0.1343
-1 11 5 -0.2785 -0.0641
-1 11 6 2.0758 -0.2312
-1 11 7 0.0156 0.1502
-1 11 8 0.8746 0.1391
-1 11 9 -0.5507 -0.2271
-1 11 10 0.4973 -0.0632
-1 11 11 0.9943 0.2828
-1 11 12 -1.0335 0.1743
-1 12 0 0.9257 -0.0298
-1 12 1 -2.6842 0.0014
-1 12 2 -0.2794 -0.0322
-1 12 3 0.3137 -0.0713
-1 12 4 -1.1099 0.0632
-1 12 5 1.5128 -0.0069
-1 12 6 -0.7644 -0.0781
-1 12 7 -0.6520 -0.2275
-1 12 8 -0.6688 0.3311
-1 12 9 1.5791 -0.1725
-1 12 10 -1.1540 -0.3620
-1 12 11 0.0745 -0.2379
-1 13 0 -0.7950 -0.1991
-1 13 1 1.3341 -0.0881
-1 13 2 -1.8642 0.0859
-1 13 3 0.2928 0.0698
-1 13 4 -1.8769 0.0850
-1 13 5 -1.1222 -0.0415
-1 13 6 -1.3305 -0.0812
-1 13 7 -1.6713 -0.0116
-1 13 8 0.3472 -0.2134
-1 13 9 -0.3446 -0.0396
-1 13 10 1.5363 0.1054
-1 14 0 0.1730 0.0278
-1 14 1 0.0922 0.1113
-1 14 2 1.3925 -0.0048
-1 14 3 -0.3891 -0.0441
-1 14 4 1.1515 -0.0594
-1 14 5 -0.2665 -0.1568
-1 14 6 0.8996 0.3579
-1 14 7 1.6189 -0.0789
-1 14 8 2.1771 -0.1138
-1 14 9 0.7277 0.5476
-1 14 10 -0.6123 0.0250
-1 15 0 0.3006 0.0394
-1 15 1 -1.8944 0.0114
-1 15 2 1.4510 -0.1109
-1 15 3 0.2884 -0.1305
-1 15 4 1.1519 0.1479
-1 15 5 2.7721 0.2713
-1 15 6 0.3881 0.0559
-1 15 7 3.3807 0.3287
-1 15 8 -0.8894 -0.8566
-1 15 9 1.7250 -0.0987
-1 16 0 -0.4469 0.0938
-1 16 1 0.5266 0.0337
-1 16 2 -0.5892 0.0358
-1 16 3 1.0803 0.1306
-1 16 4 -0.4794 0.2340
-1 16 5 0.3182 -0.0230
-1 16 6 -0.8790 -0.4244
-1 17 0 -0.5577 -0.0052
-1 17 1 1.8096 0.1559
-1 17 2 -0.2465 0.0210
-1 17 3 0.5374 0.0214
-1 17 4 0.8131 0.0993
-1 17 5 -1.0488 -0.8852
0 0 2 94.2671 1.9423
0 0 4 19.9244 -0.5300
0 0 6 -4.9386 0.0136
0 0 8 1.6540 -0.0454
0 0 10 4.0790 0.1733
0 0 12 1.7219 0.2214
0 0 14 1.7119 0.1670
0 0 16 1.0008 1.2174
0 1 1 14.6748 -0.0793
0 1 2 -29.9270 -0.3149
0 1 3 8.9128 -0.5135
0 1 4 -22.9046 -0.2797
0 1 5 -0.5077 -0.3851
0 1 6 -4.0293 -0.3172
0 1 7 -1.5596 -0.0046
0 1 8 0.4713 -0.3781
0 1 9 -1.5336 0.1818
0 1 10 -1.4784 -0.2957
0 1 11 -1.2602 0.4090
0 1 12 -2.7872 0.0288
0 1 13 -0.2157 -0.0063
0 1 14 -2.2763 -0.2608
0 1 15 0.5635 -0.1000
0 1 16 -0.1029 0.1511
0 2 0 -89.1235 -0.3523
0 2 1 -0.9494 0.0405
0 2 2 -61.1581 -0.2934
0 2 3 -3.3610 -0.1462
0 2 4 -9.5533 0.0509
0 2 5 -4.1645 -0.0995
0 2 6 0.6484 -0.0885
0 2 7 -4.0870 -0.1350
0 2 8 -3.7887 0.0985
0 2 9 -1.5801 -0.3563
0 2 10 -6.4753 -0.2133
0 2 11 -0.8490 -0.1660
0 2 12 -2.9875 0.0559
0 2 13 -0.7113 0.2753
0 2 14 -1.2816 0.0413
0 2 15 -0.7925 -0.9057
0 2 16 -0.4063 0.6610
0 3 1 -16.7672 -0.1528
0 3 2 22.0524 -0.1812
0 3 3 -7.4390 0.0876
0 3 4 13.9966 -0.1015
0 3 5 2.0227 0.0241
0 3 6 -0.6497 -0.0897
0 3 7 1.7415 0.0618
0 3 8 -1.7214 -0.1856
0 3 9 1.1592 -0.1507
0 3 10 -0.4825 -0.0426
0 3 11 0.6466 -0.0904
0 3 12 1.0427 0.0053
0 3 13 -0.2510 0.0486
0 3 14 3.3465 0.1807
0 3 15 -0.1508 0.2344
0 3 16 2.1129 -1.4221
0 4 0 38.3592 0.2527
0 4 1 -0.9117 0.1124
0 4 2 20.9771 -0.1819
0 4 3 -3.2866 0.0116
0 4 4 0.1365 0.2365
0 4 5 -1.0010 -0.2153
0 4 6 2.2073 -0.1474
0 4 7 2.0178 -0.0880
0 4 8 5.0631 0.0263
0 4 9 1.4396 -0.1710
0 4 10 6.8259 -0.0457
0 4 11 2.0976 -0.0050
0 4 12 2.3871 -0.1127
0 4 13 2.0241 -0.0506
0 4 14 0.7879 0.4159
0 4 15 0.5811 -0.0905
0 4 16 -0.2329 -0.0457
0 5 1 1.7581 0.0350
0 5 2 -16.2840 0.2141
0 5 3 0.9871 0.2076
0 5 4 -13.0194 0.0718
0 5 5 3.0515 0.0625
0 5 6 -1.4374 0.2356
0 5 7 3.3132 -0.0404
0 5 8 0.7008 0.0798
0 5 9 2.4053 0.0909
0 5 10 -0.5665 0.0619
0 5 11 0.7891 -0.2391
0 5 12 -2.4295 0.0219
0 5 13 0.5502 0.0844
0 5 14 -1.9139 -0.3121
0 5 15 1.2190 -0.2357
0 5 16 -0.5273 0.8149
0 6 0 -14.6173 0.1601
0 6 1 2.0451 0.0240
0 6 2 -7.9813 0.1227
0 6 3 3.8083 -0.1687
0 6 4 0.9411 0.1217
0 6 5 0.2902 0.0727
0 6 6 -1.5959 0.0608
0 6 7 -1.0733 0.0970
0 6 8 -4.3456 -0.1000
0 6 9 -2.3512 -0.0791
0 6 10 -4.7559 -0.0787
0 6 11 -1.5467 0.0764
0 6 12 -2.2711 -0.0720
0 6 13 -0.8585 -0.3766
0 6 14 -0.1129 0.2370
0 6 15 0.3310 0.3131
0 7 1 -1.1296 0.0443
0 7 2 8.7225 0.0792
0 7 3 -3.4938 -0.0641
0 7 4 7.0365 0.0996
0 7 5 -5.4445 0.0590
0 7 6 1.3614 0.2091
0 7 7 -5.0549 -0.1272
0 7 8 -0.1722 0.0464
0 7 9 -2.7983 0.1170
0 7 10 0.2201 -0.0555
0 7 11 -0.9613 -0.0104
0 7 12 0.9481 0.0887
0 7 13 -0.4011 0.1771
0 7 14 0.6776 -0.9441
0 7 15 -1.2770 0.0232
0 8 0 6.4816 0.0508
0 8 1 -0.7338 -0.0856
0 8 2 3.5216 -0.1092
0 8 3 -2.1836 0.0692
0 8 4 -1.6987 -0.0194
0 8 5 -0.1127 -0.0598
0 8 6 0.2094 0.0177
0 8 7 1.8151 0.0603
0 8 8 2.9208 -0.0098
0 8 9 2.7143 -0.0565
0 8 10 3.6037 -0.0117
0 8 11 0.6194 -0.0080
0 8 12 2.5447 -0.1716
0 8 13 -0.1993 0.1494
0 8 14 1.4934 -0.0280
0 8 15 -1.0677 -1.1545
0 9 1 -2.4299 -0.0663
0 9 2 -3.4447 -0.1262
0 9 3 1.2327 -0.1276
0 9 4 -1.8240 0.0654
0 9 5 4.3995 -0.0936
0 9 6 0.3619 -0.1945
0 9 7 5.3413 0.0400
0 9 8 1.3700 -0.1073
0 9 9 2.7459 -0.0744
0 9 10 0.0715 -0.1033
0 9 11 0.6149 0.2166
0 9 12 0.0522 0.0202
0 9 13 0.6708 0.5800
0 9 14 0.0097 0.0791
0 10 0 -5.9772 -0.1893
0 10 1 1.4189 0.0698
0 10 2 -4.5782 -0.0778
0 10 3 3.2078 -0.0902
0 10 4 -0.5344 -0.0113
0 10 5 -0.0889 0.0027
0 10 6 -0.8167 -0.0156
0 10 7 -1.0622 0.0391
0 10 8 -2.2443 -0.0091
0 10 9 -1.0516 0.0243
0 10 10 -1.9590 -0.0111
0 10 11 -1.4708 -0.2469
0 10 12 -0.9684 0.0638
0 10 13 -0.7112 -0.0504
0 11 1 0.8041 0.1169
0 11 2 2.6316 0.0144
0 11 3 -2.2836 -0.1414
0 11 4 2.5052 -0.0973
0 11 5 -3.6785 0.2526
0 11 6 0.8436 -0.2093
0 11 7 -2.7127 0.0335
0 11 8 0.2448 -0.0115
0 11 9 -2.0277 0.0034
0 11 10 -0.2160 0.0380
0 11 11 -0.1574 -0.2778
0 11 12 -1.1834 0.4847
0 12 0 3.7469 -0.0708
0 12 1 0.3782 -0.1282
0 12 2 3.3510 -0.0119
0 12 3 0.4755 0.0165
0 12 4 -0.8749 0.1111
0 12 5 -0.0748 -0.1034
0 12 6 -0.6677 -0.0038
0 12 7 -0.3025 -0.2989
0 12 8 -0.0093 -0.3172
0 12 9 1.4366 -0.0300
0 12 10 0.6068 0.2178
0 12 11 1.8041 -0.5869
0 13 1 0.4792 0.1495
0 13 2 -1.0423 0.0145
0 13 3 2.1118 0.1081
0 13 4 -0.8953 0.0165
0 13 5 1.7139 -0.0605
0 13 6 0.4716 -0.0534
0 13 7 1.0698 0.4170
0 13 8 1.2048 -0.3046
0 13 9 -0.7686 -0.2347
0 13 10 0.5217 0.3059
0 14 0 -0.0384 -0.0667
0 14 1 -0.4723 0.1287
0 14 2 -0.9557 0.0227
0 14 3 -1.0803 -0.0693
0 14 4 0.8386 0.0706
0 14 5 0.3053 0.1052
0 14 6 -0.0730 0.1697
0 14 7 -0.8747 -0.1369
0 14 8 -0.7625 0.2603
0 14 9 -0.8403 0.1848
0 14 10 -1.8354 -1.4010
0 15 1 -0.6073 -0.0402
0 15 2 2.3316 0.0747
0 15 3 -1.8856 -0.1790
0 15 4 0.0555 -0.0924
0 15 5 -1.0329 -0.1766
0 15 6 -1.9870 -0.2409
0 15 7 -0.4994 -0.0960
0 15 8 -3.2235 0.3462
0 15 9 0.6525 1.3634
0 16 0 -0.5559 0.2500
0 16 1 -0.0070 -0.1183
0 16 2 -0.2362 0.1743
0 16 3 0.3296 -0.0295
0 16 4 -0.8366 0.1462
0 16 5 -0.1164 -0.0699
0 16 6 0.1028 0.4095
0 17 1 0.5872 0.0682
0 17 2 -1.6423 -0.0501
0 17 3 -0.0072 0.1079
0 17 4 -0.1347 0.8159
0 17 5 0.3962 -0.0655
1 0 1 -105.5960 -3.5965
1 0 3 -64.4103 -0.7760
1 0 5 -7.4864 -0.4314
1 0 7 2.4811 -0.4826
1 0 9 -0.3695 -0.4534
1 0 11 -2.4242 -0.3096
1 0 13 -1.3822 -0.1119
1 0 15 -0.7994 -0.5643
1 1 1 -27.8408 -0.3450
1 1 2 -8.7840 -0.3920
1 1 3 7.0049 -0.0161
1 1 4 1.1317 -0.0839
1 1 5 17.2477 0.1012
1 1 6 3.0384 -0.5883
1 1 7 4.3007 0.1157
1 1 8 1.9613 -0.2475
1 1 9 0.8645 -0.0835
1 1 10 1.5259 -0.3874
1 1 11 -0.1895 -0.3372
1 1 12 0.2363 -0.2533
1 1 13 0.4720 -0.1975
1 1 14 -0.8482 0.5034
1 1 15 -0.0221 0.3517
1 1 16 -1.2027 -1.3765
1 2 1 73.1867 1.0087
1 2 2 -1.7342 0.3934
1 2 3 46.5637 0.1436
1 2 4 2.7661 0.2771
1 2 5 10.0548 0.2446
1 2 6 2.8862 -0.1287
1 2 7 0.8261 0.0316
1 2 8 1.5682 0.1466
1 2 9 2.9716 0.3133
1 2 10 0.6693 -0.1950
1 2 11 4.3185 0.1615
1 2 12 0.6190 -0.2467
1 2 13 2.3366 0.1217
1 2 14 -0.5895 -0.1315
1 2 15 0.9028 -0.3628
1 2 16 -0.0660 1.4443
1 3 1 20.1509 0.2275
1 3 2 4.5753 0.1740
1 3 3 -4.6082 0.1355
1 3 4 -6.5469 -0.1948
1 3 5 -8.8538 -0.0012
1 3 6 -4.8954 0.1864
1 3 7 -0.9579 -0.0265
1 3 8 -1.7664 -0.0330
1 3 9 1.6228 0.0806
1 3 10 -0.1850 0.2073
1 3 11 4.3509 -0.2217
1 3 12 1.0570 -0.2173
1 3 13 -0.4510 -0.2316
1 3 14 1.3305 -0.1815
1 3 15 -1.8271 0.0217
1 3 16 0.7374 0.1902
1 4 1 -31.2617 0.1319
1 4 2 4.3350 0.0544
1 4 3 -24.2106 0.0434
1 4 4 4.1093 0.1602
1 4 5 -9.4487 0.1661
1 4 6 0.5498 -0.0420
1 4 7 -3.3275 0.2111
1 4 8 -0.7976 0.0668
1 4 9 -5.1583 -0.0144
1 4 10 -0.7995 -0.0742
1 4 11 -3.9542 0.1567
1 4 12 -2.6254 0.0469
1 4 13 -2.4406 -0.1033
1 4 14 -1.0465 0.0658
1 4 15 -0.3654 0.3523
1 4 16 -0.4464 0.1351
1 5 1 -8.4194 0.0451
1 5 2 3.4813 -0.0116
1 5 3 8.2204 0.0701
1 5 4 2.0452 0.0572
1 5 5 8.2532 0.0536
1 5 6 -1.2790 0.1696
1 5 7 0.5440 0.0125
1 5 8 -2.5822 0.0532
1 5 9 -0.9197 0.1990
1 5 10 -2.5066 -0.0629
1 5 11 -1.3451 0.0617
1 5 12 -0.8757 0.1511
1 5 13 1.0946 0.4732
1 5 14 -1.3199 -0.3012
1 5 15 0.3468 -0.2900
1 5 16 0.1117 0.6738
1 6 1 14.3622 -0.0111
1 6 2 -2.8568 -0.1817
1 6 3 14.1535 0.0427
1 6 4 -2.9726 -0.0689
1 6 5 6.4252 0.0112
1 6 6 -1.7506 -0.0566
1 6 7 2.7562 0.0827
1 6 8 0.2491 0.0759
1 6 9 3.4288 -0.0617
1 6 10 0.8615 0.1160
1 6 11 2.5624 0.0620
1 6 12 0.7515 0.0079
1 6 13 1.2426 -0.1302
1 6 14 -0.2943 0.7907
1 6 15 -1.1611 -1.0341
1 7 1 3.8262 -0.1690
1 7 2 0.5019 -0.0113
1 7 3 -4.2745 -0.2759
1 7 4 2.2570 0.0118
1 7 5 -5.6781 -0.0982
1 7 6 4.1721 0.0122
1 7 7 -1.1291 0.0294
1 7 8 3.6245 -0.1327
1 7 9 0.9485 0.0091
1 7 10 2.2564 0.0659
1 7 11 0.9401 0.1221
1 7 12 -0.0801 -0.1436
1 7 13 -0.1066 0.1019
1 7 14 1.3354 0.5426
1 7 15 -0.3380 1.7496
1 8 1 -6.4815 0.0055
1 8 2 1.6305 0.0147
1 8 3 -6.0592 -0.1546
1 8 4 3.0390 0.1028
1 8 5 -1.5550 -0.1223
1 8 6 2.1023 0.0615
1 8 7 -0.0896 -0.1884
1 8 8 0.2383 0.1139
1 8 9 -1.7213 -0.0332
1 8 10 -0.4372 -0.0121
1 8 11 -1.9381 0.0234
1 8 12 0.7273 0.0661
1 8 13 -1.1796 -0.3689
1 8 14 1.1267 0.2015
1 9 1 -3.0523 -0.0773
1 9 2 1.5579 0.1666
1 9 3 0.2888 -0.0080
1 9 4 -1.6378 -0.1205
1 9 5 2.2710 0.0597
1 9 6 -5.5951 -0.1917
1 9 7 -0.1383 -0.1665
1 9 8 -3.5971 0.0749
1 9 9 -0.7054 0.0699
1 9 10 -2.0969 -0.1025
1 9 11 -0.5675 -0.4356
1 9 12 -0.7017 0.1233
1 9 13 -0.6711 0.3570
1 9 14 -1.2840 -1.2934
1 10 1 5.8280 0.0013
1 10 2 -2.0712 0.1510
1 10 3 5.2054 -0.0103
1 10 4 -2.3211 -0.0419
1 10 5 0.7250 -0.1565
1 10 6 -1.5087 0.2011
1 10 7 0.7927 0.0623
1 10 8 -1.6996 -0.2905
1 10 9 1.5310 -0.0338
1 10 10 0.5015 0.5044
1 10 11 0.7668 -0.1060
1 10 12 0.8181 -0.0698
1 10 13 0.8505 0.6255
1 11 1 0.9458 -0.0104
1 11 2 0.1308 -0.1025
1 11 3 -0.6797 -0.0079
1 11 4 2.0274 0.1783
1 11 5 -2.6257 0.0209
1 11 6 2.6182 -0.1756
1 11 7 -1.5458 0.2253
1 11 8 2.1824 -0.0007
1 11 9 -0.9246 -0.2276
1 11 10 2.0945 0.0221
1 11 11 0.8843 0.1304
1 11 12 0.4889 -0.3312
1 12 1 -3.7721 0.1237
1 12 2 -1.1326 0.0272
1 12 3 -3.0197 -0.0758
1 12 4 0.3189 0.0800
1 12 5 0.4975 -0.0376
1 12 6 1.8675 -0.1497
1 12 7 -0.5631 0.2695
1 12 8 0.7162 0.1082
1 12 9 -0.9945 0.2626
1 12 10 -1.0020 -0.2151
1 12 11 -1.6783 -0.2023
1 13 1 -1.2548 0.0176
1 13 2 -1.1619 0.1784
1 13 3 -0.3924 0.0785
1 13 4 -1.0616 -0.0700
1 13 5 1.6031 0.0545
1 13 6 0.1635 0.0486
1 13 7 0.6461 0.4034
1 13 8 -0.1822 -0.0012
1 13 9 -0.0294 0.2300
1 13 10 0.9107 -0.2821
1 14 1 0.6568 -0.0821
1 14 2 0.4005 0.1275
1 14 3 1.9050 -0.0739
1 14 4 -0.0734 -0.1044
1 14 5 0.6693 0.1594
1 14 6 -1.1770 0.0291
1 14 7 0.7202 -0.0375
1 14 8 0.0193 0.0986
1 14 9 1.2951 0.5863
1 15 1 -0.5783 0.0901
1 15 2 1.0685 -0.1551
1 15 3 -1.0678 -0.1984
1 15 4 1.3079 0.0437
1 15 5 -0.2209 0.3339
1 15 6 0.0843 0.0012
1 15 7 1.3772 -0.0901
1 15 8 0.2109 -0.5671
1 16 1 -0.3935 -0.0593
1 16 2 0.6555 -0.1173
1 16 3 -1.1541 0.0281
1 16 4 0.9014 0.0673
1 16 5 -0.9284 -0.1726
1 16 6 1.0505 -0.7447
1 17 1 -0.0247 -0.1818
1 17 2 0.1753 -0.0436
1 17 3 0.5280 -0.2092
1 17 4 -0.7404 0.0950
2 0 2 55.6082 0.9494
2 0 4 25.8567 -0.4608
2 0 6 6.4559 0.0936
2 0 8 0.1613 -0.3097
2 0 10 1.8504 -0.2535
2 0 12 1.3810 -0.3119
2 0 14 -0.1096 -0.2650
2 0 16 -0.7248 0.6633
2 1 2 34.1301 0.5650
2 1 3 -1.2519 0.0964
2 1 4 0.3579 -0.1270
2 1 5 -4.8984 0.3439
2 1 6 -8.4163 0.2891
2 1 7 -2.7151 -0.1041
2 1 8 -4.0521 0.0687
2 1 9 -2.0403 -0.3496
2 1 10 -1.5951 0.4680
2 1 11 -0.2435 -0.2631
2 1 12 0.6144 0.2101
2 1 13 0.0990 -0.2811
2 1 14 1.3365 -0.1791
2 1 15 0.7562 0.4127
2 1 16 0.0956 -0.6502
2 2 2 -37.7607 -0.0819
2 2 3 -4.1425 -0.1313
2 2 4 -25.2232 0.2641
2 2 5 -4.1595 0.5127
2 2 6 -9.3707 -0.0656
2 2 7 -1.1344 0.1035
2 2 8 -2.2134 0.1676
2 2 9 -0.4595 0.1522
2 2 10 -2.5057 -0.0878
2 2 11 0.3497 0.1921
2 2 12 -1.6209 0.2370
2 2 13 2.0839 0.1519
2 2 14 -0.7005 -0.1021
2 2 15 2.2369 -0.2161
2 2 16 0.4899 0.5198
2 3 2 -26.0761 -0.0194
2 3 3 9.2324 0.1716
2 3 4 -5.2078 0.2311
2 3 5 9.6129 -0.1479
2 3 6 3.2434 0.0877
2 3 7 3.2975 -0.0469
2 3 8 1.7688 -0.0734
2 3 9 0.9087 0.0548
2 3 10 -3.3422 0.1059
2 3 11 -1.9387 0.1757
2 3 12 -2.8457 0.0197
2 3 13 -1.3482 0.1866
2 3 14 0.0716 -0.0922
2 3 15 -0.8244 -0.2070
2 3 16 -0.0901 -0.4897
2 4 2 17.9416 -0.1126
2 4 3 -1.6454 -0.0253
2 4 4 19.6969 -0.0147
2 4 5 -0.8476 0.2045
2 4 6 9.4216 -0.0336
2 4 7 0.1095 0.0558
2 4 8 4.2439 0.0465
2 4 9 -0.5680 0.0763
2 4 10 1.7103 0.0900
2 4 11 0.3453 0.1216
2 4 12 0.5331 -0.1877
2 4 13 0.8323 -0.3105
2 4 14 0.6213 0.1395
2 4 15 -0.7746 -0.3418
2 4 16 -1.4626 -1.2050
2 5 2 12.3093 0.0123
2 5 3 -5.3047 -0.0871
2 5 4 1.4228 -0.0556
2 5 5 -2.9496 -0.0877
2 5 6 -1.0852 -0.1338
2 5 7 0.6420 0.1403
2 5 8 -0.4141 -0.1461
2 5 9 2.2984 0.0897
2 5 10 1.3232 -0.1360
2 5 11 1.6582 0.0718
2 5 12 0.3343 -0.1576
2 5 13 0.2882 0.1452
2 5 14 0.2840 -0.0553
2 5 15 -0.1258 0.5992
2 6 2 -11.0834 -0.0458
2 6 3 0.9629 0.0133
2 6 4 -13.4899 -0.1650
2 6 5 2.1762 -0.1787
2 6 6 -6.5455 0.0051
2 6 7 1.9794 -0.0662
2 6 8 -1.4540 0.0816
2 6 9 0.7554 -0.1765
2 6 10 -0.7906 -0.0673
2 6 11 0.5494 0.3197
2 6 12 0.1660 -0.0967
2 6 13 0.0085 -0.2492
2 6 14 0.7960 0.4359
2 6 15 0.9564 -0.6082
2 7 2 -7.8645 -0.0194
2 7 3 -0.2700 -0.0130
2 7 4 -1.1619 -0.2751
2 7 5 -0.2942 0.1561
2 7 6 1.4169 -0.0868
2 7 7 -1.4057 -0.0304
2 7 8 0.0620 -0.1439
2 7 9 -1.9984 0.1277
2 7 10 -1.4558 0.0470
2 7 11 -0.2565 -0.0502
2 7 12 -0.0582 0.0788
2 7 13 0.7463 0.2063
2 7 14 0.2673 -0.9971
2 7 15 -1.0452 -0.7268
2 8 2 3.7397 -0.0090
2 8 3 -1.6233 0.0650
2 8 4 4.8992 0.0471
2 8 5 -3.4227 -0.1758
2 8 6 1.3989 -0.0919
2 8 7 -3.6337 -0.0017
2 8 8 -1.1642 -0.0564
2 8 9 -1.3627 0.0134
2 8 10 0.7260 -0.0634
2 8 11 -1.2208 -0.1469
2 8 12 -0.0150 0.3081
2 8 13 -1.2197 -0.1932
2 8 14 0.0120 0.6852
2 9 2 4.9489 0.0330
2 9 3 -0.9525 0.0688
2 9 4 1.3213 0.0593
2 9 5 2.0328 0.1232
2 9 6 -0.9251 -0.0142
2 9 7 1.9323 0.1442
2 9 8 0.0571 0.1675
2 9 9 1.2379 -0.1452
2 9 10 0.2670 0.0733
2 9 11 1.0526 -0.0852
2 9 12 0.0361 0.0584
2 9 13 0.3183 -0.6989
2 10 2 -3.7619 0.1301
2 10 3 1.4857 -0.0619
2 10 4 -2.1133 0.1058
2 10 5 2.7241 0.0922
2 10 6 -0.2418 0.0298
2 10 7 4.0749 0.0719
2 10 8 -0.4786 -0.0141
2 10 9 2.0854 -0.1768
2 10 10 -0.3626 0.2620
2 10 11 0.5804 -0.1896
2 10 12 -0.2784 -0.2586
2 10 13 -0.0785 -0.1977
2 11 2 -1.9918 0.0773
2 11 3 0.1291 -0.1154
2 11 4 0.3454 0.0966
2 11 5 -0.0725 -0.0420
2 11 6 2.2169 0.0170
2 11 7 0.2059 -0.1484
2 11 8 1.3084 0.0372
2 11 9 -0.9094 0.0427
2 11 10 0.2524 -0.0723
2 11 11 -1.1606 0.0768
2 11 12 -0.4365 0.6009
2 12 2 2.2229 -0.0244
2 12 3 0.3829 0.0204
2 12 4 0.6152 0.1200
2 12 5 -0.9724 0.0451
2 12 6 0.5104 0.1323
2 12 7 -2.3573 0.1458
2 12 8 1.5335 -0.2270
2 12 9 -0.9176 0.2316
2 12 10 1.6565 0.2707
2 12 11 -0.3260 -0.8817
2 13 2 2.5451 0.0471
2 13 3 0.1883 -0.0290
2 13 4 0.4833 0.0843
2 13 5 -2.0849 -0.1653
2 13 6 -1.4764 -0.0393
2 13 7 -1.8473 0.1294
2 13 8 -0.7928 -0.0447
2 13 9 -1.1595 -0.1835
2 13 10 0.0252 0.6282
2 14 2 -1.2761 0.1719
2 14 3 -0.2938 -0.2194
2 14 4 -2.0032 -0.0245
2 14 5 0.0243 0.2398
2 14 6 -1.6067 -0.2920
2 14 7 1.3207 -0.2001
2 14 8 -0.8007 -0.1582
2 14 9 0.2086 -0.4151
2 15 2 0.2289 0.1809
2 15 3 -0.3450 0.0109
2 15 4 -0.6230 0.1031
2 15 5 1.0968 0.2079
2 15 6 -0.2018 -0.4342
2 15 7 1.0851 0.0267
2 15 8 -0.5989 -0.0686
2 16 2 1.7167 -0.1359
2 16 3 -1.1440 0.2076
2 16 4 1.8444 -0.3038
2 16 5 -1.2598 0.0994
2 16 6 1.3429 -0.0285
2 17 2 -0.0877 -0.1501
2 17 3 -0.4411 -0.0085
2 17 4 0.1513 -0.0102
3 0 3 -8.2903 0.9729
3 0 5 -7.2685 0.3407
3 0 7 -4.8445 0.4636
3 0 9 -2.7694 0.3199
3 0 11 -2.6964 0.1932
3 0 13 -0.3429 0.0292
3 0 15 0.6824 0.2421
3 1 3 -18.2036 0.5720
3 1 4 4.4043 0.4093
3 1 5 -2.1808 0.0347
3 1 6 3.5806 0.4382
3 1 7 1.0665 0.2974
3 1 8 2.5535 0.3005
3 1 9 3.0657 0.1773
3 1 10 0.6320 0.5155
3 1 11 0.3001 0.2257
3 1 12 0.3874 -0.1935
3 1 13 -1.3718 0.3043
3 1 14 0.6312 0.2074
3 1 15 -0.9635 0.6735
3 2 3 8.2825 -0.2489
3 2 4 8.3257 -0.3686
3 2 5 10.7539 -0.0919
3 2 6 2.1611 -0.0939
3 2 7 6.4919 -0.1727
3 2 8 1.0828 0.3204
3 2 9 3.1990 -0.1640
3 2 10 -0.6288 0.0369
3 2 11 1.0347 -0.1634
3 2 12 -2.4440 0.4913
3 2 13 0.7846 -0.1401
3 2 14 -2.9982 0.0989
3 2 15 -0.1116 0.2040
3 3 3 19.4560 -0.3123
3 3 4 -10.5129 -0.1137
3 3 5 5.9468 0.0151
3 3 6 -5.4179 0.0906
3 3 7 -0.4330 0.1986
3 3 8 -1.9920 -0.0887
3 3 9 -0.5212 -0.0374
3 3 10 1.0528 -0.0467
3 3 11 1.5582 -0.0647
3 3 12 1.7115 0.0492
3 3 13 -0.0406 0.3141
3 3 14 -0.6977 -0.1104
3 3 15 0.8858 0.7773
3 4 3 -6.6890 -0.0215
3 4 4 -2.2858 -0.1084
3 4 5 -10.6414 -0.1076
3 4 6 -1.3377 0.0482
3 4 7 -7.1674 -0.1956
3 4 8 0.1448 0.0327
3 4 9 -2.6742 -0.0188
3 4 10 1.4640 -0.0688
3 4 11 1.7760 0.2450
3 4 12 0.3797 0.0203
3 4 13 -0.3771 -0.0128
3 4 14 0.7516 0.4178
3 4 15 1.0406 -0.0538
3 5 3 -11.6345 -0.0192
3 5 4 4.5479 -0.1040
3 5 5 -5.9408 -0.0825
3 5 6 2.2539 -0.2661
3 5 7 -1.1278 -0.0250
3 5 8 -0.6281 0.0213
3 5 9 0.9486 -0.0476
3 5 10 -0.7989 -0.1297
3 5 11 1.1778 -0.2212
3 5 12 -0.1944 0.1106
3 5 13 1.0695 0.0431
3 5 14 2.0198 -0.6433
3 5 15 -0.3741 -0.4212
3 6 3 5.0619 -0.0885
3 6 4 0.2966 0.1438
3 6 5 7.5182 -0.1490
3 6 6 -0.7340 0.0263
3 6 7 2.7624 -0.0120
3 6 8 -1.3567 0.0174
3 6 9 0.4756 -0.0504
3 6 10 -1.3078 -0.2100
3 6 11 -1.0531 0.0669
3 6 12 -0.2795 -0.1782
3 6 13 -0.3558 0.1937
3 6 14 0.1156 0.8523
3 6 15 -1.4224 -0.8939
3 7 3 7.2673 0.1763
3 7 4 -0.7686 -0.0426
3 7 5 3.9063 0.1474
3 7 6 -1.5159 0.0014
3 7 7 -0.0314 -0.0908
3 7 8 0.0113 -0.0406
3 7 9 0.7070 -0.0547
3 7 10 0.6431 0.2108
3 7 11 0.0446 -0.1229
3 7 12 -1.3614 -0.4332
3 7 13 -1.3070 0.4700
3 7 14 -1.1808 0.0668
3 8 3 -0.0398 0.0539
3 8 4 0.7020 -0.0150
3 8 5 -2.4475 0.2625
3 8 6 2.7438 -0.1316
3 8 7 0.5698 0.0958
3 8 8 2.3183 0.0208
3 8 9 0.3027 -0.1027
3 8 10 1.3156 -0.0888
3 8 11 -0.3152 0.2097
3 8 12 0.8078 0.1764
3 8 13 -0.6484 -0.9570
3 8 14 0.7930 0.0578
3 9 3 -3.0453 0.0244
3 9 4 -0.3761 0.0600
3 9 5 -1.2265 0.1601
3 9 6 -0.4640 -0.0255
3 9 7 0.2968 0.0774
3 9 8 0.7870 0.0606
3 9 9 -0.0782 0.1927
3 9 10 -1.1363 -0.3446
3 9 11 0.0559 0.0767
3 9 12 0.6195 0.7996
3 9 13 0.6829 0.1060
3 10 3 0.5067 0.0598
3 10 4 -0.8471 -0.0922
3 10 5 0.1653 0.0623
3 10 6 -2.6333 0.0816
3 10 7 0.1274 0.1544
3 10 8 -2.3856 -0.2557
3 10 9 -0.0651 0.1323
3 10 10 -1.1068 0.1080
3 10 11 0.5624 -0.3996
3 10 12 -0.3304 -0.4952
3 10 13 1.2528 1.4704
3 11 3 0.3622 0.0239
3 11 4 -1.1193 0.0663
3 11 5 -1.4509 -0.0600
3 11 6 -1.3806 0.0170
3 11 7 -0.3197 0.0903
3 11 8 -1.5093 -0.0338
3 11 9 -0.3508 -0.0191
3 11 10 0.2315 0.0671
3 11 11 0.6079 -0.1835
3 11 12 0.2483 -0.3819
3 12 3 0.2754 0.0210
3 12 4 -1.0096 0.0569
3 12 5 0.4013 -0.0558
3 12 6 -0.1322 -0.1557
3 12 7 -1.2836 -0.0672
3 12 8 1.0070 0.0849
3 12 9 -1.1461 -0.0241
3 12 10 0.5808 0.7352
3 12 11 -1.1240 -0.2228
3 13 3 -1.4442 -0.1680
3 13 4 1.4550 -0.0762
3 13 5 0.1451 -0.1315
3 13 6 2.7981 0.0546
3 13 7 0.2042 -0.1004
3 13 8 2.2609 0.0663
3 13 9 0.2615 -0.9868
3 13 10 1.0053 -0.1452
3 14 3 1.0786 -0.0185
3 14 4 1.8120 -0.1764
3 14 5 1.2464 -0.0984
3 14 6 0.8246 -0.2629
3 14 7 0.9446 -0.1318
3 14 8 -0.0465 0.3533
3 14 9 0.4753 0.1708
3 15 3 0.4075 -0.2980
3 15 4 -0.7520 0.0941
3 15 5 1.0836 0.0012
3 15 6 -1.7653 0.1392
3 15 7 0.0009 0.2519
3 15 8 -1.2536 -0.1802
3 16 3 -1.6284 -0.1799
3 16 4 0.5704 0.1195
3 16 5 -0.9500 0.2350
3 16 6 -0.0348 -0.1389
3 17 3 0.7361 0.4012
4 0 4 -7.1212 -0.0843
4 0 6 1.6822 0.2861
4 0 8 2.4707 0.3939
4 0 10 3.5335 0.3354
4 0 12 0.6959 0.5263
4 0 14 0.4628 -0.2068
4 1 4 4.3970 -0.1224
4 1 5 -2.9783 -0.0652
4 1 6 4.3239 0.0326
4 1 7 -2.6959 0.1521
4 1 8 0.8067 -0.2916
4 1 9 -1.0616 0.4216
4 1 10 0.1858 -0.0533
4 1 11 -0.2201 0.2090
4 1 12 1.0258 -0.2488
4 1 13 -0.7575 0.5531
4 1 14 1.7835 -0.2817
4 1 15 -0.6303 -0.2296
4 2 4 2.2166 -0.0147
4 2 5 -4.3857 -0.1161
4 2 6 -4.1002 0.0289
4 2 7 -2.1138 -0.4861
4 2 8 -3.9839 -0.0280
4 2 9 -0.8811 0.0260
4 2 10 -2.1406 -0.3432
4 2 11 1.8399 -0.2259
4 2 12 -0.5637 0.0528
4 2 13 2.3644 -0.2983
4 2 14 -1.2494 -0.3643
4 2 15 0.2869 -0.5896
4 3 4 -9.1278 -0.0353
4 3 5 5.1703 -0.0202
4 3 6 -4.1352 -0.4665
4 3 7 2.3019 0.0012
4 3 8 -1.0963 0.0286
4 3 9 0.1047 -0.1091
4 3 10 -0.0640 -0.0548
4 3 11 -1.9444 -0.1620
4 3 12 1.0404 0.1097
4 3 13 -0.3332 -0.0415
4 3 14 -0.5157 -0.9414
4 3 15 1.2472 0.3536
4 4 4 0.8253 0.0862
4 4 5 3.5976 -0.1292
4 4 6 5.5000 0.0897
4 4 7 1.7565 -0.0813
4 4 8 4.7551 0.0105
4 4 9 -0.2348 -0.0087
4 4 10 -0.1491 -0.1018
4 4 11 -1.2157 -0.0467
4 4 12 0.0694 -0.3137
4 4 13 -0.3251 -0.1076
4 4 14 0.8951 0.8097
4 4 15 -0.0352 0.0238
4 5 4 7.8643 -0.0255
4 5 5 -2.6404 0.0870
4 5 6 5.2130 0.1219
4 5 7 -0.5207 -0.1663
4 5 8 0.5354 0.0557
4 5 9 -0.3978 -0.2625
4 5 10 -1.7406 0.3150
4 5 11 -0.0567 -0.0468
4 5 12 -2.6984 -0.1345
4 5 13 -1.1583 0.1446
4 5 14 -0.6216 0.0292
4 6 4 -0.7343 0.1181
4 6 5 -1.7682 0.1027
4 6 6 -2.0902 -0.1092
4 6 7 -0.1555 0.1368
4 6 8 -1.3275 0.0368
4 6 9 0.1450 -0.0726
4 6 10 -0.0436 -0.0246
4 6 11 0.5418 0.2919
4 6 12 -0.2180 0.2032
4 6 13 -1.3303 -0.9423
4 6 14 -0.4676 -0.1680
4 7 4 -4.5894 0.0146
4 7 5 1.0258 0.1138
4 7 6 -2.6773 0.2423
4 7 7 1.0921 -0.1030
4 7 8 -0.2353 -0.0220
4 7 9 -0.1450 0.0471
4 7 10 -1.5385 0.1145
4 7 11 0.3092 -0.3017
4 7 12 1.3295 0.0456
4 7 13 1.3481 0.3807
4 7 14 0.2904 -1.1319
4 8 4 -0.5726 -0.0572
4 8 5 -0.3169 0.1324
4 8 6 0.5907 0.1185
4 8 7 -1.3557 -0.0165
4 8 8 -0.0121 0.1335
4 8 9 -0.9490 0.1519
4 8 10 0.6736 0.0785
4 8 11 -0.6032 -0.1585
4 8 12 1.1614 -0.4985
4 8 13 0.4332 0.3741
4 9 4 0.6815 0.0335
4 9 5 1.6522 -0.2079
4 9 6 0.6925 -0.1904
4 9 7 -0.1677 0.0474
4 9 8 -0.2932 0.0653
4 9 9 0.5173 -0.0071
4 9 10 0.9280 0.0313
4 9 11 0.3231 0.3285
4 9 12 -0.0356 -0.4607
4 9 13 -0.9052 -1.1026
4 10 4 0.3665 -0.0739
4 10 5 0.8254 -0.1218
4 10 6 0.1419 -0.0914
4 10 7 0.7405 0.0022
4 10 8 0.3146 -0.1563
4 10 9 0.4341 0.0204
4 10 10 -0.1978 -0.1241
4 10 11 -0.1544 0.6388
4 10 12 -1.3919 -0.1269
4 11 4 2.3108 -0.0506
4 11 5 -0.1625 0.0628
4 11 6 0.2067 -0.1212
4 11 7 0.4469 0.0572
4 11 8 -0.3186 0.0033
4 11 9 0.3859 0.4094
4 11 10 -0.4885 -0.3890
4 11 11 0.0418 0.2096
4 12 4 -1.0165 -0.1581
4 12 5 1.9418 0.0728
4 12 6 -0.3280 0.0070
4 12 7 0.5630 0.0620
4 12 8 0.6742 -0.2023
4 12 9 0.4137 0.0050
4 12 10 0.2053 0.0755
4 13 4 -0.4941 -0.1027
4 13 5 -0.4247 -0.1457
4 13 6 0.3028 -0.2367
4 13 7 -0.9965 0.1303
4 13 8 -0.1375 -0.0538
4 13 9 -1.0011 -0.3451
4 14 4 -0.5512 -0.0161
4 14 5 -2.1482 0.3431
4 14 6 -0.3206 0.1355
4 14 7 -0.8461 0.1854
4 14 8 -0.1205 0.5417
4 15 4 -0.6030 0.1199
4 15 5 0.2133 0.1174
4 15 6 -0.1970 0.4727
4 15 7 0.4381 -0.5665
4 16 4 0.5864 0.3949
4 16 5 0.3428 -0.2697
5 0 5 3.9566 -0.3831
5 0 7 0.1123 -0.3401
5 0 9 -1.9977 -0.1987
5 0 11 -0.8300 0.0448
5 0 13 0.3223 0.2051
5 1 5 -1.8984 -0.3134
5 1 6 2.3325 -0.3698
5 1 7 -3.1880 -0.1771
5 1 8 0.9488 -0.4466
5 1 9 -1.9784 -0.3236
5 1 10 0.1903 0.0007
5 1 11 -1.8737 -0.3241
5 1 12 0.1895 -0.2818
5 1 13 -1.2516 0.1222
5 1 14 -0.2963 0.7505
5 2 5 -1.3236 -0.1744
5 2 6 2.0333 0.2007
5 2 7 1.6181 -0.0181
5 2 8 1.6852 -0.1755
5 2 9 2.1635 0.2609
5 2 10 -0.8454 -0.3657
5 2 11 0.4355 0.2308
5 2 12 -1.9856 -0.1938
5 2 13 0.8335 -0.0592
5 2 14 -0.9887 0.0195
5 2 15 1.1080 0.4016
5 3 5 3.2673 0.1533
5 3 6 -1.5604 0.1211
5 3 7 2.9847 -0.1102
5 3 8 0.3269 0.0677
5 3 9 1.0935 -0.0095
5 3 10 1.3734 -0.0200
5 3 11 -0.2020 0.1301
5 3 12 1.8754 -0.0537
5 3 13 -0.5955 0.1586
5 3 14 0.3788 -0.5947
5 3 15 1.8733 1.2760
5 4 5 -0.7875 0.0725
5 4 6 -2.3209 -0.0217
5 4 7 -2.7590 -0.0775
5 4 8 -0.2047 -0.1108
5 4 9 -1.4208 0.0565
5 4 10 0.6445 0.0759
5 4 11 0.1380 0.0507
5 4 12 1.2151 0.1231
5 4 13 -1.8477 -0.5643
5 4 14 0.3477 0.1459
5 5 5 -4.6572 0.0346
5 5 6 0.0163 0.1878
5 5 7 -2.5595 0.0273
5 5 8 -0.1007 0.2204
5 5 9 0.6022 0.1108
5 5 10 0.7239 0.1935
5 5 11 1.5038 -0.2120
5 5 12 -0.1276 -0.0226
5 5 13 1.8090 0.9474
5 5 14 0.9176 -0.3201
5 6 5 -1.4122 0.0677
5 6 6 0.9622 -0.0593
5 6 7 0.0277 0.1621
5 6 8 0.2570 0.1248
5 6 9 0.2763 -0.0607
5 6 10 0.6653 -0.0189
5 6 11 -0.0893 0.0190
5 6 12 0.5279 0.2182
5 6 13 1.4680 0.1409
5 6 14 1.9569 1.2082
5 7 5 2.5785 -0.0336
5 7 6 -0.3705 0.0016
5 7 7 0.3277 0.1451
5 7 8 -0.3474 -0.0120
5 7 9 1.5484 -0.1499
5 7 10 -0.2004 0.1376
5 7 11 0.7901 -0.0250
5 7 12 -0.4371 0.1396
5 7 13 -0.7261 -0.3160
5 8 5 0.5006 -0.0792
5 8 6 1.2376 0.0154
5 8 7 -0.2295 -0.0474
5 8 8 0.8135 0.0443
5 8 9 -0.1371 0.0336
5 8 10 0.4134 -0.2313
5 8 11 -0.2433 0.4559
5 8 12 -0.2539 0.3104
5 8 13 -1.2686 0.5294
5 9 5 -0.2825 -0.0293
5 9 6 -1.6204 -0.0272
5 9 7 0.4865 -0.1033
5 9 8 0.0804 0.1828
5 9 9 -0.1492 -0.2915
5 9 10 -0.5390 -0.3073
5 9 11 -1.0850 0.0236
5 9 12 0.5986 0.2847
5 10 5 -0.5032 -0.1616
5 10 6 -0.9867 0.1540
5 10 7 -1.0064 -0.2288
5 10 8 -0.1072 -0.0759
5 10 9 -0.0467 0.0160
5 10 10 0.2521 0.5004
5 10 11 0.1559 -0.1364
5 10 12 1.2683 -0.5730
5 11 5 -2.1731 0.0574
5 11 6 1.7069 0.0696
5 11 7 0.2883 0.0055
5 11 8 0.2203 -0.1103
5 11 9 -0.9322 -0.0501
5 11 10 0.3625 -0.0361
5 11 11 1.2306 0.4843
5 12 5 1.0381 0.0529
5 12 6 -0.0791 -0.1029
5 12 7 0.2152 -0.0948
5 12 8 0.0406 -0.1385
5 12 9 -0.3768 0.2642
5 13 5 0.7806 0.2447
5 13 6 -0.7234 0.1858
5 13 7 -0.0770 0.5422
5 13 8 -0.1994 -0.4140
5 13 9 0.9671 0.1405
5 14 5 -0.0358 0.0982
5 14 6 0.1006 -0.2909
5 14 7 0.1610 0.2792
5 14 8 0.9409 0.1926
5 15 5 0.4200 -0.3256
6 0 6 -0.4059 -0.0381
6 0 8 0.0091 -0.3271
6 0 10 0.6584 -0.5127
6 0 12 -0.7109 -0.3942
6 0 14 -0.0320 -0.7457
6 1 6 1.8161 -0.0292
6 1 7 -0.8311 -0.4283
6 1 8 2.0988 -0.0553
6 1 9 -0.2653 -0.2624
6 1 10 2.5924 0.0888
6 1 11 -0.3622 -0.5192
6 1 12 1.2674 -0.2778
6 1 13 0.4512 -0.3256
6 1 14 0.5973 -0.6315
6 2 6 -0.6660 0.0120
6 2 7 -0.4513 0.0840
6 2 8 -0.9741 0.0086
6 2 9 1.3406 0.1192
6 2 10 -0.4771 -0.0217
6 2 11 1.3329 -0.0603
6 2 12 0.2842 0.2243
6 2 13 2.0979 0.4532
6 2 14 -0.3112 -0.0027
6 3 6 -1.5720 0.3782
6 3 7 -0.6302 0.0580
6 3 8 -1.0988 0.3018
6 3 9 -0.8789 0.0011
6 3 10 -0.5393 -0.0469
6 3 11 -1.0851 0.1898
6 3 12 -0.0352 0.0551
6 3 13 -0.9395 0.1407
6 3 14 -0.1726 -0.5415
6 4 6 0.9711 0.0670
6 4 7 -1.7563 0.0681
6 4 8 1.0873 0.0376
6 4 9 -2.5228 -0.0215
6 4 10 -0.0659 -0.1102
6 4 11 -1.2606 0.1777
6 4 12 0.6904 0.1775
6 4 13 -1.9579 -0.4573
6 5 6 1.8633 -0.0526
6 5 7 0.6723 0.1065
6 5 8 -1.0550 -0.2990
6 5 9 -0.1549 0.0397
6 5 10 -1.0129 0.1130
6 5 11 -0.5543 0.0987
6 5 12 -0.7288 -0.2499
6 5 13 0.0291 0.0318
6 5 14 -1.5620 -0.9074
6 6 6 1.6100 0.0282
6 6 7 1.0009 0.0268
6 6 8 0.0330 0.1845
6 6 9 -0.2096 -0.0014
6 6 10 0.6720 -0.2580
6 6 11 -0.6607 0.1093
6 6 12 -0.5805 -0.3408
6 6 13 -0.7616 -0.3070
6 7 6 -0.2323 -0.2481
6 7 7 0.3615 -0.1752
6 7 8 0.6733 0.1590
6 7 9 0.1182 0.0949
6 7 10 -1.0227 -0.0488
6 7 11 0.6124 -0.0991
6 7 12 0.0176 -0.1261
6 7 13 -0.1117 -0.0217
6 8 6 -0.1252 0.0810
6 8 7 -1.1271 -0.2160
6 8 8 0.0987 -0.4984
6 8 9 0.0908 0.2640
6 8 10 -0.4878 0.2424
6 8 11 0.0302 -0.3475
6 8 12 -0.1560 -0.4086
6 9 6 -0.4205 -0.0446
6 9 7 0.1734 0.0269
6 9 8 -1.1072 -0.0371
6 9 9 -0.5729 -0.0282
6 9 10 0.3077 0.1023
6 9 11 -0.1627 0.4182
6 9 12 0.2811 -0.4921
6 10 6 1.4992 0.0862
6 10 7 0.4764 0.2633
6 10 8 0.0698 0.2493
6 10 9 -0.1056 -0.1660
6 10 10 -0.4106 -0.1315
6 10 11 -0.9725 -0.4684
6 11 6 0.7334 -0.2114
6 11 7 -0.7028 -0.1472
6 11 8 1.0116 0.4426
6 11 9 -0.3259 -0.6592
6 11 10 0.8283 -0.0365
6 12 6 -0.8079 0.0515
6 12 7 -1.5658 -0.2639
6 12 8 1.0732 0.3261
6 12 9 -0.1387 0.1616
6 13 6 -0.0479 0.4156
6 13 7 0.0486 0.2154
6 13 8 -0.5168 -0.5900
6 14 6 0.1502 -0.2990
6 14 7 0.8576 0.3233
7 0 7 0.1314 0.2518
7 0 9 0.3503 -0.0226
7 0 11 0.0691 -0.0010
7 0 13 0.4363 -0.4992
7 1 7 -2.2401 0.1471
7 1 8 0.2594 0.2880
7 1 9 -2.0026 0.2634
7 1 10 0.7347 0.1186
7 1 11 -1.8082 0.1332
7 1 12 0.0242 -0.3342
7 1 13 -0.6725 0.6772
7 2 7 0.9396 0.1122
7 2 8 -2.4392 0.2869
7 2 9 0.5278 -0.0202
7 2 10 -1.2837 0.1896
7 2 11 -0.5387 -0.0686
7 2 12 -0.8485 0.3653
7 2 13 -0.6319 0.0826
7 3 7 1.2205 0.0827
7 3 8 -0.0212 -0.0456
7 3 9 0.4627 -0.2381
7 3 10 -0.2292 0.1344
7 3 11 0.4588 -0.1383
7 3 12 0.0383 0.5713
7 3 13 0.1618 -0.0456
7 4 7 -1.0402 -0.1372
7 4 8 5.4927 0.1866
7 4 9 -1.3149 0.2278
7 4 10 2.1940 -0.1065
7 4 11 0.1867 0.2172
7 4 12 1.2334 -0.0951
7 4 13 -0.2697 -0.0575
7 5 7 0.7262 -0.1494
7 5 8 0.0771 -0.0869
7 5 9 1.7663 0.2921
7 5 10 0.4180 -0.1503
7 5 11 0.0758 -0.4050
7 5 12 0.4156 -0.3290
7 5 13 0.7706 0.3954
7 6 7 0.3495 -0.1344
7 6 8 -1.9399 -0.2848
7 6 9 0.6441 -0.0862
7 6 10 0.3015 -0.1329
7 6 11 0.2044 0.2130
7 6 12 0.3964 -0.1285
7 6 13 0.6703 0.7621
7 7 7 -0.7477 0.1206
7 7 8 0.4729 0.0604
7 7 9 -0.4040 -0.3157
7 7 10 0.3743 -0.2887
7 7 11 0.7200 1.3310
7 7 12 -0.2810 0.0178
7 8 7 -0.6575 0.0549
7 8 8 -0.4606 -0.0102
7 8 9 -0.2241 -0.0938
7 8 10 -0.1758 -0.0141
7 8 11 0.0425 -0.5378
7 8 12 0.2132 0.7170
7 9 7 0.2880 -0.0321
7 9 8 0.5479 0.1667
7 9 9 -0.0766 0.2997
7 9 10 -0.2474 -0.2520
7 9 11 -0.3037 -0.1984
7 10 7 -0.8850 0.2415
7 10 8 0.4029 -0.4909
7 10 9 1.6413 0.5256
7 10 10 0.0524 -0.1302
7 11 7 0.2111 0.3505
7 11 8 0.1157 0.0251
7 11 9 -0.7828 -0.6947
7 12 7 0.0512 -0.0875
7 12 8 0.8396 0.7888
7 13 7 -0.7186 -0.8993
8 0 8 -1.0037 0.0437
8 0 10 0.1006 0.2177
8 0 12 -0.0763 0.3214
8 1 8 2.5257 0.1879
8 1 9 -0.5894 0.3808
8 1 10 1.2389 0.3741
8 1 11 -0.0168 0.1476
8 1 12 1.2841 0.3697
8 1 13 0.1848 0.9420
8 2 8 -0.0594 0.2426
8 2 9 1.7471 0.3325
8 2 10 -0.0591 -0.0432
8 2 11 -0.5166 0.0937
8 2 12 1.1094 0.1462
8 2 13 0.3363 0.0529
8 3 8 -2.3347 -0.4141
8 3 9 1.0341 -0.0910
8 3 10 -0.1968 0.1523
8 3 11 -0.1126 -0.1973
8 3 12 -0.4016 0.0841
8 3 13 0.4620 -1.2190
8 4 8 1.0905 -0.2044
8 4 9 -3.9215 -0.0583
8 4 10 0.8340 0.0624
8 4 11 0.1319 0.0930
8 4 12 -0.3693 -0.4700
8 5 8 -0.1802 0.3011
8 5 9 -0.3925 -0.1096
8 5 10 -0.2858 -0.0084
8 5 11 0.2820 -0.0020
8 5 12 0.3153 0.1879
8 6 8 -0.9914 0.0714
8 6 9 1.6230 0.0475
8 6 10 -0.9819 0.0427
8 6 11 -0.5046 0.0850
8 6 12 -0.7582 0.1165
8 7 8 0.1438 0.1563
8 7 9 -1.1700 0.1510
8 7 10 -0.9704 -0.7351
8 7 11 -0.5686 0.2674
8 8 8 -0.0395 -0.0250
8 8 9 0.2701 0.3656
8 8 10 0.5917 0.5924
8 8 11 -0.6731 -0.3321
8 9 8 1.2469 0.1057
8 9 9 0.0125 -0.2206
8 9 10 1.2085 0.1715
8 10 8 -0.2599 -0.2058
8 10 9 -0.0033 0.3681
8 11 8 -0.6059 -0.3899
9 0 9 0.1989 -0.1579
9 0 11 -0.7557 0.3562
9 1 9 -1.6471 -0.0817
9 1 10 0.1820 0.3310
9 1 11 -0.6250 -0.4605
9 1 12 -0.5386 0.2102
9 2 9 -0.2308 -0.0568
9 2 10 -0.0455 -0.7547
9 2 11 -0.2512 -0.3158
9 2 12 0.5499 -0.0604
9 3 9 1.4929 0.0582
9 3 10 -0.0851 -0.3615
9 3 11 -0.7665 0.2427
9 3 12 0.5973 0.0298
9 4 9 -0.0341 -0.1608
9 4 10 0.2309 -0.2006
9 4 11 -0.3413 -0.1784
9 4 12 -0.2114 -0.0883
9 5 9 0.0791 -0.1223
9 5 10 -0.3789 0.1674
9 5 11 0.3012 -0.2934
9 6 9 -0.2678 -0.0683
9 6 10 -0.2107 0.2200
9 6 11 1.1265 -0.1321
9 7 9 -0.1594 -0.3425
9 7 10 0.5229 0.0038
9 7 11 1.1075 1.2148
9 8 9 1.0683 0.0182
9 8 10 0.5119 -0.3927
9 9 9 -1.2273 0.0145
10 0 10 0.5614 1.1833
10 1 10 0.8411 -0.4626
10 1 11 -0.0037 -0.6822
10 2 10 -0.1174 -0.5128
10 2 11 -0.1052 0.1284
10 3 10 0.6427 -0.1333
10 3 11 -0.3258 0.4548
10 4 10 0.5139 0.3934
10 4 11 0.5899 0.3529
10 5 10 -1.4402 0.1988
10 6 10 -0.2010 -0.0811
10 7 10 0.6439 0.4001
0 0 0 0.0 0.0
;
_shelx_fab_checksum              67330
_olex2_submission_special_instructions 'No special instructions were received'
_oxdiff_exptl_absorpt_empirical_details
;
Empirical correction (ABSPACK) includes:
- Absorption correction using spherical harmonics
- Frame scaling
- Detector area scaling
;
_oxdiff_exptl_absorpt_empirical_full_max 1.931
_oxdiff_exptl_absorpt_empirical_full_min 0.590
loop_
_space_group_symop_operation_xyz
'x, y, z'
'-x+1/2, y+1/2, -z+1/2'
'-x, -y, -z'
'x-1/2, -y-1/2, z-1/2'
loop_
_atom_site_label
_atom_site_type_symbol
_atom_site_fract_x
_atom_site_fract_y
_atom_site_fract_z
_atom_site_U_iso_or_equiv
_atom_site_adp_type
_atom_site_occupancy
_atom_site_site_symmetry_order
_atom_site_calc_flag
_atom_site_refinement_flags_posn
_atom_site_refinement_flags_occupancy
_atom_site_disorder_assembly
_atom_site_disorder_group
Cd1 Cd 1.08362(2) 0.60418(2) 0.95549(2) 0.02330(10) Uani 1 1 d . . . .
S1 S 0.72625(6) 0.52313(7) 0.46586(6) 0.0391(2) Uani 1 1 d . . . .
S2 S 0.44695(6) 0.64049(6) 0.44245(6) 0.03438(19) Uani 1 1 d . . . .
O1 O 0.99963(16) 0.68012(16) 1.05538(16) 0.0313(5) Uani 1 1 d . . . .
O4 O 0.6370(2) 0.76056(18) 1.3773(2) 0.0472(7) Uani 1 1 d . . . .
O3 O 0.7061(2) 0.89501(16) 1.3576(2) 0.0410(6) Uani 1 1 d . . . .
O2 O 0.90461(18) 0.55436(17) 1.04905(16) 0.0365(6) Uani 1 1 d . . . .
N1 N 0.9525(2) 0.5889(2) 0.8231(2) 0.0324(6) Uani 1 1 d . . . .
N3 N 0.6285(2) 0.6196(2) 0.5769(2) 0.0348(6) Uani 1 1 d . . . .
N2 N 0.2129(2) 0.59180(19) 0.0919(2) 0.0318(6) Uani 1 1 d . . . .
N4 N 0.5426(2) 0.5414(2) 0.3324(2) 0.0347(6) Uani 1 1 d . . . .
C15 C 0.6041(2) 0.5544(2) 0.4204(2) 0.0334(7) Uani 1 1 d . . . .
C11 C 0.7978(3) 0.5823(3) 0.6596(3) 0.0348(7) Uani 1 1 d . . . .
C9 C 0.9660(3) 0.5469(3) 0.7414(2) 0.0412(8) Uani 1 1 d . . . .
H9 H 1.0280 0.5200 0.7397 0.049 Uiso 1 1 calc R . . .
C17 C 0.4568(3) 0.5832(2) 0.3346(3) 0.0330(7) Uani 1 1 d . . . .
C13 C 0.8629(3) 0.6266(3) 0.8246(3) 0.0362(7) Uani 1 1 d . . . .
H13 H 0.8527 0.6553 0.8818 0.043 Uiso 1 1 calc R . . .
C19 C 0.2841(3) 0.6321(3) 0.2564(3) 0.0378(8) Uani 1 1 d . . . .
H19 H 0.2766 0.6622 0.3136 0.045 Uiso 1 1 calc R . . .
C10 C 0.8915(3) 0.5417(3) 0.6590(3) 0.0465(10) Uani 1 1 d . . . .
H10 H 0.9036 0.5114 0.6034 0.056 Uiso 1 1 calc R . . .
C21 C 0.3776(3) 0.5395(3) 0.1651(3) 0.0455(9) Uani 1 1 d . . . .
H21 H 0.4349 0.5065 0.1588 0.055 Uiso 1 1 calc R . . .
C12 C 0.7837(3) 0.6251(2) 0.7446(3) 0.0356(7) Uani 1 1 d . . . .
H12 H 0.7225 0.6525 0.7485 0.043 Uiso 1 1 calc R . . .
C7 C 0.7938(3) 0.6309(2) 1.1809(3) 0.0350(7) Uani 1 1 d . . . .
H7 H 0.7778 0.5709 1.1586 0.042 Uiso 1 1 calc R . . .
C8 C 0.6978(3) 0.8090(2) 1.3413(2) 0.0339(7) Uani 1 1 d . . . .
C16 C 0.5674(3) 0.6052(2) 0.4896(3) 0.0327(8) Uani 1 1 d . . . .
C1 C 0.9299(2) 0.6336(2) 1.0808(2) 0.0276(6) Uani 1 1 d . . . .
C18 C 0.2075(3) 0.6344(3) 0.1756(3) 0.0369(7) Uani 1 1 d . . . .
H18 H 0.1494 0.6672 0.1799 0.044 Uiso 1 1 calc R . . .
C2 C 0.8731(2) 0.6791(2) 1.1516(2) 0.0279(6) Uani 1 1 d . . . .
C20 C 0.3721(3) 0.5848(2) 0.2518(3) 0.0316(7) Uani 1 1 d . . . .
C5 C 0.7605(3) 0.7642(2) 1.2757(2) 0.0347(7) Uani 1 1 d . . . .
C22 C 0.2964(3) 0.5439(3) 0.0880(3) 0.0460(10) Uani 1 1 d . . . .
H22 H 0.3004 0.5120 0.0308 0.055 Uiso 1 1 calc R . . .
C6 C 0.7398(3) 0.6737(3) 1.2432(3) 0.0391(8) Uani 1 1 d . . . .
H6 H 0.6883 0.6412 1.2639 0.047 Uiso 1 1 calc R . . .
C14 C 0.7151(3) 0.5795(3) 0.5748(3) 0.0350(7) Uani 1 1 d . . . .
N5A N 0.9826(8) 0.8184(7) 1.1826(8) 0.053(3) Uani 0.319(6) 1 d . P A 1
H5AA H 1.0290 0.7947 1.1558 0.064 Uiso 0.319(6) 1 calc R P A 1
H5AB H 0.9897 0.8734 1.2069 0.064 Uiso 0.319(6) 1 calc R P A 1
C3A C 0.8971(2) 0.7681(2) 1.1867(2) 0.0330(7) Uani 0.319(6) 1 d . P A 1
C4B C 0.8411(3) 0.8122(2) 1.2480(3) 0.0376(8) Uani 0.319(6) 1 d . P A 1
H4B H 0.8568 0.8722 1.2702 0.045 Uiso 0.319(6) 1 calc R P A 1
N5B N 0.8711(5) 0.9010(3) 1.2806(5) 0.0579(18) Uani 0.681(6) 1 d . P A 2
H5BA H 0.9221 0.9265 1.2629 0.069 Uiso 0.681(6) 1 calc R P A 2
H5BB H 0.8385 0.9304 1.3185 0.069 Uiso 0.681(6) 1 calc R P A 2
C4A C 0.8411(3) 0.8122(2) 1.2480(3) 0.0376(8) Uani 0.681(6) 1 d . P A 2
C3B C 0.8971(2) 0.7681(2) 1.1867(2) 0.0330(7) Uani 0.681(6) 1 d . P A 2
H3B H 0.9512 0.7990 1.1691 0.040 Uiso 0.681(6) 1 calc R P A 2
loop_
_atom_site_aniso_label
_atom_site_aniso_U_11
_atom_site_aniso_U_22
_atom_site_aniso_U_33
_atom_site_aniso_U_23
_atom_site_aniso_U_13
_atom_site_aniso_U_12
Cd1 0.02139(14) 0.02853(16) 0.02084(14) -0.00008(7) 0.00622(9) -0.00025(7)
S1 0.0295(4) 0.0529(6) 0.0326(4) 0.0004(4) -0.0005(3) 0.0029(4)
S2 0.0319(4) 0.0364(5) 0.0316(4) -0.0011(3) -0.0025(3) 0.0016(3)
O1 0.0309(11) 0.0372(13) 0.0286(11) -0.0031(10) 0.0128(9) 0.0051(10)
O4 0.0559(16) 0.0399(15) 0.0572(16) -0.0004(12) 0.0399(14) -0.0011(12)
O3 0.0428(15) 0.0401(15) 0.0470(15) -0.0073(11) 0.0264(12) 0.0008(10)
O2 0.0533(15) 0.0246(12) 0.0344(13) -0.0042(9) 0.0152(11) 0.0028(10)
N1 0.0286(15) 0.0399(16) 0.0279(14) 0.0018(12) 0.0031(11) -0.0015(12)
N3 0.0287(15) 0.0380(16) 0.0341(15) 0.0039(12) -0.0029(12) -0.0025(12)
N2 0.0280(14) 0.0373(16) 0.0282(15) -0.0026(11) 0.0004(12) 0.0016(11)
N4 0.0302(14) 0.0368(16) 0.0345(14) 0.0012(12) -0.0009(11) 0.0001(12)
C15 0.0294(16) 0.0318(18) 0.0362(17) 0.0033(14) -0.0007(13) -0.0039(13)
C11 0.0327(18) 0.0396(19) 0.0298(17) 0.0030(15) 0.0000(14) -0.0046(15)
C9 0.0308(17) 0.060(2) 0.0314(17) -0.0030(17) 0.0015(13) 0.0070(16)
C17 0.0341(18) 0.0314(17) 0.0294(17) 0.0022(14) -0.0045(14) -0.0028(15)
C13 0.0303(17) 0.044(2) 0.0334(18) 0.0011(15) 0.0037(14) 0.0029(15)
C19 0.0357(18) 0.042(2) 0.0325(17) -0.0076(15) -0.0022(14) 0.0038(15)
C10 0.0361(19) 0.073(3) 0.0287(17) -0.0088(18) 0.0016(14) 0.0076(18)
C21 0.0315(18) 0.065(3) 0.0374(19) -0.0112(18) -0.0007(14) 0.0130(17)
C12 0.0296(17) 0.0399(19) 0.0356(18) 0.0037(15) 0.0018(14) 0.0017(14)
C7 0.0421(19) 0.0264(16) 0.0409(19) -0.0005(15) 0.0188(15) -0.0049(15)
C8 0.0372(17) 0.0346(18) 0.0325(16) 0.0021(14) 0.0133(13) 0.0045(14)
C16 0.0322(18) 0.0332(19) 0.0303(17) 0.0033(13) -0.0001(14) -0.0056(13)
C1 0.0281(16) 0.0352(17) 0.0211(14) 0.0044(13) 0.0084(11) 0.0073(13)
C18 0.0333(18) 0.0406(19) 0.0354(18) -0.0037(16) 0.0031(14) 0.0058(15)
C2 0.0312(15) 0.0288(16) 0.0261(14) 0.0003(12) 0.0118(12) 0.0029(13)
C20 0.0291(17) 0.0313(17) 0.0321(17) 0.0006(14) -0.0006(13) -0.0021(14)
C5 0.0404(19) 0.0328(18) 0.0359(17) 0.0004(15) 0.0200(14) 0.0021(15)
C22 0.0337(18) 0.067(3) 0.0349(18) -0.0143(18) 0.0009(14) 0.0111(17)
C6 0.044(2) 0.0364(19) 0.044(2) -0.0027(15) 0.0281(16) -0.0060(15)
C14 0.0351(18) 0.0381(19) 0.0292(17) 0.0062(15) -0.0009(13) -0.0029(15)
N5A 0.060(7) 0.039(6) 0.074(8) -0.014(5) 0.047(6) -0.022(5)
C3A 0.0321(17) 0.0318(17) 0.0399(18) 0.0004(14) 0.0188(14) -0.0021(14)
C4B 0.046(2) 0.0295(17) 0.0421(19) -0.0030(15) 0.0212(15) -0.0001(15)
N5B 0.077(4) 0.038(3) 0.073(4) -0.017(2) 0.052(3) -0.017(2)
C4A 0.046(2) 0.0295(17) 0.0421(19) -0.0030(15) 0.0212(15) -0.0001(15)
C3B 0.0321(17) 0.0318(17) 0.0399(18) 0.0004(14) 0.0188(14) -0.0021(14)
loop_
_atom_type_symbol
_atom_type_description
_atom_type_scat_dispersion_real
_atom_type_scat_dispersion_imag
_atom_type_scat_source
C C 0.0181 0.0091 'International Tables Vol C Tables 4.2.6.8 and 6.1.1.4'
H H 0.0000 0.0000 'International Tables Vol C Tables 4.2.6.8 and 6.1.1.4'
Cd Cd 0.1185 4.6533 'International Tables Vol C Tables 4.2.6.8 and 6.1.1.4'
N N 0.0311 0.0180 'International Tables Vol C Tables 4.2.6.8 and 6.1.1.4'
O O 0.0492 0.0322 'International Tables Vol C Tables 4.2.6.8 and 6.1.1.4'
S S 0.3331 0.5567 'International Tables Vol C Tables 4.2.6.8 and 6.1.1.4'
loop_
_geom_angle_atom_site_label_1
_geom_angle_atom_site_label_2
_geom_angle_atom_site_label_3
_geom_angle
_geom_angle_site_symmetry_1
_geom_angle_site_symmetry_3
O1 Cd1 O4 96.73(8) . 4_675
O1 Cd1 O3 149.18(8) . 4_675
O1 Cd1 O2 123.34(8) . 3_767
O1 Cd1 N1 97.86(9) . .
O1 Cd1 N2 85.62(9) . 1_656
O3 Cd1 O4 54.93(8) 4_675 4_675
O3 Cd1 N2 88.15(11) 4_675 1_656
O2 Cd1 O4 139.92(8) 3_767 4_675
O2 Cd1 O3 85.87(8) 3_767 4_675
O2 Cd1 N1 86.03(9) 3_767 .
O2 Cd1 N2 84.31(9) 3_767 1_656
N1 Cd1 O4 88.13(10) . 4_675
N1 Cd1 O3 93.40(11) . 4_675
N1 Cd1 N2 170.08(11) . 1_656
N2 Cd1 O4 100.73(10) 1_656 4_675
C15 S1 C14 87.93(17) . .
C16 S2 C17 88.20(17) . .
C1 O1 Cd1 114.2(2) . .
C8 O4 Cd1 90.4(2) . 4_576
C8 O3 Cd1 93.5(2) . 4_576
C1 O2 Cd1 154.8(2) . 3_767
C9 N1 Cd1 121.0(2) . .
C9 N1 C13 118.0(3) . .
C13 N1 Cd1 120.9(2) . .
C14 N3 C16 108.1(3) . .
C18 N2 Cd1 121.4(2) . 1_454
C18 N2 C22 117.4(3) . .
C22 N2 Cd1 121.2(2) . 1_454
C17 N4 C15 108.1(3) . .
N4 C15 S1 132.9(3) . .
N4 C15 C16 117.7(3) . .
C16 C15 S1 109.3(3) . .
C10 C11 C14 122.7(3) . .
C12 C11 C10 117.6(3) . .
C12 C11 C14 119.7(3) . .
N1 C9 H9 118.7 . .
N1 C9 C10 122.6(3) . .
C10 C9 H9 118.7 . .
N4 C17 S2 116.7(3) . .
N4 C17 C20 123.6(3) . .
C20 C17 S2 119.7(3) . .
N1 C13 H13 118.4 . .
N1 C13 C12 123.2(3) . .
C12 C13 H13 118.4 . .
C18 C19 H19 120.1 . .
C18 C19 C20 119.8(3) . .
C20 C19 H19 120.1 . .
C11 C10 H10 120.2 . .
C9 C10 C11 119.7(3) . .
C9 C10 H10 120.2 . .
C20 C21 H21 120.4 . .
C20 C21 C22 119.2(3) . .
C22 C21 H21 120.4 . .
C11 C12 C13 118.9(3) . .
C11 C12 H12 120.5 . .
C13 C12 H12 120.5 . .
C2 C7 H7 120.4 . .
C6 C7 H7 120.4 . .
C6 C7 C2 119.3(3) . .
O4 C8 Cd1 62.18(17) . 4_576
O4 C8 O3 121.2(3) . .
O4 C8 C5 119.5(3) . .
O3 C8 Cd1 59.00(17) . 4_576
O3 C8 C5 119.3(3) . .
C5 C8 Cd1 177.8(2) . 4_576
N3 C16 S2 132.5(3) . .
N3 C16 C15 118.1(3) . .
C15 C16 S2 109.4(3) . .
O1 C1 C2 117.0(3) . .
O2 C1 O1 123.8(3) . .
O2 C1 C2 119.2(3) . .
N2 C18 C19 123.1(3) . .
N2 C18 H18 118.5 . .
C19 C18 H18 118.5 . .
C7 C2 C1 119.2(3) . .
C3A C2 C7 119.6(3) . .
C3A C2 C1 121.1(3) . .
C19 C20 C17 121.7(3) . .
C19 C20 C21 117.3(3) . .
C21 C20 C17 121.0(3) . .
C6 C5 C8 119.8(3) . .
C6 C5 C4B 119.4(3) . .
C4B C5 C8 120.8(3) . .
N2 C22 C21 123.2(3) . .
N2 C22 H22 118.4 . .
C21 C22 H22 118.4 . .
C7 C6 C5 121.6(3) . .
C7 C6 H6 119.2 . .
C5 C6 H6 119.2 . .
N3 C14 S1 116.5(3) . .
N3 C14 C11 121.4(3) . .
C11 C14 S1 122.1(3) . .
H5AA N5A H5AB 120.0 . .
C3A N5A H5AA 120.0 . .
C3A N5A H5AB 120.0 . .
C2 C3A C4B 121.1(3) . .
N5A C3A C2 127.8(5) . .
N5A C3A C4B 110.2(5) . .
C5 C4B H4B 120.5 . .
C3A C4B C5 118.9(3) . .
C3A C4B H4B 120.5 . .
H5BA N5B H5BB 120.0 . .
loop_
_geom_bond_atom_site_label_1
_geom_bond_atom_site_label_2
_geom_bond_distance
_geom_bond_site_symmetry_2
Cd1 O1 2.242(2) .
Cd1 O4 2.409(2) 4_675
Cd1 O3 2.339(2) 4_675
Cd1 O2 2.291(2) 3_767
Cd1 N1 2.321(3) .
Cd1 N2 2.339(3) 1_656
S1 C15 1.720(3) .
S1 C14 1.753(4) .
S2 C17 1.741(4) .
S2 C16 1.720(4) .
O1 C1 1.263(4) .
O4 Cd1 2.409(2) 4_576
O4 C8 1.255(4) .
O3 Cd1 2.339(2) 4_576
O3 C8 1.260(4) .
O2 Cd1 2.291(2) 3_767
O2 C1 1.249(4) .
N1 C9 1.332(4) .
N1 C13 1.335(4) .
N3 C16 1.353(4) .
N3 C14 1.314(5) .
N2 Cd1 2.339(3) 1_454
N2 C18 1.332(4) .
N2 C22 1.336(4) .
N4 C15 1.361(4) .
N4 C17 1.316(5) .
C15 C16 1.375(5) .
C11 C10 1.402(5) .
C11 C12 1.380(5) .
C11 C14 1.469(5) .
C9 H9 0.9300 .
C9 C10 1.382(5) .
C17 C20 1.468(5) .
C13 H13 0.9300 .
C13 C12 1.396(5) .
C19 H19 0.9300 .
C19 C18 1.382(5) .
C19 C20 1.386(5) .
C10 H10 0.9300 .
C21 H21 0.9300 .
C21 C20 1.388(5) .
C21 C22 1.388(5) .
C12 H12 0.9300 .
C7 H7 0.9300 .
C7 C2 1.403(4) .
C7 C6 1.381(5) .
C8 Cd1 2.724(3) 4_576
C8 C5 1.506(4) .
C1 C2 1.509(4) .
C18 H18 0.9300 .
C2 C3A 1.390(4) .
C5 C6 1.391(5) .
C5 C4B 1.407(5) .
C22 H22 0.9300 .
C6 H6 0.9300 .
N5A H5AA 0.8600 .
N5A H5AB 0.8600 .
N5A C3A 1.378(9) .
C3A C4B 1.397(4) .
C4B H4B 0.9300 .
N5B H5BA 0.8600 .
N5B H5BB 0.8600 .
loop_
_geom_torsion_atom_site_label_1
_geom_torsion_atom_site_label_2
_geom_torsion_atom_site_label_3
_geom_torsion_atom_site_label_4
_geom_torsion
_geom_torsion_site_symmetry_1
Cd1 O1 C1 O2 -4.4(4) .
Cd1 O1 C1 C2 177.4(2) .
Cd1 O4 C8 O3 0.2(4) 4_576
Cd1 O4 C8 C5 -178.5(3) 4_576
Cd1 O3 C8 O4 -0.2(4) 4_576
Cd1 O3 C8 C5 178.5(3) 4_576
Cd1 O2 C1 O1 83.3(5) 3_767
Cd1 O2 C1 C2 -98.6(5) 3_767
Cd1 N1 C9 C10 -175.8(3) .
Cd1 N1 C13 C12 175.4(3) .
Cd1 N2 C18 C19 -177.1(3) 1_454
Cd1 N2 C22 C21 175.9(3) 1_454
S1 C15 C16 S2 177.59(17) .
S1 C15 C16 N3 -1.2(4) .
S2 C17 C20 C19 1.0(5) .
S2 C17 C20 C21 -179.7(3) .
O1 C1 C2 C7 178.9(3) .
O1 C1 C2 C3A 0.0(5) .
O4 C8 C5 C6 10.0(5) .
O4 C8 C5 C4B -168.9(3) .
O3 C8 C5 C6 -168.6(4) .
O3 C8 C5 C4B 12.4(5) .
O2 C1 C2 C7 0.6(5) .
O2 C1 C2 C3A -178.3(3) .
N1 C9 C10 C11 0.4(6) .
N1 C13 C12 C11 0.4(6) .
N4 C15 C16 S2 -0.3(4) .
N4 C15 C16 N3 -179.1(3) .
N4 C17 C20 C19 -178.1(4) .
N4 C17 C20 C21 1.3(6) .
C15 S1 C14 N3 -1.1(3) .
C15 S1 C14 C11 179.1(3) .
C15 N4 C17 S2 0.3(4) .
C15 N4 C17 C20 179.4(3) .
C9 N1 C13 C12 -0.9(5) .
C17 S2 C16 N3 179.0(4) .
C17 S2 C16 C15 0.4(3) .
C17 N4 C15 S1 -177.3(3) .
C17 N4 C15 C16 0.0(4) .
C13 N1 C9 C10 0.5(6) .
C10 C11 C12 C13 0.5(5) .
C10 C11 C14 S1 1.1(5) .
C10 C11 C14 N3 -178.7(4) .
C12 C11 C10 C9 -0.9(6) .
C12 C11 C14 S1 -178.0(3) .
C12 C11 C14 N3 2.2(5) .
C7 C2 C3A N5A 165.8(7) .
C7 C2 C3A C4B -2.4(5) .
C8 C5 C6 C7 178.3(4) .
C8 C5 C4B C3A -179.7(3) .
C16 S2 C17 N4 -0.4(3) .
C16 S2 C17 C20 -179.5(3) .
C16 N3 C14 S1 0.6(4) .
C16 N3 C14 C11 -179.6(3) .
C1 C2 C3A N5A -15.3(8) .
C1 C2 C3A C4B 176.5(3) .
C18 N2 C22 C21 -2.2(6) .
C18 C19 C20 C17 177.8(3) .
C18 C19 C20 C21 -1.5(6) .
C2 C7 C6 C5 1.6(6) .
C2 C3A C4B C5 1.2(5) .
C20 C19 C18 N2 0.8(6) .
C20 C21 C22 N2 1.5(7) .
C22 N2 C18 C19 1.0(6) .
C22 C21 C20 C17 -178.9(4) .
C22 C21 C20 C19 0.4(6) .
C6 C7 C2 C1 -177.9(3) .
C6 C7 C2 C3A 1.0(5) .
C6 C5 C4B C3A 1.3(6) .
C14 S1 C15 N4 178.6(4) .
C14 S1 C15 C16 1.2(3) .
C14 N3 C16 S2 -178.1(3) .
C14 N3 C16 C15 0.5(4) .
C14 C11 C10 C9 -180.0(4) .
C14 C11 C12 C13 179.6(3) .
N5A C3A C4B C5 -168.9(6) .
C4B C5 C6 C7 -2.8(6) .
loop_
_smtbx_masks_void_nr
_smtbx_masks_void_average_x
_smtbx_masks_void_average_y
_smtbx_masks_void_average_z
_smtbx_masks_void_volume
_smtbx_masks_void_count_electrons
1 0.000 -0.993 0.500 384.4 88.2
2 0.500 0.014 0.000 384.4 88.2
