#------------------------------------------------------------------------------
#$Date: 2019-11-08 01:39:31 +0200 (Fri, 08 Nov 2019) $
#$Revision: 224538 $
#$URL: file:///home/coder/svn-repositories/cod/cif/7/04/90/7049044.cif $
#------------------------------------------------------------------------------
#
# This file is available in the Crystallography Open Database (COD),
# http://www.crystallography.net/
#
# All data on this site have been placed in the public domain by the
# contributors.
#
data_7049044
loop_
_publ_author_name
'Pan, Yue'
'Su, Hai-Quan'
'Zhou, En-Long'
'Yin, Hong-Zong'
'Shao, Kui-Zhan'
'Su, Zhong-Min'
_publ_section_title
;
 A stable mixed lanthanide metal-organic framework for highly sensitive
 thermometry.
;
_journal_issue                   11
_journal_name_full
'Dalton transactions (Cambridge, England : 2003)'
_journal_page_first              3723
_journal_page_last               3729
_journal_paper_doi               10.1039/c9dt00217k
_journal_volume                  48
_journal_year                    2019
_chemical_formula_moiety         'C16 H6 O8 Tb'
_chemical_formula_sum            'C16 H6 O8 Tb'
_chemical_formula_weight         485.13
_space_group_crystal_system      trigonal
_space_group_IT_number           152
_space_group_name_Hall           'P 31 2"'
_space_group_name_H-M_alt        'P 31 2 1'
_symmetry_space_group_name_Hall  'P 31 2"'
_symmetry_space_group_name_H-M   'P 31 2 1'
_atom_sites_solution_hydrogens   geom
_audit_creation_date             2019-02-13
_audit_creation_method
;
Olex2 1.2-beta
(compiled 2018.05.29 svn.r3508 for OlexSys, GUI svn.r5506)
;
_audit_update_record
;
2019-02-14 deposited with the CCDC.    2019-02-15 downloaded from the CCDC.
;
_cell_angle_alpha                90
_cell_angle_beta                 90
_cell_angle_gamma                120
_cell_formula_units_Z            6
_cell_length_a                   13.825(5)
_cell_length_b                   13.825(5)
_cell_length_c                   22.984(5)
_cell_measurement_reflns_used    3412
_cell_measurement_temperature    293(2)
_cell_measurement_theta_max      50.000
_cell_measurement_theta_min      1.953
_cell_volume                     3804(2)
_computing_cell_refinement       'SAINT+ Ver. 2016.5-0 (Bruker-AXS, 2016)'
_computing_data_collection       'APEX3 Ver. 2016.5-0 (Bruker-AXS, 2016)'
_computing_data_reduction        'SAINT+ Ver. 2016.5-0 (Bruker-AXS, 2016)'
_computing_molecular_graphics    'Olex2 (Dolomanov et al., 2009)'
_computing_publication_material  'Olex2 (Dolomanov et al., 2009)'
_computing_structure_refinement  'ShelXL (Sheldrick, 2015)'
_computing_structure_solution    'XT (Sheldrick, 2015a)'
_diffrn_ambient_temperature      293.15
_diffrn_detector                 'charge-coupled device (CCD) area detector'
_diffrn_detector_area_resol_mean 7.9
_diffrn_detector_type            'Bruker APEX II'
_diffrn_measured_fraction_theta_full 1.000
_diffrn_measured_fraction_theta_max 1.000
_diffrn_measurement_device       'three-circle diffractometer'
_diffrn_measurement_device_type  'Bruker APEX II Quazar'
_diffrn_measurement_method       '0.5\% \w and 0.5\% \f scans'
_diffrn_radiation_collimation    'focusing mirrors'
_diffrn_radiation_detector       'Bruker APEX II'
_diffrn_radiation_monochromator  'mirror optics'
_diffrn_radiation_probe          x-ray
_diffrn_radiation_type           MoK\a
_diffrn_radiation_wavelength     0.71069
_diffrn_reflns_av_R_equivalents  0.0715
_diffrn_reflns_av_unetI/netI     0.0588
_diffrn_reflns_Laue_measured_fraction_full 1.000
_diffrn_reflns_Laue_measured_fraction_max 1.000
_diffrn_reflns_limit_h_max       13
_diffrn_reflns_limit_h_min       -17
_diffrn_reflns_limit_k_max       17
_diffrn_reflns_limit_k_min       -17
_diffrn_reflns_limit_l_max       29
_diffrn_reflns_limit_l_min       -29
_diffrn_reflns_number            26250
_diffrn_reflns_point_group_measured_fraction_full 1.000
_diffrn_reflns_point_group_measured_fraction_max 1.000
_diffrn_reflns_theta_full        25.240
_diffrn_reflns_theta_max         27.112
_diffrn_reflns_theta_min         1.701
_diffrn_source                   'microfocus sealed X-ray tube'
_diffrn_source_type              'Incoatec I\ms'
_exptl_absorpt_coefficient_mu    2.815
_exptl_absorpt_correction_T_max  0.86
_exptl_absorpt_correction_T_min  0.84
_exptl_absorpt_correction_type   multi-scan
_exptl_absorpt_process_details
'SADABS-2016/2 (Krause et al., 2015) was used for absorption correction.'
_exptl_crystal_colour            colorless
_exptl_crystal_density_diffrn    1.270
_exptl_crystal_density_method    'not measured'
_exptl_crystal_description       block
_exptl_crystal_F_000             1386
_exptl_crystal_size_max          0.24
_exptl_crystal_size_mid          0.22
_exptl_crystal_size_min          0.2
_refine_diff_density_max         0.580
_refine_diff_density_min         -0.692
_refine_diff_density_rms         0.090
_refine_ls_abs_structure_details
;
 Refined as an inversion twin.
;
_refine_ls_abs_structure_Flack   0.027(19)
_refine_ls_extinction_method     none
_refine_ls_goodness_of_fit_ref   0.946
_refine_ls_hydrogen_treatment    constr
_refine_ls_matrix_type           full
_refine_ls_number_parameters     227
_refine_ls_number_reflns         5626
_refine_ls_number_restraints     30
_refine_ls_restrained_S_all      0.972
_refine_ls_R_factor_all          0.0451
_refine_ls_R_factor_gt           0.0293
_refine_ls_shift/su_max          0.001
_refine_ls_shift/su_mean         0.000
_refine_ls_structure_factor_coef Fsqd
_refine_ls_weighting_details
'w=1/[\s^2^(Fo^2^)+(0.0227P)^2^] where P=(Fo^2^+2Fc^2^)/3'
_refine_ls_weighting_scheme      calc
_refine_ls_wR_factor_gt          0.0553
_refine_ls_wR_factor_ref         0.0593
_reflns_Friedel_coverage         0.780
_reflns_Friedel_fraction_full    1.000
_reflns_Friedel_fraction_max     1.000
_reflns_number_gt                4424
_reflns_number_total             5626
_reflns_threshold_expression     'I > 2\s(I)'
_cod_data_source_file            c9dt00217k2.cif
_cod_data_source_block           ww_sq
_cod_depositor_comments
'Adding full bibliography for 7049043--7049044.cif.'
_cod_original_cell_volume        3804(3)
_cod_database_code               7049044
_shelx_shelxl_version_number     2018/3
_shelx_space_group_comment
;
The symmetry employed for this shelxl refinement is uniquely defined
by the following loop, which should always be used as a source of
symmetry information in preference to the above space-group names.
They are only intended as comments.
;
_shelx_estimated_absorpt_t_max   0.54
_shelx_estimated_absorpt_t_min   0.21
_olex2_refinement_description
;
1. Twinned data refinement
 Scales: 0.973(19)
 0.027(19)
2. Fixed Uiso
 At 1.2 times of:
  All C(H) groups
3. Uiso/Uaniso restraints and constraints
Uanis(C3) \\sim Ueq, Uanis(C8) \\sim Ueq, Uanis(O4) \\sim Ueq: with sigma of
0.01 and sigma for terminal atoms of 0.02
Uanis(C10) \\sim Ueq: with sigma of 0.01 and sigma for terminal atoms of 0.02
Uanis(O4) \\sim Ueq, Uanis(O6) \\sim Ueq: with sigma of 0.005 and sigma for
terminal atoms of 0.01
4.a Aromatic/amide H refined with riding coordinates:
 C3(H3), C4(H4), C7(H7), C10(H10), C13(H13), C16(H16)
;
_shelx_res_file
;
TITL ww P 31 R = 0.07 New: P3121
    ww_sq.res
    created by SHELXL-2018/3 at 09:45:27 on 13-Feb-2019
CELL 0.71069 13.825 13.825 22.984 90 90 120
ZERR 6 0.005 0.005 0.005 0 0 0
LATT -1
SYMM -Y,+X-Y,0.333+Z
SYMM +Y-X,-X,0.667+Z
SYMM +Y,+X,-Z
SYMM -X,-X+Y,0.333-Z
SYMM -Y+X,-Y,0.667-Z
SFAC C H O Tb
UNIT 96 36 48 6
ISOR 0.01 0.02 C3 C8 O4
ISOR 0.01 0.02 C10
ISOR 0.005 0.01 O4 O6

L.S. 20 0 107
PLAN  5
TEMP 20
CONF
ABIN
fmap 2
acta
TWIN -1 0 0 0 -1 0 0 0 -1 2
REM <olex2.extras>
REM <HklSrc "%.\\ww_sq.hkl">
REM </olex2.extras>

WGHT    0.022700
BASF   0.02716
FVAR       0.07911
TB1   4   -0.305090    0.666500   -0.589700    11.00000    0.01315    0.01443 =
         0.00905   -0.00042   -0.00063    0.00824
O1    3   -0.275481    0.823553   -0.537314    11.00000    0.03591    0.01905 =
         0.02682   -0.00960   -0.01059    0.02034
O2    3   -0.266431    0.880659   -0.445915    11.00000    0.03080    0.01663 =
         0.02153    0.00652    0.00588    0.01608
O3    3   -0.032819    1.183724   -0.665696    11.00000    0.02798    0.03655 =
         0.02735    0.01132    0.01371    0.02344
O4    3   -0.123984    1.275062   -0.673455    11.00000    0.07139    0.05827 =
         0.04592    0.04030    0.04242    0.05187
O5    3   -0.581471    1.185188   -0.326334    11.00000    0.03590    0.02172 =
         0.02026    0.00733    0.01339    0.02208
O6    3   -0.510890    1.076673   -0.324743    11.00000    0.06796    0.04374 =
         0.04044    0.02919    0.03745    0.04546
O7    3   -0.323314    1.509426   -0.536882    11.00000    0.03105    0.01521 =
         0.02171    0.00834    0.00974    0.01448
O8    3   -0.396461    1.521881   -0.452402    11.00000    0.03273    0.01979 =
         0.01598   -0.00446   -0.00062    0.01897
C1    1   -0.262567    0.895694   -0.499226    11.00000    0.01436    0.01058 =
         0.01892    0.00211    0.00686    0.00961
C2    1   -0.244083    1.005296   -0.521637    11.00000    0.02157    0.01735 =
         0.01860    0.00759    0.00576    0.01428
C3    1   -0.286161    1.060349   -0.490374    11.00000    0.03322    0.01522 =
         0.01156    0.00712    0.01467    0.01546
AFIX  43
H3    2   -0.318697    1.032642   -0.454281    11.00000   -1.20000
AFIX   0
C4    1   -0.184651    1.051335   -0.573277    11.00000    0.03083    0.02245 =
         0.01468    0.00272    0.00840    0.01770
AFIX  43
H4    2   -0.153477    1.015474   -0.593670    11.00000   -1.20000
AFIX   0
C5    1   -0.172990    1.151422   -0.593565    11.00000    0.02545    0.02018 =
         0.01432    0.00792    0.01528    0.01579
C6    1   -0.105306    1.205562   -0.648599    11.00000    0.03195    0.01735 =
         0.02574    0.01394    0.01427    0.01366
C7    1   -0.219556    1.203792   -0.563377    11.00000    0.03975    0.01635 =
         0.02384    0.01306    0.01434    0.01809
AFIX  43
H7    2   -0.209966    1.271123   -0.577425    11.00000   -1.20000
AFIX   0
C8    1   -0.280940    1.159386   -0.512209    11.00000    0.03178    0.00755 =
         0.02138    0.00481    0.01161    0.01377
C9    1   -0.334771    1.214374   -0.479534    11.00000    0.03331    0.01962 =
         0.02237    0.00392    0.01218    0.01839
C10   1   -0.396012    1.165560   -0.430185    11.00000    0.03685    0.01286 =
         0.02328    0.01181    0.02078    0.01522
AFIX  43
H10   2   -0.402334    1.098966   -0.417125    11.00000   -1.20000
AFIX   0
C11   1   -0.448351    1.211786   -0.399388    11.00000    0.03424    0.01573 =
         0.01919    0.00671    0.00465    0.01311
C12   1   -0.517334    1.154366   -0.347236    11.00000    0.02759    0.02112 =
         0.01492    0.00002    0.00639    0.01159
C13   1   -0.435699    1.313159   -0.418158    11.00000    0.03851    0.01982 =
         0.00984   -0.00136    0.00306    0.01849
AFIX  43
H13   2   -0.467963    1.347228   -0.397111    11.00000   -1.20000
AFIX   0
C14   1   -0.375439    1.363323   -0.467898    11.00000    0.02897    0.00667 =
         0.01170   -0.00042    0.00480    0.00912
C15   1   -0.363815    1.474274   -0.487506    11.00000    0.01748    0.00902 =
         0.01626    0.00206   -0.00456    0.00516
C16   1   -0.324922    1.315284   -0.498817    11.00000    0.02709    0.01613 =
         0.01267    0.00870    0.00842    0.01370
AFIX  43
H16   2   -0.284474    1.349542   -0.532314    11.00000   -1.20000
AFIX   0
HKLF 4 1 -1 0 0 0 -1 0 0 0 1




REM  ww P 31 R = 0.07 New: P3121
REM wR2 = 0.0593, GooF = S = 0.946, Restrained GooF = 0.972 for all data
REM R1 = 0.0293 for 4424 Fo > 4sig(Fo) and 0.0451 for all 5626 data
REM 227 parameters refined using 30 restraints

END

WGHT      0.0232      0.0000

REM Highest difference peak  0.580,  deepest hole -0.692,  1-sigma level  0.090
Q1    1  -0.5585  1.0404 -0.3415  11.00000  0.05    0.58
Q2    1  -0.3060  0.6643 -0.6298  11.00000  0.05    0.55
Q3    1  -0.3886  1.6166 -0.4467  11.00000  0.05    0.51
Q4    1  -0.2335  0.7487 -0.6156  11.00000  0.05    0.49
Q5    1  -0.0724  1.3175 -0.6591  11.00000  0.05    0.47
;
_shelx_res_checksum              44068
_shelx_fab_file
;
    0    1    0     33.98      0.52
   -1    2    0    -27.68     32.49
    0    2    0     82.93      0.33
   -1    3    0     12.86      8.23
   -2    4    0     -9.81      2.31
    0    3    0      3.58     -0.54
   -1    4    0     36.25     -2.62
   -2    5    0     -3.56     -8.66
   -3    6    0     15.60    -15.11
    0    4    0    -15.83      0.07
   -1    5    0     21.02      8.54
   -2    6    0     -6.12     17.15
   -3    7    0      9.80      0.08
   -4    8    0      2.53      6.71
    0    5    0     -8.02      0.11
   -1    6    0     13.98     -5.76
   -2    7    0      2.89      1.37
   -3    8    0      4.23      0.15
   -4    9    0     13.26     -2.92
   -5   10    0     -3.42      8.11
    0    6    0     -5.91     -1.68
   -1    7    0      1.66      7.53
   -2    8    0     -2.42      4.08
   -3    9    0      5.31     -1.45
   -4   10    0      1.10     -3.58
   -5   11    0      5.41      0.33
   -6   12    0     -1.16     -9.59
    0    7    0      5.01     -0.14
   -1    8    0      3.59     -5.10
   -2    9    0      0.91     -5.56
   -3   10    0     -6.29      1.80
   -4   11    0      6.33     -0.11
   -5   12    0     -1.18      2.36
   -6   13    0      1.85     -0.76
   -7   14    0      1.98      3.94
    0    8    0     12.28      0.04
   -1    9    0      0.11      4.97
   -2   10    0      4.90     -2.45
   -3   11    0      0.65      6.17
   -4   12    0      0.37     -5.66
   -5   13    0      2.13     -0.42
   -6   14    0     -2.32      0.16
   -7   15    0      7.20      4.78
   -8   16    0      3.81      0.95
    0    9    0     -1.56      1.68
   -1   10    0     -0.30     -2.03
   -2   11    0      2.73      0.82
   -3   12    0      1.54      1.85
   -4   13    0      6.62     -4.84
   -5   14    0      3.99      4.05
   -6   15    0      4.13      2.96
   -7   16    0      1.78      0.97
   -8   17    0      0.66     -2.49
    0   10    0     12.10      0.48
   -1   11    0     -0.84      1.50
   -2   12    0      7.10     -1.99
   -3   13    0      2.84     -5.45
   -4   14    0     -1.79     -0.34
   -5   15    0      0.28      0.52
   -6   16    0     -1.10      0.88
   -7   17    0     -2.53     -0.96
    0   11    0     -5.38      0.03
   -1   12    0      0.86      7.02
   -2   13    0     -0.95      1.43
   -3   14    0      4.75      2.99
   -4   15    0      3.83      2.00
   -5   16    0      2.87      0.69
   -6   17    0      2.75     -4.02
    0   12    0      5.35     -0.50
   -1   13    0      2.58     -4.45
   -2   14    0     -1.00      0.38
   -3   15    0     -2.25      1.46
   -4   16    0      2.09      2.78
   -5   17    0     -0.03      0.28
    0   13    0     -2.22      0.16
   -1   14    0      3.05      1.50
   -2   15    0      0.94     -1.39
   -3   16    0      4.03     -5.31
    0   14    0     -4.88      0.41
   -1   15    0      3.00     -0.53
   -2   16    0      2.47      1.29
    0   15    0      0.12     -0.01
   -1    1    1    188.18     -0.59
    0    1    1     33.47    -59.42
   -1    2    1     24.73    -66.33
   -2    3    1     29.67     31.70
   -2    2    1    -90.77     -0.15
    0    2    1    -12.06     20.92
   -1    3    1     20.63     -6.10
   -2    4    1    -22.49      3.67
   -3    5    1    -10.44    -16.22
   -3    4    1     39.21    -27.93
   -3    3    1     -1.86     -0.13
    0    3    1     17.22    -29.30
   -1    4    1     10.21     -5.97
   -2    5    1     10.30     -1.67
   -3    6    1      4.29     -0.12
   -4    7    1     -1.75     -6.39
   -4    6    1      4.42     -4.27
   -4    5    1      6.65     24.83
   -4    4    1      5.33      0.01
    0    4    1     -9.79     16.99
   -1    5    1      1.20      6.89
   -2    6    1     -8.61      7.91
   -3    7    1      0.84     -2.02
   -4    8    1     -3.90     -4.65
   -5    9    1      4.28     -2.93
   -5    8    1      3.92     19.27
   -5    7    1      0.88     -2.66
   -5    6    1     -0.89      2.69
   -5    5    1    -12.90      0.23
    0    5    1     16.75    -27.70
   -1    6    1     -2.06     -0.97
   -2    7    1      6.42    -13.20
   -3    8    1     -8.69      9.98
   -4    9    1      3.89     -5.44
   -5   10    1      1.83      6.85
   -6   11    1      1.74      1.50
   -6   10    1     -2.23     -5.86
   -6    9    1     -4.04      2.40
   -6    8    1      8.79      1.35
   -6    7    1    -10.69      2.50
   -6    6    1     19.45      0.33
    0    6    1      0.62      0.76
   -1    7    1     10.99      6.31
   -2    8    1      1.14     -6.41
   -3    9    1      5.69     -2.48
   -4   10    1     -0.29     -6.57
   -5   11    1     -0.15      2.07
   -6   12    1     -1.07     -1.28
   -7   13    1     -3.00     -2.56
   -7   12    1      7.72      1.27
   -7   11    1      0.59     -0.53
   -7   10    1      4.42      3.65
   -7    9    1      2.73     -6.11
   -7    8    1     -0.60      2.79
   -7    7    1     -3.90     -2.03
    0    7    1      2.27     -1.72
   -1    8    1     -6.43      2.91
   -2    9    1      1.82      4.29
   -3   10    1     -4.66      2.29
   -4   11    1      7.00      1.64
   -5   12    1      0.93     -2.29
   -6   13    1      4.09     -0.81
   -7   14    1     -0.54     -0.73
   -8   15    1      4.30      0.45
   -8   14    1      0.99      0.88
   -8   13    1     -2.78     -5.55
   -8   12    1      0.88      4.10
   -8   11    1     -6.24     -0.38
   -8   10    1      1.01     -1.41
   -8    9    1     -4.42      3.58
   -8    8    1     11.22     -0.25
    0    8    1      5.16    -11.12
   -1    9    1      5.45      2.66
   -2   10    1      1.83      0.36
   -3   11    1     -1.25     -2.36
   -4   12    1      1.71      6.73
   -5   13    1     -1.95      1.72
   -6   14    1      0.98      1.36
   -7   15    1     -2.83     -2.89
   -8   16    1      5.54      1.21
   -9   17    1      2.13      0.12
   -9   16    1      3.53      7.30
   -9   15    1     -0.83     -1.19
   -9   14    1     -0.61     -0.35
   -9   13    1     -2.46     -3.24
   -9   12    1      6.13      4.94
   -9   11    1     -3.20     -1.55
   -9   10    1      3.61      1.04
   -9    9    1      1.51      0.42
    0    9    1     -2.73      5.85
   -1   10    1      0.32      3.03
   -2   11    1      1.96      6.96
   -3   12    1     -0.14      0.61
   -4   13    1      4.05      2.05
   -5   14    1      1.41     -7.33
   -6   15    1      1.27      0.01
   -7   16    1      2.44     -1.42
   -8   17    1      4.64     -2.20
  -10   17    1      1.10     -1.18
  -10   16    1      2.59     -1.55
  -10   15    1     -0.11     -1.06
  -10   14    1      0.30      1.77
  -10   13    1      3.20     -1.90
  -10   12    1     -0.53      9.47
  -10   11    1      2.96     -0.46
  -10   10    1      3.57     -0.14
    0   10    1      1.54     -2.22
   -1   11    1     -0.29     -5.16
   -2   12    1     -1.30      3.37
   -3   13    1     -3.62      0.62
   -4   14    1     -1.04      0.16
   -5   15    1     -0.42      1.61
   -6   16    1      7.67      3.83
   -7   17    1      1.88      1.75
  -11   17    1      0.05     -1.45
  -11   16    1      1.28      1.27
  -11   15    1     -1.47     -0.39
  -11   14    1      0.58     -7.06
  -11   13    1      1.75      0.63
  -11   12    1      3.11     -1.29
  -11   11    1      2.10     -0.03
    0   11    1     -3.00      5.66
   -1   12    1      1.80      1.15
   -2   13    1      1.83      3.95
   -3   14    1     -0.02     -6.53
   -4   15    1     -1.96      2.25
   -5   16    1      2.87     -1.36
   -6   17    1     -0.10      3.33
  -12   17    1     -1.56      0.38
  -12   16    1     -0.88      0.11
  -12   15    1     -0.61      5.64
  -12   14    1     -0.94      3.28
  -12   13    1      6.21      8.37
  -12   12    1     -0.93     -0.10
    0   12    1     -0.80      1.22
   -1   13    1      0.97      1.25
   -2   14    1      1.05      0.98
   -3   15    1     -0.67      1.45
   -4   16    1      3.81      3.42
   -5   17    1     -0.11      0.32
  -13   16    1     -2.40     -1.82
  -13   15    1     -4.82      4.19
  -13   14    1     -0.67      0.20
  -13   13    1      0.30      0.05
    0   13    1      0.77     -1.17
   -1   14    1      0.87     -0.49
   -2   15    1      0.10     -0.93
   -3   16    1     -1.44      0.84
  -14   16    1      1.60      0.10
  -14   15    1      1.82      7.15
  -14   14    1      6.81     -0.03
    0   14    1     -2.01      3.11
   -1   15    1      0.84      0.37
   -2   16    1      0.14      3.07
  -15   15    1     -2.04     -0.09
    0   15    1      1.85     -4.14
   -1    1    2     27.35     -0.59
    0    1    2    -41.59    -71.95
   -1    2    2     42.75     10.76
   -2    3    2     -2.72      5.30
   -2    2    2    -29.10     -0.14
    0    2    2     -2.40     -3.33
   -1    3    2     -8.79      6.92
   -2    4    2      1.22    -12.27
   -3    5    2     -3.37    -15.36
   -3    4    2     26.94    -14.36
   -3    3    2    -64.82      0.66
    0    3    2     -7.05    -12.28
   -1    4    2     -0.32      9.61
   -2    5    2    -35.23      9.59
   -3    6    2      1.92     20.58
   -4    7    2    -13.26     -5.53
   -4    6    2     12.95     -0.87
   -4    5    2     -3.35    -10.12
   -4    4    2      3.12     -0.59
    0    4    2     -6.63    -11.91
   -1    5    2      5.28     -2.92
   -2    6    2      1.49     -7.78
   -3    7    2     -0.80     -8.50
   -4    8    2      3.67     -1.03
   -5    9    2     -3.99     -2.85
   -5    8    2      7.92      0.98
   -5    7    2     -0.62     -4.81
   -5    6    2      2.03      7.39
   -5    5    2    -11.58      0.19
    0    5    2      1.34      2.05
   -1    6    2      0.93     12.48
   -2    7    2     -2.53      4.75
   -3    8    2      1.85      7.46
   -4    9    2     -3.57      0.07
   -5   10    2      1.04      2.79
   -6   11    2     -0.42     -4.60
   -6   10    2     -0.49      7.02
   -6    9    2     -1.99     -0.24
   -6    8    2     -6.20      2.30
   -6    7    2     -4.68     -2.69
   -6    6    2     -0.12      0.06
    0    6    2     -9.77    -17.25
   -1    7    2      3.08     -6.20
   -2    8    2      0.71     -4.42
   -3    9    2     -4.46     -7.47
   -4   10    2      0.79      5.05
   -5   11    2     -1.59      0.48
   -6   12    2     -1.01      5.06
   -7   13    2     -2.47      1.73
   -7   12    2     -2.61      1.21
   -7   11    2     -6.76     -1.25
   -7   10    2      5.00     -6.32
   -7    9    2      3.35      1.22
   -7    8    2      4.56     -4.64
   -7    7    2      5.64     -0.38
    0    7    2      2.81      8.52
   -1    8    2     -2.61      2.80
   -2    9    2      1.87      3.18
   -3   10    2     -3.11     -0.28
   -4   11    2      4.61     -1.32
   -5   12    2     -1.13      0.03
   -6   13    2      0.01     -1.30
   -7   14    2      2.58      5.54
   -8   15    2     -0.63      0.55
   -8   14    2     -0.65      2.74
   -8   13    2      1.96      1.03
   -8   12    2      3.30      3.10
   -8   11    2      1.81      0.49
   -8   10    2     -2.67     -1.16
   -8    9    2      1.90      3.87
   -8    8    2    -17.94     -7.58
    0    8    2     -1.39     -2.92
   -1    9    2     -2.58     -6.79
   -2   10    2     -0.80      3.13
   -3   11    2     -2.64      2.68
   -4   12    2     -1.89      1.37
   -5   13    2      0.32      4.07
   -6   14    2      0.48     -0.67
   -7   15    2     -0.51     -4.84
   -8   16    2     -0.67     -3.16
   -9   17    2     -0.37     -2.13
   -9   16    2      1.24      3.90
   -9   15    2      0.50     -0.15
   -9   14    2      1.31      3.51
   -9   13    2      1.12      3.21
   -9   12    2      0.28     -1.61
   -9   11    2     -5.61     -0.55
   -9   10    2     -0.47     -9.02
   -9    9    2      1.00     -1.14
    0    9    2      1.11      1.89
   -1   10    2     -1.37     -2.95
   -2   11    2      4.61      3.68
   -3   12    2     -0.53     -6.29
   -4   13    2      0.91     -1.30
   -5   14    2      0.37     -1.00
   -6   15    2     -2.10      2.62
   -7   16    2     -1.30      1.29
   -8   17    2      1.41      1.91
  -10   17    2     -0.52      2.52
  -10   16    2     -0.62     -1.74
  -10   15    2     -2.95      2.04
  -10   14    2     -1.43     -2.48
  -10   13    2      1.89      0.43
  -10   12    2      0.94     -3.00
  -10   11    2     -2.41      1.06
  -10   10    2     -4.76     -1.07
    0   10    2     -0.15     -1.18
   -1   11    2     -0.71      0.83
   -2   12    2     -0.30      2.17
   -3   13    2      2.03      6.78
   -4   14    2     -3.21     -2.02
   -5   15    2     -0.68      0.68
   -6   16    2     -4.97     -2.68
   -7   17    2     -1.49     -1.19
  -11   17    2     -0.07     -0.46
  -11   16    2      1.50     -0.66
  -11   15    2      2.65      1.67
  -11   14    2      3.44     -2.11
  -11   13    2      2.46      2.80
  -11   12    2     -0.34     -5.47
  -11   11    2     -1.05     -0.19
    0   11    2     -0.47     -1.15
   -1   12    2     -3.03     -0.94
   -2   13    2     -1.53      1.04
   -3   14    2      3.38     -0.83
   -4   15    2     -4.78     -2.86
   -5   16    2     -0.22     -3.42
   -6   17    2     -0.34     -3.16
  -12   17    2     -1.10      0.19
  -12   16    2     -0.07     -0.23
  -12   15    2      1.46     -1.49
  -12   14    2      2.62     -1.16
  -12   13    2     -1.66     -3.13
  -12   12    2     -1.76     -0.08
    0   12    2     -0.69     -1.00
   -1   13    2      2.08      3.46
   -2   14    2      3.43      1.76
   -3   15    2      0.24     -0.42
   -4   16    2     -3.64     -2.15
   -5   17    2      1.80      0.13
  -13   16    2      1.53      3.61
  -13   15    2      5.55     -3.38
  -13   14    2      1.19     -8.19
  -13   13    2     -3.31      0.26
    0   13    2     -2.47     -2.53
   -1   14    2      2.92      1.52
   -2   15    2     -5.81     -1.67
   -3   16    2     -0.57     -0.71
  -14   16    2      0.18      4.44
  -14   15    2     -1.96     -1.32
  -14   14    2     -8.54     -0.08
    0   14    2     -0.39     -0.98
   -1   15    2     -2.34      3.18
   -2   16    2      2.23      0.64
  -15   15    2     -1.81     -0.03
    0   15    2     -2.55     -4.36
    0    0    3    125.13      0.18
   -1    1    3    -14.12      0.07
    0    1    3    -15.63      0.01
   -1    2    3      7.81     34.20
   -2    3    3      6.33     56.50
   -2    2    3     -9.50      0.26
    0    2    3     15.60      0.38
   -1    3    3     17.87    -23.14
   -2    4    3    -16.16     -6.04
   -3    5    3    -16.11    -25.14
   -3    4    3     18.94     14.59
   -3    3    3    -17.75      0.29
    0    3    3     17.59     -0.35
   -1    4    3     34.86     20.19
   -2    5    3     -2.98      7.83
   -3    6    3      4.11      0.97
   -4    7    3      9.65      3.18
   -4    6    3     -6.62     -1.75
   -4    5    3     12.52      9.43
   -4    4    3     -4.78      0.79
    0    4    3     14.50     -1.94
   -1    5    3     13.71     -8.25
   -2    6    3      4.76     15.10
   -3    7    3     -3.81      0.53
   -4    8    3     -1.22      2.92
   -5    9    3     -2.85      4.42
   -5    8    3      2.63     -4.30
   -5    7    3     -1.31      7.44
   -5    6    3      7.08     -9.87
   -5    5    3     -1.97     -0.46
    0    5    3     -0.15      0.70
   -1    6    3      7.10      9.98
   -2    7    3      3.43     -3.90
   -3    8    3      5.22      2.89
   -4    9    3      8.02     -7.28
   -5   10    3      3.52      3.76
   -6   11    3     -0.34      3.54
   -6   10    3      1.05     -3.74
   -6    9    3      0.96      2.10
   -6    8    3     -2.47     -3.90
   -6    7    3      4.75      7.75
   -6    6    3     -4.94      0.00
    0    6    3      8.20     -5.04
   -1    7    3     -4.47     -1.68
   -2    8    3      5.48     11.15
   -3    9    3      0.24      1.27
   -4   10    3     -2.94      4.43
   -5   11    3      3.61     10.18
   -6   12    3     -2.74     -0.62
   -7   13    3     -0.17     -2.21
   -7   12    3      3.41      0.35
   -7   11    3      1.34      0.71
   -7   10    3      1.06     -1.37
   -7    9    3     -0.59      6.06
   -7    8    3      1.50     -5.82
   -7    7    3      5.91      0.52
    0    7    3     -2.29     -0.56
   -1    8    3      0.50      5.68
   -2    9    3     -0.20     -9.63
   -3   10    3     -4.30      1.08
   -4   11    3      4.45     -5.24
   -5   12    3      4.60      3.91
   -6   13    3     -3.42      5.03
   -7   14    3      7.05      4.28
   -8   15    3      5.81      7.30
   -8   14    3      1.98      1.62
   -8   13    3     -6.22      3.41
   -8   12    3      0.36     -3.17
   -8   11    3     -3.53     -0.73
   -8   10    3      9.43     -1.90
   -8    9    3      2.76      2.74
   -8    8    3      6.57      0.11
    0    8    3     11.37     -1.04
   -1    9    3      2.14      0.98
   -2   10    3     -3.42      5.05
   -3   11    3      4.26      4.59
   -4   12    3     -2.18     -0.20
   -5   13    3      2.88      1.21
   -6   14    3     -1.75     -1.29
   -7   15    3      0.75     -3.35
   -8   16    3      1.23     -2.09
   -9   17    3     -0.16      0.83
   -9   16    3      1.66     -0.53
   -9   15    3      1.48      2.54
   -9   14    3      0.49      3.39
   -9   13    3      0.98      0.01
   -9   12    3      1.03      2.55
   -9   11    3      1.37      3.74
   -9   10    3      0.93      2.96
   -9    9    3      0.21     -2.36
    0    9    3      3.17     -0.24
   -1   10    3     -1.46     -2.83
   -2   11    3      0.35     -3.54
   -3   12    3     -0.93     -0.20
   -4   13    3      2.59     -0.20
   -5   14    3      4.67     -0.09
   -6   15    3      2.02      0.96
   -7   16    3      1.01      0.47
   -8   17    3      0.58     -0.01
  -10   17    3     -1.27      1.58
  -10   16    3      2.45      0.22
  -10   15    3      2.05      2.11
  -10   14    3      2.10      3.49
  -10   13    3      1.87     -1.82
  -10   12    3      0.18     -0.66
  -10   11    3     -3.07      0.14
  -10   10    3      4.92      0.87
    0   10    3      5.44     -0.70
   -1   11    3      4.70      0.09
   -2   12    3      2.29     -0.24
   -3   13    3      1.01      1.72
   -4   14    3      0.60      0.71
   -5   15    3     -0.49     -4.54
   -6   16    3      5.20      0.58
   -7   17    3      0.60     -3.05
  -11   17    3     -0.80      0.61
  -11   16    3     -0.78      0.02
  -11   15    3     -1.69      0.57
  -11   14    3      3.04     -2.00
  -11   13    3      3.03     -0.30
  -11   12    3      2.48      0.93
  -11   11    3      5.64      0.06
    0   11    3     -2.11     -0.43
   -1   12    3      2.57     -1.27
   -2   13    3     -2.76      2.21
   -3   14    3      4.75     -0.30
   -4   15    3      6.16      0.08
   -5   16    3      1.83      1.46
   -6   17    3      3.33     -3.47
  -12   17    3      1.34     -0.74
  -12   16    3      2.74     -0.08
  -12   15    3     -1.54     -5.62
  -12   14    3     -3.25      1.63
  -12   13    3      2.83      0.44
  -12   12    3      6.17      0.08
    0   12    3      2.12     -3.07
   -1   13    3     -0.84      0.51
   -2   14    3      1.38     -1.77
   -3   15    3      0.35      0.07
   -4   16    3      1.51     -0.10
   -5   17    3     -2.29     -1.28
  -13   16    3      1.35     -4.86
  -13   15    3     -3.92      0.19
  -13   14    3      5.37      5.30
  -13   13    3      9.35      0.16
    0   13    3     -1.88     -0.20
   -1   14    3     -0.82     -4.25
   -2   15    3      0.69      0.40
   -3   16    3      2.19     -1.25
  -14   16    3     -1.10     -0.62
  -14   15    3      0.90     -1.07
  -14   14    3      3.37      0.37
    0   14    3      4.89     -0.40
   -1   15    3      1.67     -1.17
   -2   16    3      1.78      1.74
  -15   15    3     -1.18      0.07
    0   15    3      3.30     -0.08
   -1    1    4      4.35     -0.66
    0    1    4     -0.51      0.56
   -1    2    4     35.15    -27.77
   -2    3    4     31.84     51.65
   -2    2    4    -84.04      2.13
    0    2    4     -8.95     15.02
   -1    3    4     -2.09     11.92
   -2    4    4     -0.19     -0.25
   -3    5    4    -28.36     11.02
   -3    4    4     30.28     -7.29
   -3    3    4    -91.60     -0.40
    0    3    4     -5.87     11.52
   -1    4    4     14.77     -6.35
   -2    5    4      3.87      8.52
   -3    6    4     13.05      3.33
   -4    7    4     -6.30     -6.55
   -4    6    4     -4.05    -10.45
   -4    5    4      8.53      9.59
   -4    4    4    -11.06     -0.57
    0    4    4      8.68    -19.51
   -1    5    4      0.36      5.71
   -2    6    4      3.18     -2.30
   -3    7    4     -5.94     11.82
   -4    8    4      0.81     -1.33
   -5    9    4      2.67      2.37
   -5    8    4      9.35      6.40
   -5    7    4      0.85      5.13
   -5    6    4      4.28     -1.01
   -5    5    4     -4.52      0.10
    0    5    4     12.43    -18.34
   -1    6    4      2.25     -3.54
   -2    7    4     -1.41     -9.24
   -3    8    4     -0.53      2.62
   -4    9    4     -2.51     -0.42
   -5   10    4     -0.15      1.41
   -6   11    4     -4.88      3.84
   -6   10    4     -1.13      0.72
   -6    9    4    -12.37     -1.56
   -6    8    4     -0.52     -0.10
   -6    7    4    -12.66     -3.04
   -6    6    4      3.09     -0.33
    0    6    4      3.52     -7.10
   -1    7    4      2.49      6.10
   -2    8    4     -0.02     -0.78
   -3    9    4      2.10      2.76
   -4   10    4      0.55     -7.05
   -5   11    4     -1.36     -2.47
   -6   12    4      2.65      1.24
   -7   13    4     -5.85     -3.86
   -7   12    4      0.75      0.11
   -7   11    4     -0.35     -4.05
   -7   10    4     -0.83      1.69
   -7    9    4      3.51     -9.23
   -7    8    4     -3.16      1.46
   -7    7    4     10.22     -0.80
    0    7    4      4.62     -7.82
   -1    8    4     -2.40     -2.18
   -2    9    4      4.21      1.48
   -3   10    4     -2.58     -2.27
   -4   11    4      5.00      0.58
   -5   12    4      4.71      2.05
   -6   13    4      1.41      2.40
   -7   14    4     -3.98     -1.28
   -8   15    4      5.21     -2.01
   -8   14    4     -0.92      3.76
   -8   13    4      1.19     -2.33
   -8   12    4     -0.68      0.36
   -8   11    4     -3.30      1.04
   -8   10    4      1.29      1.31
   -8    9    4    -10.36      2.58
   -8    8    4      3.80     -0.82
    0    8    4     -0.76      1.90
   -1    9    4      9.26      4.55
   -2   10    4     -2.14      0.73
   -3   11    4     -3.76     -0.96
   -4   12    4      1.73     -3.52
   -5   13    4     -0.10      1.65
   -6   14    4      2.32     -2.30
   -7   15    4      1.54     -3.15
   -8   16    4      2.52     -0.88
   -9   17    4      3.98     -0.08
   -9   16    4     -0.80     -0.85
   -9   15    4      1.37      1.55
   -9   14    4     -3.47     -1.46
   -9   13    4     -4.20     -3.70
   -9   12    4     -2.08      0.15
   -9   11    4      1.38     -3.63
   -9   10    4     -1.56     -0.43
   -9    9    4      5.90     -0.56
    0    9    4      0.69     -1.63
   -1   10    4      0.55     -0.88
   -2   11    4      2.30      8.46
   -3   12    4      0.64     -0.66
   -4   13    4      4.51      1.99
   -5   14    4      4.66     -0.59
   -6   15    4      0.21     -1.22
   -7   16    4     -0.45     -0.65
   -8   17    4      0.96     -3.41
  -10   17    4      0.31     -3.25
  -10   16    4      1.20     -0.38
  -10   15    4      3.11      0.99
  -10   14    4     -0.80      1.37
  -10   13    4      0.03      0.79
  -10   12    4     -4.94      5.25
  -10   11    4     -1.28      1.23
  -10   10    4     -2.29      0.29
    0   10    4     -0.23      0.71
   -1   11    4      1.43      0.31
   -2   12    4     -3.79     -1.98
   -3   13    4     -3.84      0.62
   -4   14    4     -2.21     -1.67
   -5   15    4     -1.17      0.95
   -6   16    4      2.50     -0.32
   -7   17    4      6.27      0.60
  -11   17    4      0.33      0.77
  -11   16    4     -0.54      1.69
  -11   15    4     -1.86      1.93
  -11   14    4      1.51     -5.40
  -11   13    4      1.08      1.54
  -11   12    4     -1.70      2.90
  -11   11    4     -4.17      0.35
    0   11    4      0.26      1.50
   -1   12    4      0.84     -3.38
   -2   13    4      3.62      0.54
   -3   14    4      1.53     -0.69
   -4   15    4      1.89      0.59
   -5   16    4     -3.08     -2.83
   -6   17    4     -0.79      0.38
  -12   17    4     -2.39      0.32
  -12   16    4     -1.37      0.52
  -12   15    4      4.10      1.20
  -12   14    4      7.92     -2.10
  -12   13    4     10.22     -1.42
  -12   12    4     -4.12     -0.09
    0   12    4      1.15     -1.56
   -1   13    4     -0.50     -0.78
   -2   14    4     -5.12      0.74
   -3   15    4     -4.61     -1.55
   -4   16    4     -0.73      0.05
   -5   17    4      1.47      0.76
  -13   16    4      1.01      1.40
  -13   15    4      0.58      0.35
  -13   14    4      2.15     -5.86
  -13   13    4     -2.37     -0.09
    0   13    4     -1.08      1.59
   -1   14    4      0.14      1.42
   -2   15    4     -1.39     -1.91
   -3   16    4     -2.66     -0.42
  -14   16    4      2.53     -3.40
  -14   15    4      3.34     -2.89
  -14   14    4      2.52     -0.04
    0   14    4     -2.70      4.79
   -1   15    4     -2.40      2.44
   -2   16    4     -3.65      1.07
  -15   15    4     -0.70     -0.04
    0   15    4     -2.58      4.54
   -1    1    5    -24.32      0.76
    0    1    5      5.67      9.52
   -1    2    5     51.01      2.59
   -2    3    5     19.40     24.58
   -2    2    5    -47.54      0.59
    0    2    5    -21.53    -36.96
   -1    3    5    -16.54     13.66
   -2    4    5     -7.07     -9.39
   -3    5    5      4.83     -0.29
   -3    4    5     16.68      7.02
   -3    3    5    -39.43      7.06
    0    3    5      1.96      3.12
   -1    4    5     32.68     14.40
   -2    5    5    -16.84     -1.72
   -3    6    5     -0.77     18.57
   -4    7    5     -9.93      0.34
   -4    6    5     -3.00      2.59
   -4    5    5    -14.21     -5.22
   -4    4    5    -37.89      0.42
    0    4    5      4.10      8.53
   -1    5    5    -10.51     -1.13
   -2    6    5      6.39     -4.96
   -3    7    5      0.89    -11.75
   -4    8    5      1.29     -3.10
   -5    9    5      0.59      0.64
   -5    8    5     -6.57      2.68
   -5    7    5     16.15      2.92
   -5    6    5    -10.83     -1.33
   -5    5    5     19.67      0.86
    0    5    5     -4.77     -6.73
   -1    6    5      5.27      4.37
   -2    7    5      1.14     -2.94
   -3    8    5     -8.26     10.39
   -4    9    5      4.82      1.76
   -5   10    5     -2.16      5.57
   -6   11    5     -0.81     -1.48
   -6   10    5      2.70      1.59
   -6    9    5     -3.86      4.87
   -6    8    5      4.64      3.58
   -6    7    5    -11.96      2.55
   -6    6    5     -2.68      0.37
    0    6    5      7.49      8.40
   -1    7    5     -3.63    -10.23
   -2    8    5      1.17      5.51
   -3    9    5     -4.06     -9.21
   -4   10    5      1.49      2.04
   -5   11    5     -2.03      0.87
   -6   12    5      1.16      4.70
   -7   13    5      1.44     -0.79
   -7   12    5      0.74     -0.09
   -7   11    5     -0.76      6.68
   -7   10    5     -2.27     -3.84
   -7    9    5      2.34      4.19
   -7    8    5     -0.61     -9.70
   -7    7    5     11.47     -0.16
    0    7    5      0.33      2.44
   -1    8    5     -5.61      0.15
   -2    9    5      9.88      0.98
   -3   10    5     -4.68      4.59
   -4   11    5      2.77     -1.25
   -5   12    5      3.12     -0.06
   -6   13    5      0.49      1.28
   -7   14    5     -0.24      1.91
   -8   15    5     -1.90     -0.47
   -8   14    5     -0.33      0.12
   -8   13    5     -0.63     -3.86
   -8   12    5      1.06      2.72
   -8   11    5      5.16      0.20
   -8   10    5      0.65     -1.07
   -8    9    5      2.59      5.03
   -8    8    5     -1.25     -1.33
    0    8    5      0.61      0.98
   -1    9    5     -3.05     -7.79
   -2   10    5     -1.56      0.02
   -3   11    5     -8.72     -1.93
   -4   12    5     -5.25     -0.30
   -5   13    5      3.87      2.14
   -6   14    5      2.06     10.26
   -7   15    5      2.90     -3.50
   -8   16    5      0.46      0.85
   -9   17    5     -0.71     -0.84
   -9   16    5      0.83      1.58
   -9   15    5      4.32      1.06
   -9   14    5      0.73     -0.24
   -9   13    5     -0.81      7.02
   -9   12    5      1.23     -1.12
   -9   11    5     -7.89      1.54
   -9   10    5      3.99     -3.07
   -9    9    5     -4.68     -0.16
    0    9    5      0.56      0.78
   -1   10    5      1.93     -1.97
   -2   11    5      5.60      1.15
   -3   12    5     -1.17      1.23
   -4   13    5     -0.91     -4.99
   -5   14    5     -0.11      1.23
   -6   15    5     -1.96     -2.35
   -7   16    5     -4.27      0.36
   -8   17    5     -1.41      0.05
  -10   17    5     -2.45     -0.84
  -10   16    5      4.27     -2.34
  -10   15    5     -3.92     -1.15
  -10   14    5     -1.34     -0.67
  -10   13    5      1.62      1.22
  -10   12    5     -0.89     -2.94
  -10   11    5      6.29     -2.29
  -10   10    5      4.01     -0.09
    0   10    5     -2.29     -4.04
   -1   11    5      0.26     -0.85
   -2   12    5     -3.38     -0.16
   -3   13    5     -1.18      2.28
   -4   14    5     -2.66      1.12
   -5   15    5      3.76     -1.74
   -6   16    5     -2.13      0.53
   -7   17    5     -0.25     -1.55
  -11   17    5      0.99     -1.79
  -11   16    5      2.68     -1.85
  -11   15    5      1.22     -0.52
  -11   14    5      1.69     -0.79
  -11   13    5     -4.42      2.06
  -11   12    5     -3.14      4.14
  -11   11    5    -14.42      0.09
    0   11    5      0.28      2.02
   -1   12    5      3.15      0.46
   -2   13    5      0.07     -3.90
   -3   14    5      0.01     -1.83
   -4   15    5     -4.24     -1.80
   -5   16    5     -3.04     -0.06
   -6   17    5     -6.01     -3.47
  -12   17    5     -2.10      1.15
  -12   16    5     -2.05     -3.68
  -12   15    5     -1.47     -3.24
  -12   14    5      1.17      1.71
  -12   13    5     -0.70      0.83
  -12   12    5     -6.62     -0.01
    0   12    5     -3.06     -4.33
   -1   13    5     -2.99      2.70
   -2   14    5      0.70     -0.83
   -3   15    5     -1.84     -0.66
   -4   16    5     -0.60      0.72
   -5   17    5      0.74     -0.89
  -13   16    5     -1.60     -2.07
  -13   15    5      3.55     -1.96
  -13   14    5      5.18      4.64
  -13   13    5      3.13      0.08
    0   13    5     -1.45     -0.68
   -1   14    5      1.79     -1.44
   -2   15    5     -3.43      2.41
   -3   16    5     -2.99      0.21
  -14   16    5     -1.46      0.09
  -14   15    5      0.49     -0.68
  -14   14    5      1.91      0.07
    0   14    5     -2.87     -3.76
   -1   15    5     -2.68     -1.13
   -2   16    5     -1.34      1.93
  -15   15    5      1.08     -0.08
    0   15    5      1.10      2.10
    0    0    6    -46.06      0.05
   -1    1    6     10.48      0.11
    0    1    6     23.09      0.30
   -1    2    6     15.34     -5.93
   -2    3    6     14.20     33.07
   -2    2    6    -42.57     -0.79
    0    2    6    -24.09      0.93
   -1    3    6      6.09     -0.32
   -2    4    6      7.42    -19.59
   -3    5    6      5.53     -4.97
   -3    4    6      3.55     10.30
   -3    3    6     23.71     -0.07
    0    3    6      5.10      1.59
   -1    4    6      5.95      9.96
   -2    5    6      7.27      9.29
   -3    6    6     -4.84      4.44
   -4    7    6      5.50     -0.76
   -4    6    6      4.79     -7.78
   -4    5    6     -7.77      5.71
   -4    4    6     20.79      2.24
    0    4    6     30.04      1.01
   -1    5    6      3.90      4.49
   -2    6    6     10.48     -1.73
   -3    7    6     -2.89      4.21
   -4    8    6      4.15     -4.87
   -5    9    6     -4.21     10.66
   -5    8    6      6.44     -8.11
   -5    7    6      1.45     12.70
   -5    6    6     -8.88     -1.71
   -5    5    6     20.12     -0.52
    0    5    6      9.44      8.09
   -1    6    6     -4.64     18.65
   -2    7    6      4.09      1.56
   -3    8    6      1.97      0.54
   -4    9    6      1.14     -3.32
   -5   10    6     10.14     -3.91
   -6   11    6     -2.95     -0.66
   -6   10    6      0.22      0.44
   -6    9    6      0.44     -1.36
   -6    8    6     -0.46     -3.46
   -6    7    6     -5.15      2.95
   -6    6    6     11.19     -0.11
    0    6    6     12.74     -0.22
   -1    7    6      0.93     -4.90
   -2    8    6      3.91      5.44
   -3    9    6     -0.28      4.07
   -4   10    6      0.14      3.34
   -5   11    6      0.41      8.11
   -6   12    6      1.65      5.77
   -7   13    6      1.66      0.27
   -7   12    6      7.03     -1.96
   -7   11    6     -0.73      0.81
   -7   10    6      6.03     -1.94
   -7    9    6     -2.25      6.62
   -7    8    6      1.05     -1.04
   -7    7    6      2.12     -0.40
    0    7    6      6.83      0.40
   -1    8    6      2.45      9.93
   -2    9    6      0.76      0.46
   -3   10    6      5.90     -3.62
   -4   11    6     -2.87     -2.84
   -5   12    6      2.74     -5.94
   -6   13    6     -4.16      2.07
   -7   14    6      0.28      1.61
   -8   15    6      3.52     -1.25
   -8   14    6      4.89     -3.12
   -8   13    6      4.06      3.25
   -8   12    6      3.16      1.95
   -8   11    6      1.14      0.97
   -8   10    6      2.22     -2.83
   -8    9    6      5.81     -1.37
   -8    8    6     -0.49     -0.89
    0    8    6     -4.69      0.30
   -1    9    6      3.33     -2.31
   -2   10    6     -4.37      4.23
   -3   11    6      4.74      1.42
   -4   12    6     -1.61      3.42
   -5   13    6      1.46     -2.98
   -6   14    6      5.63      4.17
   -7   15    6      0.95     -0.59
   -8   16    6      4.19     -3.07
   -9   17    6      1.13      2.12
   -9   16    6      0.59      1.64
   -9   15    6     -0.07      0.37
   -9   14    6      1.68      0.48
   -9   13    6      3.98     -3.41
   -9   12    6      3.60      1.97
   -9   11    6      1.30     -0.89
   -9   10    6      6.17      3.11
   -9    9    6     -5.14     -0.37
    0    9    6      4.50      0.23
   -1   10    6      2.96      0.61
   -2   11    6      1.84      1.00
   -3   12    6      0.10      0.67
   -4   13    6     -1.90     -2.32
   -5   14    6      0.58     -4.46
   -6   15    6      1.33      1.12
   -7   16    6      0.64     -0.30
   -8   17    6      0.97     -0.71
  -10   17    6      0.04     -1.29
  -10   16    6      4.43     -2.54
  -10   15    6      4.88      4.36
  -10   14    6      5.90      0.81
  -10   13    6     -3.74      4.98
  -10   12    6     -5.30     -0.14
  -10   11    6      2.67     -0.54
  -10   10    6      1.12      0.39
    0   10    6     -8.92      0.21
   -1   11    6      4.53     -0.03
   -2   12    6      1.12      3.88
   -3   13    6      3.95      0.57
   -4   14    6      2.86     -1.29
   -5   15    6      0.17     -0.79
   -6   16    6      4.75     -1.62
   -7   17    6     -0.46     -0.68
  -11   17    6      3.10      0.30
  -11   16    6      1.87      2.43
  -11   15    6      7.65      1.18
  -11   14    6     -1.50      1.33
  -11   13    6      2.76     -0.49
  -11   12    6      1.74     -0.06
  -11   11    6      9.19      0.52
    0   11    6      4.34      0.00
   -1   12    6      1.15     -3.19
   -2   13    6      1.85      1.77
   -3   14    6     -2.87     -3.73
   -4   15    6     -0.60      0.45
   -5   16    6     -0.80      1.94
   -6   17    6      0.18     -1.19
  -12   16    6      1.97     -1.53
  -12   15    6      5.20      0.48
  -12   14    6      3.60      1.46
  -12   13    6     -4.70      3.20
  -12   12    6     -4.41      0.22
    0   12    6      1.38     -0.48
   -1   13    6     -0.45      3.51
   -2   14    6      2.10     -0.50
   -3   15    6      0.16      0.03
   -4   16    6      0.69     -1.20
  -13   16    6      2.18     -1.16
  -13   15    6      4.73      0.07
  -13   14    6      0.97     -1.31
  -13   13    6     -3.46      0.12
    0   13    6      2.55      0.05
   -1   14    6     -0.58     -3.35
   -2   15    6      0.43     -0.72
   -3   16    6     -1.13      0.88
  -14   15    6      2.27      0.46
  -14   14    6      6.06      0.08
    0   14    6      2.30     -0.33
   -1   15    6      1.42     -2.88
  -15   15    6      1.83      0.30
    0   15    6     -6.40      0.02
   -1    1    7     12.42     -0.06
    0    1    7     -4.07      7.59
   -1    2    7     -0.22      7.05
   -2    3    7     -1.95      4.20
   -2    2    7    -16.47      0.99
    0    2    7      7.13    -12.44
   -1    3    7      0.94     12.06
   -2    4    7     10.35     -5.46
   -3    5    7      1.56     10.13
   -3    4    7      4.40      2.85
   -3    3    7    -21.69      0.03
    0    3    7     -7.50     13.25
   -1    4    7     -3.40      9.76
   -2    5    7     -4.86     -1.32
   -3    6    7      4.09     -2.15
   -4    7    7     -2.09     -6.35
   -4    6    7     -4.97     -1.45
   -4    5    7      1.14    -17.96
   -4    4    7      6.92      0.74
    0    4    7      6.89    -18.19
   -1    5    7      0.14      1.01
   -2    6    7     -1.04      4.33
   -3    7    7     -7.40     10.15
   -4    8    7     -3.07      1.77
   -5    9    7     -1.81      4.32
   -5    8    7      5.35     -7.71
   -5    7    7      5.24     11.91
   -5    6    7     -1.20     -5.78
   -5    5    7     17.42     -0.14
    0    5    7      4.68     -7.75
   -1    6    7     10.42      2.08
   -2    7    7     -1.43      2.41
   -3    8    7      1.87     -8.07
   -4    9    7     -2.76     -2.77
   -5   10    7      1.80     -3.58
   -6   11    7     -4.05      1.05
   -6   10    7      1.19      1.61
   -6    9    7     -0.70     -1.99
   -6    8    7     -7.14      4.36
   -6    7    7     -0.52     -7.73
   -6    6    7     -4.49     -0.39
    0    6    7      2.86     -3.87
   -1    7    7      0.86      0.23
   -2    8    7     -1.61      5.60
   -3    9    7     -7.10      3.64
   -4   10    7      1.25     -0.17
   -5   11    7     -3.15     -2.96
   -6   12    7      0.22     -0.11
   -7   13    7     -2.88     -2.28
   -7   12    7     -6.76      1.72
   -7   11    7     -0.55     -6.38
   -7   10    7     -3.58     -2.65
   -7    9    7      1.76     -2.19
   -7    8    7     -2.94     -0.39
   -7    7    7      9.91     -0.10
    0    7    7      5.51     -9.52
   -1    8    7      6.26     -8.60
   -2    9    7      0.15     -2.88
   -3   10    7      1.18     -1.49
   -4   11    7      0.35     -2.05
   -5   12    7      0.05      2.53
   -6   13    7     -1.41     -2.72
   -7   14    7     -3.81      3.18
   -8   15    7     -2.49     -3.53
   -8   14    7      0.62     -2.68
   -8   13    7      1.29      0.81
   -8   12    7      0.62     -3.55
   -8   11    7      4.96      2.78
   -8   10    7     -0.55     -1.24
   -8    9    7      0.35      5.89
   -8    8    7     -9.75     -0.50
    0    8    7     -1.56      1.78
   -1    9    7      2.95      2.83
   -2   10    7      2.63      3.48
   -3   11    7     -3.72      2.74
   -4   12    7      0.28      3.99
   -5   13    7      0.10     -0.28
   -6   14    7     -0.67     -0.78
   -7   15    7     -1.57     -0.27
   -8   16    7     -0.74     -1.87
   -9   17    7      1.44      0.85
   -9   16    7     -0.34     -3.67
   -9   15    7      0.31     -1.08
   -9   14    7     -1.17      0.01
   -9   13    7      0.46      3.84
   -9   12    7     -1.87      3.02
   -9   11    7      6.04     -0.66
   -9   10    7     -1.67     -1.51
   -9    9    7      4.15      0.30
    0    9    7      5.19     -9.41
   -1   10    7     -0.03     -1.01
   -2   11    7      0.16     -1.56
   -3   12    7     -0.51      3.65
   -4   13    7      0.53      1.37
   -5   14    7      2.33      0.94
   -6   15    7     -1.05     -1.23
   -7   16    7     -1.51     -0.69
   -8   17    7     -2.08     -0.85
  -10   17    7     -2.98     -0.83
  -10   16    7     -0.62     -1.40
  -10   15    7     -1.49     -2.88
  -10   14    7     -2.46     -1.02
  -10   13    7      0.62      1.84
  -10   12    7      0.91     -6.30
  -10   11    7      4.27      0.38
  -10   10    7     -1.93      0.97
    0   10    7     -0.17     -0.33
   -1   11    7      2.32      4.57
   -2   12    7      3.74     -1.19
   -3   13    7      5.52      3.73
   -4   14    7      0.14     -1.65
   -5   15    7     -0.83     -1.65
   -6   16    7     -1.04      0.24
   -7   17    7      1.11     -0.43
  -11   16    7      2.81     -2.06
  -11   15    7      1.43      2.61
  -11   14    7     -3.95      3.65
  -11   13    7     -2.49      0.51
  -11   12    7     -4.36     -1.56
  -11   11    7      4.58      0.05
    0   11    7      0.17     -0.83
   -1   12    7     -1.22     -0.22
   -2   13    7     -0.62      1.83
   -3   14    7      2.46      1.79
   -4   15    7     -0.10     -0.28
   -5   16    7     -1.31      0.70
  -12   16    7      0.08     -0.52
  -12   15    7     -0.26      1.64
  -12   14    7     -2.29      1.24
  -12   13    7     -3.38      3.23
  -12   12    7      2.11      0.27
    0   12    7      1.84     -3.09
   -1   13    7      4.98     -2.70
   -2   14    7      0.70      0.91
   -3   15    7     -0.31     -1.25
   -4   16    7     -0.84     -0.98
  -13   16    7      3.02     -0.25
  -13   15    7      1.40      1.26
  -13   14    7     -1.60     -0.41
  -13   13    7      0.55      0.61
    0   13    7      0.16      0.34
   -1   14    7      2.19     -0.56
   -2   15    7      1.97     -0.05
   -3   16    7      1.84      0.59
  -14   15    7      0.86      0.05
  -14   14    7      4.52      0.04
    0   14    7     -0.12      0.64
   -1   15    7     -0.99     -0.92
   -1    1    8    -12.16      0.24
    0    1    8    -11.16    -20.37
   -1    2    8      9.92      2.76
   -2    3    8      0.43      0.06
   -2    2    8    -16.06     -0.28
    0    2    8     -6.38    -12.02
   -1    3    8     -7.02      2.66
   -2    4    8     -7.61      5.54
   -3    5    8      7.18      5.23
   -3    4    8     -3.69      2.25
   -3    3    8      0.14      1.32
    0    3    8     -7.94    -13.20
   -1    4    8     13.08     -1.91
   -2    5    8      1.52     -9.02
   -3    6    8     -3.07     -7.86
   -4    7    8      3.94     -1.31
   -4    6    8     -4.20      0.75
   -4    5    8     -1.48     -8.89
   -4    4    8     -8.33     -0.08
    0    4    8      5.14      6.67
   -1    5    8     -9.97      3.54
   -2    6    8      0.41      5.46
   -3    7    8     -2.16      4.20
   -4    8    8      0.33     -4.26
   -5    9    8      0.07      1.52
   -5    8    8     -9.57     -4.63
   -5    7    8      6.36      6.23
   -5    6    8    -12.48    -12.83
   -5    5    8     29.13     -0.17
    0    5    8     -5.78    -10.58
   -1    6    8      9.66     -5.68
   -2    7    8      6.60     -1.19
   -3    8    8     -1.41      0.92
   -4    9    8      1.89     -0.18
   -5   10    8     -2.35      1.28
   -6   11    8     -2.88      1.96
   -6   10    8      2.35     -4.31
   -6    9    8     -0.44      5.72
   -6    8    8      7.61     -2.38
   -6    7    8     -2.69     -0.09
   -6    6    8      6.03     -0.31
    0    6    8      6.01      8.93
   -1    7    8     -0.73      1.62
   -2    8    8      5.31      5.24
   -3    9    8     -2.63     -1.92
   -4   10    8     -2.62     -5.76
   -5   11    8     -0.45     -1.90
   -6   12    8     -0.29     -1.37
   -7   13    8      0.40      1.12
   -7   12    8     -1.13     -4.47
   -7   11    8      1.82     -0.65
   -7   10    8     -4.40      2.22
   -7    9    8     -3.13      2.83
   -7    8    8     -2.74     -6.84
   -7    7    8      4.78     -0.53
    0    7    8     -2.22     -3.78
   -1    8    8      3.85     -2.04
   -2    9    8      1.67      0.88
   -3   10    8      0.23      5.27
   -4   11    8     -2.33      2.46
   -5   12    8      2.83      2.84
   -6   13    8     -4.06      1.14
   -7   14    8      0.74     -2.49
   -8   15    8      1.17      1.27
   -8   14    8      0.08      1.02
   -8   13    8      0.30      2.68
   -8   12    8      0.26     -5.11
   -8   11    8      3.58     -2.05
   -8   10    8      2.32     -1.90
   -8    9    8     -2.98      2.37
   -8    8    8      4.81     -0.93
    0    8    8      1.04      2.40
   -1    9    8     -1.26     -1.34
   -2   10    8     -0.79      0.96
   -3   11    8      0.29     -3.87
   -4   12    8     -4.18      1.62
   -5   13    8     -0.54      2.95
   -6   14    8      1.38      4.44
   -7   15    8      0.61      3.00
   -8   16    8     -2.00     -3.28
   -9   17    8     -1.23     -0.44
   -9   16    8      0.87     -5.13
   -9   15    8      3.27      0.50
   -9   14    8      1.21     -2.40
   -9   13    8      0.30      0.14
   -9   12    8      3.96     -0.06
   -9   11    8     -1.06     -0.85
   -9   10    8     -1.80     10.72
   -9    9    8     -9.84      0.60
    0    9    8     -2.11     -3.84
   -1   10    8      1.64     -2.92
   -2   11    8      2.29      2.38
   -3   12    8      2.48      5.49
   -4   13    8      0.67      2.47
   -5   14    8      3.10      1.63
   -6   15    8      0.41     -0.50
   -7   16    8     -0.44      0.21
   -8   17    8     -0.59     -0.72
  -10   16    8     -0.09     -2.58
  -10   15    8      0.62      1.23
  -10   14    8     -0.05      1.14
  -10   13    8      1.84     -0.02
  -10   12    8      2.89      4.03
  -10   11    8      4.86     -2.96
  -10   10    8      2.86      0.28
    0   10    8     -1.88     -3.56
   -1   11    8     -3.65     -3.09
   -2   12    8     -4.83     -0.71
   -3   13    8     -2.05      0.52
   -4   14    8      1.31      0.99
   -5   15    8      1.31     -0.80
   -6   16    8     -0.34      2.34
  -11   16    8      1.26     -1.05
  -11   15    8      2.00      1.31
  -11   14    8     -1.70      0.19
  -11   13    8      4.99     -0.60
  -11   12    8      4.55      3.83
  -11   11    8      2.87      1.03
    0   11    8      0.43      0.91
   -1   12    8      1.32      2.05
   -2   13    8      3.22     -3.09
   -3   14    8      1.21      1.50
   -4   15    8      2.66     -0.29
   -5   16    8      0.37      1.10
  -12   16    8      1.49      0.25
  -12   15    8     -0.84      0.07
  -12   14    8     -2.12      1.62
  -12   13    8     -2.07     -5.17
  -12   12    8     -1.27      0.06
    0   12    8      1.02      2.37
   -1   13    8      1.08      2.53
   -2   14    8      0.03     -2.73
   -3   15    8     -0.82      0.66
   -4   16    8     -0.02      2.22
  -13   16    8     -0.09      1.07
  -13   15    8      3.31     -0.39
  -13   14    8     -3.98      0.09
  -13   13    8      0.09     -0.05
    0   13    8     -1.13     -1.08
   -1   14    8     -1.18     -2.29
   -2   15    8      2.16     -1.28
   -3   16    8     -0.36      1.15
  -14   15    8      1.39     -3.26
  -14   14    8      0.41      0.62
    0   14    8     -2.95     -4.98
   -1   15    8     -3.86     -0.35
    0    0    9     -8.36      0.14
   -1    1    9     13.51     -0.28
    0    1    9     13.14      0.02
   -1    2    9      1.71    -11.65
   -2    3    9      4.29      6.61
   -2    2    9    -12.42      0.03
    0    2    9    -12.17      0.19
   -1    3    9      0.15      7.12
   -2    4    9      5.25    -11.69
   -3    5    9      9.31      9.21
   -3    4    9    -12.69      0.60
   -3    3    9     13.88     -0.22
    0    3    9     12.21     -0.43
   -1    4    9    -10.33    -11.32
   -2    5    9      7.33      2.74
   -3    6    9     -6.95     -1.79
   -4    7    9      0.49     -0.98
   -4    6    9     12.93     -5.07
   -4    5    9     -8.91     -5.22
   -4    4    9     21.97      0.05
    0    4    9      8.83      0.71
   -1    5    9     -2.79      8.82
   -2    6    9      3.78     -9.58
   -3    7    9     -2.70      3.61
   -4    8    9      5.27     -3.92
   -5    9    9      1.24     -1.86
   -5    8    9      4.35     -0.10
   -5    7    9      4.29      3.08
   -5    6    9     -6.61      0.60
   -5    5    9     25.18     -0.23
    0    5    9      6.68      0.88
   -1    6    9     -6.10      0.55
   -2    7    9      3.90      8.29
   -3    8    9      1.69      2.83
   -4    9    9     -0.84      4.17
   -5   10    9      8.29     -4.51
   -6   11    9      1.65      1.41
   -6   10    9     -0.62      7.29
   -6    9    9     -0.95     -2.26
   -6    8    9     -0.60     -0.40
   -6    7    9     -4.09     -3.67
   -6    6    9     12.70     -0.70
    0    6    9      1.47     -0.48
   -1    7    9      2.85     -2.22
   -2    8    9      1.24     -3.24
   -3    9    9     -0.74      0.19
   -4   10    9     -0.86      0.72
   -5   11    9     -1.24      1.58
   -6   12    9      0.87      6.55
   -7   13    9      1.14      0.43
   -7   12    9     -1.30     -5.22
   -7   11    9     -0.21     -3.80
   -7   10    9      1.69      3.94
   -7    9    9      1.12     -2.45
   -7    8    9      4.46      1.90
   -7    7    9      7.72      0.14
    0    7    9      6.82      0.10
   -1    8    9      4.21      4.13
   -2    9    9      0.25      5.05
   -3   10    9      3.88     -0.09
   -4   11    9     -4.04      2.61
   -5   12    9      0.60     -3.60
   -6   13    9     -2.47     -0.03
   -7   14    9     -1.78     -1.08
   -8   15    9      2.02      1.53
   -8   14    9     -0.90      3.18
   -8   13    9      4.01     -1.94
   -8   12    9     -1.49      2.32
   -8   11    9      3.66      0.77
   -8   10    9     -3.24      5.50
   -8    9    9      3.29     -2.36
   -8    8    9     -3.35     -0.32
    0    8    9     -5.27     -0.16
   -1    9    9      5.77     -3.76
   -2   10    9     -2.22     -1.78
   -3   11    9     -0.93      0.65
   -4   12    9      3.14      1.50
   -5   13    9     -0.19      6.07
   -6   14    9      2.89      0.00
   -7   15    9     -1.07      3.81
   -8   16    9     -1.02      0.25
   -9   16    9      3.21      0.26
   -9   15    9      0.84      3.38
   -9   14    9     -0.51      3.84
   -9   13    9      4.52     -2.94
   -9   12    9      3.47     -0.23
   -9   11    9     -0.62     -1.23
   -9   10    9      0.62      3.96
   -9    9    9     -8.50      1.97
    0    9    9      7.79      0.44
   -1   10    9      5.44     -0.18
   -2   11    9     -1.17     -2.79
   -3   12    9      1.76     -1.53
   -4   13    9     -0.90     -2.89
   -5   14    9     -0.36     -0.60
   -6   15    9     -1.22     -1.77
   -7   16    9     -0.46      3.14
  -10   16    9      1.58     -1.24
  -10   15    9      1.60      0.61
  -10   14    9      1.45     -0.31
  -10   13    9      5.71     -1.53
  -10   12    9     -1.68      1.85
  -10   11    9     -1.17     -0.70
  -10   10    9    -12.34      0.85
    0   10    9     -4.82     -0.02
   -1   11    9      1.13     -0.67
   -2   12    9     -0.11      0.97
   -3   13    9      0.30     -0.84
   -4   14    9      2.42      0.00
   -5   15    9      0.38      1.17
   -6   16    9      1.67     -1.47
  -11   16    9     -0.50      2.29
  -11   15    9      0.71      1.79
  -11   14    9     -2.53     -0.89
  -11   13    9      4.34      1.05
  -11   12    9     -1.15      0.91
  -11   11    9     -3.08     -0.38
    0   11    9      5.55      0.01
   -1   12    9     -3.89      4.80
   -2   13    9      1.93      2.80
   -3   14    9     -2.13     -0.01
   -4   15    9     -0.26     -2.13
   -5   16    9     -0.41      1.21
  -12   16    9      1.14      0.88
  -12   15    9     -0.95     -2.05
  -12   14    9      5.72      4.17
  -12   13    9      0.07      3.19
  -12   12    9      3.23      1.09
    0   12    9     -3.61      0.03
   -1   13    9     -0.57      2.09
   -2   14    9      1.86      0.97
   -3   15    9      0.87     -2.04
   -4   16    9      1.21     -1.74
  -13   15    9     -2.46     -1.61
  -13   14    9     -3.41      0.23
  -13   13    9     -1.89     -0.07
    0   13    9     11.71      0.03
   -1   14    9     -0.71     -1.47
   -2   15    9      0.00     -0.98
  -14   15    9      0.82      0.19
  -14   14    9      3.94      0.19
    0   14    9      1.70      0.00
   -1   15    9     -2.00     -0.47
   -1    1   10      0.09      0.01
    0    1   10      3.21     -6.01
   -1    2   10    -12.76     17.10
   -2    3   10     -6.92    -10.86
   -2    2   10      4.59     -0.43
    0    2   10      8.01    -12.26
   -1    3   10      8.56      6.23
   -2    4   10      7.72     -6.18
   -3    5   10      9.07     -2.06
   -3    4   10    -10.82      8.61
   -3    3   10     14.58      0.33
    0    3   10     -6.09     11.27
   -1    4   10     -6.92     10.97
   -2    5   10     -6.84      0.64
   -3    6   10     -0.82     -3.49
   -4    7   10      6.80     -2.68
   -4    6   10     -0.76      1.28
   -4    5   10     -4.74    -10.57
   -4    4   10      9.25     -0.48
    0    4   10      3.40     -5.67
   -1    5   10     -0.76     -7.49
   -2    6   10     -0.01      3.69
   -3    7   10     -0.68     -5.42
   -4    8   10     -3.82      1.43
   -5    9   10     -2.56      4.33
   -5    8   10      1.56     -8.83
   -5    7   10      3.05      3.00
   -5    6   10      1.53     -2.45
   -5    5   10     15.55     -0.13
    0    5   10     -5.73     10.16
   -1    6   10      4.92      2.02
   -2    7   10     -0.47      7.54
   -3    8   10     -0.67     -6.13
   -4    9   10      0.06     -0.06
   -5   10   10     -0.82     -5.73
   -6   11   10      0.99      0.32
   -6   10   10      0.69      4.11
   -6    9   10      7.35      0.47
   -6    8   10     -3.89      3.10
   -6    7   10      7.83     -2.16
   -6    6   10     -2.32     -0.26
    0    6   10     -0.61      1.51
   -1    7   10     -1.28     -6.78
   -2    8   10      2.11      4.93
   -3    9   10     -1.03      0.43
   -4   10   10     -1.24      0.05
   -5   11   10      1.54      1.00
   -6   12   10     -0.95      0.50
   -7   13   10      0.78      1.52
   -7   12   10     -2.45      2.57
   -7   11   10     -0.90      3.83
   -7   10   10     -0.73     -0.67
   -7    9   10     -3.93      0.37
   -7    8   10      3.18      0.97
   -7    7   10     -4.13     -0.44
    0    7   10     -1.26      1.61
   -1    8   10      8.51     -1.08
   -2    9   10     -1.51      1.45
   -3   10   10      1.53     -1.42
   -4   11   10     -2.27     -5.09
   -5   12   10     -0.07     -0.67
   -6   13   10      1.18      0.80
   -7   14   10      0.80     -1.07
   -8   15   10      1.12      0.21
   -8   14   10     -1.17     -5.52
   -8   13   10     -0.72     -1.24
   -8   12   10      0.83     -2.45
   -8   11   10      4.39      3.59
   -8   10   10      1.19     -1.14
   -8    9   10      5.87      3.01
   -8    8   10     -1.68      0.62
    0    8   10      0.39     -1.48
   -1    9   10     -1.15      1.96
   -2   10   10      6.08      0.05
   -3   11   10      0.06      2.39
   -4   12   10      2.74      0.11
   -5   13   10      7.06      1.06
   -6   14   10      0.57     -0.69
   -7   15   10      0.22     -4.90
   -8   16   10     -4.09     -1.07
   -9   16   10      2.69     -0.02
   -9   15   10     -2.94      3.20
   -9   14   10     -0.26     -0.77
   -9   13   10     -0.47      0.58
   -9   12   10     -2.84      5.57
   -9   11   10     -2.97      3.94
   -9   10   10     -1.89      5.42
   -9    9   10      0.55      0.95
    0    9   10      2.50     -4.01
   -1   10   10      2.59     -0.13
   -2   11   10     -1.54     -6.10
   -3   12   10     -3.01      1.46
   -4   13   10     -1.20     -3.63
   -5   14   10      0.12     -0.08
   -6   15   10      2.12     -0.59
   -7   16   10     -0.29     -1.75
  -10   16   10     -0.01      0.32
  -10   15   10     -2.10     -0.59
  -10   14   10      1.44     -2.09
  -10   13   10     -0.50      1.26
  -10   12   10      0.81     -0.24
  -10   11   10      0.99      3.48
  -10   10   10      2.47      6.75
    0   10   10      0.31     -0.99
   -1   11   10      3.15      2.15
   -2   12   10      0.80     -1.15
   -3   13   10      0.11      0.67
   -4   14   10      0.42     -1.72
   -5   15   10     -1.73     -2.26
   -6   16   10     -1.67      0.02
  -11   16   10     -0.54     -2.25
  -11   15   10     -0.32     -0.56
  -11   14   10      3.12      0.43
  -11   13   10      0.53      1.39
  -11   12   10     -3.40      2.27
  -11   11   10      1.44      0.63
    0   11   10      6.72    -11.78
   -1   12   10      0.68     -2.86
   -2   13   10     -4.64      0.82
   -3   14   10     -1.97      0.46
   -4   15   10     -0.35      0.85
   -5   16   10     -0.09     -0.93
  -12   16   10     -7.38      1.95
  -12   15   10     -2.85      0.56
  -12   14   10      3.17      3.75
  -12   13   10     -8.66      4.12
  -12   12   10      2.57      0.53
    0   12   10      1.25     -2.69
   -1   13   10      3.53     -0.70
   -2   14   10      0.55     -0.28
   -3   15   10     -2.30     -2.48
   -4   16   10      1.09      0.89
  -13   15   10      3.28     -0.74
  -13   14   10     -0.65      0.94
  -13   13   10     -0.95      0.32
    0   13   10     -0.03      0.29
   -1   14   10      3.50     -1.86
   -2   15   10     -1.21     -1.62
  -14   14   10     -0.49     -0.26
    0   14   10      0.79     -0.94
   -1    1   11     12.04     -0.06
    0    1   11     -1.16     -1.77
   -1    2   11    -13.82      6.59
   -2    3   11      0.48      8.01
   -2    2   11    -10.26      0.03
    0    2   11      0.27      1.16
   -1    3   11      4.40     -7.80
   -2    4   11     -1.92      4.45
   -3    5   11     -3.53      1.73
   -3    4   11     -6.48     -6.99
   -3    3   11     -0.62     -0.17
    0    3   11     -0.06      1.62
   -1    4   11     -8.95     -3.21
   -2    5   11      5.15      3.59
   -3    6   11     -8.37     -4.10
   -4    7   11     11.56     -0.60
   -4    6   11     -2.29      4.10
   -4    5   11      9.31     -3.33
   -4    4   11      2.38      0.23
    0    4   11      0.46      2.25
   -1    5   11     -0.20     -0.16
   -2    6   11     -6.61      3.05
   -3    7   11     -2.36      6.08
   -4    8   11     -2.14     -5.06
   -5    9   11      3.26     -1.18
   -5    8   11     -0.55     -4.38
   -5    7   11      0.51      3.60
   -5    6   11     -0.94     -2.47
   -5    5   11     -0.99     -0.44
    0    5   11      0.86      1.15
   -1    6   11     -2.18     -4.15
   -2    7   11      2.57      0.60
   -3    8   11      1.11     -4.42
   -4    9   11     -0.47      0.04
   -5   10   11      2.66     -0.34
   -6   11   11     -1.34      4.72
   -6   10   11      0.56     -3.59
   -6    9   11      0.94      0.06
   -6    8   11      2.17     -1.28
   -6    7   11      8.17     -2.99
   -6    6   11      0.38      0.09
    0    6   11      0.44      0.81
   -1    7   11      1.12      5.47
   -2    8   11     -0.27     -1.18
   -3    9   11      0.99      5.86
   -4   10   11      0.03     -1.36
   -5   11   11      0.48     -1.66
   -6   12   11      2.81     -2.27
   -7   13   11      1.68     -1.03
   -7   12   11      0.68      1.80
   -7   11   11      2.41     -2.33
   -7   10   11     -2.65      2.58
   -7    9   11     -0.36      0.74
   -7    8   11     -1.44      4.42
   -7    7   11     -8.89      0.01
    0    7   11     -3.18     -5.21
   -1    8   11      4.06     -4.61
   -2    9   11     -3.44     -2.94
   -3   10   11      2.07     -0.71
   -4   11   11     -3.46      1.69
   -5   12   11      1.47      0.73
   -6   13   11      1.74      2.23
   -7   14   11      5.73      4.20
   -8   15   11      6.13     -1.80
   -8   14   11      0.97      0.33
   -8   13   11      0.80      3.28
   -8   12   11      1.50     -0.34
   -8   11   11     -0.82      1.51
   -8   10   11      4.09      1.30
   -8    9   11     -1.47     -3.93
   -8    8   11     -0.72      0.00
    0    8   11     -0.50     -1.05
   -1    9   11      5.98      4.99
   -2   10   11      3.37      3.24
   -3   11   11      2.66     -3.58
   -4   12   11     -1.51     -1.92
   -5   13   11     -0.96     -5.43
   -6   14   11      4.79      0.83
   -7   15   11     -0.61     -0.64
   -8   16   11     -0.39     -2.51
   -9   16   11      0.78     -0.53
   -9   15   11     -1.20      1.68
   -9   14   11      0.58     -2.76
   -9   13   11      1.62     -0.46
   -9   12   11      1.04      2.85
   -9   11   11      2.15     -3.26
   -9   10   11     -0.72      3.91
   -9    9   11     -1.12     -0.34
    0    9   11     -4.12     -6.38
   -1   10   11     -2.91      2.04
   -2   11   11     -2.55     -1.79
   -3   12   11     -2.01     -0.14
   -4   13   11      0.94     -0.20
   -5   14   11      2.52     -2.80
   -6   15   11      3.29     -2.28
   -7   16   11      0.20     -1.19
  -10   16   11     -1.19      1.58
  -10   15   11      2.04     -2.36
  -10   14   11      1.88      0.80
  -10   13   11     -2.61      1.40
  -10   12   11      0.42      0.32
  -10   11   11      0.24     -4.80
  -10   10   11     -0.68      0.34
    0   10   11      1.82      2.91
   -1   11   11      3.75     -2.11
   -2   12   11      4.84      1.10
   -3   13   11      0.06     -4.75
   -4   14   11     -0.71     -1.33
   -5   15   11     -0.41     -3.22
   -6   16   11     -1.12      0.76
  -11   16   11      0.10     -0.95
  -11   15   11      4.29     -0.77
  -11   14   11      1.02     -0.59
  -11   13   11      2.24      1.48
  -11   12   11      5.44     -4.14
  -11   11   11      0.79      1.69
    0   11   11     -1.62     -3.00
   -1   12   11      2.79     -1.87
   -2   13   11      3.78      0.28
   -3   14   11      1.91      0.33
   -4   15   11      1.88      0.83
   -5   16   11      1.00     -1.32
  -12   15   11     -1.14     -5.06
  -12   14   11     -0.82      4.28
  -12   13   11     -2.72      0.77
  -12   12   11      4.08     -0.46
    0   12   11     -1.12     -1.64
   -1   13   11      1.74     -2.94
   -2   14   11      1.41      1.06
   -3   15   11     -0.92     -1.58
  -13   15   11      1.35      2.74
  -13   14   11     -3.24      0.82
  -13   13   11     -0.26     -0.26
    0   13   11     -1.43     -1.98
   -1   14   11      0.09      1.00
   -2   15   11     -2.51      0.94
  -14   14   11      1.77     -0.22
    0   14   11     -0.92     -1.46
    0    0   12      3.38      0.26
   -1    1   12      2.75      0.07
    0    1   12      0.97      0.48
   -1    2   12      5.99      3.45
   -2    3   12      4.61     -0.32
   -2    2   12      0.69      0.22
    0    2   12      4.14     -0.62
   -1    3   12      2.01     -0.50
   -2    4   12      2.69      0.72
   -3    5   12     -2.25     -3.73
   -3    4   12      0.81      6.87
   -3    3   12     -4.21      0.23
    0    3   12      8.02     -0.33
   -1    4   12      4.73     -6.18
   -2    5   12      5.06     -3.57
   -3    6   12      0.84     -0.43
   -4    7   12     -0.34      1.16
   -4    6   12      2.00     -0.45
   -4    5   12     -1.07    -11.92
   -4    4   12      8.90      0.11
    0    4   12     -0.50      0.30
   -1    5   12      3.49      6.30
   -2    6   12      1.63      0.23
   -3    7   12      3.53      0.98
   -4    8   12      3.64     -0.55
   -5    9   12      4.01     -7.06
   -5    8   12      3.55      6.21
   -5    7   12      4.57     -2.32
   -5    6   12      0.58     10.12
   -5    5   12      6.39      0.09
    0    5   12     -0.73      0.03
   -1    6   12      2.23     -7.46
   -2    7   12     -1.32      5.99
   -3    8   12      1.06      0.00
   -4    9   12     -1.16      3.47
   -5   10   12      2.67     -0.39
   -6   11   12      3.92      2.90
   -6   10   12      1.06      3.42
   -6    9   12      2.42      2.64
   -6    8   12      4.86      3.05
   -6    7   12      1.38      0.05
   -6    6   12      1.96     -0.13
    0    6   12      0.19     -0.23
   -1    7   12      5.20      2.41
   -2    8   12      1.82     -1.88
   -3    9   12      2.09     -4.91
   -4   10   12      3.10     -6.29
   -5   11   12      2.96     -0.76
   -6   12   12      2.13     -0.87
   -7   13   12      1.34      3.82
   -7   12   12     -0.88      0.91
   -7   11   12      0.28     -4.16
   -7   10   12      0.03      3.51
   -7    9   12      2.86     -4.58
   -7    8   12      1.08      6.00
   -7    7   12      4.44      0.14
    0    7   12     -6.50      0.51
   -1    8   12     -1.04     -0.99
   -2    9   12     -1.57      6.23
   -3   10   12      0.60      0.73
   -4   11   12      2.90      1.71
   -5   12   12      0.48      0.80
   -6   13   12      0.69     -2.65
   -7   14   12      1.03     -1.93
   -8   15   12      3.90      1.13
   -8   14   12     -0.68      0.55
   -8   13   12      4.33     -0.35
   -8   12   12     -1.41      0.31
   -8   11   12      4.16      2.37
   -8   10   12      0.18      3.41
   -8    9   12     -5.73      3.14
   -8    8   12     -1.64     -0.21
    0    8   12     -5.30     -0.01
   -1    9   12     -0.46     -3.24
   -2   10   12      2.82     -3.35
   -3   11   12     -3.26     -2.55
   -4   12   12      3.46     -3.55
   -5   13   12     -3.35      1.43
   -6   14   12      4.29     -6.35
   -7   15   12      2.45      3.43
   -8   16   12      1.08     -2.39
   -9   16   12      2.19     -2.58
   -9   15   12      1.97      1.83
   -9   14   12     -0.30      0.36
   -9   13   12      2.20      1.43
   -9   12   12     -0.48     -0.70
   -9   11   12     -0.03     -2.83
   -9   10   12      1.11     -0.21
   -9    9   12     -1.87      0.98
    0    9   12      3.68      0.38
   -1   10   12      2.94     -0.36
   -2   11   12     -2.45      3.49
   -3   12   12      1.97      3.80
   -4   13   12     -0.59      1.09
   -5   14   12      0.16      0.34
   -6   15   12      1.82     -2.35
   -7   16   12      4.24     -1.12
  -10   16   12     -1.99      1.92
  -10   15   12      1.63     -3.17
  -10   14   12     -0.43      2.36
  -10   13   12      1.20     -0.02
  -10   12   12     -4.07     -1.73
  -10   11   12      1.38      3.90
  -10   10   12      3.54      0.56
    0   10   12      4.29     -0.32
   -1   11   12     -3.94      0.39
   -2   12   12      0.76      0.59
   -3   13   12     -2.27     -1.15
   -4   14   12     -0.40      3.19
   -5   15   12     -1.85      0.77
   -6   16   12      1.78      0.33
  -11   15   12      4.43      3.89
  -11   14   12      0.83     -0.36
  -11   13   12      3.63     -4.27
  -11   12   12      0.67     -4.56
  -11   11   12      1.60      0.57
    0   11   12     -0.39     -0.04
   -1   12   12      1.07      1.41
   -2   13   12      0.28      1.90
   -3   14   12      1.57      2.44
   -4   15   12      0.92     -0.20
  -12   15   12      0.89     -1.82
  -12   14   12      3.04      0.93
  -12   13   12      0.48     -2.13
  -12   12   12      3.35     -0.36
    0   12   12     -5.56     -0.15
   -1   13   12     -0.36     -2.96
   -2   14   12     -1.15     -3.58
   -3   15   12     -0.04     -0.97
  -13   14   12     -4.20     -2.03
  -13   13   12      3.20     -0.08
    0   13   12      2.44     -0.15
   -1   14   12      1.11     -1.52
  -14   14   12     -0.45      0.14
    0   14   12     -1.19     -0.11
   -1    1   13     -4.64     -0.14
    0    1   13      4.00     -5.78
   -1    2   13     -4.97      3.80
   -2    3   13     -1.51     -4.04
   -2    2   13      2.42     -0.08
    0    2   13     -0.12      0.28
   -1    3   13      3.24      1.14
   -2    4   13      4.56      2.75
   -3    5   13      7.08     -2.52
   -3    4   13     -6.21      3.95
   -3    3   13      3.84      0.13
    0    3   13     -1.86      3.27
   -1    4   13     -4.39      0.21
   -2    5   13     -0.94      4.67
   -3    6   13     -9.06      2.22
   -4    7   13      2.83      5.50
   -4    6   13      1.74     -2.56
   -4    5   13     -2.56     -0.15
   -4    4   13      6.22     -0.21
    0    4   13     -0.21     -1.03
   -1    5   13      3.96     -9.04
   -2    6   13      0.61     -0.23
   -3    7   13      3.44     -8.68
   -4    8   13      0.51     -0.37
   -5    9   13      1.91      0.53
   -5    8   13      1.82     -1.96
   -5    7   13     -0.76     -3.09
   -5    6   13     -2.05     -2.77
   -5    5   13      5.00      0.06
    0    5   13     -2.66      4.96
   -1    6   13     -1.01      2.39
   -2    7   13      3.33      2.07
   -3    8   13     -1.35      3.74
   -4    9   13      6.97      1.67
   -5   10   13      3.49      0.20
   -6   11   13      3.70      1.98
   -6   10   13      2.58      2.98
   -6    9   13      5.26      2.10
   -6    8   13      4.59     -0.76
   -6    7   13      1.67      6.10
   -6    6   13     -1.84      0.25
    0    6   13     -0.02      0.28
   -1    7   13     -0.14     -6.50
   -2    8   13     -1.01     -3.09
   -3    9   13      1.82      0.22
   -4   10   13     -2.57     -5.38
   -5   11   13      5.81      2.87
   -6   12   13     -0.86      0.81
   -7   13   13      8.21      1.12
   -7   12   13      0.95      5.22
   -7   11   13      3.65      3.23
   -7   10   13      3.73      3.69
   -7    9   13     -4.52      1.13
   -7    8   13      3.74     -0.15
   -7    7   13    -11.65      0.27
    0    7   13      0.00     -0.89
   -1    8   13     -0.06      1.34
   -2    9   13      0.49      1.28
   -3   10   13     -2.01      0.27
   -4   11   13     -0.28     -5.65
   -5   12   13      0.82     -1.79
   -6   13   13      0.53      1.89
   -7   14   13     -1.58      0.06
   -8   15   13      1.99      2.20
   -8   14   13     -2.63      0.43
   -8   13   13     -0.31      1.80
   -8   12   13     -0.22      1.31
   -8   11   13      1.97     -0.60
   -8   10   13     -0.20      1.73
   -8    9   13      1.07      5.74
   -8    8   13      4.06      0.40
    0    8   13      1.98     -2.92
   -1    9   13     -3.60      3.07
   -2   10   13      4.03     -1.59
   -3   11   13     -4.34      0.18
   -4   12   13      1.15     -3.66
   -5   13   13     -0.15      2.62
   -6   14   13     -4.71     -0.12
   -7   15   13      1.25     -0.13
   -9   15   13      0.02     -0.75
   -9   14   13     -0.70      2.18
   -9   13   13      4.55     -0.35
   -9   12   13      3.47      3.18
   -9   11   13     -1.79      0.70
   -9   10   13     -2.61      1.07
   -9    9   13     -8.33     -0.05
    0    9   13     -2.21      4.53
   -1   10   13      5.39     -0.27
   -2   11   13     -2.13     -0.28
   -3   12   13     -2.72     -1.27
   -4   13   13     -3.42     -0.33
   -5   14   13     -4.66     -1.23
   -6   15   13     -1.36      0.55
  -10   15   13     -1.70     -1.92
  -10   14   13     -0.70      1.88
  -10   13   13     -5.04     -2.73
  -10   12   13      1.69     -2.60
  -10   11   13      4.00     -4.35
  -10   10   13      1.73      1.02
    0   10   13      1.80     -2.85
   -1   11   13     -1.31     -1.94
   -2   12   13      0.38     -0.46
   -3   13   13     -4.21     -1.65
   -4   14   13      0.92     -0.44
   -5   15   13     -1.81      1.96
  -11   15   13     -0.01     -0.25
  -11   14   13     -0.93      1.56
  -11   13   13      1.28      1.06
  -11   12   13      2.83      4.81
  -11   11   13      0.05     -0.05
    0   11   13     -0.02      0.13
   -1   12   13      0.95     -1.19
   -2   13   13     -2.10      0.81
   -3   14   13      0.40     -1.91
   -4   15   13      1.23      1.91
  -12   15   13     -0.03      0.84
  -12   14   13      5.17      2.20
  -12   13   13     -1.08     -1.70
  -12   12   13      4.57     -0.45
    0   12   13     -0.02      0.33
   -1   13   13     -0.55     -1.82
   -2   14   13      2.24      0.78
   -3   15   13      0.21     -1.33
  -13   14   13      1.20     -1.73
  -13   13   13      2.08     -0.04
    0   13   13     -0.43      1.17
   -1   14   13     -0.30      0.70
   -1    1   14     17.88     -0.05
    0    1   14      0.22      0.37
   -1    2   14    -11.51      1.68
   -2    3   14     -0.63      2.57
   -2    2   14      9.46     -0.06
    0    2   14      2.74      3.51
   -1    3   14      3.80     -5.92
   -2    4   14      6.50     -0.09
   -3    5   14     -4.04      0.48
   -3    4   14     -6.23     -0.55
   -3    3   14     -2.09      0.21
    0    3   14      4.01      6.62
   -1    4   14     -5.91      2.04
   -2    5   14      3.36      1.53
   -3    6   14      0.89      3.54
   -4    7   14     -0.57     -1.47
   -4    6   14      1.16      0.92
   -4    5   14      1.06     -3.49
   -4    4   14      9.01      0.36
    0    4   14     -0.07     -0.53
   -1    5   14      3.63     -2.40
   -2    6   14     -0.59     -1.12
   -3    7   14      0.60      1.21
   -4    8   14     -5.43     -1.31
   -5    9   14      0.39     -0.73
   -5    8   14      3.45      0.91
   -5    7   14     -4.44      1.14
   -5    6   14      3.69      4.10
   -5    5   14     -9.79     -0.06
    0    5   14      0.25      0.53
   -1    6   14     -3.66      2.20
   -2    7   14      0.56      2.15
   -3    8   14      3.06     -2.01
   -4    9   14     -2.50     -2.82
   -5   10   14      3.57     -3.85
   -6   11   14     -1.96     -2.53
   -6   10   14     -6.59      0.12
   -6    9   14     -4.70     -0.73
   -6    8   14     -4.44      2.69
   -6    7   14      4.55      1.11
   -6    6   14     -0.89      0.21
    0    6   14     -2.02     -4.69
   -1    7   14      5.28      3.04
   -2    8   14     -4.17     -5.10
   -3    9   14     -0.32      4.56
   -4   10   14     -0.98     -3.06
   -5   11   14      3.72     -6.96
   -6   12   14      2.68     -1.96
   -7   13   14      0.09     -6.62
   -7   12   14     -1.81      2.94
   -7   11   14     -2.72     -4.84
   -7   10   14      0.50      0.43
   -7    9   14      0.81     -4.44
   -7    8   14      2.64      2.45
   -7    7   14     -6.32      0.20
    0    7   14      2.71      4.84
   -1    8   14     -0.14     -3.81
   -2    9   14     -1.98      0.96
   -3   10   14      0.32     -3.74
   -4   11   14     -3.92     -3.83
   -5   12   14     -1.24     -4.02
   -6   13   14      1.59     -4.31
   -7   14   14     -1.69      1.74
   -8   15   14      1.24     -3.16
   -8   14   14      3.66      0.14
   -8   13   14     -0.47     -2.16
   -8   12   14     -1.77      0.59
   -8   11   14     -6.79      7.58
   -8   10   14     -1.08      2.41
   -8    9   14      0.47     -0.62
   -8    8   14     -5.93      0.08
    0    8   14     -0.83     -1.88
   -1    9   14      0.06      4.78
   -2   10   14      2.72      3.43
   -3   11   14      1.35      2.65
   -4   12   14     -2.36     -4.82
   -5   13   14      1.98     -3.29
   -6   14   14     -0.14     -3.68
   -7   15   14     -1.81     -3.91
   -9   15   14     -1.61     -1.10
   -9   14   14      1.21      0.33
   -9   13   14     -2.01     -5.72
   -9   12   14     -2.23      2.69
   -9   11   14     -3.80     -2.83
   -9   10   14     -2.37      1.93
   -9    9   14      3.94     -0.04
    0    9   14      0.18      0.41
   -1   10   14     -0.25     -2.05
   -2   11   14     -0.10      0.26
   -3   12   14     -5.07     -1.25
   -4   13   14      1.70      1.04
   -5   14   14     -2.96     -0.41
   -6   15   14      0.41      0.23
  -10   15   14     -1.10     -3.69
  -10   14   14      2.01     -0.29
  -10   13   14     -0.29     -1.26
  -10   12   14      1.47     -2.29
  -10   11   14     -0.60      1.18
  -10   10   14      0.21      0.16
    0   10   14      0.35     -0.78
   -1   11   14      1.89     -0.20
   -2   12   14      3.52      0.24
   -3   13   14      1.26     -1.18
   -4   14   14     -3.81     -2.00
   -5   15   14     -0.33      1.70
  -11   15   14     -0.88     -0.83
  -11   14   14      0.25     -4.59
  -11   13   14     -1.54     -4.53
  -11   12   14      1.93     -2.82
  -11   11   14      2.59     -0.33
    0   11   14      0.05      0.06
   -1   12   14      2.42      1.72
   -2   13   14      0.14      2.11
   -3   14   14     -5.39      1.03
   -4   15   14     -0.47      0.90
  -12   14   14     -0.18      1.95
  -12   13   14     -0.42      5.63
  -12   12   14      1.26     -0.52
    0   12   14      1.53      2.41
   -1   13   14     -0.32     -0.18
   -2   14   14     -3.08      0.95
  -13   13   14      0.99     -0.67
    0   13   14     -1.52     -2.06
    0    0   15     10.86      0.15
   -1    1   15     -5.62     -0.04
    0    1   15     -6.65      0.05
   -1    2   15      2.43     -1.96
   -2    3   15      1.90     -3.30
   -2    2   15      8.42      0.18
    0    2   15      9.19     -0.64
   -1    3   15     -2.98     -1.16
   -2    4   15      0.95      8.55
   -3    5   15     -3.28     -2.64
   -3    4   15      7.46     -0.25
   -3    3   15     -4.85      0.09
    0    3   15     -3.80     -0.03
   -1    4   15      7.80     -1.65
   -2    5   15      0.67     -4.02
   -3    6   15      4.78      0.03
   -4    7   15      3.97      1.00
   -4    6   15     -3.88      6.84
   -4    5   15      2.07     -1.63
   -4    4   15      1.83     -0.12
    0    4   15     -0.47      0.13
   -1    5   15      2.56     -2.36
   -2    6   15     -2.71      6.50
   -3    7   15      2.28     -0.45
   -4    8   15      0.50      0.98
   -5    9   15      5.47     -2.67
   -5    8   15      3.39      0.47
   -5    7   15      3.73     -5.19
   -5    6   15      2.88     -0.14
   -5    5   15     -0.03     -0.02
    0    5   15     -1.07      0.56
   -1    6   15      3.60     -2.40
   -2    7   15      1.51     -1.84
   -3    8   15      0.12     -2.29
   -4    9   15      1.47     -1.13
   -5   10   15      1.74      4.62
   -6   11   15      1.15      1.01
   -6   10   15      4.13     -1.19
   -6    9   15      4.28      3.58
   -6    8   15      0.74      0.09
   -6    7   15      1.36      2.28
   -6    6   15     -5.47     -0.21
    0    6   15     -1.39     -0.13
   -1    7   15      3.62      3.21
   -2    8   15      3.95      2.09
   -3    9   15      1.74      2.35
   -4   10   15      1.40     -1.99
   -5   11   15      0.46     -4.31
   -6   12   15      1.34     -1.98
   -7   13   15     -0.67     -1.10
   -7   12   15      1.11      6.14
   -7   11   15      3.18     -3.68
   -7   10   15     -0.83     -2.15
   -7    9   15      3.53     -4.06
   -7    8   15      1.72     -2.46
   -7    7   15      3.81      0.27
    0    7   15     -5.00     -0.10
   -1    8   15      1.60     -3.10
   -2    9   15      0.15     -1.81
   -3   10   15     -3.35      5.21
   -4   11   15      0.24     -1.96
   -5   12   15     -2.70      2.52
   -6   13   15      2.25      1.18
   -7   14   15      1.90     -2.15
   -8   15   15      0.33     -0.24
   -8   14   15     -0.72     -2.27
   -8   13   15     -1.63      0.98
   -8   12   15      1.22     -2.70
   -8   11   15      0.69     -1.83
   -8   10   15      3.86     -5.95
   -8    9   15      1.95      2.55
   -8    8   15      5.25      0.01
    0    8   15      3.48     -0.42
   -1    9   15      2.09      3.20
   -2   10   15      5.98     -0.93
   -3   11   15      0.63     -0.21
   -4   12   15     -2.15     -1.95
   -5   13   15     -2.74     -3.70
   -6   14   15     -1.03      1.61
   -7   15   15     -0.64     -0.58
   -9   15   15      0.56      1.74
   -9   14   15      2.55     -0.30
   -9   13   15      1.40      2.27
   -9   12   15      0.01     -0.38
   -9   11   15     -1.72     -3.91
   -9   10   15      4.62     -6.52
   -9    9   15     -0.18     -0.12
    0    9   15      1.02      0.01
   -1   10   15      3.53     -3.23
   -2   11   15      2.10      1.70
   -3   12   15      2.13      6.23
   -4   13   15      0.86      0.31
   -5   14   15      0.93      1.17
   -6   15   15     -0.49      0.43
  -10   14   15     -0.51     -3.01
  -10   13   15     -2.09      0.77
  -10   12   15     -0.59     -3.26
  -10   11   15      3.35     -2.04
  -10   10   15      7.19      0.12
    0   10   15      5.68     -0.20
   -1   11   15     -3.51      0.95
   -2   12   15      2.56      1.45
   -3   13   15      2.57     -3.04
   -4   14   15     -0.85      0.33
  -11   14   15      2.53     -1.46
  -11   13   15      3.83     -1.09
  -11   12   15      5.64     -4.88
  -11   11   15     -1.16     -0.34
    0   11   15     -3.92     -0.10
   -1   12   15     -0.16      1.02
   -2   13   15      3.93     -0.82
   -3   14   15      2.05      0.16
  -12   14   15      4.66     -0.81
  -12   13   15      2.27     -0.45
  -12   12   15      1.52     -0.46
    0   12   15     -0.43      0.13
   -1   13   15      3.30     -1.60
   -2   14   15      0.33     -1.25
  -13   13   15     -0.93     -0.18
    0   13   15      7.51      0.03
   -1    1   16      2.59      0.06
    0    1   16     -3.01      5.04
   -1    2   16      2.12     -6.27
   -2    3   16      0.29      1.51
   -2    2   16      1.05      0.02
    0    2   16     -3.77      7.67
   -1    3   16     -3.08     -2.26
   -2    4   16     -1.78      2.13
   -3    5   16     -0.49     -0.64
   -3    4   16     -2.06     -4.06
   -3    3   16     -5.77      0.71
    0    3   16      1.02     -1.85
   -1    4   16      1.47     -2.99
   -2    5   16      3.26     -1.29
   -3    6   16     -3.93      0.49
   -4    7   16     -2.65      3.69
   -4    6   16      1.43     -4.05
   -4    5   16     -4.89      0.08
   -4    4   16      2.50      0.15
    0    4   16     -3.14      5.13
   -1    5   16     -0.29     -1.36
   -2    6   16     -0.43     -1.12
   -3    7   16      2.95      0.32
   -4    8   16     -0.65     -3.85
   -5    9   16      0.95     -2.00
   -5    8   16     -0.51      3.97
   -5    7   16     -0.92      0.97
   -5    6   16     -4.18     -0.15
   -5    5   16     -0.51     -0.36
    0    5   16      1.80     -2.93
   -1    6   16     -1.17      2.49
   -2    7   16      2.80      1.50
   -3    8   16     -2.49      6.34
   -4    9   16     -2.32      0.39
   -5   10   16      1.23     -0.45
   -6   11   16     -0.36     -2.34
   -6   10   16      0.37     -1.48
   -6    9   16     -1.47      0.42
   -6    8   16     -0.81     -1.56
   -6    7   16     -2.05      3.74
   -6    6   16      2.95      0.13
    0    6   16      1.03     -1.94
   -1    7   16     -0.71      0.85
   -2    8   16     -2.12     -3.43
   -3    9   16      1.52      0.50
   -4   10   16     -2.73     -1.42
   -5   11   16     -0.50     -0.12
   -6   12   16     -1.63     -2.21
   -7   13   16     -2.90      4.67
   -7   12   16      0.80     -1.26
   -7   11   16     -3.26      1.72
   -7   10   16      5.63      5.04
   -7    9   16     -4.79     -3.56
   -7    8   16      0.10     -0.92
   -7    7   16     -3.72      0.05
    0    7   16      2.02     -2.70
   -1    8   16     -5.75      2.40
   -2    9   16      3.11     -0.27
   -3   10   16     -0.82      5.24
   -4   11   16      0.84      3.89
   -5   12   16      0.71     -2.63
   -6   13   16     -3.52     -0.38
   -7   14   16     -1.49      0.91
   -8   14   16     -0.39      0.58
   -8   13   16     -2.14     -2.03
   -8   12   16     -4.55      1.03
   -8   11   16      0.17     -1.26
   -8   10   16      0.65     -1.79
   -8    9   16     -0.35      0.95
   -8    8   16      7.68      0.22
    0    8   16      0.58      0.02
   -1    9   16     -1.24      4.20
   -2   10   16     -0.02      0.11
   -3   11   16     -0.72     -0.86
   -4   12   16     -1.69      0.59
   -5   13   16     -5.49      1.48
   -6   14   16     -0.37      1.43
   -9   14   16     -1.97      0.50
   -9   13   16     -1.06      3.49
   -9   12   16      1.85      0.40
   -9   11   16      0.21     -3.97
   -9   10   16      3.64      1.99
   -9    9   16      0.86     -0.05
    0    9   16     -0.88      2.00
   -1   10   16      0.92      0.64
   -2   11   16      1.52      0.34
   -3   12   16     -0.68      1.30
   -4   13   16      1.25      3.56
   -5   14   16      1.23     -1.04
  -10   14   16      2.99      2.78
  -10   13   16     -1.86     -3.73
  -10   12   16     -3.77     -4.81
  -10   11   16      4.34     -2.77
  -10   10   16      5.74      0.03
    0   10   16      0.92     -1.52
   -1   11   16     -1.01     -6.51
   -2   12   16     -4.22      0.26
   -3   13   16      1.83      1.59
   -4   14   16      1.95      0.84
  -11   14   16      0.03     -2.29
  -11   13   16      1.42     -2.84
  -11   12   16      3.21      0.20
  -11   11   16      8.66      0.01
    0   11   16      0.72     -1.82
   -1   12   16      0.29      2.19
   -2   13   16      0.52     -0.25
   -3   14   16      0.32     -1.76
  -12   13   16     -0.30      1.71
  -12   12   16      0.07     -0.46
    0   12   16     -4.76      8.42
   -1   13   16     -0.79      0.34
   -1    1   17     -4.57      0.02
    0    1   17      0.28      0.66
   -1    2   17      0.64     -2.74
   -2    3   17      2.29     -3.90
   -2    2   17      8.62     -0.07
    0    2   17      3.64      6.57
   -1    3   17     -0.74      1.47
   -2    4   17      3.48      3.83
   -3    5   17      2.41      2.48
   -3    4   17     -0.75      3.09
   -3    3   17      0.07      0.18
    0    3   17      1.44      2.64
   -1    4   17     -0.24      3.29
   -2    5   17     -3.30      1.63
   -3    6   17     -0.55      4.13
   -4    7   17     -4.46     -0.94
   -4    6   17     -2.13      1.36
   -4    5   17     -1.09     -3.75
   -4    4   17      2.41      1.79
    0    4   17     -0.91     -2.25
   -1    5   17     -0.58     -0.03
   -2    6   17     -1.47      0.21
   -3    7   17     -0.38     -1.60
   -4    8   17     -1.33      0.48
   -5    9   17     -1.95     -0.34
   -5    8   17      3.53      1.98
   -5    7   17      1.19     -5.37
   -5    6   17      0.18      2.01
   -5    5   17      2.58      0.32
    0    5   17      0.26      0.89
   -1    6   17      1.52      2.10
   -2    7   17     -0.06     -0.03
   -3    8   17      4.25      1.25
   -4    9   17     -0.54     -0.90
   -5   10   17      1.22      0.92
   -6   11   17      1.96     -1.14
   -6   10   17     -0.97     -0.18
   -6    9   17     -2.02      3.22
   -6    8   17     -1.89      2.49
   -6    7   17      2.25      1.42
   -6    6   17     -7.14     -0.03
    0    6   17     -0.84     -1.42
   -1    7   17      4.40     -0.86
   -2    8   17     -1.48     -1.17
   -3    9   17     -3.08      0.40
   -4   10   17     -0.94      4.69
   -5   11   17     -3.74      2.73
   -6   12   17      1.38      1.96
   -7   13   17     -1.66     -0.35
   -7   12   17      1.61     -1.92
   -7   11   17      0.25     -1.47
   -7   10   17     -0.01     -4.99
   -7    9   17     -0.95      1.08
   -7    8   17      3.92     -4.83
   -7    7   17     -1.17      0.04
    0    7   17      1.70      3.13
   -1    8   17     -3.94      0.02
   -2    9   17     -1.51      1.17
   -3   10   17      0.87     -1.96
   -4   11   17      1.63      0.32
   -5   12   17      0.07     -1.73
   -6   13   17      3.92     -1.34
   -7   14   17     -5.58      3.10
   -8   14   17     -0.70      3.32
   -8   13   17      1.60     -1.96
   -8   12   17      3.31     -0.54
   -8   11   17     -0.98     -0.87
   -8   10   17     -2.07     -1.28
   -8    9   17      4.02     -2.47
   -8    8   17     -5.13      0.11
    0    8   17     -0.52      0.14
   -1    9   17     -1.31     -1.08
   -2   10   17      0.08      2.90
   -3   11   17      0.91      2.04
   -4   12   17      0.54      0.74
   -5   13   17      0.15      3.82
   -6   14   17     -2.38      3.78
   -9   14   17     -1.80      0.07
   -9   13   17     -4.16      0.23
   -9   12   17     -1.78     -0.99
   -9   11   17      1.98      1.00
   -9   10   17      1.61     -2.87
   -9    9   17      3.32      0.12
    0    9   17      1.76      2.99
   -1   10   17      0.36     -0.20
   -2   11   17      1.97      1.53
   -3   12   17     -3.41     -2.29
   -4   13   17      0.02      1.91
   -5   14   17     -1.61      0.19
  -10   14   17     -0.99      0.75
  -10   13   17     -2.30      2.06
  -10   12   17      4.17     -2.25
  -10   11   17     -0.32      0.45
  -10   10   17     -4.61      0.01
    0   10   17     -0.19     -0.31
   -1   11   17     -0.17     -0.11
   -2   12   17      0.64     -0.52
   -3   13   17     -0.33     -1.19
   -4   14   17      1.31      0.94
  -11   13   17      3.30     -2.46
  -11   12   17      2.17     -4.04
  -11   11   17      3.83      0.34
    0   11   17     -0.88     -1.42
   -1   12   17     -1.54     -1.09
   -2   13   17     -1.96      1.04
  -12   13   17      0.65      3.11
  -12   12   17      2.61     -0.05
    0   12   17     -1.07     -2.02
   -1   13   17     -1.54      4.23
    0    0   18      3.69      0.72
   -1    1   18     -2.90     -0.22
    0    1   18     -7.16     -0.05
   -1    2   18     -4.31      4.83
   -2    3   18     -2.99     -1.38
   -2    2   18      0.28      0.46
    0    2   18     -1.26      0.16
   -1    3   18     -1.16     -1.57
   -2    4   18     -5.43      1.62
   -3    5   18     -2.88     -1.34
   -3    4   18      1.53     -1.84
   -3    3   18      3.26     -0.21
    0    3   18     -2.42      0.16
   -1    4   18      5.15     -0.45
   -2    5   18      0.44     -1.69
   -3    6   18      2.43     -0.09
   -4    7   18      1.15      1.61
   -4    6   18     -3.40      1.83
   -4    5   18      1.00      2.05
   -4    4   18     -1.48      0.03
    0    4   18      0.91     -0.01
   -1    5   18      1.14     -4.42
   -2    6   18     -1.37      5.45
   -3    7   18     -2.38      5.39
   -4    8   18     -1.80      0.87
   -5    9   18     -2.04      3.45
   -5    8   18     -0.49     -7.07
   -5    7   18     -1.73     -0.63
   -5    6   18      5.56     -2.10
   -5    5   18     -1.81      0.75
    0    5   18     -3.05      0.07
   -1    6   18     -2.63      2.51
   -2    7   18      2.47     -1.37
   -3    8   18     -2.53     -2.41
   -4    9   18     -0.95     -4.58
   -5   10   18     -1.04     -2.18
   -6   11   18     -3.62     -0.90
   -6   10   18      0.77     -1.33
   -6    9   18      2.32     -0.20
   -6    8   18     -3.08     -5.97
   -6    7   18      4.91      5.01
   -6    6   18     -3.27      0.17
    0    6   18     -2.17      0.25
   -1    7   18     -1.68     -1.38
   -2    8   18      1.20      2.05
   -3    9   18     -1.76     -0.48
   -4   10   18      1.20     -1.86
   -5   11   18      2.13     -0.24
   -6   12   18     -1.02      3.35
   -7   13   18     -0.38     -4.45
   -7   12   18     -2.81      3.41
   -7   11   18     -6.37      2.22
   -7   10   18     -1.08     -2.62
   -7    9   18     -1.13      1.99
   -7    8   18      0.76      1.82
   -7    7   18      1.79      0.06
    0    7   18      3.12     -0.22
   -1    8   18      1.09      0.05
   -2    9   18      2.18     -2.54
   -3   10   18     -2.73      1.84
   -4   11   18      3.00      0.83
   -5   12   18     -0.19     -0.42
   -6   13   18      1.63     -1.55
   -7   14   18      0.42      0.12
   -8   13   18      1.50     -2.55
   -8   12   18      2.08     -2.78
   -8   11   18     -2.71     -6.19
   -8   10   18      3.85     -6.58
   -8    9   18      1.29      0.32
   -8    8   18      1.86     -0.26
    0    8   18      2.95     -0.09
   -1    9   18      1.34      2.54
   -2   10   18      0.44      0.51
   -3   11   18      0.76      0.17
   -4   12   18     -1.69     -1.53
   -5   13   18      1.40     -5.39
   -9   13   18      4.56     -0.10
   -9   12   18      0.56     -3.56
   -9   11   18      0.71      0.81
   -9   10   18      3.72     -0.99
   -9    9   18      2.54      0.10
    0    9   18      0.16      0.28
   -1   10   18      2.77     -4.74
   -2   11   18      0.90      0.95
   -3   12   18      2.29      1.79
   -4   13   18     -1.20     -1.42
  -10   13   18     -4.05     -4.54
  -10   12   18     -1.44      0.91
  -10   11   18      1.18      1.52
  -10   10   18      4.57     -0.22
    0   10   18      1.79     -0.47
   -1   11   18      1.98     -0.77
   -2   12   18      2.09      2.77
   -3   13   18     -0.06      0.92
  -11   13   18      1.75     -0.77
  -11   12   18      2.62      0.56
  -11   11   18     -1.31     -0.19
    0   11   18     -1.92     -0.48
   -1   12   18      1.27     -1.20
   -2   13   18     -2.66      1.52
  -12   12   18     -3.95     -0.44
    0   12   18     -1.42      0.17
   -1    1   19     -1.00      0.15
    0    1   19      0.82     -0.78
   -1    2   19      3.03     -5.24
   -2    3   19      3.16      2.28
   -2    2   19     -4.06     -0.25
    0    2   19      0.26     -0.80
   -1    3   19     -0.82      4.06
   -2    4   19      1.46      0.33
   -3    5   19     -3.04      5.67
   -3    4   19      7.37     -5.18
   -3    3   19     -5.78      0.38
    0    3   19      0.70     -0.81
   -1    4   19      5.39      0.36
   -2    5   19      3.66     -3.34
   -3    6   19      3.13      2.11
   -4    7   19     -1.38     -0.84
   -4    6   19     -0.91     -3.46
   -4    5   19      1.45     -1.19
   -4    4   19      0.09      0.02
    0    4   19      0.43     -0.18
   -1    5   19     -0.78      0.53
   -2    6   19      0.70     -3.68
   -3    7   19      2.78      3.48
   -4    8   19      0.94     -1.55
   -5    9   19      2.89      1.04
   -5    8   19     -0.74      4.17
   -5    7   19      4.79     -0.19
   -5    6   19      1.63      0.63
   -5    5   19     -0.41     -0.08
    0    5   19      2.77     -4.63
   -1    6   19      0.42     -1.67
   -2    7   19      2.03     -1.96
   -3    8   19      3.50      2.98
   -4    9   19      0.12      3.68
   -5   10   19     -2.58      2.07
   -6   11   19      1.63      2.17
   -6   10   19      0.61      1.23
   -6    9   19     -2.54     -1.43
   -6    8   19      5.46     -2.48
   -6    7   19      2.40     -2.11
   -6    6   19     -0.94     -0.03
    0    6   19     -2.78      4.38
   -1    7   19      0.86      3.86
   -2    8   19     -3.05      4.07
   -3    9   19     -0.94      3.78
   -4   10   19     -4.69      0.66
   -5   11   19     -0.49     -0.58
   -6   12   19      3.85      0.87
   -7   13   19     -3.20      4.93
   -7   12   19     -3.47      0.87
   -7   11   19     -4.27     -0.09
   -7   10   19      1.60      0.82
   -7    9   19      2.80     -1.02
   -7    8   19      3.62     -0.44
   -7    7   19     -2.81      0.32
    0    7   19      0.12     -0.43
   -1    8   19     -2.24     -2.30
   -2    9   19      0.72      2.85
   -3   10   19     -1.24      0.65
   -4   11   19     -2.18      5.20
   -5   12   19      4.61     -0.29
   -6   13   19     -0.46      0.70
   -8   13   19     -0.30     -1.06
   -8   12   19    -11.49      1.81
   -8   11   19     -1.15     -3.78
   -8   10   19     -1.16      0.19
   -8    9   19     -3.09      1.92
   -8    8   19      2.23      0.17
    0    8   19     -2.28      3.42
   -1    9   19      1.49      0.45
   -2   10   19      2.02     -0.97
   -3   11   19      1.69     -3.57
   -4   12   19     -1.08     -0.91
   -5   13   19     -4.81     -0.98
   -9   13   19     -2.18      1.18
   -9   12   19      1.48     -1.28
   -9   11   19      3.66     -9.61
   -9   10   19     -0.78      1.43
   -9    9   19     -1.15      0.06
    0    9   19     -0.17      0.91
   -1   10   19     -0.94      0.08
   -2   11   19      1.81     -0.16
   -3   12   19     -1.68      2.47
   -4   13   19     -1.85      1.89
  -10   12   19     -2.57     -2.03
  -10   11   19     -1.26     -0.31
  -10   10   19     -4.10      0.15
    0   10   19     -1.39      2.40
   -1   11   19     -1.59     -6.53
   -2   12   19     -1.65     -5.73
  -11   12   19     -1.82      2.74
  -11   11   19      0.45      0.10
    0   11   19      2.17     -3.33
   -1   12   19      1.46     -2.58
   -1    1   20     -4.14      0.15
    0    1   20      0.44      0.04
   -1    2   20      6.68     -3.29
   -2    3   20      0.23     -3.12
   -2    2   20     -2.28     -0.17
    0    2   20     -1.64     -2.74
   -1    3   20     -0.59      0.31
   -2    4   20     -0.90     -0.41
   -3    5   20      2.11     -1.12
   -3    4   20      1.02      2.45
   -3    3   20     -1.24     -0.23
    0    3   20     -2.05     -3.52
   -1    4   20      2.54     -1.93
   -2    5   20      1.13     -3.52
   -3    6   20     -0.57      1.56
   -4    7   20     -0.64     -1.04
   -4    6   20     -0.91      3.31
   -4    5   20      0.78     -1.67
   -4    4   20     -2.14      0.44
    0    4   20     -2.09     -3.32
   -1    5   20     -4.74     -1.21
   -2    6   20      3.59     -1.88
   -3    7   20     -0.63     -1.88
   -4    8   20      0.17     -1.48
   -5    9   20      1.00     -4.04
   -5    8   20     -3.23     -1.18
   -5    7   20      1.74     -4.91
   -5    6   20     -0.78      1.14
   -5    5   20      4.04      0.28
    0    5   20     -0.88     -1.83
   -1    6   20     -2.07     -2.82
   -2    7   20      0.16     -5.90
   -3    8   20     -6.44     -1.53
   -4    9   20      1.87     -4.25
   -5   10   20     -0.79     -0.61
   -6   11   20      3.62      0.76
   -6   10   20     -0.55     -1.61
   -6    9   20     -0.98     -2.87
   -6    8   20      0.40     -0.30
   -6    7   20     -0.98      5.81
   -6    6   20     -0.40      0.15
    0    6   20      0.96      1.07
   -1    7   20     -0.78     -0.87
   -2    8   20      3.44     -4.56
   -3    9   20     -1.23     -3.86
   -4   10   20      2.61     -3.11
   -5   11   20     -6.63      0.91
   -6   12   20     -0.86      0.50
   -7   13   20     -1.75      1.95
   -7   12   20      2.17      3.47
   -7   11   20      2.57      1.18
   -7   10   20      0.20      1.98
   -7    9   20      2.94     -1.15
   -7    8   20      1.88     -1.81
   -7    7   20      0.76      0.09
    0    7   20     -0.60     -1.11
   -1    8   20     -0.13     -0.35
   -2    9   20     -0.12      2.29
   -3   10   20      4.39      3.16
   -4   11   20      1.69      0.85
   -5   12   20      0.71     -0.12
   -6   13   20      4.29     -6.46
   -8   12   20     -3.92     -0.79
   -8   11   20      0.81     -2.52
   -8   10   20      0.70      4.66
   -8    9   20      3.84     -2.88
   -8    8   20      0.50      0.35
    0    8   20      0.73      1.23
   -1    9   20     -2.36     -0.16
   -2   10   20     -0.17     -1.22
   -3   11   20      1.69     -2.36
   -4   12   20      1.88     -0.47
   -9   12   20     -1.40     -2.38
   -9   11   20      2.51      4.28
   -9   10   20      6.31      3.21
   -9    9   20     -0.93      0.27
    0    9   20      2.27      3.35
   -1   10   20      2.37      3.02
   -2   11   20      1.57      0.50
   -3   12   20      1.39     -1.30
  -10   12   20      3.03     -0.01
  -10   11   20      4.14      0.84
  -10   10   20     -3.18      0.14
    0   10   20      1.13      2.03
   -1   11   20      0.94      3.08
   -2   12   20      2.34     -2.39
  -11   11   20     -5.08     -0.13
    0   11   20      3.55     10.25
    0    0   21      1.53     -0.22
   -1    1   21      3.84      0.14
    0    1   21     -0.35     -0.09
   -1    2   21     -3.13      3.65
   -2    3   21      1.04      2.50
   -2    2   21      5.30      0.15
    0    2   21     -7.91     -0.50
   -1    3   21     -1.80     -0.11
   -2    4   21      1.08     -3.22
   -3    5   21      1.58     -1.27
   -3    4   21     -2.97     -1.40
   -3    3   21      0.74     -0.04
    0    3   21      0.88     -0.49
   -1    4   21     -3.60     -1.49
   -2    5   21      0.01     -2.92
   -3    6   21     -2.59     -2.45
   -4    7   21     -1.61      1.26
   -4    6   21     -1.15     -2.12
   -4    5   21     -3.48      2.40
   -4    4   21     -1.63     -0.12
    0    4   21      0.07     -0.14
   -1    5   21     -1.75      0.61
   -2    6   21     -1.77     -0.93
   -3    7   21      4.68      0.46
   -4    8   21      0.13     -0.62
   -5    9   21     -1.52      2.21
   -5    8   21     -0.72     -2.41
   -5    7   21      0.29      2.50
   -5    6   21     -1.93     -0.06
   -5    5   21     -5.13      0.06
    0    5   21      0.46     -0.23
   -1    6   21     -6.93      2.61
   -2    7   21      2.72      2.10
   -3    8   21      1.16      1.15
   -4    9   21     -2.12      3.18
   -5   10   21      2.38     -4.04
   -6   11   21     -1.80     -5.63
   -6   10   21      1.35     -1.13
   -6    9   21      1.85     -1.57
   -6    8   21      1.71     -2.02
   -6    7   21      0.03     -0.45
   -6    6   21     -1.91      0.13
    0    6   21      1.22      0.07
   -1    7   21     -1.18     -1.03
   -2    8   21      1.70      2.57
   -3    9   21     -2.52      0.53
   -4   10   21      0.28     -0.53
   -5   11   21      1.16     -3.55
   -6   12   21      1.22      1.81
   -7   12   21      3.17     -2.17
   -7   11   21     -4.12      1.59
   -7   10   21      1.96     -2.88
   -7    9   21     -5.46      1.18
   -7    8   21     -2.12      5.53
   -7    7   21     -3.94      0.09
    0    7   21      3.61     -0.06
   -1    8   21     -1.15      0.35
   -2    9   21      1.31     -0.68
   -3   10   21     -4.00      0.83
   -4   11   21      3.80      0.93
   -5   12   21      1.22      0.49
   -8   12   21      2.04     -0.67
   -8   11   21      2.78     -1.89
   -8   10   21     -2.61     -6.73
   -8    9   21     -1.10     -1.41
   -8    8   21     -0.24     -0.13
    0    8   21     -1.48     -0.54
   -1    9   21      0.00      1.19
   -2   10   21     -3.80      1.79
   -3   11   21      0.87     -1.40
   -4   12   21      1.52     -1.20
   -9   11   21     -3.25      1.35
   -9   10   21     -1.25     -0.21
   -9    9   21     -0.69      0.02
    0    9   21      2.14      0.09
   -1   10   21     -1.81      2.28
   -2   11   21      0.97      2.72
  -10   11   21     -0.31      4.47
  -10   10   21     -0.73      0.04
    0   10   21     -4.26     -3.52
   -1   11   21     -0.44      2.57
   -1    1   22      1.78     -0.19
    0    1   22      3.50     -5.44
   -1    2   22     -1.22     -7.93
   -2    3   22     -0.15     -0.68
   -2    2   22     -3.26      0.24
    0    2   22      4.34     -7.49
   -1    3   22      0.93      1.12
   -2    4   22      4.10      0.70
   -3    5   22      2.96      1.38
   -3    4   22      5.39      2.09
   -3    3   22      5.13      0.10
    0    3   22     -0.46      0.62
   -1    4   22      0.26      0.23
   -2    5   22     -3.21     -6.00
   -3    6   22     -0.50      1.32
   -4    7   22     -1.57     -0.01
   -4    6   22      1.55      0.19
   -4    5   22      2.67     -0.62
   -4    4   22     -3.11      0.23
    0    4   22      1.46     -3.13
   -1    5   22     -2.04      0.17
   -2    6   22     -0.53      1.31
   -3    7   22     -4.49     -0.19
   -4    8   22     -1.63      2.24
   -5    9   22     -4.82     -1.29
   -5    8   22     -3.49      1.85
   -5    7   22     -1.97     -1.30
   -5    6   22     -3.13      3.00
   -5    5   22      0.93      0.18
    0    5   22      0.99     -1.78
   -1    6   22     -0.15     -0.48
   -2    7   22     -6.23     -0.40
   -3    8   22      2.18      0.08
   -4    9   22     -2.53      3.89
   -5   10   22      0.76      4.19
   -6   11   22      1.56      0.79
   -6   10   22      1.12      0.88
   -6    9   22     -1.19     -0.12
   -6    8   22      0.93      0.28
   -6    7   22     -2.15     -1.84
   -6    6   22     -2.12      0.02
    0    6   22     -1.75      2.83
   -1    7   22      0.51      1.60
   -2    8   22     -0.03      2.33
   -3    9   22     -0.60     -0.86
   -4   10   22     -1.71      1.56
   -5   11   22     -0.74      0.06
   -7   11   22     -1.59     -1.45
   -7   10   22     -0.02      1.98
   -7    9   22      1.96      3.33
   -7    8   22     -1.42      1.58
   -7    7   22     -1.17      0.12
    0    7   22     -0.68      1.40
   -1    8   22      2.47     -4.95
   -2    9   22     -0.11     -0.87
   -3   10   22      0.97     -0.73
   -4   11   22     -3.66      0.30
   -8   11   22      0.09      1.15
   -8   10   22     -2.86      1.82
   -8    9   22     -0.56      1.29
   -8    8   22     -5.61      0.18
    0    8   22     -0.61     -0.02
   -1    9   22     -0.72     -1.41
   -2   10   22     -1.39      4.54
   -3   11   22     -2.70      2.98
   -9   11   22     -0.35     -2.81
   -9   10   22      0.86     -3.71
   -9    9   22      4.54     -0.09
    0    9   22      2.31     -2.76
   -1   10   22     -0.22     -2.24
   -2   11   22     -2.68      1.53
  -10   10   22     -4.25      0.09
    0   10   22     -0.66      1.31
   -1    1   23      8.22     -0.17
    0    1   23     -0.97     -0.63
   -1    2   23      2.56      1.70
   -2    3   23     -1.07     -3.41
   -2    2   23     -1.56      0.01
    0    2   23     -2.73     -4.28
   -1    3   23      1.33     -0.20
   -2    4   23     -0.58     -1.75
   -3    5   23      1.19     -1.68
   -3    4   23     -1.08     -0.65
   -3    3   23      0.14     -0.08
    0    3   23     -0.04     -0.32
   -1    4   23     -0.25     -4.87
   -2    5   23      0.55      0.82
   -3    6   23     -0.45     -4.93
   -4    7   23      0.40     -1.66
   -4    6   23      3.52      0.15
   -4    5   23      0.47      1.14
   -4    4   23     -2.12     -0.07
    0    4   23      0.31      0.49
   -1    5   23     -2.37     -1.46
   -2    6   23      3.34      1.11
   -3    7   23      0.97     -3.54
   -4    8   23      0.52     -2.36
   -5    9   23     -0.84      2.38
   -5    8   23     -1.10      1.40
   -5    7   23     -0.86      0.95
   -5    6   23      0.72     -0.75
   -5    5   23     -2.26      0.10
    0    5   23      0.91      1.50
   -1    6   23     -3.22     -4.22
   -2    7   23      0.52     -0.99
   -3    8   23     -3.59     -0.26
   -4    9   23      1.09      2.67
   -5   10   23     -4.99      1.72
   -6   11   23      2.93      1.31
   -6   10   23     -1.92     -1.11
   -6    9   23     -0.54     -0.76
   -6    8   23     -1.89     -0.87
   -6    7   23     -3.29      0.09
   -6    6   23      1.91      0.30
    0    6   23      1.68      2.37
   -1    7   23     -0.42      1.02
   -2    8   23      0.64     -0.11
   -3    9   23      3.13      1.89
   -4   10   23      1.37     -1.70
   -5   11   23      3.63     -2.43
   -7   10   23      0.14     -1.02
   -7    9   23     -1.63      0.92
   -7    8   23     -0.48     -5.31
   -7    7   23     -0.32     -0.15
    0    7   23     -0.38     -1.10
   -1    8   23      2.64     -2.30
   -2    9   23     -1.55     -1.83
   -3   10   23     -2.37      0.19
   -8   10   23     -1.39      0.70
   -8    9   23     -3.41      1.31
   -8    8   23     -2.75      0.03
    0    8   23     -0.21     -0.79
   -1    9   23     -0.07     -2.21
   -2   10   23     -0.93     -4.21
   -9   10   23     -0.10     -1.76
   -9    9   23     -7.11      0.04
    0    9   23     -2.12     -3.04
   -1   10   23      1.80     -0.64
    0    0   24      0.83     -0.02
   -1    1   24     -3.01     -0.05
    0    1   24      4.68      0.02
   -1    2   24     -3.06      0.31
   -2    3   24      1.73     -1.49
   -2    2   24      0.81     -0.03
    0    2   24     -3.58      0.65
   -1    3   24     -4.72      0.96
   -2    4   24      0.24      0.25
   -3    5   24      0.35      1.95
   -3    4   24     -0.47      2.28
   -3    3   24     -2.46      0.21
    0    3   24      5.01     -0.05
   -1    4   24     -1.20     -0.44
   -2    5   24     -3.15     -4.19
   -3    6   24     -0.52      4.83
   -4    7   24      0.80     -0.06
   -4    6   24      0.99     -1.26
   -4    5   24     -1.24      0.54
   -4    4   24      2.77      0.02
    0    4   24      0.33     -0.19
   -1    5   24      3.39      1.45
   -2    6   24     -0.58     -0.25
   -3    7   24      3.57     -0.85
   -4    8   24      0.99     -5.94
   -5    9   24     -1.13     -2.35
   -5    8   24      1.16     -0.20
   -5    7   24      1.08      1.08
   -5    6   24     -0.02      0.57
   -5    5   24      1.52     -0.03
    0    5   24     -4.91     -0.14
   -1    6   24      1.23      1.55
   -2    7   24     -3.49     -1.74
   -3    8   24     -2.18     -1.85
   -4    9   24     -1.70      0.15
   -5   10   24      0.50      3.80
   -6   10   24     -0.42      3.38
   -6    9   24      2.14      3.20
   -6    8   24     -2.98      1.03
   -6    7   24     -1.27      1.01
   -6    6   24      2.39      0.14
    0    6   24      0.92      0.31
   -1    7   24      2.06      1.01
   -2    8   24     -1.45     -1.67
   -3    9   24     -0.22     -3.26
   -4   10   24     -0.05      0.20
   -7   10   24      4.10      3.21
   -7    9   24     -0.13     -0.25
   -7    8   24      0.89      0.68
   -7    7   24      7.97      0.11
    0    7   24     -2.39     -0.05
   -1    8   24      1.30     -1.07
   -2    9   24      3.68     -2.37
   -3   10   24      0.92     -0.45
   -8    9   24      2.39      1.97
   -8    8   24      5.17     -0.13
    0    8   24     -1.85      0.03
   -1    9   24      1.11     -0.33
   -1    1   25      2.07      0.13
    0    1   25      1.51     -3.22
   -1    2   25      4.03     -1.18
   -2    3   25     -3.00      1.03
   -2    2   25      0.26     -0.12
    0    2   25      0.91     -1.47
   -1    3   25     -2.24      1.22
   -2    4   25      3.94      2.73
   -3    5   25     -0.96     -0.49
   -3    4   25     -0.36     -1.03
   -3    3   25     -0.56      0.05
    0    3   25     -3.59      6.79
   -1    4   25      0.56      1.63
   -2    5   25     -1.29      2.16
   -3    6   25     -2.76      1.97
   -4    7   25      4.52      6.40
   -4    6   25      1.71      1.20
   -4    5   25      0.85      0.04
   -4    4   25     -2.28      0.01
    0    4   25      0.07     -0.66
   -1    5   25     -2.12     -0.83
   -2    6   25      7.00      3.22
   -3    7   25      0.58      0.33
   -4    8   25      2.39      0.54
   -5    9   25     -1.86     -6.76
   -5    8   25      1.33     -0.16
   -5    7   25      1.30     -0.57
   -5    6   25     -0.57      1.05
   -5    5   25      2.44      0.00
    0    5   25     -0.53      0.88
   -1    6   25     -3.12      0.13
   -2    7   25      2.06      2.43
   -3    8   25      0.81     -0.93
   -4    9   25      0.63     -0.93
   -6    9   25      1.04      0.29
   -6    8   25     -0.52     -0.04
   -6    7   25      1.02     -4.22
   -6    6   25      0.77     -0.16
    0    6   25      0.89     -1.74
   -1    7   25      1.58      3.34
   -2    8   25      1.73      2.37
   -3    9   25     -1.61     -1.08
   -7    8   25     -2.04     -0.40
   -7    7   25     -1.01      0.13
    0    7   25     -0.20      0.27
   -1    8   25     -0.66      1.47
   -8    8   25     -2.75     -0.05
    0    8   25     -0.04      0.01
   -1    1   26     -1.69      0.11
    0    1   26      1.09      1.21
   -1    2   26      1.35     -1.50
   -2    3   26      4.29     -3.00
   -2    2   26      1.31      0.10
    0    2   26     -1.30     -2.19
   -1    3   26     -0.83     -1.07
   -2    4   26     -1.06     -1.38
   -3    5   26     -0.42     -0.34
   -3    4   26     -1.58      0.61
   -3    3   26     -0.24      0.01
    0    3   26      0.36     -0.14
   -1    4   26     -0.77     -2.77
   -2    5   26      0.65     -0.63
   -3    6   26     -2.87     -0.95
   -4    7   26      0.80      1.60
   -4    6   26     -0.92     -1.48
   -4    5   26      1.26     -1.19
   -4    4   26     -2.91     -0.15
    0    4   26      2.69      4.70
   -1    5   26      2.15     -2.67
   -2    6   26     -0.14      0.70
   -3    7   26      3.44     -1.89
   -4    8   26      0.52      1.00
   -5    8   26      2.50      2.78
   -5    7   26     -1.61      0.10
   -5    6   26     -0.02      1.17
   -5    5   26     -3.10     -0.05
    0    5   26      0.01      0.16
   -1    6   26     -4.12     -2.62
   -2    7   26      1.31      1.42
   -3    8   26      2.52      0.45
   -6    8   26      0.38     -1.79
   -6    7   26      1.44      0.20
   -6    6   26      4.25     -0.07
    0    6   26      1.61      2.47
   -1    7   26      0.36     -0.93
   -2    8   26     -1.72      2.27
   -7    7   26      1.79     -0.21
    0    7   26     -1.43     -2.82
    0    0   27      1.81      0.08
   -1    1   27     -5.79     -0.05
    0    1   27      0.95     -0.25
   -1    2   27     -2.26      2.82
   -2    3   27      4.33     -2.86
   -2    2   27     -2.74      0.01
    0    2   27     -1.61      0.29
   -1    3   27     -3.72      2.03
   -2    4   27      0.92      1.60
   -3    5   27     -0.85     -3.11
   -3    4   27      3.76      2.27
   -3    3   27      0.01      0.23
    0    3   27      1.52      0.05
   -1    4   27     -2.40      0.89
   -2    5   27     -0.18     -2.63
   -3    6   27      0.38      1.43
   -4    7   27     -0.58      0.45
   -4    6   27     -0.81     -1.89
   -4    5   27     -0.14      0.12
   -4    4   27      2.53     -0.02
    0    4   27     -1.35      0.07
   -1    5   27      0.48      1.12
   -2    6   27     -1.91     -1.40
   -3    7   27     -0.59     -1.88
   -5    6   27      0.02      0.24
   -5    5   27      0.34     -0.13
    0    5   27     -2.28      0.06
   -1    6   27     -0.85     -1.41
   -6    6   27     -0.15     -0.08
    0    6   27      1.69      0.10
   -1    1   28     -1.52      0.02
    0    1   28      3.75     -6.22
   -1    2   28      2.03      2.59
   -2    3   28     -2.11      0.00
   -2    2   28     -5.57      0.05
    0    2   28     -2.06      3.22
   -1    3   28     -3.01     -0.48
   -2    4   28     -0.62      2.77
   -3    5   28      0.14     -1.76
   -3    4   28      1.83     -3.86
   -3    3   28     -6.30      0.14
    0    3   28      1.61     -2.76
   -1    4   28      1.20     -2.00
   -2    5   28      0.15      1.40
   -4    5   28      1.76      0.62
   -4    4   28      0.37      0.22
    0    4   28     -2.07      3.99
   -1    5   28      1.55     -1.25
   -1    1   29     -6.69     -0.12
    0    1   29      1.03      1.26
   -1    2   29      1.66     -6.17
   -2    3   29      1.49      1.74
   -2    2   29      4.64      0.05
    0    2   29      1.91      3.60
   -1    3   29     -2.79      0.09
   -4   17    0      0.80     -4.71
  -13   17    1      0.27      0.17
   -4   17    1     -0.56      0.18
  -13   17    2     -1.98      0.60
   -4   17    2     -1.54     -1.21
  -13   17    3      1.01     -2.48
   -4   17    3      2.76     -2.33
  -14   16    6      1.26      0.89
   -2   16    6     -0.32      0.21
  -12   17    6      0.38      0.67
   -5   17    6     -0.04      1.96
  -15   15    7      4.10      0.01
    0   15    7     -1.09      1.87
  -11   17    7      0.82     -0.33
   -6   17    7     -0.54      0.92
  -10   17    8     -1.08      1.36
   -7   17    8      1.44      1.27
  -13   16    9      0.99     -2.45
   -3   16    9      1.95     -0.16
   -9   17    9     -0.36     -1.62
   -8   17    9     -0.89      1.42
  -14   15   10     -3.21     -0.40
   -1   15   10      2.55     -0.99
  -13   15   12     -0.93      0.83
   -2   15   12      0.57      1.03
   -9   16   13      0.07      1.32
   -8   16   13     -1.94      1.34
   -7   16   13     -1.96     -0.71
  -13   14   14     -0.44      0.32
   -1   14   14     -0.75      0.06
  -10   15   15      1.14     -4.14
   -5   15   15     -0.81     -2.18
  -13   13   16      3.00      0.02
    0   13   16     -0.26      0.46
   -8   15   16      1.61     -1.71
   -7   15   16      0.93      1.51
   -9   14   18      0.68      0.58
   -8   14   18     -0.47     -1.77
   -6   14   18      0.26      1.82
   -5   14   18      3.81      0.99
  -10   13   19      0.85     -0.04
   -3   13   19      0.82      1.32
   -8   13   20     -2.41      1.61
   -5   13   20     -1.98     -0.58
   -9   12   21      1.55     -0.05
   -3   12   21      1.31     -2.17
   -6   12   22     -2.40     -0.89
   -7   11   23      0.83     -0.74
   -4   11   23     -1.33      1.29
   -9    9   24      4.14     -0.19
    0    9   24     -1.60      0.03
   -7    9   25     -3.57      1.12
   -2    9   25      0.00     -0.06
   -5    7   27      0.46     -2.85
   -2    7   27     -3.77     -1.83
   -5    5   28     -1.93     -0.05
    0    5   28     -0.83      1.37
   -3    3   29     -2.36      0.00
    0    3   29      0.49      0.96
    0    0    0      0.00      0.00
# SQUEEZE RESULTS (Version = 230318)
# Note: Data are Listed for all Voids in the P1 Unit Cell
# i.e. Centre of Gravity, Solvent Accessible Volume,
# Recovered number of Electrons in the Void and
# Details about the Squeezed Material
loop_
  _platon_squeeze_void_nr
  _platon_squeeze_void_average_x
  _platon_squeeze_void_average_y
  _platon_squeeze_void_average_z
  _platon_squeeze_void_volume
  _platon_squeeze_void_count_electrons
  _platon_squeeze_void_content
   1  0.000  0.000 -0.002      1930       572 ' '
_platon_squeeze_void_probe_radius                  1.20
_platon_squeeze_details
)
TITL ww        P 31 2 1     R = 0.06
CELL   13.8250   13.8250   22.9840     90.00     90.00    120.00
SPGR P3121
# Solvent Accessible Volume =      1934
# Electrons Found in S.A.V. =       570
# Note: Atoms in Void are Labelled as Cxxx and Qxxx for all Others
C101 0.484 0.891 0.600 !       9.98 eA-3
C102 0.997 1.000-0.001 !       3.88 eA-3
C103 0.901 0.406 0.608 !       3.19 eA-3
C104 0.928 0.625 0.031 !       2.79 eA-3
C105 0.600 0.921 0.924 !       2.76 eA-3
C106 0.102 0.607 0.736 !       2.72 eA-3
C107 0.739 0.594 0.967 !       2.40 eA-3
C108 0.966 0.681 0.016 !       2.37 eA-3
C109 0.668 0.552 0.962 !       2.18 eA-3
C110 0.987 0.769 0.007 !       2.18 eA-3
C111 0.998 0.735 0.041 !       2.08 eA-3
C112 0.604 0.457 0.987 !       2.05 eA-3
C113 0.047 0.122 0.760 !       2.03 eA-3
C114 0.524 0.579 0.116 !       1.96 eA-3
C115 0.984 0.220 0.546 !       1.83 eA-3
C116 0.411 0.048 0.226 !       1.82 eA-3
C117 0.498 0.672 0.986 !       1.80 eA-3
C118 0.864 0.578 0.065 !       1.75 eA-3
C119 0.155 0.461 0.658 !       1.68 eA-3
C120 0.720 0.615 0.940 !       1.67 eA-3
Q121 0.022 0.875 0.369 !       1.66 eA-3
C122 0.973 0.060 0.626 !       1.66 eA-3
C123 0.232 0.330 0.611 !       1.65 eA-3
C124 0.740 0.875 0.769 !       1.62 eA-3
C125 0.385 0.337 0.434 !       1.60 eA-3
C126 0.599 0.599 0.895 !       1.56 eA-3
C127 0.271 0.388 0.561 !       1.52 eA-3
C128 0.349 0.954 0.394 !       1.50 eA-3
C129 0.033 0.014 0.256 !       1.45 eA-3
C130 0.172 0.862 0.186 !       1.45 eA-3
C131 0.070 0.876 0.113 !       1.44 eA-3
Q132 0.277 0.253 0.301 !       1.40 eA-3
Q133 0.934 0.996 0.649 !       1.39 eA-3
C134 0.975 0.395 0.796 !       1.35 eA-3
C135 0.760 0.953 0.733 !       1.34 eA-3
C136 0.710 0.813 0.810 !       1.32 eA-3
C137 0.898 0.034 0.789 !       1.31 eA-3
C138 0.080 0.044 0.427 !       1.31 eA-3
Q139 0.922 0.972 0.689 !       1.29 eA-3
C140 0.108 0.045 0.483 !       1.26 eA-3
Q141 0.821 0.908 0.758 !       1.26 eA-3
Q142 0.202 0.871 0.091 !       1.26 eA-3
C143 0.460 0.332 0.914 !       1.25 eA-3
C144 0.471 0.449 0.924 !       1.25 eA-3
C145 0.874 0.953 0.764 !       1.24 eA-3
C146 0.334 0.020 0.210 !       1.24 eA-3
Q147 0.851 0.960 0.733 !       1.23 eA-3
C148 0.872 0.891 0.882 !       1.22 eA-3
C149 0.910 0.841 0.147 !       1.20 eA-3
C150 0.849 0.812 0.900 !       1.20 eA-3
C151 0.841 0.909 0.853 !       1.16 eA-3
C152 0.024 0.158 0.564 !       1.15 eA-3
C153 0.827 0.656 0.966 !       1.13 eA-3
C154 0.701 0.031 0.844 !       1.12 eA-3
Q155 0.321 0.485 0.272 !       1.12 eA-3
C156 0.083 0.786 0.226 !       1.10 eA-3
C157 0.067 0.233 0.546 !       1.09 eA-3
C158 0.016 0.079 0.771 !       1.09 eA-3
C159 0.269 0.937 0.437 !       1.09 eA-3
C160 0.935 0.453 0.658 !       1.08 eA-3
C161 0.141 0.798 0.324 !       1.08 eA-3
C162 0.497 0.919 0.454 !       1.08 eA-3
Q163 0.521 0.971 0.577 !       1.08 eA-3
C164 0.601 0.435 0.021 !       1.07 eA-3
C165 0.222 0.156 0.578 !       1.06 eA-3
C166 0.898 0.095 0.606 !       1.05 eA-3
C167 0.905 0.992 0.725 !       1.05 eA-3
Q168 0.169 0.196 0.698 !       1.04 eA-3
C169 0.264 0.161 0.293 !       1.03 eA-3
C170 0.855 0.579 0.019 !       1.03 eA-3
C171 0.685 0.923 0.749 !       1.03 eA-3
C172 0.418 0.660 0.974 !       1.01 eA-3
Q173 0.422 0.892 0.563 !       1.01 eA-3
C174 0.018 0.134 0.593 !       1.01 eA-3
C175 0.461 0.839 0.344 !       1.00 eA-3
C176 0.191 0.399 0.533 !       0.99 eA-3
C177 0.131 0.939 0.140 !       0.99 eA-3
C178 0.119 0.826 0.155 !       0.98 eA-3
C179 0.539 0.839 0.910 !       0.97 eA-3
Q180 0.815 0.466 0.596 !       0.97 eA-3
Q181 0.607 0.982 0.009 !       0.96 eA-3
C182 0.987 0.015 0.873 !       0.95 eA-3
C183 0.474 0.551 0.991 !       0.94 eA-3
C184 0.533 0.231 0.344 !       0.93 eA-3
Q185 0.853 0.908 0.132 !       0.91 eA-3
C186 0.465 0.501 0.120 !       0.90 eA-3
C187 0.689 0.718 0.071 !       0.90 eA-3
C188 0.748 1.001 0.906 !       0.90 eA-3
C189 0.045 0.311 0.453 !       0.90 eA-3
C190 0.933 0.109 0.648 !       0.90 eA-3
C191 0.917 0.109 0.721 !       0.90 eA-3
Q192 0.289 0.232 0.663 !       0.90 eA-3
C193 0.831 0.013 0.708 !       0.89 eA-3
C194 0.894 0.967 0.952 !       0.89 eA-3
C195 0.107 0.421 0.591 !       0.89 eA-3
C196 0.126 0.108 0.507 !       0.89 eA-3
C197 0.823 0.268 0.765 !       0.88 eA-3
Q198 0.564 0.937 0.849 !       0.88 eA-3
C199 0.828 0.031 0.741 !       0.88 eA-3
)
;
_shelx_fab_checksum              9654
_olex2_submission_special_instructions 'No special instructions were received'
loop_
_space_group_symop_operation_xyz
'x, y, z'
'-y, x-y, z+1/3'
'-x+y, -x, z+2/3'
'y, x, -z'
'-x, -x+y, -z+1/3'
'x-y, -y, -z+2/3'
loop_
_atom_site_label
_atom_site_type_symbol
_atom_site_fract_x
_atom_site_fract_y
_atom_site_fract_z
_atom_site_U_iso_or_equiv
_atom_site_adp_type
_atom_site_occupancy
_atom_site_site_symmetry_order
_atom_site_calc_flag
_atom_site_refinement_flags_posn
_atom_site_refinement_flags_adp
Tb1 Tb -0.30509(3) 0.66650(3) -0.58970(2) 0.01161(7) Uani 1 1 d . .
O1 O -0.2755(5) 0.8236(4) -0.5373(2) 0.0243(12) Uani 1 1 d . .
O2 O -0.2664(4) 0.8807(4) -0.4459(2) 0.0211(12) Uani 1 1 d . .
O3 O -0.0328(5) 1.1837(5) -0.6657(2) 0.0274(14) Uani 1 1 d . .
O4 O -0.1240(5) 1.2751(5) -0.6735(2) 0.0499(19) Uani 1 1 d . U
O5 O -0.5815(5) 1.1852(3) -0.32633(19) 0.0225(11) Uani 1 1 d . .
O6 O -0.5109(5) 1.0767(5) -0.3247(2) 0.0429(16) Uani 1 1 d . U
O7 O -0.3233(4) 1.5094(4) -0.5369(2) 0.0214(13) Uani 1 1 d . .
O8 O -0.3965(4) 1.5219(4) -0.45240(19) 0.0202(13) Uani 1 1 d . .
C1 C -0.2626(6) 0.8957(5) -0.4992(3) 0.0131(15) Uani 1 1 d . .
C2 C -0.2441(6) 1.0053(6) -0.5216(3) 0.0171(17) Uani 1 1 d . .
C3 C -0.2862(7) 1.0603(6) -0.4904(3) 0.0185(17) Uani 1 1 d . U
H3 H -0.318697 1.032642 -0.454281 0.022 Uiso 1 1 calc R .
C4 C -0.1847(6) 1.0513(6) -0.5733(3) 0.0207(18) Uani 1 1 d . .
H4 H -0.153477 1.015474 -0.593670 0.025 Uiso 1 1 calc R .
C5 C -0.1730(6) 1.1514(6) -0.5936(3) 0.0180(17) Uani 1 1 d . .
C6 C -0.1053(7) 1.2056(7) -0.6486(3) 0.024(2) Uani 1 1 d . .
C7 C -0.2196(6) 1.2038(7) -0.5634(3) 0.0248(16) Uani 1 1 d . .
H7 H -0.209966 1.271123 -0.577425 0.030 Uiso 1 1 calc R .
C8 C -0.2809(6) 1.1594(5) -0.5122(3) 0.0185(17) Uani 1 1 d . U
C9 C -0.3348(7) 1.2144(6) -0.4795(3) 0.0228(18) Uani 1 1 d . .
C10 C -0.3960(6) 1.1656(6) -0.4302(3) 0.0231(17) Uani 1 1 d . U
H10 H -0.402334 1.098966 -0.417125 0.028 Uiso 1 1 calc R .
C11 C -0.4484(7) 1.2118(6) -0.3994(3) 0.0228(19) Uani 1 1 d . .
C12 C -0.5173(7) 1.1544(7) -0.3472(3) 0.0215(19) Uani 1 1 d . .
C13 C -0.4357(6) 1.3132(6) -0.4182(3) 0.0210(18) Uani 1 1 d . .
H13 H -0.467963 1.347228 -0.397111 0.025 Uiso 1 1 calc R .
C14 C -0.3754(6) 1.3633(6) -0.4679(3) 0.0157(16) Uani 1 1 d . .
C15 C -0.3638(6) 1.4743(6) -0.4875(3) 0.0149(16) Uani 1 1 d . .
C16 C -0.3249(6) 1.3153(6) -0.4988(3) 0.0173(18) Uani 1 1 d . .
H16 H -0.284474 1.349542 -0.532314 0.021 Uiso 1 1 calc R .
loop_
_atom_site_aniso_label
_atom_site_aniso_U_11
_atom_site_aniso_U_22
_atom_site_aniso_U_33
_atom_site_aniso_U_23
_atom_site_aniso_U_13
_atom_site_aniso_U_12
Tb1 0.01315(16) 0.01443(16) 0.00905(11) -0.00042(13) -0.00063(13) 0.00824(14)
O1 0.036(4) 0.019(3) 0.027(3) -0.010(2) -0.011(3) 0.020(3)
O2 0.031(3) 0.017(3) 0.022(3) 0.007(2) 0.006(2) 0.016(2)
O3 0.028(3) 0.037(3) 0.027(3) 0.011(3) 0.014(3) 0.023(3)
O4 0.071(4) 0.058(4) 0.046(3) 0.040(3) 0.042(3) 0.052(3)
O5 0.036(4) 0.022(3) 0.020(2) 0.0073(19) 0.013(3) 0.022(3)
O6 0.068(3) 0.044(4) 0.040(3) 0.029(3) 0.037(3) 0.045(3)
O7 0.031(3) 0.015(3) 0.022(3) 0.008(2) 0.010(2) 0.014(3)
O8 0.033(4) 0.020(3) 0.016(2) -0.0045(19) -0.001(2) 0.019(2)
C1 0.014(4) 0.011(3) 0.019(4) 0.002(3) 0.007(3) 0.010(3)
C2 0.022(4) 0.017(4) 0.019(4) 0.008(3) 0.006(3) 0.014(3)
C3 0.033(4) 0.015(4) 0.012(4) 0.007(3) 0.015(3) 0.015(3)
C4 0.031(5) 0.022(4) 0.015(4) 0.003(3) 0.008(3) 0.018(4)
C5 0.025(4) 0.020(4) 0.014(4) 0.008(3) 0.015(3) 0.016(4)
C6 0.032(5) 0.017(4) 0.026(4) 0.014(3) 0.014(3) 0.014(4)
C7 0.040(4) 0.016(4) 0.024(4) 0.013(4) 0.014(3) 0.018(4)
C8 0.032(4) 0.008(4) 0.021(4) 0.005(3) 0.012(3) 0.014(3)
C9 0.033(5) 0.020(4) 0.022(4) 0.004(3) 0.012(3) 0.018(4)
C10 0.037(4) 0.013(4) 0.023(4) 0.012(3) 0.021(3) 0.015(4)
C11 0.034(5) 0.016(4) 0.019(4) 0.007(3) 0.005(4) 0.013(4)
C12 0.028(5) 0.021(5) 0.015(4) 0.000(3) 0.006(3) 0.012(4)
C13 0.039(5) 0.020(4) 0.010(4) -0.001(3) 0.003(3) 0.018(4)
C14 0.029(4) 0.007(3) 0.012(4) 0.000(3) 0.005(3) 0.009(3)
C15 0.017(4) 0.009(4) 0.016(4) 0.002(3) -0.005(3) 0.005(3)
C16 0.027(5) 0.016(4) 0.013(4) 0.009(3) 0.008(3) 0.014(4)
loop_
_atom_type_symbol
_atom_type_description
_atom_type_scat_dispersion_real
_atom_type_scat_dispersion_imag
_atom_type_scat_source
C C 0.0033 0.0016 'International Tables Vol C Tables 4.2.6.8 and 6.1.1.4'
H H 0.0000 0.0000 'International Tables Vol C Tables 4.2.6.8 and 6.1.1.4'
O O 0.0106 0.0060 'International Tables Vol C Tables 4.2.6.8 and 6.1.1.4'
Tb Tb -0.1723 4.1537 'International Tables Vol C Tables 4.2.6.8 and 6.1.1.4'
loop_
_geom_angle_atom_site_label_1
_geom_angle_atom_site_label_2
_geom_angle_atom_site_label_3
_geom_angle
_geom_angle_site_symmetry_1
_geom_angle_site_symmetry_3
O1 Tb1 O2 78.94(19) . 4_464
O1 Tb1 O3 79.43(17) . 6_673
O1 Tb1 O4 84.7(2) . 6_673
O1 Tb1 O5 148.5(2) . 3_354
O1 Tb1 O6 152.6(2) . 3_354
O1 Tb1 O7 118.26(16) . 1_545
O1 Tb1 C6 82.2(2) . 6_673
O1 Tb1 C12 163.63(19) . 3_354
O2 Tb1 O3 86.51(17) 4_464 6_673
O2 Tb1 O4 137.75(17) 4_464 6_673
O2 Tb1 O5 78.42(17) 4_464 3_354
O2 Tb1 O6 127.95(18) 4_464 3_354
O2 Tb1 C6 112.4(2) 4_464 6_673
O2 Tb1 C12 104.0(2) 4_464 3_354
O3 Tb1 C6 26.1(2) 6_673 6_673
O3 Tb1 C12 84.6(2) 6_673 3_354
O4 Tb1 O3 52.09(18) 6_673 6_673
O4 Tb1 O5 97.67(19) 6_673 3_354
O4 Tb1 O6 71.43(19) 6_673 3_354
O4 Tb1 C6 26.1(2) 6_673 6_673
O4 Tb1 C12 82.5(2) 6_673 3_354
O5 Tb1 O3 77.57(17) 3_354 6_673
O5 Tb1 C6 86.5(2) 3_354 6_673
O5 Tb1 C12 26.2(2) 3_354 3_354
O6 Tb1 O3 95.5(2) 3_354 6_673
O6 Tb1 O5 51.82(19) 3_354 3_354
O6 Tb1 C6 82.0(2) 3_354 6_673
O6 Tb1 C12 25.7(2) 3_354 3_354
O7 Tb1 O2 77.51(18) 1_545 4_464
O7 Tb1 O3 152.59(18) 1_545 6_673
O7 Tb1 O4 143.40(19) 1_545 6_673
O7 Tb1 O5 77.49(17) 1_545 3_354
O7 Tb1 O6 77.72(19) 1_545 3_354
O7 Tb1 C6 159.2(2) 1_545 6_673
O7 Tb1 C12 77.9(2) 1_545 3_354
O8 Tb1 O1 78.53(18) 4_364 .
O8 Tb1 O2 135.26(15) 4_364 4_464
O8 Tb1 O3 126.05(17) 4_364 6_673
O8 Tb1 O4 77.28(18) 4_364 6_673
O8 Tb1 O5 132.78(18) 4_364 3_354
O8 Tb1 O6 83.13(18) 4_364 3_354
O8 Tb1 O7 79.97(17) 4_364 1_545
O8 Tb1 C6 102.2(2) 4_364 6_673
O8 Tb1 C12 108.4(2) 4_364 3_354
C6 Tb1 C12 81.8(2) 6_673 3_354
C1 O1 Tb1 167.5(5) . .
C1 O2 Tb1 118.6(4) . 4_464
C6 O3 Tb1 90.3(5) . 6_673
C6 O4 Tb1 94.6(5) . 6_673
C12 O5 Tb1 93.3(5) . 2_575
C12 O6 Tb1 94.0(5) . 2_575
C15 O7 Tb1 129.6(5) . 1_565
C15 O8 Tb1 139.6(4) . 4_474
O1 C1 C2 116.3(6) . .
O2 C1 O1 124.9(6) . .
O2 C1 C2 118.8(6) . .
C3 C2 C1 118.5(6) . .
C3 C2 C4 120.5(6) . .
C4 C2 C1 121.0(6) . .
C2 C3 C8 121.1(6) . .
C5 C4 C2 119.0(7) . .
C4 C5 C6 120.2(6) . .
C7 C5 C4 120.2(6) . .
C7 C5 C6 119.6(7) . .
O3 C6 Tb1 63.6(4) . 6_673
O3 C6 O4 122.8(8) . .
O3 C6 C5 120.8(7) . .
O4 C6 Tb1 59.3(4) . 6_673
O4 C6 C5 116.3(7) . .
C5 C6 Tb1 172.4(6) . 6_673
C5 C7 C8 122.3(7) . .
C3 C8 C9 120.6(6) . .
C7 C8 C3 116.4(7) . .
C7 C8 C9 122.9(6) . .
C10 C9 C8 120.2(6) . .
C10 C9 C16 118.6(7) . .
C16 C9 C8 121.2(6) . .
C9 C10 C11 122.3(7) . .
C10 C11 C12 120.8(7) . .
C10 C11 C13 118.5(7) . .
C13 C11 C12 120.7(7) . .
O5 C12 Tb1 60.5(4) . 2_575
O5 C12 C11 120.0(7) . .
O6 C12 Tb1 60.3(4) . 2_575
O6 C12 O5 120.4(7) . .
O6 C12 C11 119.7(7) . .
C11 C12 Tb1 173.8(6) . 2_575
C14 C13 C11 120.2(7) . .
C13 C14 C15 118.9(6) . .
C16 C14 C13 120.6(7) . .
C16 C14 C15 120.5(6) . .
O7 C15 O8 125.9(6) . .
O7 C15 C14 117.3(6) . .
O8 C15 C14 116.8(6) . .
C14 C16 C9 119.7(6) . .
loop_
_geom_bond_atom_site_label_1
_geom_bond_atom_site_label_2
_geom_bond_distance
_geom_bond_site_symmetry_2
Tb1 O1 2.333(4) .
Tb1 O2 2.397(4) 4_464
Tb1 O3 2.542(5) 6_673
Tb1 O4 2.448(5) 6_673
Tb1 O5 2.473(4) 3_354
Tb1 O6 2.471(5) 3_354
Tb1 O7 2.389(5) 1_545
Tb1 O8 2.310(4) 4_364
Tb1 C6 2.837(7) 6_673
Tb1 C12 2.838(8) 3_354
O1 C1 1.271(7) .
O2 C1 1.239(8) .
O3 C6 1.246(9) .
O4 C6 1.251(9) .
O5 C12 1.256(9) .
O6 C12 1.235(9) .
O7 C15 1.251(8) .
O8 C15 1.259(8) .
C1 C2 1.496(9) .
C2 C3 1.370(9) .
C2 C4 1.402(9) .
C3 C8 1.426(9) .
C4 C5 1.391(9) .
C5 C6 1.528(9) .
C5 C7 1.373(10) .
C7 C8 1.400(9) .
C8 C9 1.504(8) .
C9 C10 1.374(9) .
C9 C16 1.404(10) .
C10 C11 1.377(10) .
C11 C12 1.490(10) .
C11 C13 1.391(10) .
C13 C14 1.380(9) .
C14 C15 1.528(9) .
C14 C16 1.378(9) .
loop_
_geom_torsion_atom_site_label_1
_geom_torsion_atom_site_label_2
_geom_torsion_atom_site_label_3
_geom_torsion_atom_site_label_4
_geom_torsion
_geom_torsion_site_symmetry_1
Tb1 O1 C1 O2 1(3) .
Tb1 O1 C1 C2 -177(2) .
Tb1 O2 C1 O1 -11.1(10) 4_464
Tb1 O2 C1 C2 167.3(5) 4_464
Tb1 O3 C6 O4 4.1(9) 6_673
Tb1 O3 C6 C5 -173.0(7) 6_673
Tb1 O4 C6 O3 -4.3(10) 6_673
Tb1 O4 C6 C5 172.9(6) 6_673
Tb1 O5 C12 O6 -7.2(8) 2_575
Tb1 O5 C12 C11 172.9(7) 2_575
Tb1 O6 C12 O5 7.3(8) 2_575
Tb1 O6 C12 C11 -172.9(6) 2_575
Tb1 O7 C15 O8 -6.3(11) 1_565
Tb1 O7 C15 C14 173.4(4) 1_565
Tb1 O8 C15 O7 -50.7(11) 4_474
Tb1 O8 C15 C14 129.6(6) 4_474
O1 C1 C2 C3 146.1(7) .
O1 C1 C2 C4 -34.2(10) .
O2 C1 C2 C3 -32.5(11) .
O2 C1 C2 C4 147.2(7) .
C1 C2 C3 C8 -173.8(7) .
C1 C2 C4 C5 177.7(7) .
C2 C3 C8 C7 -7.2(12) .
C2 C3 C8 C9 175.5(7) .
C2 C4 C5 C6 177.9(7) .
C2 C4 C5 C7 -0.2(11) .
C3 C2 C4 C5 -2.6(11) .
C3 C8 C9 C10 -4.3(11) .
C3 C8 C9 C16 176.4(8) .
C4 C2 C3 C8 6.5(12) .
C4 C5 C6 O3 -22.6(12) .
C4 C5 C6 O4 160.1(8) .
C4 C5 C7 C8 -0.8(12) .
C5 C7 C8 C3 4.4(11) .
C5 C7 C8 C9 -178.4(7) .
C6 C5 C7 C8 -179.0(7) .
C7 C5 C6 O3 155.6(8) .
C7 C5 C6 O4 -21.7(11) .
C7 C8 C9 C10 178.6(8) .
C7 C8 C9 C16 -0.7(11) .
C8 C9 C10 C11 -178.9(7) .
C8 C9 C16 C14 179.9(7) .
C9 C10 C11 C12 177.8(7) .
C9 C10 C11 C13 -1.9(12) .
C10 C9 C16 C14 0.6(12) .
C10 C11 C12 O5 -166.2(7) .
C10 C11 C12 O6 13.9(12) .
C10 C11 C13 C14 2.5(12) .
C11 C13 C14 C15 179.6(7) .
C11 C13 C14 C16 -1.5(12) .
C12 C11 C13 C14 -177.3(7) .
C13 C11 C12 O5 13.6(12) .
C13 C11 C12 O6 -166.3(8) .
C13 C14 C15 O7 -169.7(7) .
C13 C14 C15 O8 10.0(10) .
C13 C14 C16 C9 0.0(11) .
C15 C14 C16 C9 178.8(7) .
C16 C9 C10 C11 0.4(12) .
C16 C14 C15 O7 11.4(11) .
C16 C14 C15 O8 -168.8(7) .
loop_
_twin_individual_id
_twin_individual_mass_fraction_refined
1 0.973(19)
2 0.027(19)
