#------------------------------------------------------------------------------
#$Date: 2016-03-26 13:42:56 +0200 (Sat, 26 Mar 2016) $
#$Revision: 180233 $
#$URL: svn://www.crystallography.net/cod/cif/7/11/19/7111933.cif $
#------------------------------------------------------------------------------
#
# This file is available in the Crystallography Open Database (COD),
# http://www.crystallography.net/
#
# All data on this site have been placed in the public domain by the
# contributors.
#
data_7111933
loop_
_publ_author_name
'Dinesh G. (Dan) Patel'
'Ian M. Walton'
'Jordan M. Cox'
'Cody J. Gleason'
'David R. Butzer'
'Jason B. Benedict'
_publ_section_title
;
 Photoresponsive porous materials: the design and synthesis of
 photochromic diarylethene-based linkers and a metal-organic framework
;
_journal_name_full               Chem.Commun.
_journal_page_first              2653
_journal_paper_doi               10.1039/c3cc49666j
_journal_volume                  50
_journal_year                    2014
_chemical_formula_moiety         'C26 H20 Br2 S2'
_chemical_formula_sum            'C26 H20 Br2 S2'
_chemical_formula_weight         556.36
_chemical_name_systematic
;
 ?
;
_space_group_crystal_system      monoclinic
_space_group_IT_number           15
_space_group_name_Hall           '-C 2yc'
_space_group_name_H-M_alt        'C 1 2/c 1'
_symmetry_space_group_name_Hall  '-C 2yc'
_symmetry_space_group_name_H-M   'C 1 2/c 1'
_atom_sites_solution_hydrogens   geom
_atom_sites_solution_primary     direct
_audit_creation_date             2013-11-15
_audit_creation_method
;
Olex2 1.2
(compiled 2013.11.15 svn.r2834 for OlexSys, GUI svn.r4707)
;
_cell_angle_alpha                90
_cell_angle_beta                 94.3179(8)
_cell_angle_gamma                90
_cell_formula_units_Z            4
_cell_length_a                   9.3043(3)
_cell_length_b                   21.4919(8)
_cell_length_c                   11.0020(4)
_cell_measurement_reflns_used    9884
_cell_measurement_temperature    90
_cell_measurement_theta_max      33.148
_cell_measurement_theta_min      2.391
_cell_volume                     2193.79(13)
_computing_molecular_graphics    'Olex2 (Dolomanov et al., 2009)'
_computing_publication_material  'Olex2 (Dolomanov et al., 2009)'
_computing_structure_refinement  'XL (Sheldrick, 2008)'
_computing_structure_solution    'XS (Sheldrick, 2008)'
_diffrn_ambient_temperature      90
_diffrn_detector                 'Bruker APEX2 area detector'
_diffrn_detector_area_resol_mean 7.9
_diffrn_detector_type            'CCD area detector'
_diffrn_measured_fraction_theta_full 1.000
_diffrn_measured_fraction_theta_max 1.000
_diffrn_measurement_device       'three-circle diffractometer'
_diffrn_measurement_device_type  'Bruker SMART APEX2 area detector'
_diffrn_measurement_method       '\w and \f scans'
_diffrn_radiation_monochromator  'mirror optics'
_diffrn_radiation_probe          x-ray
_diffrn_radiation_type           'Mo K\a'
_diffrn_radiation_wavelength     0.71073
_diffrn_radiation_xray_symbol    K-L~3~
_diffrn_reflns_av_R_equivalents  0.0258
_diffrn_reflns_av_unetI/netI     0.0209
_diffrn_reflns_Laue_measured_fraction_full 1.000
_diffrn_reflns_Laue_measured_fraction_max 1.000
_diffrn_reflns_limit_h_max       14
_diffrn_reflns_limit_h_min       -10
_diffrn_reflns_limit_k_max       32
_diffrn_reflns_limit_k_min       -26
_diffrn_reflns_limit_l_max       16
_diffrn_reflns_limit_l_min       -16
_diffrn_reflns_number            17072
_diffrn_reflns_point_group_measured_fraction_full 1.000
_diffrn_reflns_point_group_measured_fraction_max 1.000
_diffrn_reflns_theta_full        26.000
_diffrn_reflns_theta_max         33.154
_diffrn_reflns_theta_min         1.895
_diffrn_source                   'microfocus rotating anode'
_diffrn_source_type              'Incoatec I\ms'
_exptl_absorpt_coefficient_mu    3.897
_exptl_absorpt_correction_T_max  0.7465
_exptl_absorpt_correction_T_min  0.7142
_exptl_absorpt_correction_type   multi-scan
_exptl_absorpt_process_details
'SADABS-2012/1 (Bruker,2012) was used for absorption correction. wR2(int) was 0.0728 before and 0.0339 after correction. The Ratio of minimum to maximum transmission is 0.9567. The \l/2 correction factor is 0.0015.'
_exptl_crystal_colour            'clear colourless'
_exptl_crystal_colour_lustre     clear
_exptl_crystal_colour_primary    colourless
_exptl_crystal_density_diffrn    1.684
_exptl_crystal_description       block
_exptl_crystal_F_000             1112
_exptl_crystal_recrystallization_method
'Slow cooling of a dimethylformamide solution'
_exptl_crystal_size_max          0.05
_exptl_crystal_size_mid          0.04
_exptl_crystal_size_min          0.02
_refine_diff_density_max         0.628
_refine_diff_density_min         -0.266
_refine_diff_density_rms         0.078
_refine_ls_extinction_method     none
_refine_ls_goodness_of_fit_ref   1.085
_refine_ls_hydrogen_treatment    riding
_refine_ls_matrix_type           full
_refine_ls_number_parameters     138
_refine_ls_number_reflns         4186
_refine_ls_number_restraints     0
_refine_ls_restrained_S_all      1.085
_refine_ls_R_factor_all          0.0255
_refine_ls_R_factor_gt           0.0219
_refine_ls_shift/su_max          0.001
_refine_ls_shift/su_mean         0.000
_refine_ls_structure_factor_coef Fsqd
_refine_ls_weighting_details
'w=1/[\s^2^(Fo^2^)+(0.0221P)^2^+2.9004P] where P=(Fo^2^+2Fc^2^)/3'
_refine_ls_weighting_scheme      calc
_refine_ls_wR_factor_gt          0.0560
_refine_ls_wR_factor_ref         0.0577
_reflns_Friedel_coverage         0.000
_reflns_number_gt                3845
_reflns_number_total             4186
_reflns_threshold_expression     'I > 2\s(I)'
_iucr_refine_instructions_details
;
TITL test in C2/c #15
CELL 0.71073 9.3043 21.4919 11.002 90 94.3179 90
ZERR 4 0.0003 0.0008 0.0004 0 0.0008 0
LATT 7
SYMM -X,+Y,0.5-Z
 
SFAC C H Br S
UNIT 104 80 8 8
 
L.S. 10 0 0
PLAN  20
TEMP 23
REM reset to C2/c #15
BOND
MORE -1
fmap 2
acta 52
CONF
REM <HKL>C:/Users/Jason%20Benedict/Dropbox/Org%20Lett%20(or%20JACS)%20-%20Phen
REM anthrene%20DAE/X-ray%20data/TBrP/IMW_081305.hkl</HKL>
 
WGHT    0.022100    2.900400
FVAR       0.06478
BR1   3   -0.007403    0.338954    0.460777    11.00000    0.01548    0.01248 =
         0.02068    0.00296    0.00399   -0.00202
S1    4    0.201684    0.607237    0.269075    11.00000    0.01312    0.00855 =
         0.01630   -0.00183   -0.00296    0.00258
C1    1    0.232435    0.392692    0.356765    11.00000    0.01291    0.00896 =
         0.01345    0.00046    0.00033   -0.00093
AFIX  43
H1    2    0.189768    0.430178    0.376153    11.00000   -1.20000
AFIX   0
C3    1    0.227497    0.279912    0.353354    11.00000    0.01829    0.00924 =
         0.01499    0.00138    0.00045   -0.00261
AFIX  43
H3    2    0.180613    0.242880    0.369050    11.00000   -1.20000
AFIX   0
C4    1    0.357261    0.279460    0.300871    11.00000    0.01790    0.00763 =
         0.01457   -0.00007    0.00015   -0.00123
AFIX  43
H4    2    0.398077    0.241511    0.281904    11.00000   -1.20000
AFIX   0
C6    1    0.364341    0.392630    0.300565    11.00000    0.01284    0.00741 =
         0.01081    0.00017   -0.00097   -0.00110
C9    1    0.423277    0.557560    0.378701    11.00000    0.01233    0.00867 =
         0.01161   -0.00009   -0.00120   -0.00032
AFIX  43
H9    2    0.505619    0.550941    0.430382    11.00000   -1.20000
AFIX   0
C8    1    0.362337    0.511180    0.296434    11.00000    0.01106    0.00632 =
         0.01220    0.00035   -0.00003   -0.00059
C5    1    0.430221    0.335108    0.274997    11.00000    0.01447    0.00677 =
         0.01063    0.00039   -0.00123   -0.00046
C10   1    0.348945    0.612281    0.373891    11.00000    0.01323    0.00879 =
         0.01261   -0.00132   -0.00102   -0.00043
C7    1    0.433627    0.450741    0.273530    11.00000    0.01189    0.00668 =
         0.01149    0.00023   -0.00083    0.00039
C2    1    0.167462    0.337367    0.382664    11.00000    0.01433    0.01100 =
         0.01304    0.00151    0.00031   -0.00151
C12   1    0.240060    0.531401    0.230827    11.00000    0.01091    0.00793 =
         0.01357   -0.00116   -0.00031   -0.00026
C11   1    0.382653    0.671472    0.442240    11.00000    0.02423    0.01118 =
         0.02040   -0.00549   -0.00440    0.00091
AFIX 137
H11A  2    0.367697    0.706233    0.387960    11.00000   -1.50000
H11B  2    0.481293    0.670832    0.474845    11.00000   -1.50000
H11C  2    0.320559    0.675263    0.507691    11.00000   -1.50000
AFIX   0
C13   1    0.149604    0.498564    0.132005    11.00000    0.01639    0.01258 =
         0.01739   -0.00275   -0.00414   -0.00092
AFIX 137
H13A  2    0.095548    0.466001    0.167156    11.00000   -1.50000
H13B  2    0.210918    0.480976    0.074591    11.00000   -1.50000
H13C  2    0.084464    0.527703    0.091032    11.00000   -1.50000
AFIX   0
HKLF 4
 
REM  test in C2/c #15
REM R1 =  0.0219 for    3845 Fo > 4sig(Fo)  and  0.0255 for all    4186 data
REM    138 parameters refined using      0 restraints
 
END  
     
WGHT      0.0221      2.8987 

REM Highest difference peak  0.628,  deepest hole -0.266,  1-sigma level  0.078
Q1    1   0.5000  0.4501  0.2500  10.50000  0.05    0.63
Q2    1   0.1938  0.3069  0.3702  11.00000  0.05    0.59
Q3    1   0.3060  0.3920  0.3332  11.00000  0.05    0.59
Q4    1   0.2033  0.3668  0.3797  11.00000  0.05    0.59
Q5    1   0.3905  0.3649  0.2877  11.00000  0.05    0.56
Q6    1   0.3910  0.3096  0.2867  11.00000  0.05    0.55
Q7    1   0.3912  0.5862  0.3743  11.00000  0.05    0.54
Q8    1   0.3967  0.5318  0.3327  11.00000  0.05    0.53
Q9    1   0.2908  0.2785  0.3209  11.00000  0.05    0.52
Q10   1   0.0570  0.3376  0.4191  11.00000  0.05    0.50
Q11   1   0.0246  0.3386  0.5391  11.00000  0.05    0.49
Q12   1   0.5000  0.3310  0.2500  10.50000  0.05    0.49
Q13   1   0.2981  0.5182  0.2686  11.00000  0.05    0.48
Q14   1   0.3921  0.4800  0.2918  11.00000  0.05    0.44
Q15   1   0.4062  0.4215  0.2828  11.00000  0.05    0.44
Q16   1  -0.0400  0.3419  0.3910  11.00000  0.05    0.44
Q17   1   0.1907  0.5110  0.1950  11.00000  0.05    0.41
Q18   1   0.3735  0.6381  0.4012  11.00000  0.05    0.40
Q19   1   0.2463  0.6093  0.3350  11.00000  0.05    0.37
Q20   1  -0.0644  0.3369  0.5048  11.00000  0.05    0.35

REM The information below was added by Olex2.
REM
REM R1 = 0.0219 for 3845 Fo > 4sig(Fo) and 0.0255 for all 17302 data
REM n/a parameters refined using n/a restraints
REM Highest difference peak 0.63, deepest hole -0.27
REM Mean Shift 0, Max Shift 0.

REM +++ Tabular Listing of Refinement Information +++
REM R1_all = 0.0255
REM R1_gt = 0.0219
REM wR_ref = 0.0577
REM GOOF = 1.085
REM Shift_max = 0
REM Shift_mean = 0
REM Reflections_all = 17302
REM Reflections_gt = 3845
REM Parameters = n/a
REM Hole = -0.27
REM Peak = 0.63
REM Flack = n/a

;
_cod_data_source_file            c3cc49666j.txt
_cod_data_source_block           6a
_cod_database_code               7111933
#BEGIN Tags that were not found in dictionaries:
_shelxl_version_number           2013-3
_shelx_space_group_comment
;
The symmetry employed for this shelxl refinement is uniquely defined
by the following loop, which should always be used as a source of
symmetry information in preference to the above space-group names.
They are only intended as comments.
;
_olex2_refinement_description
;
1. Fixed Uiso
 At 1.2 times of:
  All C(H) groups
 At 1.5 times of:
  All C(H,H,H) groups
2.a Aromatic/amide H refined with riding coordinates:
 C1(H1), C3(H3), C4(H4), C9(H9)
2.b Idealised Me refined as rotating group:
 C11(H11A,H11B,H11C), C13(H13A,H13B,H13C)
;
#END Tags that were not found in dictionaries
loop_
_space_group_symop_operation_xyz
'x, y, z'
'-x, y, -z+1/2'
'x+1/2, y+1/2, z'
'-x+1/2, y+1/2, -z+1/2'
'-x, -y, -z'
'x, -y, z-1/2'
'-x+1/2, -y+1/2, -z'
'x+1/2, -y+1/2, z-1/2'
loop_
_atom_site_label
_atom_site_type_symbol
_atom_site_fract_x
_atom_site_fract_y
_atom_site_fract_z
_atom_site_U_iso_or_equiv
_atom_site_adp_type
_atom_site_occupancy
_atom_site_site_symmetry_order
_atom_site_calc_flag
_atom_site_refinement_flags_posn
Br1 Br -0.00740(2) 0.33895(2) 0.46078(2) 0.01608(4) Uani 1 1 d .
S1 S 0.20168(3) 0.60724(2) 0.26908(3) 0.01286(6) Uani 1 1 d .
C1 C 0.23244(13) 0.39269(5) 0.35677(10) 0.01181(19) Uani 1 1 d .
H1 H 0.1898 0.4302 0.3762 0.014 Uiso 1 1 calc R
C3 C 0.22750(14) 0.27991(6) 0.35335(11) 0.0142(2) Uani 1 1 d .
H3 H 0.1806 0.2429 0.3690 0.017 Uiso 1 1 calc R
C4 C 0.35726(14) 0.27946(5) 0.30087(10) 0.0134(2) Uani 1 1 d .
H4 H 0.3981 0.2415 0.2819 0.016 Uiso 1 1 calc R
C6 C 0.36434(13) 0.39263(5) 0.30056(10) 0.01045(18) Uani 1 1 d .
C9 C 0.42328(12) 0.55756(5) 0.37870(10) 0.01098(18) Uani 1 1 d .
H9 H 0.5056 0.5509 0.4304 0.013 Uiso 1 1 calc R
C8 C 0.36234(12) 0.51118(5) 0.29643(10) 0.00991(18) Uani 1 1 d .
C5 C 0.43022(13) 0.33511(5) 0.27500(10) 0.01073(18) Uani 1 1 d .
C10 C 0.34895(13) 0.61228(5) 0.37389(10) 0.01164(19) Uani 1 1 d .
C7 C 0.43363(12) 0.45074(5) 0.27353(10) 0.01010(18) Uani 1 1 d .
C2 C 0.16746(13) 0.33737(5) 0.38266(10) 0.0128(2) Uani 1 1 d .
C12 C 0.24006(12) 0.53140(5) 0.23083(10) 0.01087(18) Uani 1 1 d .
C11 C 0.38265(16) 0.67147(6) 0.44224(12) 0.0189(2) Uani 1 1 d .
H11A H 0.3677 0.7062 0.3880 0.028 Uiso 1 1 calc GR
H11B H 0.4813 0.6708 0.4748 0.028 Uiso 1 1 calc GR
H11C H 0.3206 0.6753 0.5077 0.028 Uiso 1 1 calc GR
C13 C 0.14960(14) 0.49856(6) 0.13201(11) 0.0157(2) Uani 1 1 d .
H13A H 0.0955 0.4660 0.1672 0.024 Uiso 1 1 calc GR
H13B H 0.2109 0.4810 0.0746 0.024 Uiso 1 1 calc GR
H13C H 0.0845 0.5277 0.0910 0.024 Uiso 1 1 calc GR
loop_
_atom_site_aniso_label
_atom_site_aniso_U_11
_atom_site_aniso_U_22
_atom_site_aniso_U_33
_atom_site_aniso_U_23
_atom_site_aniso_U_13
_atom_site_aniso_U_12
Br1 0.01548(6) 0.01248(6) 0.02068(6) 0.00296(4) 0.00399(4) -0.00202(4)
S1 0.01312(12) 0.00855(12) 0.01630(12) -0.00183(9) -0.00296(9) 0.00258(9)
C1 0.0129(5) 0.0090(5) 0.0135(4) 0.0005(3) 0.0003(4) -0.0009(4)
C3 0.0183(5) 0.0092(5) 0.0150(5) 0.0014(4) 0.0005(4) -0.0026(4)
C4 0.0179(5) 0.0076(5) 0.0146(5) -0.0001(4) 0.0002(4) -0.0012(4)
C6 0.0128(5) 0.0074(4) 0.0108(4) 0.0002(3) -0.0010(3) -0.0011(3)
C9 0.0123(5) 0.0087(5) 0.0116(4) -0.0001(3) -0.0012(3) -0.0003(4)
C8 0.0111(4) 0.0063(4) 0.0122(4) 0.0003(3) 0.0000(3) -0.0006(3)
C5 0.0145(5) 0.0068(4) 0.0106(4) 0.0004(3) -0.0012(3) -0.0005(3)
C10 0.0132(5) 0.0088(5) 0.0126(4) -0.0013(3) -0.0010(4) -0.0004(4)
C7 0.0119(5) 0.0067(4) 0.0115(4) 0.0002(3) -0.0008(3) 0.0004(3)
C2 0.0143(5) 0.0110(5) 0.0130(4) 0.0015(4) 0.0003(4) -0.0015(4)
C12 0.0109(4) 0.0079(4) 0.0136(4) -0.0012(3) -0.0003(4) -0.0003(4)
C11 0.0242(6) 0.0112(5) 0.0204(5) -0.0055(4) -0.0044(5) 0.0009(4)
C13 0.0164(5) 0.0126(5) 0.0174(5) -0.0027(4) -0.0041(4) -0.0009(4)
loop_
_atom_type_symbol
_atom_type_description
_atom_type_scat_dispersion_real
_atom_type_scat_dispersion_imag
_atom_type_scat_source
C C 0.0033 0.0016 'International Tables Vol C Tables 4.2.6.8 and 6.1.1.4'
H H 0.0000 0.0000 'International Tables Vol C Tables 4.2.6.8 and 6.1.1.4'
Br Br -0.2901 2.4595 'International Tables Vol C Tables 4.2.6.8 and 6.1.1.4'
S S 0.1246 0.1234 'International Tables Vol C Tables 4.2.6.8 and 6.1.1.4'
loop_
_geom_angle_atom_site_label_1
_geom_angle_atom_site_label_2
_geom_angle_atom_site_label_3
_geom_angle
_geom_angle_site_symmetry_1
_geom_angle_site_symmetry_3
C10 S1 C12 93.08(5) . .
C2 C1 C6 119.97(11) . .
C4 C3 C2 118.65(11) . .
C3 C4 C5 121.84(11) . .
C1 C6 C5 119.32(10) . .
C1 C6 C7 120.24(10) . .
C5 C6 C7 120.41(10) . .
C10 C9 C8 113.56(10) . .
C9 C8 C7 123.59(10) . .
C12 C8 C9 112.63(10) . .
C12 C8 C7 123.37(10) . .
C4 C5 C6 118.44(11) . .
C4 C5 C5 122.29(7) . 2_655
C6 C5 C5 119.27(7) . 2_655
C9 C10 S1 110.27(8) . .
C9 C10 C11 128.78(11) . .
C11 C10 S1 120.93(9) . .
C6 C7 C8 120.49(10) . .
C7 C7 C6 120.29(6) 2_655 .
C7 C7 C8 119.22(6) 2_655 .
C1 C2 Br1 118.97(9) . .
C1 C2 C3 121.69(11) . .
C3 C2 Br1 119.34(9) . .
C8 C12 S1 110.45(8) . .
C8 C12 C13 129.07(10) . .
C13 C12 S1 120.36(9) . .
loop_
_geom_bond_atom_site_label_1
_geom_bond_atom_site_label_2
_geom_bond_distance
_geom_bond_site_symmetry_2
Br1 C2 1.8967(12) .
S1 C10 1.7266(12) .
S1 C12 1.7273(11) .
C1 C6 1.4152(16) .
C1 C2 1.3735(16) .
C3 C4 1.3770(18) .
C3 C2 1.4028(17) .
C4 C5 1.4147(16) .
C6 C5 1.4175(16) .
C6 C7 1.4466(15) .
C9 C8 1.4342(15) .
C9 C10 1.3633(16) .
C8 C7 1.4886(15) .
C8 C12 1.3713(15) .
C5 C5 1.448(2) 2_655
C10 C11 1.4989(17) .
C7 C7 1.375(2) 2_655
C12 C13 1.5002(16) .
loop_
_geom_torsion_atom_site_label_1
_geom_torsion_atom_site_label_2
_geom_torsion_atom_site_label_3
_geom_torsion_atom_site_label_4
_geom_torsion
_geom_torsion_site_symmetry_4
C1 C6 C5 C4 3.35(16) .
C1 C6 C5 C5 -175.91(12) 2_655
C1 C6 C7 C8 -4.28(16) .
C1 C6 C7 C7 175.64(13) 2_655
C3 C4 C5 C6 -2.12(17) .
C3 C4 C5 C5 177.11(13) 2_655
C4 C3 C2 Br1 -177.57(9) .
C4 C3 C2 C1 2.12(18) .
C6 C1 C2 Br1 178.83(8) .
C6 C1 C2 C3 -0.86(18) .
C9 C8 C7 C6 119.24(12) .
C9 C8 C7 C7 -60.67(18) 2_655
C9 C8 C12 S1 0.64(12) .
C9 C8 C12 C13 176.58(11) .
C8 C9 C10 S1 0.62(13) .
C8 C9 C10 C11 -177.58(12) .
C5 C6 C7 C8 177.94(10) .
C5 C6 C7 C7 -2.15(19) 2_655
C10 S1 C12 C8 -0.25(9) .
C10 S1 C12 C13 -176.60(10) .
C10 C9 C8 C7 172.04(10) .
C10 C9 C8 C12 -0.83(14) .
C7 C6 C5 C4 -178.84(10) .
C7 C6 C5 C5 1.90(19) 2_655
C7 C8 C12 S1 -172.25(9) .
C7 C8 C12 C13 3.69(19) .
C2 C1 C6 C5 -1.92(17) .
C2 C1 C6 C7 -179.73(10) .
C2 C3 C4 C5 -0.58(18) .
C12 S1 C10 C9 -0.21(9) .
C12 S1 C10 C11 178.15(11) .
C12 C8 C7 C6 -68.64(15) .
C12 C8 C7 C7 111.45(15) 2_655
loop_
_refln_index_h
_refln_index_k
_refln_index_l
_refln_F_squared_meas
_refln_F_squared_sigma
2 0 0 13.58 0.44
-2 0 0 12.91 0.4
-2 0 0 12.74 0.4
2 0 0 13.3 0.38
4 0 0 68.38 1.94
-4 0 0 67.1 2.1
4 0 0 70.82 2.23
6 0 0 100.53 2.88
6 0 0 103.62 3.31
8 0 0 50.81 1.45
8 0 0 49.95 1.67
10 0 0 19.34 0.76
10 0 0 22.02 0.65
12 0 0 9.17 0.47
12 0 0 9.56 0.39
14 0 0 28.91 0.93
1 -1 0 3.59 0.11
1 -1 0 3.56 0.12
-1 -1 0 3.7 0.12
-1 -1 0 3.74 0.13
1 -1 0 3.57 0.12
-1 1 0 3.77 0.12
1 1 0 3.55 0.11
1 1 0 3.65 0.12
-1 1 0 3.57 0.11
3 -1 0 12.46 0.37
3 -1 0 12.82 0.43
-3 -1 0 12.75 0.39
3 1 0 13.03 0.39
3 1 0 12.13 0.37
3 1 0 12.78 0.43
5 -1 0 221.13 6.18
-5 -1 0 218.32 6.61
-5 -1 0 218.74 6.61
5 -1 0 218.17 7.09
5 1 0 212.21 7.07
5 1 0 213.69 6.16
7 -1 0 2.24 0.16
7 -1 0 2.1 0.12
7 1 0 2.3 0.13
7 1 0 2.14 0.16
9 -1 0 30.29 1.03
9 -1 0 28.7 0.89
9 1 0 30.36 1.03
9 1 0 29.93 0.88
11 -1 0 7.54 0.33
11 -1 0 7.9 0.4
11 1 0 8.89 0.42
11 1 0 8.13 0.33
13 -1 0 0.36 0.16
13 -1 0 -0.11 0.19
13 1 0 0.63 0.21
13 1 0 0.23 0.16
0 -2 0 0.19 0.03
0 -2 0 0.21 0.02
0 -2 0 0.24 0.03
2 -2 0 58.01 1.74
2 -2 0 53.78 1.85
-2 -2 0 57.87 1.75
2 -2 0 57.38 1.63
-2 2 0 55.4 1.74
2 2 0 57.62 1.75
2 2 0 56.95 1.62
-2 2 0 57.34 1.84
4 -2 0 31.12 1.03
4 -2 0 30.76 0.9
-4 -2 0 32.15 0.96
4 -2 0 32.19 0.96
4 2 0 31.38 0.96
4 2 0 30.34 0.89
4 2 0 30.6 1.03
-4 2 0 32.04 0.96
-6 -2 0 27.93 0.87
6 -2 0 29.65 0.95
6 -2 0 29.1 0.82
-6 -2 0 27.39 0.87
6 2 0 28.69 0.82
6 2 0 26.91 0.95
8 -2 0 14.37 0.44
8 -2 0 13.65 0.51
8 2 0 13.96 0.44
8 2 0 13.44 0.52
10 -2 0 10.12 0.42
10 -2 0 9.85 0.36
10 2 0 9.17 0.43
10 2 0 9.95 0.35
12 -2 0 2.06 0.28
12 -2 0 2.16 0.23
12 2 0 1.95 0.23
12 2 0 2.3 0.22
14 -2 0 0 0.17
14 2 0 -0.14 0.16
14 2 0 -0.08 0.22
1 -3 0 195.42 6.23
1 -3 0 192.91 5.41
1 -3 0 193.09 6.25
1 -3 0 193.07 5.88
-1 -3 0 185.36 5.89
-1 -3 0 193.08 6.22
-1 3 0 193.33 5.41
-1 3 0 191.66 5.88
1 3 0 194.38 5.89
1 3 0 190.93 6.23
1 3 0 184.72 5.45
3 -3 0 217.05 6.47
3 -3 0 207.35 6.01
3 -3 0 204.05 6.85
3 3 0 208.73 5.98
3 3 0 208.17 6.48
-3 3 0 226.62 6.47
3 3 0 208.8 6.89
5 -3 0 223.85 6.94
5 -3 0 230.29 7.4
5 -3 0 238.13 6.5
5 3 0 230.65 7.43
5 3 0 216.34 6.97
-5 3 0 232.28 6.95
5 3 0 225.62 6.46
-7 -3 0 32.93 1.01
7 -3 0 31.63 1.1
7 3 0 32.69 0.96
7 3 0 35.19 1.12
9 -3 0 46.01 1.55
9 -3 0 46.35 1.35
9 3 0 44.98 1.34
9 3 0 47.98 1.57
11 -3 0 29.28 1.03
11 -3 0 29.94 0.9
11 3 0 27.94 0.88
11 3 0 29.49 1.05
13 -3 0 6.42 0.34
13 3 0 6.58 0.43
13 3 0 6.97 0.33
0 -4 0 234.17 7.33
0 -4 0 222.93 6.54
0 4 0 220.59 6.97
0 4 0 236.25 7.33
0 4 0 221.58 6.47
2 -4 0 34.75 0.98
2 -4 0 36.08 1.06
2 -4 0 33.06 1.11
2 4 0 34.6 1.13
-2 4 0 33.75 1.06
2 4 0 34.69 0.97
2 4 0 35.99 1.06
-2 4 0 33.88 1.11
2 4 0 33.64 0.97
4 -4 0 81.96 2.37
4 -4 0 83.45 2.68
4 -4 0 85.93 2.54
4 4 0 84.48 2.69
4 4 0 81.88 2.34
4 4 0 83.54 2.54
-4 4 0 80.04 2.54
6 -4 0 48.9 1.52
6 -4 0 57.1 1.75
6 4 0 54.58 1.64
6 4 0 52.27 1.76
6 4 0 54.43 1.52
8 -4 0 2.86 0.19
8 -4 0 2.85 0.16
8 4 0 3.55 0.16
8 4 0 2.97 0.22
10 -4 0 37.31 1.11
10 -4 0 35.98 1.27
10 4 0 39.42 1.11
10 4 0 36.96 1.3
12 -4 0 0.69 0.15
12 4 0 0.54 0.14
12 4 0 0.59 0.21
14 -4 0 2.51 0.24
14 4 0 2.55 0.22
14 4 0 3.13 0.39
1 -5 0 13.99 0.4
1 -5 0 13.81 0.46
-1 -5 0 13.68 0.4
1 5 0 13.64 0.4
1 5 0 13.18 0.47
-1 5 0 13.8 0.46
-1 5 0 13.24 0.45
1 5 0 13.96 0.45
3 -5 0 46.15 1.5
3 5 0 45.38 1.52
-3 5 0 47.31 1.5
3 5 0 45.64 1.31
3 5 0 47.13 1.43
-3 5 0 47.24 1.43
5 -5 0 0.51 0.07
5 -5 0 0.32 0.05
5 5 0 0.38 0.04
5 5 0 0.43 0.08
5 5 0 0.37 0.05
-5 5 0 0.38 0.05
7 -5 0 42.21 1.4
7 -5 0 42.44 1.23
7 5 0 43.67 1.31
7 5 0 41.34 1.42
7 5 0 42.72 1.22
9 -5 0 0.06 0.09
9 -5 0 0.19 0.09
9 5 0 0.17 0.12
9 5 0 -0.02 0.08
11 -5 0 0.94 0.15
11 -5 0 1.05 0.15
11 5 0 1.04 0.19
11 5 0 0.95 0.13
13 -5 0 9.33 0.41
13 5 0 9.13 0.39
13 5 0 9.23 0.52
0 -6 0 242.04 7.76
0 -6 0 244.39 6.92
0 6 0 230.77 7.76
0 6 0 240.47 7.4
0 6 0 243.38 6.74
2 -6 0 322.77 10.54
2 -6 0 330.17 9.18
2 -6 0 325.1 10.47
-2 6 0 318.72 9.99
2 6 0 325.17 10.56
2 6 0 326.21 9.13
2 6 0 326.54 9.13
2 6 0 331.21 10
4 -6 0 60.53 1.86
4 -6 0 56.64 1.63
4 6 0 55.99 1.88
-4 6 0 57.19 1.76
4 6 0 56.05 1.76
4 6 0 57.75 1.62
6 -6 0 104.98 3.35
6 6 0 99.07 3.17
-6 6 0 105.18 3.16
6 6 0 103.61 3.37
6 6 0 105.53 2.92
8 -6 0 70.8 2.46
8 -6 0 77.22 2.15
8 6 0 77.57 2.49
8 6 0 76.09 2.14
10 -6 0 11.1 0.43
10 -6 0 10.42 0.39
10 6 0 10.95 0.48
10 6 0 10.12 0.36
12 -6 0 23.61 0.77
12 6 0 24.81 0.93
12 6 0 23.32 0.75
14 -6 0 3.04 0.31
14 6 0 2.99 0.42
1 -7 0 166.18 4.74
1 -7 0 169.13 5.42
1 7 0 175.31 5.21
-1 7 0 163.51 5.2
-1 7 0 174.05 5.42
1 7 0 160.3 5.45
3 -7 0 58.11 1.68
3 -7 0 62.15 1.92
3 -7 0 58.35 1.92
3 7 0 58.23 1.83
3 7 0 59.04 1.68
-3 7 0 60.54 1.83
3 7 0 60.65 1.94
5 -7 0 45.81 1.48
5 -7 0 46.99 1.3
5 7 0 46.76 1.51
5 7 0 43.94 1.41
-5 7 0 44.33 1.4
5 7 0 45.76 1.29
7 -7 0 41.63 1.3
7 -7 0 37.94 1.14
-7 7 0 41.05 1.21
7 7 0 38.3 1.22
7 7 0 39.05 1.13
7 7 0 37.64 1.33
9 -7 0 6.33 0.27
9 -7 0 6.23 0.29
9 7 0 6.39 0.35
9 7 0 6.97 0.25
11 -7 0 12.65 0.46
11 7 0 12.34 0.57
11 7 0 12.72 0.43
13 -7 0 7.19 0.38
13 7 0 7.64 0.34
13 7 0 7.14 0.49
0 -8 0 2.93 0.09
0 8 0 2.67 0.12
0 8 0 2.88 0.09
0 8 0 2.68 0.13
2 -8 0 124.37 3.62
2 8 0 135.53 4.19
2 8 0 127.1 3.61
-2 8 0 126.19 4
2 8 0 129.39 3.96
4 -8 0 10.47 0.32
4 -8 0 10.62 0.35
4 8 0 10.13 0.35
4 8 0 9.95 0.38
4 8 0 10.26 0.31
-4 8 0 10.9 0.34
6 -8 0 1.62 0.12
6 -8 0 1.71 0.11
6 8 0 1.92 0.09
-6 8 0 1.76 0.09
6 8 0 1.83 0.11
8 -8 0 0.28 0.08
8 -8 0 0.23 0.08
8 8 0 0.32 0.07
8 8 0 0.25 0.06
8 8 0 0.38 0.12
10 -8 0 1.99 0.2
10 8 0 2.11 0.27
10 8 0 1.88 0.17
12 -8 0 7.65 0.36
12 8 0 7.92 0.47
12 8 0 7.31 0.32
1 -9 0 66.32 1.93
1 -9 0 67.98 2.2
1 9 0 69.23 1.93
-1 9 0 70.45 2.1
-1 9 0 67.04 2.2
1 9 0 70.31 2.1
1 9 0 66.69 2.21
3 -9 0 103.24 3.02
3 9 0 109.6 2.99
-3 9 0 101.5 3.29
3 9 0 110.19 3.26
3 9 0 104.18 3.45
3 9 0 109.46 2.99
5 -9 0 44.54 1.38
5 -9 0 43.36 1.22
-5 9 0 42.91 1.31
5 9 0 39.57 1.41
5 9 0 41.6 1.2
5 9 0 42.57 1.32
7 -9 0 255.67 7.14
7 -9 0 243.35 8.12
-7 9 0 244.71 7.68
7 9 0 254.4 8.16
7 9 0 254.39 7.09
7 9 0 262.04 7.7
9 -9 0 13.74 0.46
9 9 0 13.9 0.43
9 9 0 12.92 0.55
11 -9 0 9.95 0.39
11 9 0 9.63 0.51
11 9 0 9.84 0.36
13 -9 0 8.95 0.41
13 9 0 8.57 0.52
0 -10 0 16.05 0.47
0 10 0 16.68 0.55
2 -10 0 309.03 8.94
-2 10 0 328.92 9.79
2 10 0 313.1 10.32
2 10 0 318.51 9.79
4 -10 0 72.89 2.09
4 10 0 76.28 2.41
4 10 0 72.23 2.07
-4 10 0 74.81 2.27
4 10 0 72.36 2.27
6 -10 0 8.61 0.31
6 -10 0 8.75 0.3
6 10 0 9.47 0.37
6 10 0 8.96 0.31
-6 10 0 8.94 0.3
6 10 0 8.66 0.27
8 -10 0 14.26 0.48
8 -10 0 14.72 0.52
8 10 0 14.87 0.45
8 10 0 15.28 0.49
8 10 0 14.15 0.57
10 -10 0 8.64 0.35
10 10 0 8.67 0.31
10 10 0 8.06 0.44
12 -10 0 28.44 0.93
12 10 0 30.55 1.11
1 -11 0 11.78 0.35
1 11 0 12.14 0.4
1 11 0 11.84 0.41
-1 11 0 11.67 0.4
-1 11 0 11.74 0.4
3 -11 0 0.11 0.05
3 11 0 0.06 0.06
3 11 0 0.07 0.02
3 11 0 0.11 0.07
-3 11 0 0.04 0.05
3 11 0 0.08 0.02
5 -11 0 8.2 0.28
5 -11 0 8.3 0.28
5 -11 0 8.49 0.28
5 11 0 7.85 0.34
5 11 0 8.42 0.3
-5 11 0 8.45 0.29
5 11 0 8.35 0.25
7 -11 0 -0.01 0.06
7 -11 0 0.03 0.08
7 11 0 0.23 0.07
7 11 0 0.06 0.05
-7 11 0 0.16 0.05
7 11 0 0.11 0.11
9 -11 0 0.32 0.11
9 11 0 0.5 0.16
9 11 0 0.51 0.08
11 -11 0 2.41 0.24
11 11 0 2.42 0.34
13 -11 0 0.01 0.18
13 11 0 0 0.25
0 -12 0 98.12 2.76
0 12 0 102.96 3.03
0 12 0 94.3 3.18
2 -12 0 148.04 4.67
2 -12 0 146.53 4.11
2 12 0 141.33 4.73
2 12 0 145.88 4.5
-2 12 0 148.08 4.67
-2 12 0 141.06 4.44
4 -12 0 31.89 0.88
4 12 0 28.32 1.03
4 12 0 32.11 0.97
-4 12 0 29.61 0.96
4 12 0 29.91 0.86
6 -12 0 83.6 2.71
6 -12 0 85.07 2.39
6 12 0 84.22 2.6
6 12 0 82.46 2.77
-6 12 0 83.56 2.59
6 12 0 85.89 2.37
8 -12 0 36.22 1.05
8 12 0 34.49 1.02
8 12 0 36.44 1.24
8 12 0 35.04 1.12
10 -12 0 16.68 0.56
10 12 0 16.07 0.68
12 -12 0 11.08 0.45
12 12 0 10.43 0.59
1 -13 0 94.68 2.58
1 13 0 94.42 2.97
-1 13 0 89.69 2.95
1 13 0 86.67 2.82
-1 13 0 92.87 2.82
3 -13 0 84.09 2.29
-3 13 0 75.7 2.49
3 13 0 83.77 2.5
3 13 0 80.04 2.64
5 -13 0 22.56 0.67
5 13 0 22.84 0.64
5 13 0 22.71 0.79
-5 13 0 22.07 0.72
5 13 0 22.35 0.73
7 -13 0 87.12 2.46
7 13 0 85.28 2.43
7 13 0 83.01 2.66
7 13 0 88.97 2.85
-7 13 0 86.83 2.65
9 -13 0 3.93 0.24
9 13 0 4.07 0.32
11 -13 0 9.39 0.41
11 13 0 10.43 0.53
13 13 0 11 0.63
0 -14 0 50.88 1.42
0 14 0 50.61 1.65
0 14 0 50.01 1.58
2 -14 0 12.44 0.37
2 -14 0 12.23 0.41
2 14 0 12.59 0.45
-2 14 0 12.17 0.41
2 14 0 11.62 0.43
-2 14 0 13.14 0.43
4 -14 0 5.7 0.2
4 14 0 5.43 0.23
4 14 0 5.4 0.26
-4 14 0 5.5 0.23
6 -14 0 0.05 0.08
-6 14 0 0.19 0.07
6 14 0 0.08 0.12
6 14 0 -0.01 0.04
6 14 0 0.23 0.08
8 -14 0 1.03 0.13
8 14 0 1.18 0.12
8 14 0 0.97 0.18
10 -14 0 3.96 0.26
10 14 0 4.38 0.36
12 -14 0 0.7 0.18
12 14 0 0.56 0.27
1 -15 0 64.57 1.86
1 15 0 67.25 2.05
-1 15 0 65.87 2.14
-1 15 0 64.91 2.05
1 15 0 67.79 2.15
3 -15 0 43.94 1.25
3 15 0 44.91 1.45
-3 15 0 43.37 1.37
3 15 0 42.17 1.37
5 -15 0 128.01 3.48
5 15 0 127.08 3.79
-5 15 0 120.81 3.78
5 15 0 116.37 4.01
7 -15 0 4.51 0.23
-7 15 0 4.82 0.21
7 15 0 5.23 0.24
7 15 0 4.9 0.31
9 -15 0 32.33 1.02
9 15 0 35.39 1.22
11 -15 0 14.64 0.53
11 15 0 13.53 0.67
0 -16 0 131.49 3.68
0 16 0 132.03 4.24
0 16 0 130.7 4.04
2 -16 0 28.2 0.81
2 16 0 28.9 0.92
-2 16 0 27.86 0.92
2 16 0 28.83 0.96
-2 16 0 27.69 0.91
4 -16 0 86.14 2.43
4 16 0 90.34 2.81
4 16 0 85.84 2.66
-4 16 0 80.82 2.65
6 -16 0 31.89 0.95
6 16 0 34.1 1.04
-6 16 0 31.23 1.02
6 16 0 30.64 1.11
8 -16 0 27.04 0.83
8 16 0 28.68 1.01
8 16 0 26.33 0.89
10 -16 0 11.28 0.45
10 16 0 11.93 0.57
12 -16 0 6.67 0.36
12 16 0 6.55 0.49
1 -17 0 7.6 0.24
1 17 0 7.46 0.3
1 17 0 7.25 0.3
-1 17 0 7.94 0.31
-1 17 0 7.83 0.27
3 -17 0 1.94 0.11
3 17 0 1.97 0.18
-3 17 0 1.99 0.16
3 17 0 2.11 0.16
5 -17 0 5.33 0.21
-5 17 0 5.14 0.24
5 17 0 5.03 0.25
5 17 0 5.31 0.3
7 -17 0 0.51 0.11
7 17 0 0.41 0.16
-7 17 0 0.68 0.1
7 17 0 0.81 0.12
9 -17 0 0.07 0.13
9 17 0 -0.26 0.19
11 -17 0 -0.06 0.16
11 17 0 0 0.23
0 -18 0 333.74 9.65
0 18 0 359.11 11.1
0 18 0 339.55 10.5
2 -18 0 15.45 0.46
2 18 0 15.26 0.54
-2 18 0 15.71 0.54
2 18 0 15.99 0.56
4 -18 0 15.71 0.49
4 18 0 15.51 0.59
4 18 0 15.78 0.56
-4 18 0 16.28 0.55
6 -18 0 40.93 1.19
-6 18 0 40.63 1.29
6 18 0 41.54 1.3
6 18 0 38.98 1.4
8 -18 0 7.07 0.31
8 18 0 7.32 0.33
8 18 0 8.03 0.44
10 -18 0 8.16 0.38
10 18 0 9.15 0.5
1 -19 0 43.81 1.2
1 19 0 39.99 1.4
-1 19 0 41.34 1.38
1 19 0 43.04 1.35
-1 19 0 42.6 1.35
3 -19 0 17.07 0.51
3 19 0 16.14 0.62
3 19 0 17.45 0.59
-3 19 0 17.25 0.59
5 -19 0 117.41 3.4
5 19 0 122.65 3.93
-5 19 0 117.08 3.7
5 19 0 122.99 3.71
7 -19 0 13.18 0.45
-7 19 0 13.27 0.48
7 19 0 14.42 0.5
7 19 0 12.11 0.56
9 -19 0 29.83 0.94
9 19 0 30.76 1.13
11 -19 0 12.51 0.51
11 19 0 13 0.64
0 20 0 14.1 0.48
0 20 0 13.3 0.5
2 -20 0 1.1 0.09
2 20 0 1.1 0.14
2 20 0 0.85 0.12
-2 20 0 0.79 0.12
4 -20 0 1.24 0.12
4 20 0 1.23 0.14
4 20 0 0.96 0.15
-4 20 0 1.26 0.14
6 -20 0 2.82 0.19
6 20 0 3.52 0.23
6 20 0 3.84 0.29
-6 20 0 3.04 0.21
8 -20 0 2.7 0.22
8 20 0 2.54 0.34
8 20 0 2.49 0.23
10 -20 0 1.16 0.18
10 20 0 1.45 0.26
1 21 0 21.43 0.77
-1 21 0 22.8 0.77
1 21 0 23.57 0.77
3 -21 0 38.18 1.1
3 21 0 37.45 1.3
-3 21 0 37.68 1.24
3 21 0 40.05 1.25
5 -21 0 30.67 0.93
-5 21 0 32.84 1.03
5 21 0 30.45 1.1
5 21 0 31.26 1.04
7 -21 0 4.03 0.24
7 21 0 4.81 0.28
7 21 0 3.97 0.33
-7 21 0 4.37 0.25
9 -21 0 11.41 0.44
9 21 0 10.86 0.57
11 -21 0 6.27 0.35
11 21 0 5.64 0.5
0 22 0 98.4 3.06
-2 22 0 19.22 0.65
2 22 0 16.98 0.65
2 22 0 18.5 0.65
4 -22 0 45.28 1.3
-4 22 0 46.87 1.45
4 22 0 44.36 1.52
4 22 0 43.31 1.45
6 -22 0 30.6 0.93
-6 22 0 30.64 1.02
6 22 0 29.97 1.11
6 22 0 32.85 1.04
8 -22 0 11.1 0.42
8 22 0 12.05 0.47
8 22 0 10.57 0.54
10 -22 0 14.58 0.54
10 22 0 14.5 0.7
-1 23 0 8.14 0.36
1 23 0 8.14 0.33
1 23 0 7.27 0.35
3 23 0 0.49 0.13
3 23 0 0.38 0.14
-3 23 0 0.4 0.13
5 -23 0 12.41 0.41
-5 23 0 12.14 0.48
5 23 0 11.95 0.5
5 23 0 12.55 0.52
7 -23 0 3.3 0.22
7 23 0 3.21 0.27
7 23 0 3.28 0.32
9 -23 0 4.04 0.28
9 23 0 3.26 0.4
0 24 0 3.41 0.27
-2 24 0 48.92 1.59
2 24 0 47.6 1.65
2 24 0 51.61 1.6
4 24 0 5.44 0.31
-4 24 0 5.27 0.31
4 24 0 5.56 0.32
6 -24 0 10.01 0.36
6 24 0 9.89 0.48
-6 24 0 9.6 0.42
6 24 0 9.79 0.44
8 -24 0 9.09 0.37
8 24 0 9.01 0.43
8 24 0 8.53 0.48
-1 25 0 42.73 1.48
1 25 0 48.31 1.49
3 25 0 22.77 0.83
-3 25 0 22.35 0.83
3 25 0 26.17 0.86
5 25 0 10.56 0.5
5 25 0 10.92 0.47
-5 25 0 11.32 0.45
7 25 0 41.28 1.47
7 25 0 41.68 1.38
9 -25 0 5.92 0.32
9 25 0 5.13 0.45
0 26 0 7.84 0.38
2 26 0 0.24 0.16
-2 26 0 0.12 0.15
4 26 0 5.66 0.34
4 26 0 5.76 0.34
-4 26 0 5.89 0.33
6 26 0 8.68 0.44
-6 26 0 7.51 0.38
6 26 0 7.22 0.41
8 26 0 3.34 0.39
8 26 0 3.51 0.33
-1 27 0 2.62 0.27
1 27 0 2.19 0.27
-3 27 0 12.25 0.51
3 27 0 11.53 0.51
5 27 0 2.01 0.22
5 27 0 1.85 0.22
-5 27 0 2.34 0.28
7 27 0 38.19 1.31
7 27 0 39.08 1.39
0 28 0 3.23 0.3
-2 28 0 81.33 2.61
2 28 0 83.48 2.62
4 28 0 12.36 0.55
-4 28 0 12.51 0.54
6 28 0 8.46 0.47
-6 28 0 8.55 0.43
6 28 0 9.01 0.45
-1 29 0 0.9 0.2
1 29 0 1.42 0.22
3 29 0 13.29 0.56
-3 29 0 12.53 0.56
5 29 0 0.35 0.2
-5 29 0 -0.1 0.17
0 30 0 7.73 0.44
-2 30 0 2.39 0.31
2 30 0 2.17 0.26
-4 30 0 5.54 0.36
4 30 0 5.03 0.38
6 30 0 3.23 0.34
1 31 0 25.36 0.95
-1 31 0 27.34 0.97
3 31 0 8.68 0.47
-3 31 0 8.52 0.46
0 32 0 0.46 0.21
-2 32 0 7.65 0.46
2 32 0 7.38 0.45
14 0 -1 -0.2 0.15
12 0 -1 -0.14 0.13
12 0 -1 -0.12 0.16
10 0 -1 -0.13 0.1
10 0 -1 -0.07 0.12
8 0 -1 0.03 0.07
8 0 -1 -0.1 0.09
6 0 -1 -0.04 0.06
6 0 -1 -0.04 0.05
-6 0 1 -0.05 0.02
-4 0 1 -0.25 0.02
4 0 -1 -0.22 0.05
4 0 -1 -0.18 0.04
-2 0 1 -0.34 0.02
2 0 -1 -0.35 0.03
2 0 -1 -0.32 0.04
0 0 -1 -0.04 0.01
0 0 1 -0.04 0.01
0 0 1 -0.04 0.01
2 0 1 -0.05 0.03
-2 0 -1 -0.02 0.01
4 0 1 -0.04 0.04
4 0 1 -0.03 0.03
6 0 1 -0.03 0.06
6 0 1 -0.07 0.05
8 0 1 -0.02 0.07
8 0 1 -0.06 0.08
10 0 1 -0.14 0.1
10 0 1 -0.16 0.12
12 0 1 -0.2 0.16
12 0 1 0.06 0.14
14 0 1 -0.24 0.17
13 -1 -1 0.13 0.18
13 -1 -1 -0.27 0.14
13 1 -1 -0.51 0.14
13 1 -1 -0.02 0.19
11 -1 -1 3.53 0.23
11 -1 -1 3.63 0.28
11 1 -1 3.85 0.3
11 1 -1 2.77 0.22
9 -1 -1 0.48 0.1
9 -1 -1 0.56 0.12
9 1 -1 0.46 0.12
9 1 -1 0.49 0.1
7 -1 -1 1.23 0.11
-7 -1 1 1.29 0.06
7 -1 -1 1.32 0.14
7 1 -1 1.2 0.15
7 1 -1 1.36 0.11
-7 1 1 1.35 0.06
-5 -1 1 0.79 0.05
5 -1 -1 0.81 0.08
5 -1 -1 0.82 0.09
5 1 -1 0.84 0.1
-5 1 1 0.78 0.05
5 1 -1 0.64 0.07
-3 -1 1 0.34 0.04
3 -1 -1 0.21 0.04
3 -1 -1 0.22 0.04
-3 -1 1 0.37 0.04
3 -1 -1 0.33 0.03
3 1 -1 0.24 0.05
3 1 -1 0.29 0.03
-3 1 1 0.34 0.04
1 -1 -1 1.55 0.07
-1 -1 1 1.67 0.06
1 -1 -1 1.77 0.06
-1 -1 1 1.64 0.07
1 -1 -1 1.65 0.06
1 1 -1 1.66 0.07
1 1 -1 1.61 0.06
-1 1 1 1.67 0.06
-1 1 1 1.73 0.06
-1 -1 -1 2.06 0.07
1 -1 1 1.98 0.08
1 -1 1 2.09 0.07
-1 -1 -1 2.1 0.07
1 -1 1 2.15 0.07
1 1 1 2.05 0.09
-1 1 -1 2.03 0.07
1 1 1 2.09 0.07
-3 -1 -1 84.87 2.49
3 -1 1 83.7 2.66
3 -1 1 76.1 2.3
3 1 1 80.32 2.67
3 1 1 83.76 2.5
5 -1 1 11.46 0.38
5 1 1 10.27 0.38
5 1 1 10.19 0.32
7 -1 1 29.95 0.99
7 -1 1 29.33 0.85
7 1 1 28.76 0.99
7 1 1 28.86 0.85
9 -1 1 10.37 0.36
9 -1 1 10.69 0.43
9 1 1 10.05 0.43
9 1 1 10.71 0.36
11 -1 1 13.61 0.46
11 -1 1 13.47 0.55
11 1 1 13.59 0.56
11 1 1 12.61 0.45
13 -1 1 9.57 0.4
13 -1 1 8.99 0.49
13 1 1 8.76 0.5
13 1 1 9.81 0.41
14 -2 -1 0.24 0.17
14 2 -1 -0.03 0.15
14 2 -1 -0.1 0.21
12 -2 -1 -0.23 0.15
12 -2 -1 -0.07 0.14
12 2 -1 -0.05 0.18
12 2 -1 0.04 0.13
10 -2 -1 18.6 0.68
10 -2 -1 18.93 0.58
10 2 -1 17.29 0.69
10 2 -1 18.22 0.58
8 -2 -1 0.92 0.11
8 -2 -1 1.18 0.13
8 2 -1 0.84 0.12
8 2 -1 1.07 0.12
6 -2 -1 6.7 0.22
-6 -2 1 6.35 0.21
6 -2 -1 6.47 0.26
6 2 -1 6.42 0.22
6 2 -1 6.7 0.27
-6 2 1 6.29 0.21
4 -2 -1 6.05 0.19
4 -2 -1 6 0.22
4 2 -1 5.81 0.23
-4 2 1 5.85 0.19
4 2 -1 5.75 0.2
4 2 -1 5.54 0.19
2 -2 -1 157.61 4.52
-2 -2 1 142.44 4.17
2 -2 -1 147.54 4.77
2 2 -1 133.07 4.16
2 2 -1 150.01 4.95
-2 2 1 146.22 4.52
-2 2 1 155.29 4.77
0 -2 1 10.12 0.29
0 -2 -1 10.63 0.32
0 -2 1 10.02 0.32
0 -2 -1 10.38 0.29
0 -2 -1 10.04 0.34
0 -2 1 10.69 0.34
0 2 -1 9.56 0.32
0 2 -1 10.01 0.29
0 2 -1 9.9 0.34
0 2 1 10.66 0.34
0 2 1 10.47 0.32
2 -2 1 17.98 0.55
2 -2 1 17.91 0.59
-2 -2 -1 18.45 0.56
2 2 1 17.75 0.55
-2 2 -1 17.93 0.55
4 -2 1 16.26 0.56
4 -2 1 17.26 0.49
-4 -2 -1 16.39 0.52
4 2 1 16.29 0.49
4 2 1 17.36 0.52
4 2 1 16.89 0.57
6 -2 1 12.31 0.39
6 -2 1 13.49 0.45
6 2 1 12.11 0.46
6 2 1 12.88 0.39
8 -2 1 35.91 1
8 -2 1 32.88 1.15
8 2 1 33.2 1
8 2 1 34.86 1.16
10 -2 1 0.31 0.1
10 -2 1 0.31 0.13
10 2 1 0.29 0.1
10 2 1 0.4 0.14
12 -2 1 24.21 0.92
12 -2 1 25.23 0.79
12 2 1 25.08 0.79
12 2 1 25.25 0.94
14 -2 1 1.51 0.2
14 2 1 2.01 0.28
14 2 1 1.27 0.19
13 -3 -1 2.28 0.27
13 3 -1 2.12 0.19
13 3 -1 1.74 0.25
11 -3 -1 -0.09 0.13
11 -3 -1 -0.07 0.12
11 3 -1 -0.16 0.16
11 3 -1 -0.2 0.11
9 -3 -1 1.4 0.12
9 -3 -1 1.36 0.14
9 3 -1 1.28 0.15
9 3 -1 1.22 0.14
-7 -3 1 10.24 0.32
7 -3 -1 9.63 0.38
7 3 -1 9.85 0.4
7 3 -1 10.38 0.32
-7 3 1 10.22 0.32
5 -3 -1 14.35 0.43
5 -3 -1 14.75 0.49
5 3 -1 13.17 0.45
5 3 -1 13.86 0.5
-5 3 1 14.47 0.44
5 3 -1 13.39 0.42
3 -3 -1 2.48 0.1
3 -3 -1 2.55 0.11
3 3 -1 2.42 0.11
3 3 -1 2.5 0.09
3 3 -1 2.4 0.13
-3 3 1 2.56 0.1
1 -3 -1 9.58 0.31
1 -3 -1 9.74 0.28
1 -3 -1 9.8 0.31
-1 -3 1 9.15 0.27
1 3 -1 9.36 0.32
-1 3 1 9.57 0.3
1 3 -1 9.31 0.27
-1 3 1 9.3 0.31
1 3 -1 9.21 0.31
-1 -3 -1 2.54 0.08
1 -3 1 2.73 0.1
1 -3 1 2.75 0.1
1 3 1 2.55 0.11
-1 3 -1 2.73 0.1
-1 3 -1 2.57 0.1
1 3 1 2.63 0.1
3 -3 1 18.35 0.54
-3 -3 -1 17.21 0.54
3 -3 1 17.57 0.58
3 3 1 17.06 0.54
-3 3 -1 17.79 0.54
3 3 1 16.84 0.59
5 -3 1 18.07 0.63
-5 -3 -1 18.8 0.57
5 3 1 18.51 0.54
5 3 1 18.31 0.64
5 3 1 18.94 0.58
7 -3 1 22.05 0.68
7 -3 1 23.61 0.79
7 3 1 21.84 0.8
7 3 1 24.44 0.68
9 -3 1 1.58 0.18
9 -3 1 1.82 0.16
9 3 1 1.88 0.21
9 3 1 1.89 0.14
11 -3 1 0 0.12
11 -3 1 -0.15 0.13
11 3 1 -0.1 0.1
11 3 1 0.01 0.16
13 -3 1 1.65 0.2
13 3 1 2.22 0.24
13 3 1 1.83 0.25
14 -4 -1 0.52 0.18
14 4 -1 0.37 0.16
14 4 -1 0.08 0.23
12 -4 -1 0.05 0.14
12 4 -1 -0.07 0.19
12 4 -1 0 0.12
10 -4 -1 0 0.1
10 -4 -1 0.05 0.12
10 4 -1 -0.08 0.09
10 4 -1 -0.04 0.14
8 -4 -1 2 0.15
-8 -4 1 2.38 0.1
8 -4 -1 2.55 0.17
8 4 -1 2.58 0.2
8 4 -1 2.23 0.14
6 -4 -1 0.13 0.06
6 -4 -1 0.07 0.06
6 4 -1 0.22 0.05
-6 4 1 0.15 0.03
6 4 -1 0.08 0.07
6 4 -1 0.11 0.05
4 -4 -1 0.03 0.04
4 -4 -1 0.04 0.04
4 4 -1 0.06 0.06
4 4 -1 0.02 0.03
-4 4 1 0.06 0.03
4 4 -1 0.01 0.04
-2 -4 1 1.07 0.04
2 -4 -1 0.89 0.05
2 -4 -1 1.12 0.06
-2 4 1 1 0.05
-2 4 1 1.08 0.06
2 4 -1 1.09 0.05
2 4 -1 1.19 0.09
2 4 -1 0.98 0.07
0 -4 -1 153.89 4.37
0 -4 -1 168.7 5.01
0 -4 1 154.79 5.02
0 -4 1 148.32 4.35
0 4 1 151.44 4.37
0 4 -1 145.28 5.03
0 4 1 155.37 5.01
0 4 -1 156.73 4.77
0 4 1 159.5 4.78
2 -4 1 6.05 0.19
2 -4 1 5.75 0.21
2 -4 1 5.77 0.2
2 -4 1 5.95 0.18
-2 -4 -1 5.91 0.18
2 4 1 6.07 0.2
-2 4 -1 6.15 0.2
2 4 1 5.96 0.22
4 -4 1 45.78 1.51
4 -4 1 48.58 1.32
4 -4 1 46.29 1.42
4 4 1 46.54 1.32
4 4 1 46.74 1.53
-4 4 -1 46.86 1.42
4 4 1 44.95 1.43
6 -4 1 19.51 0.57
6 -4 1 18.59 0.65
6 4 1 19.03 0.67
6 4 1 19.99 0.57
6 4 1 19.21 0.6
8 -4 1 5.18 0.21
8 -4 1 4.97 0.24
8 4 1 5.01 0.2
8 4 1 5.01 0.26
10 -4 1 7.51 0.31
10 -4 1 8.09 0.36
10 4 1 7.41 0.39
10 4 1 8.44 0.3
12 -4 1 3.9 0.3
12 -4 1 4.13 0.29
12 4 1 4.07 0.24
12 4 1 3.84 0.36
14 -4 1 6.55 0.37
14 4 1 6.58 0.48
14 4 1 6.21 0.35
13 -5 -1 0.37 0.17
13 5 -1 0.23 0.14
13 5 -1 -0.01 0.21
11 -5 -1 6.46 0.34
11 -5 -1 6.88 0.31
11 5 -1 6.49 0.28
11 5 -1 6.48 0.38
9 -5 -1 6.24 0.3
9 -5 -1 6.73 0.27
9 5 -1 6.81 0.25
9 5 -1 6.08 0.33
7 -5 -1 2.51 0.15
7 -5 -1 2.38 0.14
7 5 -1 2.32 0.18
7 5 -1 2.44 0.13
-7 5 1 2.34 0.1
5 -5 -1 0.01 0.05
5 -5 -1 -0.02 0.05
5 5 -1 0.1 0.04
5 5 -1 0.06 0.07
-5 5 1 0.06 0.04
5 5 -1 0.01 0.04
3 -5 -1 1.52 0.08
3 -5 -1 1.53 0.08
3 5 -1 1.31 0.07
-3 5 1 1.4 0.08
3 5 -1 1.3 0.09
3 5 -1 1.49 0.11
-3 5 1 1.49 0.07
1 -5 -1 3.23 0.11
-1 5 1 3.1 0.12
1 5 -1 3.4 0.13
1 5 -1 3.24 0.13
1 -5 1 24.33 0.66
1 -5 1 23.98 0.76
-1 -5 -1 24.13 0.66
1 5 1 22.03 0.76
-1 5 -1 22.86 0.76
1 5 1 23.58 0.66
1 5 1 22.72 0.73
-1 5 -1 22.65 0.72
3 -5 1 12.59 0.37
3 -5 1 12.46 0.42
3 5 1 12.69 0.44
3 5 1 12.5 0.4
-3 5 -1 12.63 0.4
5 -5 1 17.74 0.54
5 -5 1 18.21 0.52
5 -5 1 17.88 0.59
5 5 1 16.99 0.55
5 5 1 17.17 0.51
5 5 1 17.92 0.61
-5 5 -1 17.58 0.55
7 -5 1 28.23 0.84
7 -5 1 28.29 0.95
7 5 1 28.66 0.83
7 5 1 28 0.88
7 5 1 29.18 0.98
9 -5 1 17.12 0.54
9 -5 1 16.21 0.62
9 5 1 17.7 0.64
9 5 1 17.22 0.53
11 -5 1 13.63 0.54
11 -5 1 14.01 0.48
11 5 1 13.17 0.58
11 5 1 13.72 0.46
13 -5 1 7.04 0.36
13 5 1 6.96 0.33
13 5 1 6.09 0.44
14 -6 -1 1.14 0.21
14 6 -1 1.1 0.26
12 -6 -1 0.18 0.15
12 6 -1 0.66 0.14
12 6 -1 0.42 0.2
10 -6 -1 4.94 0.25
10 -6 -1 4.79 0.27
10 6 -1 4.89 0.33
10 6 -1 4.93 0.23
-8 -6 1 15.17 0.49
8 -6 -1 16.24 0.49
8 -6 -1 14.37 0.54
8 6 -1 16.4 0.59
8 6 -1 14.97 0.47
6 -6 -1 8.19 0.29
6 -6 -1 7.13 0.26
-6 6 1 8 0.26
6 6 -1 7.51 0.32
6 6 -1 7.77 0.25
6 6 -1 7.81 0.27
4 -6 -1 1.27 0.08
4 -6 -1 1.29 0.09
4 6 -1 1.21 0.07
4 6 -1 1.29 0.12
4 6 -1 1.26 0.09
-4 6 1 1.2 0.08
2 -6 -1 3.8 0.13
2 6 -1 3.93 0.12
2 6 -1 4.21 0.17
-2 6 1 3.73 0.15
2 6 -1 3.84 0.15
0 -6 -1 13.22 0.43
0 -6 -1 12.57 0.38
0 -6 1 13.44 0.37
0 -6 1 13.14 0.37
0 6 1 13.3 0.38
0 6 1 12.8 0.43
0 6 1 13.21 0.42
0 6 -1 12.55 0.42
0 6 -1 12.24 0.44
2 -6 1 14.9 0.49
-2 -6 -1 14.84 0.43
2 -6 1 14.56 0.43
2 6 1 14.92 0.5
-2 6 -1 15.08 0.47
2 6 1 14.94 0.48
4 -6 1 2.7 0.11
4 6 1 2.75 0.15
-4 6 -1 2.64 0.11
4 6 1 2.87 0.1
4 6 1 2.46 0.11
6 -6 1 0.09 0.06
6 -6 1 0.06 0.05
-6 6 -1 0.11 0.03
6 6 1 0.06 0.08
6 6 1 0.1 0.05
6 6 1 0.12 0.04
8 -6 1 8.5 0.33
8 -6 1 8.05 0.3
8 6 1 8.5 0.37
8 6 1 8.43 0.29
10 -6 1 0.8 0.13
10 -6 1 0.87 0.13
10 6 1 0.91 0.11
10 6 1 0.5 0.17
12 -6 1 6.51 0.34
12 6 1 6.18 0.43
12 6 1 5.74 0.29
13 -7 -1 9.37 0.4
13 7 -1 8.37 0.5
11 -7 -1 0.38 0.14
11 7 -1 -0.02 0.17
11 7 -1 0.3 0.11
9 -7 -1 -0.03 0.09
9 -7 -1 -0.04 0.09
9 7 -1 0.02 0.08
9 7 -1 0 0.14
7 -7 -1 3.02 0.16
7 -7 -1 2.87 0.16
7 7 -1 2.9 0.21
-7 7 1 2.95 0.12
7 7 -1 3 0.14
7 7 -1 2.59 0.13
5 -7 -1 6.42 0.21
5 -7 -1 5.86 0.22
5 7 -1 6.22 0.2
5 7 -1 5.87 0.22
-5 7 1 6.24 0.21
3 -7 -1 37.67 1.07
3 7 -1 36.98 1.06
-3 7 1 37.67 1.17
3 7 -1 39.1 1.17
3 7 -1 36.94 1.24
1 -7 -1 7.38 0.25
1 -7 -1 7.38 0.23
-1 7 1 7.76 0.25
1 7 -1 7.55 0.27
1 7 -1 7.61 0.26
-1 -7 -1 42.3 1.19
1 -7 1 41.95 1.19
-1 7 -1 41.82 1.3
-1 7 -1 43.92 1.37
1 7 1 43.3 1.31
1 7 1 39.42 1.37
1 7 1 43.06 1.19
3 -7 1 5.31 0.17
3 -7 1 5.18 0.18
3 7 1 5.03 0.19
-3 7 -1 5.23 0.18
3 7 1 5.11 0.21
5 -7 1 52.58 1.48
5 -7 1 54.14 1.69
5 7 1 51.23 1.47
5 7 1 51.64 1.6
-5 7 -1 53.08 1.59
5 7 1 48.79 1.71
7 -7 1 2.36 0.14
7 7 1 2.23 0.12
7 7 1 2.13 0.18
7 7 1 2.28 0.11
9 -7 1 21.09 0.73
9 -7 1 20.89 0.64
9 7 1 20.83 0.63
9 7 1 19.87 0.76
11 -7 1 12.74 0.48
11 7 1 13.99 0.46
11 7 1 13.23 0.58
13 -7 1 0.57 0.18
13 7 1 0.42 0.15
13 7 1 0.2 0.23
12 -8 -1 0.94 0.17
12 8 -1 1.04 0.14
12 8 -1 1.13 0.23
10 -8 -1 0.98 0.13
10 8 -1 0.94 0.18
10 8 -1 1.24 0.12
8 -8 -1 30.4 0.94
8 -8 -1 31.55 1.06
8 8 -1 32.9 1
8 8 -1 30.71 1.1
8 8 -1 32.85 0.92
6 -8 -1 0 0.05
6 -8 -1 -0.09 0.06
-6 8 1 -0.03 0.04
6 8 -1 0.01 0.04
6 8 -1 0.03 0.05
6 8 -1 -0.01 0.08
4 -8 -1 0.05 0.05
4 -8 -1 0.03 0.03
-4 8 1 0.04 0.05
4 8 -1 0.15 0.08
-4 8 1 0.08 0.02
4 8 -1 0.1 0.05
4 8 -1 0.05 0.03
2 -8 -1 42.29 1.18
2 8 -1 41.29 1.36
-2 8 1 42.18 1.28
2 8 -1 39.8 1.29
0 -8 1 13.88 0.38
0 -8 -1 13.27 0.39
0 -8 1 13.14 0.39
0 8 1 13.37 0.44
0 8 -1 14.16 0.44
0 8 1 13.62 0.45
0 8 -1 13.38 0.45
-2 -8 -1 14.13 0.4
2 -8 1 14.57 0.41
2 8 1 13.7 0.45
2 8 1 14 0.48
-2 8 -1 13.36 0.46
-2 8 -1 13.58 0.45
4 -8 1 24.36 0.81
4 -8 1 24.51 0.72
4 8 1 25 0.78
-4 8 -1 26.63 0.78
4 8 1 23.94 0.84
6 -8 1 49.95 1.48
6 -8 1 49.57 1.68
6 8 1 53.73 1.59
6 8 1 52.28 1.71
-6 8 -1 51.26 1.58
6 8 1 52.39 1.46
8 -8 1 4.36 0.2
8 -8 1 4.07 0.21
8 8 1 4.59 0.26
8 8 1 4.13 0.18
10 -8 1 45.78 1.32
10 8 1 44.91 1.54
10 8 1 43.75 1.3
12 -8 1 3.66 0.28
12 8 1 2.74 0.23
12 8 1 3.6 0.39
13 -9 -1 1.31 0.19
13 9 -1 0.84 0.25
11 -9 -1 -0.03 0.13
11 9 -1 0 0.1
11 9 -1 -0.05 0.19
9 -9 -1 1.19 0.13
9 9 -1 1.08 0.17
9 9 -1 1.18 0.14
7 -9 -1 0.56 0.1
7 -9 -1 0.32 0.07
7 9 -1 0.5 0.08
7 9 -1 0.43 0.06
-7 9 1 0.5 0.06
7 9 -1 0.43 0.12
5 -9 -1 0.37 0.07
5 -9 -1 0.41 0.06
5 9 -1 0.45 0.1
5 9 -1 0.48 0.06
-5 9 1 0.44 0.06
5 9 -1 0.38 0.06
3 -9 -1 1.62 0.09
3 9 -1 1.6 0.05
-3 9 1 1.56 0.1
3 9 -1 1.68 0.13
3 9 -1 1.62 0.06
3 9 -1 1.63 0.1
1 -9 -1 1.95 0.08
1 -9 -1 1.81 0.08
-1 9 1 1.88 0.08
-1 9 1 1.91 0.11
1 9 -1 1.8 0.11
1 9 -1 1.81 0.11
-1 -9 -1 1.25 0.05
1 -9 1 1.19 0.06
-1 9 -1 1.22 0.07
1 9 1 1.15 0.09
1 9 1 1.37 0.09
1 9 1 1.3 0.06
-1 9 -1 1.14 0.09
3 -9 1 1.45 0.08
3 -9 1 1.37 0.07
3 9 1 1.34 0.11
3 9 1 1.34 0.1
-3 9 -1 1.26 0.09
5 -9 1 4.59 0.18
5 -9 1 4.78 0.18
5 9 1 4.69 0.16
-5 9 -1 4.43 0.17
5 9 1 4.84 0.19
5 9 1 4.69 0.22
7 -9 1 7.08 0.27
7 9 1 6.9 0.32
7 9 1 6.86 0.25
-7 9 -1 6.54 0.23
7 9 1 6.92 0.23
9 -9 1 1.45 0.17
9 -9 1 1.4 0.16
9 9 1 1.62 0.14
9 9 1 1.78 0.19
11 -9 1 1.35 0.17
11 9 1 1.64 0.23
11 9 1 1.66 0.18
13 -9 1 -0.21 0.17
13 9 1 -0.47 0.24
12 -10 -1 -0.09 0.15
12 10 -1 -0.08 0.21
10 -10 -1 0.03 0.13
10 10 -1 0.12 0.09
10 10 -1 0.24 0.17
8 -10 -1 2.89 0.19
8 10 -1 2.74 0.24
8 10 -1 3.17 0.16
8 10 -1 2.8 0.14
6 -10 -1 0.01 0.07
6 -10 -1 0.13 0.04
6 10 -1 0.05 0.04
6 10 -1 0.11 0.1
6 10 -1 0.04 0.06
-6 10 1 0.11 0.06
4 -10 -1 2.26 0.12
-4 10 1 2.45 0.12
4 10 -1 2.34 0.08
4 10 -1 2.59 0.13
2 -10 -1 3.22 0.12
-2 10 1 3.08 0.14
2 10 -1 3.19 0.16
0 -10 1 23.24 0.68
0 -10 -1 23.69 0.68
0 10 -1 24.22 0.79
0 10 1 23.86 0.76
0 10 1 25.34 0.79
-2 -10 -1 1.27 0.05
2 -10 1 1.13 0.07
2 10 1 1.3 0.1
-2 10 -1 1.18 0.07
2 10 1 1.36 0.1
-2 10 -1 1.24 0.09
4 -10 1 12.78 0.42
4 -10 1 12.27 0.39
4 10 1 12.56 0.43
-4 10 -1 13.25 0.42
4 10 1 13.04 0.46
4 10 1 12.62 0.37
6 -10 1 16 0.48
6 -10 1 15.6 0.52
6 10 1 15.03 0.51
6 10 1 16.1 0.57
6 10 1 15.5 0.46
-6 10 -1 14.82 0.5
8 -10 1 0.4 0.08
8 -10 1 0.48 0.1
8 10 1 0.55 0.08
8 10 1 0.42 0.13
8 10 1 0.32 0.07
10 -10 1 8.94 0.35
10 10 1 8.33 0.44
10 10 1 8.88 0.32
12 -10 1 0.93 0.18
12 10 1 1.17 0.25
13 -11 -1 6.97 0.37
13 11 -1 6.45 0.48
11 -11 -1 0.86 0.16
11 11 -1 0.49 0.21
9 -11 -1 0.07 0.11
9 11 -1 -0.07 0.08
9 11 -1 -0.06 0.15
7 -11 -1 0.02 0.08
7 11 -1 0.03 0.05
7 11 -1 0.27 0.12
-7 11 1 0.12 0.06
7 11 -1 0.12 0.07
5 -11 -1 2.93 0.14
5 11 -1 2.89 0.15
-5 11 1 2.73 0.14
5 11 -1 2.59 0.1
3 -11 -1 8.76 0.27
-3 11 1 8.75 0.3
3 11 -1 8.52 0.31
3 11 -1 8.12 0.33
1 -11 -1 11.24 0.37
1 -11 -1 11.15 0.33
-1 11 1 11.29 0.37
-1 11 1 11.24 0.38
1 11 -1 10.96 0.39
1 11 -1 10.89 0.38
1 -11 1 16.68 0.47
-1 -11 -1 16.66 0.47
1 11 1 16.13 0.54
1 11 1 16.02 0.55
-1 11 -1 15.51 0.53
-1 11 -1 16.62 0.54
3 -11 1 0.39 0.04
3 -11 1 0.37 0.05
-3 11 -1 0.43 0.07
3 11 1 0.37 0.08
3 11 1 0.33 0.07
5 -11 1 91.94 2.89
5 -11 1 91.37 2.54
-5 11 -1 89.02 2.75
5 11 1 89.82 2.93
5 11 1 90.99 2.52
5 11 1 85.39 2.76
7 -11 1 0.95 0.1
7 -11 1 1.02 0.1
7 11 1 0.93 0.13
7 11 1 0.88 0.09
-7 11 -1 0.62 0.08
7 11 1 0.81 0.09
9 -11 1 25.14 0.79
9 11 1 25.97 0.76
9 11 1 25.7 0.94
11 -11 1 18.1 0.61
11 11 1 17.78 0.76
13 -11 1 0.6 0.19
13 11 1 0.87 0.28
12 -12 -1 2.95 0.28
12 12 -1 3.19 0.39
10 -12 -1 -0.21 0.13
10 12 -1 0.07 0.18
8 -12 -1 8.89 0.32
8 12 -1 9.14 0.41
8 12 -1 8.3 0.33
8 12 -1 8.49 0.28
6 -12 -1 3.84 0.18
6 12 -1 4.1 0.24
6 12 -1 3.82 0.18
-6 12 1 3.75 0.17
6 12 -1 3.55 0.13
4 -12 -1 1.35 0.1
4 12 -1 1.78 0.16
4 12 -1 1.49 0.13
-4 12 1 1.45 0.11
2 -12 -1 19.57 0.54
2 12 -1 19.59 0.61
-2 12 1 18.11 0.6
2 12 -1 16.97 0.63
0 -12 1 69.71 1.93
0 -12 -1 69.54 1.94
0 12 -1 71.41 2.13
0 12 -1 66.46 2.23
0 12 1 70.64 2.13
0 12 1 65.11 2.23
2 -12 1 9.39 0.28
-2 -12 -1 9.21 0.26
2 12 1 8.86 0.32
-2 12 -1 8.77 0.32
-2 12 -1 8.85 0.31
2 12 1 9.02 0.34
4 -12 1 6.17 0.22
4 -12 1 6.29 0.22
4 12 1 6.27 0.25
4 12 1 6.35 0.27
4 12 1 6.28 0.19
-4 12 -1 6.35 0.24
6 -12 1 4.94 0.2
6 -12 1 4.85 0.19
-6 12 -1 5.33 0.2
6 12 1 5.35 0.21
6 12 1 4.86 0.17
6 12 1 4.69 0.27
8 -12 1 0.51 0.11
8 12 1 0.54 0.09
8 12 1 0.53 0.07
8 12 1 0.49 0.14
10 -12 1 11.11 0.42
10 12 1 10.72 0.52
12 -12 1 0.1 0.17
12 12 1 0.19 0.24
13 -13 -1 0.07 0.18
13 13 -1 -0.25 0.24
11 -13 -1 4.24 0.3
11 13 -1 4.43 0.39
9 -13 -1 3.08 0.22
9 13 -1 3.5 0.3
7 -13 -1 12.77 0.42
7 13 -1 12.8 0.45
-7 13 1 12.08 0.43
7 13 -1 12.91 0.38
7 13 -1 12.66 0.51
5 -13 -1 0.73 0.08
5 13 -1 0.69 0.09
-5 13 1 0.68 0.08
5 13 -1 0.77 0.12
5 13 -1 0.87 0.05
3 -13 -1 1.69 0.1
3 13 -1 1.51 0.13
-3 13 1 1.48 0.12
3 13 -1 1.78 0.14
1 -13 -1 0 0.03
-1 13 1 0.04 0.03
1 13 -1 0.02 0.06
-1 13 1 0.11 0.07
1 13 -1 0.09 0.06
1 -13 1 4.86 0.16
-1 -13 -1 4.89 0.15
-1 13 -1 5.13 0.19
1 13 1 5.09 0.21
-1 13 -1 4.85 0.21
1 13 1 4.73 0.2
3 -13 1 5.61 0.18
3 -13 1 5.12 0.18
3 13 1 5.07 0.22
-3 13 -1 4.99 0.21
3 13 1 5.24 0.24
5 -13 1 0.73 0.08
5 -13 1 0.62 0.06
5 13 1 0.89 0.11
-5 13 -1 0.8 0.08
5 13 1 0.93 0.12
5 13 1 0.85 0.06
7 -13 1 24.58 0.76
7 13 1 26.02 0.9
7 13 1 25.38 0.73
7 13 1 25.26 0.82
-7 13 -1 25.19 0.8
9 -13 1 1.94 0.21
9 13 1 1.96 0.23
11 -13 1 2.31 0.26
11 13 1 2.61 0.36
13 -13 1 1.32 0.21
13 13 1 1.45 0.3
12 -14 -1 0.32 0.17
12 14 -1 -0.11 0.24
10 -14 -1 0.56 0.14
10 14 -1 0.23 0.2
8 -14 -1 1.67 0.18
8 14 -1 1.91 0.25
8 14 -1 1.76 0.17
6 -14 -1 0.14 0.08
6 14 -1 0.15 0.12
6 14 -1 0.21 0.09
-6 14 1 0.27 0.08
4 -14 -1 0.25 0.06
4 14 -1 0.23 0.08
4 14 -1 0.32 0.1
-4 14 1 0.21 0.07
2 -14 -1 3.64 0.14
-2 14 1 3.58 0.17
2 14 -1 3.62 0.18
2 14 -1 3.54 0.19
0 -14 1 13.86 0.39
0 -14 -1 13.46 0.4
0 14 1 13.58 0.47
0 14 -1 13.49 0.47
0 14 -1 13.74 0.47
-2 -14 -1 8.31 0.24
2 -14 1 8.16 0.26
2 14 1 8.62 0.25
-2 14 -1 8.11 0.31
2 14 1 7.9 0.32
-2 14 -1 8.63 0.29
2 14 1 8.76 0.31
4 -14 1 18.66 0.57
4 14 1 18.44 0.63
4 14 1 19.6 0.68
4 14 1 19.03 0.54
-4 14 -1 19.93 0.63
6 -14 1 18.4 0.58
6 14 1 19.22 0.63
-6 14 -1 18.73 0.62
6 14 1 19.89 0.7
6 14 1 18.51 0.55
8 -14 1 7.18 0.29
8 14 1 6.91 0.29
8 14 1 6.91 0.38
10 -14 1 6.55 0.32
10 14 1 6.42 0.44
12 -14 1 9.48 0.42
12 14 1 9.29 0.56
11 -15 -1 2.28 0.26
11 15 -1 1.85 0.27
9 -15 -1 0.14 0.12
9 15 -1 -0.01 0.17
7 -15 -1 5.06 0.24
7 15 -1 5.07 0.24
-7 15 1 5.24 0.22
7 15 -1 4.38 0.31
5 -15 -1 2.34 0.15
5 15 -1 1.9 0.21
5 15 -1 2.34 0.16
-5 15 1 2.59 0.16
3 -15 -1 1.18 0.09
-3 15 1 1.03 0.12
3 15 -1 1.18 0.13
3 15 -1 1.09 0.14
1 -15 -1 12.4 0.37
-1 15 1 12.62 0.42
-1 15 1 12.02 0.43
1 15 -1 12.77 0.45
-1 -15 -1 1.32 0.06
1 -15 1 1.26 0.07
1 15 1 1.3 0.12
-1 15 -1 1.2 0.09
1 15 1 1.23 0.13
-1 15 -1 1.18 0.12
3 -15 1 0.3 0.06
3 15 1 0.22 0.08
3 15 1 0.2 0.09
-3 15 -1 0.23 0.08
5 -15 1 18.77 0.58
-5 15 -1 18.65 0.62
5 15 1 19.66 0.69
5 15 1 18.38 0.63
5 15 1 19.2 0.54
7 -15 1 -0.05 0.09
-7 15 -1 -0.02 0.07
7 15 1 0.04 0.09
7 15 1 0.14 0.13
9 -15 1 7.9 0.34
9 15 1 8.12 0.44
11 -15 1 2.01 0.2
11 15 1 1.18 0.27
12 -16 -1 0.44 0.18
12 16 -1 0.3 0.26
10 -16 -1 9.93 0.41
10 16 -1 10.77 0.53
8 -16 -1 4.1 0.22
8 16 -1 3.43 0.22
8 16 -1 4.05 0.32
6 -16 -1 3.19 0.18
6 16 -1 3.3 0.26
-6 16 1 2.93 0.18
6 16 -1 2.92 0.19
4 -16 -1 1.17 0.11
4 16 -1 1.16 0.14
4 16 -1 1.34 0.18
-4 16 1 1.4 0.14
2 -16 -1 22.49 0.67
2 16 -1 23.47 0.79
-2 16 1 23.12 0.76
2 16 -1 23.42 0.76
0 -16 1 0.58 0.04
0 -16 -1 0.43 0.05
0 16 1 0.3 0.09
0 16 1 0.48 0.07
0 16 -1 0.39 0.09
0 16 -1 0.41 0.07
2 -16 1 9.86 0.3
-2 16 -1 9.99 0.34
2 16 1 9.45 0.36
2 16 1 9.47 0.38
-2 16 -1 10.41 0.37
4 -16 1 0.17 0.06
4 16 1 -0.02 0.08
-4 16 -1 0.12 0.08
4 16 1 0.09 0.1
6 -16 1 0.3 0.09
-6 16 -1 0.38 0.09
6 16 1 0.28 0.1
6 16 1 0.22 0.13
8 -16 1 10.93 0.39
8 16 1 11.08 0.5
8 16 1 10.34 0.41
10 -16 1 3.71 0.27
10 16 1 3.02 0.36
12 -16 1 5.28 0.35
12 16 1 6 0.48
11 -17 -1 1.9 0.21
11 17 -1 1.62 0.27
9 -17 -1 0.08 0.13
9 17 -1 0.08 0.18
7 -17 -1 0.19 0.1
7 17 -1 0.47 0.15
-7 17 1 0.34 0.1
7 17 -1 0.51 0.12
5 -17 -1 0.68 0.09
-5 17 1 0.49 0.1
5 17 -1 0.53 0.13
5 17 -1 0.42 0.11
3 -17 -1 10.25 0.32
-3 17 1 10.34 0.38
3 17 -1 10.04 0.4
3 17 -1 9.91 0.38
1 -17 -1 0.06 0.04
1 17 -1 0.11 0.07
-1 17 1 0.1 0.04
-1 17 1 0.06 0.08
1 17 -1 0.1 0.08
-1 -17 -1 3.74 0.12
1 -17 1 3.84 0.13
-1 17 -1 3.5 0.2
1 17 1 4.04 0.2
1 17 1 3.75 0.19
-1 17 -1 3.74 0.16
3 -17 1 43.89 1.26
-3 17 -1 44.2 1.39
3 17 1 44.54 1.39
3 17 1 42.96 1.47
5 -17 1 4.75 0.21
5 17 1 5.47 0.3
-5 17 -1 5.47 0.24
5 17 1 5.37 0.25
7 -17 1 21.35 0.69
7 17 1 22.94 0.75
-7 17 -1 23.49 0.74
7 17 1 21.84 0.83
9 -17 1 6.89 0.31
9 17 1 6.34 0.42
11 -17 1 12.79 0.51
11 17 1 13.73 0.67
12 -18 -1 0.31 0.17
12 18 -1 0.19 0.25
10 -18 -1 6.1 0.32
10 18 -1 5.6 0.42
8 -18 -1 0.08 0.12
8 18 -1 0.03 0.12
8 18 -1 -0.25 0.16
6 -18 -1 0.12 0.09
-6 18 1 0.05 0.09
6 18 -1 0.02 0.14
6 18 -1 0.04 0.11
4 -18 -1 4.15 0.17
4 18 -1 4.08 0.25
-4 18 1 3.66 0.21
4 18 -1 3.84 0.23
2 -18 -1 1.14 0.09
2 18 -1 0.92 0.11
-2 18 1 1.13 0.14
2 18 -1 1.13 0.15
0 -18 -1 5.74 0.19
0 -18 1 5.95 0.18
0 18 1 6.04 0.26
0 18 1 6.36 0.24
0 18 -1 5.88 0.24
0 18 -1 5.58 0.26
2 -18 1 14.43 0.43
-2 18 -1 14.69 0.48
2 18 1 14.73 0.51
-2 18 -1 14.36 0.51
2 18 1 13.82 0.52
4 -18 1 0.56 0.08
4 18 1 0.57 0.11
4 18 1 0.29 0.12
-4 18 -1 0.43 0.1
6 -18 1 1.46 0.15
-6 18 -1 1.59 0.17
6 18 1 1.58 0.18
6 18 1 1.72 0.24
8 -18 1 8.5 0.34
8 18 1 8.93 0.35
8 18 1 7.51 0.44
10 -18 1 0.14 0.15
10 18 1 -0.29 0.22
11 -19 -1 0.54 0.17
11 19 -1 0.54 0.25
9 -19 -1 -0.02 0.13
9 19 -1 -0.19 0.19
7 -19 -1 0.98 0.12
7 19 -1 0.59 0.17
7 19 -1 0.79 0.14
-7 19 1 0.98 0.13
5 -19 -1 0.38 0.09
5 19 -1 0.22 0.14
-5 19 1 0.6 0.11
5 19 -1 0.43 0.12
3 -19 -1 1.47 0.11
-3 19 1 1.62 0.16
3 19 -1 1.46 0.18
3 19 -1 1.64 0.17
1 -19 -1 0.83 0.08
1 19 -1 0.83 0.1
-1 19 1 1.17 0.15
-1 19 1 0.75 0.08
1 19 -1 0.93 0.12
1 -19 1 2.8 0.11
1 19 1 2.71 0.17
-1 19 -1 2.4 0.19
1 19 1 2.27 0.19
-1 19 -1 2.77 0.14
3 -19 1 3.02 0.14
3 19 1 3.19 0.22
3 19 1 2.87 0.2
-3 19 -1 2.74 0.2
5 -19 1 0.01 0.08
5 19 1 0.13 0.13
5 19 1 0.07 0.11
-5 19 -1 0.03 0.1
7 -19 1 1.12 0.13
7 19 1 1.04 0.19
7 19 1 1.45 0.15
9 -19 1 0.86 0.15
9 19 1 0.68 0.23
11 -19 1 0.15 0.17
11 19 1 -0.15 0.25
10 -20 -1 8.03 0.38
10 20 -1 8.37 0.49
8 -20 -1 0.9 0.14
8 20 -1 1.29 0.16
8 20 -1 1.2 0.21
6 -20 -1 2.65 0.18
6 20 -1 2.66 0.26
6 20 -1 2.85 0.22
-6 20 1 2.54 0.21
4 -20 -1 0.22 0.07
-4 20 1 0.22 0.11
4 20 -1 0.22 0.12
4 20 -1 0.19 0.13
2 -20 -1 11.27 0.35
2 20 -1 11.74 0.44
-2 20 1 11.76 0.44
2 20 -1 10.93 0.43
0 20 -1 1.2 0.14
0 20 1 1.38 0.12
0 20 -1 1.17 0.12
0 20 1 1.24 0.14
2 -20 1 3.83 0.15
2 20 1 3.36 0.21
2 20 1 3.83 0.23
-2 20 -1 3.58 0.23
4 -20 1 11.59 0.37
-4 20 -1 12.25 0.44
4 20 1 11.26 0.47
4 20 1 11.24 0.44
6 -20 1 3.62 0.21
-6 20 -1 3.74 0.22
6 20 1 3.86 0.31
6 20 1 3.74 0.24
8 -20 1 15.66 0.55
8 20 1 16.99 0.69
8 20 1 16.72 0.6
10 -20 1 0.68 0.17
10 20 1 0.16 0.24
11 -21 -1 2.46 0.29
11 21 -1 1.77 0.29
9 -21 -1 2.37 0.25
9 21 -1 2.26 0.27
7 -21 -1 2.43 0.2
7 21 -1 3.03 0.31
-7 21 1 2.27 0.21
7 21 -1 2.33 0.24
5 -21 -1 7.46 0.27
5 21 -1 7.11 0.34
5 21 -1 6.46 0.37
-5 21 1 7.7 0.33
3 -21 -1 1.69 0.12
3 21 -1 1.74 0.19
-3 21 1 1.52 0.18
3 21 -1 1.43 0.19
-1 21 1 0.07 0.11
1 21 -1 0.09 0.11
1 21 -1 0.07 0.08
1 21 1 3.38 0.19
-1 21 -1 3.45 0.23
1 21 1 3.44 0.22
3 -21 1 10.16 0.32
3 21 1 9.74 0.4
-3 21 -1 10.4 0.4
3 21 1 9.69 0.41
5 -21 1 0.21 0.09
-5 21 -1 0.13 0.12
5 21 1 0.09 0.15
5 21 1 -0.13 0.12
7 -21 1 23.87 0.73
7 21 1 23.89 0.81
7 21 1 22.54 0.89
9 -21 1 0.43 0.15
9 21 1 0.41 0.24
10 -22 -1 4.21 0.28
10 22 -1 2.71 0.32
8 -22 -1 4.28 0.24
8 22 -1 3.37 0.35
8 22 -1 3.23 0.28
6 -22 -1 1.95 0.18
6 22 -1 2.15 0.24
-6 22 1 1.86 0.18
6 22 -1 1.64 0.21
4 -22 -1 1.2 0.13
4 22 -1 0.99 0.15
4 22 -1 0.89 0.15
-4 22 1 1.25 0.15
2 22 -1 0.16 0.11
2 22 -1 0.06 0.12
-2 22 1 -0.04 0.12
0 22 -1 13.91 0.51
0 22 1 13.65 0.51
0 22 -1 13.73 0.49
2 22 1 0.88 0.13
-2 22 -1 1.01 0.14
2 22 1 1.03 0.14
4 -22 1 0.42 0.09
-4 22 -1 0.82 0.14
4 22 1 0.56 0.14
4 22 1 0.42 0.14
6 -22 1 3.08 0.2
-6 22 -1 3.46 0.23
6 22 1 2.88 0.25
6 22 1 2.78 0.29
8 -22 1 2.45 0.23
8 22 1 2.36 0.24
8 22 1 1.8 0.26
10 -22 1 1.41 0.19
10 22 1 0.95 0.26
9 -23 -1 3.26 0.26
9 23 -1 2.38 0.29
7 -23 -1 0.97 0.13
-7 23 1 0.6 0.14
7 23 -1 0.58 0.17
7 23 -1 0.18 0.19
5 -23 -1 1.01 0.11
-5 23 1 1.07 0.16
5 23 -1 0.87 0.16
5 23 -1 1.25 0.18
3 23 -1 0.03 0.13
-3 23 1 0.24 0.13
3 23 -1 0.18 0.12
1 23 -1 2.36 0.18
1 23 -1 2.23 0.22
-1 23 1 2.29 0.23
1 23 1 1.58 0.21
-1 23 -1 1.91 0.21
3 23 1 1.01 0.15
-3 23 -1 1.47 0.16
3 23 1 1.37 0.17
5 -23 1 10.56 0.35
5 23 1 10.09 0.44
5 23 1 10.04 0.46
-5 23 -1 9.9 0.42
7 -23 1 6.95 0.31
7 23 1 7.23 0.36
7 23 1 6.79 0.41
9 -23 1 3.77 0.29
9 23 1 4.42 0.4
8 -24 -1 0.94 0.15
8 24 -1 0.8 0.18
8 24 -1 0.65 0.22
6 -24 -1 0.17 0.1
-6 24 1 -0.01 0.13
6 24 -1 0.08 0.15
6 24 -1 0.16 0.17
-4 24 1 4.22 0.29
4 24 -1 4.63 0.3
4 24 -1 4.68 0.29
2 24 -1 5.21 0.28
-2 24 1 6.01 0.31
2 24 -1 6.29 0.32
0 24 1 0.91 0.16
0 24 -1 1.28 0.17
-2 24 -1 13.02 0.51
2 24 1 12.96 0.51
2 24 1 13.35 0.5
4 24 1 0.63 0.15
4 24 1 0.87 0.16
-4 24 -1 0.61 0.15
6 -24 1 6.15 0.27
6 24 1 6.37 0.39
-6 24 -1 6.39 0.33
6 24 1 6.3 0.35
8 -24 1 2.57 0.23
8 24 1 1.89 0.26
8 24 1 2.31 0.28
9 -25 -1 1.41 0.18
9 25 -1 2.79 0.36
7 -25 -1 2.52 0.22
7 25 -1 2.02 0.23
7 25 -1 2.28 0.32
-5 25 1 4.55 0.3
5 25 -1 3.53 0.3
5 25 -1 4.38 0.33
-3 25 1 8.63 0.41
3 25 -1 10.17 0.42
3 25 -1 8.51 0.41
-1 25 1 0.17 0.15
1 25 -1 0.55 0.15
-1 25 -1 2.02 0.2
1 25 1 1.93 0.25
-3 25 -1 5.51 0.33
3 25 1 6.92 0.34
3 25 1 6.75 0.35
-5 25 -1 5.31 0.32
5 25 1 5.54 0.34
5 25 1 5.81 0.35
7 25 1 0.48 0.2
7 25 1 0.84 0.19
9 -25 1 5.17 0.31
9 25 1 4.85 0.45
8 26 -1 9.23 0.45
8 26 -1 8.67 0.5
6 26 -1 1.17 0.21
6 26 -1 0.89 0.2
-6 26 1 1.19 0.18
4 26 -1 2.37 0.27
-4 26 1 2.09 0.25
4 26 -1 2.54 0.27
2 26 -1 0.64 0.17
-2 26 1 0.59 0.17
0 26 1 12.28 0.51
0 26 -1 12.16 0.5
2 26 1 0.13 0.16
-2 26 -1 0.04 0.15
4 26 1 15.68 0.62
4 26 1 14.7 0.62
-4 26 -1 16.6 0.61
-6 26 -1 4.17 0.31
6 26 1 5.39 0.37
6 26 1 4.47 0.34
8 26 1 4.65 0.34
8 26 1 4.59 0.39
7 27 -1 0.51 0.2
7 27 -1 0.48 0.22
5 27 -1 1.7 0.22
-5 27 1 1.84 0.21
5 27 -1 1.66 0.22
3 27 -1 2.37 0.28
-3 27 1 2.95 0.27
-1 27 1 1.49 0.2
1 27 -1 1.51 0.2
-1 27 -1 3.06 0.28
1 27 1 3.01 0.29
3 27 1 2.39 0.28
-3 27 -1 2.84 0.29
5 27 1 10.95 0.5
-5 27 -1 10.18 0.46
5 27 1 10.16 0.48
7 27 1 6.01 0.38
7 27 1 6.5 0.44
-6 28 1 0.95 0.19
6 28 -1 1.15 0.22
6 28 -1 1.17 0.22
4 28 -1 -0.11 0.19
-4 28 1 0.13 0.17
2 28 -1 1.34 0.21
-2 28 1 1.39 0.21
0 28 1 0.52 0.18
0 28 -1 0.45 0.18
2 28 1 -0.04 0.17
-2 28 -1 0.09 0.17
4 28 1 1.48 0.22
-4 28 -1 1.15 0.2
6 28 1 1.5 0.23
-6 28 -1 1.49 0.21
6 28 1 1.5 0.23
5 29 -1 0.11 0.2
-5 29 1 -0.05 0.17
-3 29 1 -0.04 0.18
3 29 -1 0.16 0.19
1 29 -1 1.8 0.23
-1 29 1 2.02 0.24
-1 29 -1 1.69 0.22
1 29 1 1.85 0.22
3 29 1 0.07 0.19
-3 29 -1 0.06 0.18
-5 29 -1 12.24 0.53
5 29 1 12.11 0.56
-6 30 1 2.42 0.32
6 30 -1 3.12 0.37
4 30 -1 -0.17 0.21
-4 30 1 -0.15 0.18
2 30 -1 1.44 0.23
-2 30 1 1.5 0.23
0 30 1 10.81 0.49
0 30 -1 9.24 0.48
-2 30 -1 0.21 0.18
2 30 1 0.12 0.19
-4 30 -1 1.44 0.22
4 30 1 1.77 0.25
-3 31 1 0.54 0.22
3 31 -1 1.04 0.24
1 31 -1 0.77 0.22
-1 31 1 0.63 0.21
1 31 1 0.16 0.21
-1 31 -1 -0.24 0.19
3 31 1 0.01 0.21
-3 31 -1 0.09 0.2
-2 32 1 0.85 0.22
2 32 -1 0.63 0.24
0 32 -1 2.06 0.26
0 32 1 1.97 0.26
-2 32 -1 3.1 0.34
2 32 1 3.16 0.38
14 0 -2 1.04 0.18
12 0 -2 22.53 0.72
12 0 -2 22.59 0.85
10 0 -2 31.71 0.99
10 0 -2 34.58 1.15
8 0 -2 153.96 4.28
-8 0 2 154.17 4.62
8 0 -2 146.42 4.91
6 0 -2 35.87 1.16
-6 0 2 34.44 1.07
6 0 -2 33.78 1
4 0 -2 274.86 7.78
-4 0 2 271.57 8.42
4 0 -2 278.39 8.91
-2 0 2 947.38 29.69
2 0 -2 1000 27.46
2 0 -2 912.46 31.49
0 0 2 34.15 1.06
2 0 2 99.55 3.17
2 0 2 104.93 3.38
-2 0 -2 108.73 3.01
-2 0 -2 101.14 3.17
4 0 2 24.38 0.81
6 0 2 186.3 5.08
6 0 2 172.18 5.78
8 0 2 21.17 0.63
8 0 2 20.68 0.74
10 0 2 12.42 0.51
10 0 2 12.91 0.43
12 0 2 24.35 0.91
12 0 2 24.46 0.77
14 0 2 0.13 0.23
14 0 2 -0.01 0.18
13 -1 -2 14.66 0.66
13 -1 -2 14.98 0.54
13 1 -2 15.55 0.55
13 1 -2 15.99 0.66
11 -1 -2 6.05 0.35
11 -1 -2 6.91 0.3
11 1 -2 6.71 0.29
11 1 -2 6.7 0.37
9 -1 -2 4.96 0.22
9 -1 -2 4.43 0.27
9 1 -2 5.24 0.22
9 1 -2 4.91 0.28
-7 -1 2 63.43 1.93
7 -1 -2 61.42 2.06
7 -1 -2 61.99 1.79
7 1 -2 64.73 2.07
7 1 -2 62.04 1.79
-7 1 2 63.81 1.93
-5 -1 2 0.65 0.05
5 -1 -2 0.52 0.07
5 -1 -2 0.49 0.06
-5 1 2 0.49 0.05
5 1 -2 0.64 0.08
5 1 -2 0.63 0.07
-3 -1 2 59.63 1.77
3 -1 -2 55.21 1.62
3 -1 -2 54.46 1.86
3 1 -2 60.59 1.87
-3 1 2 56.46 1.78
3 1 -2 59.09 1.62
1 -1 -2 7.36 0.26
-1 -1 2 7.61 0.24
1 -1 -2 7.58 0.22
1 1 -2 7.58 0.26
1 1 -2 7.4 0.22
-1 1 2 7.51 0.24
-1 -1 -2 345.88 10.13
1 -1 2 352.05 10.48
1 -1 2 335.58 10.82
1 1 2 336.99 11.26
-1 1 -2 335.3 10.13
1 1 2 336.7 10.47
-1 1 -2 356.18 11.08
-3 -1 -2 101.61 3.12
3 -1 2 102.75 3.11
3 -1 2 101.71 3.13
3 -1 2 98 3.33
3 1 2 105.57 3.33
3 1 2 102.38 3.11
5 -1 2 1.42 0.09
5 -1 2 1.64 0.11
5 1 2 1.57 0.11
5 1 2 1.35 0.09
7 -1 2 31.75 0.89
7 -1 2 30.16 1.03
7 1 2 31.13 1.04
7 1 2 29.28 0.89
9 -1 2 0.34 0.09
9 -1 2 0.26 0.11
9 1 2 0.1 0.11
9 1 2 0.21 0.09
11 -1 2 0.09 0.14
11 -1 2 0.11 0.12
11 1 2 0.3 0.16
11 1 2 0.07 0.11
13 -1 2 1.39 0.23
13 -1 2 1.71 0.19
13 1 2 1.12 0.23
13 1 2 1.52 0.18
14 -2 -2 0.84 0.19
14 2 -2 0.94 0.17
14 2 -2 0.65 0.22
12 -2 -2 9.26 0.37
12 -2 -2 9.52 0.44
12 2 -2 8.47 0.46
12 2 -2 8.53 0.35
10 -2 -2 8.85 0.34
10 -2 -2 8.32 0.38
10 2 -2 8.11 0.32
10 2 -2 9.24 0.41
8 -2 -2 13.66 0.42
-8 -2 2 13.27 0.42
8 -2 -2 12.48 0.49
8 2 -2 13.14 0.5
-8 2 2 12.5 0.42
8 2 -2 13.59 0.42
6 -2 -2 12.02 0.45
6 -2 -2 13.5 0.4
-6 -2 2 12.49 0.4
6 2 -2 12.72 0.46
-6 2 2 12.67 0.41
6 2 -2 12.99 0.39
4 -2 -2 44.19 1.47
4 -2 -2 45.11 1.28
-4 -2 2 44.87 1.38
4 2 -2 45.5 1.48
-4 2 2 45.23 1.38
4 2 -2 45.16 1.28
2 -2 -2 1.95 0.08
2 -2 -2 2.04 0.09
2 2 -2 1.98 0.09
2 2 -2 2.02 0.11
2 2 -2 2.24 0.08
-2 2 2 2.17 0.09
0 -2 2 154.53 4.55
0 -2 -2 166.51 5.23
0 -2 -2 164.46 4.56
0 2 2 152.68 4.96
0 2 -2 166.69 4.99
0 2 -2 167.3 5.25
0 2 2 159.88 5.25
0 2 -2 159.76 4.55
2 -2 2 69.55 2.21
-2 -2 -2 69.66 2.1
-2 -2 -2 66.24 1.95
2 -2 2 71.63 2.09
-2 2 -2 66.22 1.95
2 2 2 67.59 2.24
2 2 2 67.23 2.11
4 -2 2 13.14 0.39
-4 -2 -2 13.19 0.41
4 -2 2 13.33 0.45
4 2 2 13.67 0.46
4 2 2 12.63 0.41
6 -2 2 7.5 0.29
6 -2 2 7.82 0.25
6 2 2 7.54 0.3
6 2 2 7.18 0.25
8 -2 2 7.63 0.32
8 -2 2 7.55 0.27
8 2 2 7.5 0.27
8 2 2 8.01 0.34
10 -2 2 1.2 0.13
10 -2 2 1.07 0.15
10 2 2 0.93 0.16
10 2 2 1 0.12
12 -2 2 0.01 0.16
12 -2 2 0.22 0.14
12 2 2 0.08 0.19
12 2 2 0.49 0.14
14 -2 2 1.05 0.2
14 2 2 1.43 0.27
14 2 2 1.42 0.2
13 -3 -2 24.15 0.79
13 3 -2 24.14 0.77
13 3 -2 24.18 0.93
11 -3 -2 34.61 1.23
11 -3 -2 36.36 1.08
11 3 -2 35.14 1.26
11 3 -2 36.99 1.07
9 -3 -2 26.73 0.79
9 -3 -2 26.54 0.91
9 3 -2 24.62 0.92
9 3 -2 26.48 0.78
7 -3 -2 85.53 2.39
-7 -3 2 82.29 2.57
7 -3 -2 79.18 2.73
7 3 -2 86.13 2.38
7 3 -2 87.3 2.75
-7 3 2 83.84 2.57
5 -3 -2 148.36 4.12
-5 -3 2 140.99 4.45
5 -3 -2 148.38 4.68
5 3 -2 145.34 4.69
-5 3 2 141.91 4.44
5 3 -2 145.56 4.09
3 -3 -2 289.95 8.96
3 -3 -2 279.23 7.84
3 3 -2 282.16 8.99
3 3 -2 262.67 8.49
3 3 -2 266.13 7.8
-3 3 2 279.5 8.48
1 -3 -2 7.16 0.25
1 -3 -2 7.1 0.22
-1 -3 2 6.92 0.21
1 3 -2 7.09 0.21
1 3 -2 7.04 0.26
1 3 -2 7.41 0.24
-1 3 2 7.53 0.25
-1 3 2 6.97 0.24
-1 -3 -2 468.02 13.31
-1 3 -2 438.95 15.41
1 3 2 451.75 14.52
1 3 2 465.98 14.73
-1 3 -2 446.64 13.3
-1 3 -2 465.76 14.66
-3 -3 -2 162.35 4.62
3 -3 2 166.74 4.99
3 -3 2 162.34 5.31
-3 3 -2 164.26 4.99
3 3 2 161.92 5
3 3 2 161.49 5.31
5 -3 2 18.56 0.56
5 -3 2 19.02 0.65
5 3 2 18.7 0.66
5 3 2 19.73 0.56
5 3 2 19.86 0.59
7 -3 2 47.23 1.35
7 -3 2 47.99 1.55
7 3 2 45.4 1.34
7 3 2 46.75 1.56
9 -3 2 17.95 0.56
9 -3 2 17.79 0.65
9 3 2 18.28 0.56
9 3 2 17.99 0.67
11 -3 2 3.92 0.28
11 -3 2 4.18 0.25
11 3 2 3.65 0.24
11 3 2 3.69 0.3
13 -3 2 7.72 0.37
13 3 2 7.95 0.48
13 3 2 7.84 0.36
14 -4 -2 1.64 0.21
14 4 -2 2.34 0.26
14 4 -2 1.74 0.26
12 -4 -2 21.34 0.69
12 4 -2 20.79 0.68
12 4 -2 21.27 0.83
10 -4 -2 1.24 0.14
10 -4 -2 1.26 0.14
10 4 -2 1.29 0.13
10 4 -2 1.19 0.18
8 -4 -2 67.69 2.19
8 -4 -2 68.9 1.91
-8 -4 2 65.9 2.05
8 4 -2 65.71 2.21
-8 4 2 64.49 2.05
8 4 -2 68.05 1.9
6 -4 -2 20.78 0.63
6 -4 -2 21.32 0.71
-6 -4 2 20.87 0.66
-6 4 2 20.14 0.66
6 4 -2 21.68 0.73
6 4 -2 21.78 0.62
4 -4 -2 49.42 1.46
4 -4 -2 48.43 1.66
4 4 -2 51.15 1.58
4 4 -2 54.08 1.68
4 4 -2 52.87 1.45
-4 4 2 51.63 1.57
2 -4 -2 64.18 1.88
2 -4 -2 68.45 2.15
2 4 -2 69.8 2.14
-2 4 2 64.6 2.14
2 4 -2 65.23 1.87
2 4 -2 66.67 2.03
-2 4 2 64.1 2.07
0 -4 2 44.33 1.26
0 -4 -2 44.53 1.27
0 4 2 43.12 1.4
0 4 -2 45.65 1.45
0 4 -2 46.17 1.4
0 4 2 46 1.46
0 4 -2 43.02 1.27
2 -4 2 171.22 5.47
-2 -4 -2 166.8 4.76
2 4 2 161.92 5.48
2 4 2 176.08 5.2
-2 4 -2 166.72 5.18
4 -4 2 3.34 0.12
4 -4 2 3.38 0.13
4 -4 2 3.42 0.14
4 4 2 3.49 0.13
4 4 2 3.53 0.16
-4 4 -2 3.3 0.12
6 -4 2 17.24 0.6
6 -4 2 17.32 0.53
6 4 2 17.93 0.52
6 4 2 17.68 0.55
8 -4 2 37.45 1.25
8 -4 2 36.45 1.09
8 4 2 36.86 1.26
8 4 2 37.82 1.08
10 -4 2 1.09 0.14
10 -4 2 0.9 0.12
10 4 2 1.11 0.12
10 4 2 0.96 0.17
12 -4 2 6.21 0.33
12 -4 2 6.97 0.37
12 4 2 6.94 0.43
12 4 2 5.64 0.3
13 -5 -2 -0.07 0.16
13 5 -2 0.07 0.14
13 5 -2 0.16 0.21
11 -5 -2 3.72 0.24
11 5 -2 3.31 0.2
11 5 -2 3.04 0.31
9 -5 -2 7.97 0.34
9 -5 -2 8.17 0.31
9 5 -2 8.09 0.29
9 5 -2 7.87 0.38
7 -5 -2 0.82 0.09
7 -5 -2 0.69 0.09
-7 -5 2 0.86 0.07
7 5 -2 0.93 0.1
7 5 -2 0.69 0.12
-7 5 2 0.89 0.08
5 -5 -2 48.12 1.52
5 -5 -2 46.85 1.34
5 5 -2 47.33 1.55
5 5 -2 44.78 1.33
5 5 -2 45.8 1.45
-5 5 2 47.8 1.44
3 -5 -2 1.11 0.06
3 -5 -2 1.17 0.07
-3 5 2 1.07 0.08
3 5 -2 1.26 0.08
3 5 -2 1.05 0.06
3 5 -2 1.08 0.11
-3 5 2 1.12 0.06
1 -5 -2 120.55 3.42
-1 -5 2 121.27 3.39
1 5 -2 122.04 3.74
-1 5 2 119.55 3.9
1 5 -2 126.02 3.4
-1 5 2 121.02 3.71
1 5 -2 113.32 3.92
-1 5 2 120.87 3.9
-1 -5 -2 7.23 0.21
-1 5 -2 7.38 0.25
1 5 2 7.25 0.25
1 5 2 6.98 0.24
-1 5 -2 6.93 0.24
-3 -5 -2 0.17 0.03
3 -5 2 0.25 0.04
3 -5 2 0.17 0.04
3 5 2 0.28 0.06
-3 5 -2 0.22 0.04
3 5 2 0.18 0.04
5 -5 2 50.03 1.56
5 -5 2 50.96 1.45
5 -5 2 52.64 1.66
5 5 2 50.51 1.68
-5 5 -2 49.38 1.56
5 5 2 52.21 1.57
7 -5 2 1.58 0.12
7 -5 2 1.64 0.13
7 5 2 1.62 0.08
7 5 2 1.4 0.16
7 5 2 1.77 0.11
9 -5 2 2.35 0.18
9 -5 2 2.51 0.18
9 5 2 2.07 0.22
9 5 2 2.07 0.16
11 -5 2 3.39 0.25
11 -5 2 3.28 0.26
11 5 2 3.44 0.21
11 5 2 3.31 0.31
13 -5 2 -0.28 0.17
13 5 2 -0.26 0.14
13 5 2 -0.17 0.21
14 -6 -2 9.28 0.43
14 6 -2 8.02 0.52
12 -6 -2 6.82 0.33
12 6 -2 6.7 0.3
12 6 -2 6.42 0.43
10 -6 -2 88.56 2.61
10 -6 -2 89.74 2.98
10 6 -2 92.92 2.6
10 6 -2 93.3 3.02
8 -6 -2 30.79 1.08
-8 -6 2 33.04 1
8 -6 -2 32.76 0.95
8 6 -2 32.8 0.94
8 6 -2 31.49 1.11
-8 6 2 31.96 1
6 -6 -2 127.41 3.6
6 -6 -2 133.52 4.12
6 6 -2 122.61 3.59
-6 6 2 132.94 3.9
6 6 -2 123.73 4.15
6 6 -2 125.75 3.91
4 -6 -2 97.09 3.35
4 -6 -2 106.71 2.94
4 6 -2 103.76 3.19
4 6 -2 110.02 3.38
4 6 -2 102.68 3.06
-4 6 2 104.96 3.21
2 -6 -2 110.05 3.5
2 -6 -2 106.16 3.1
-2 -6 2 114.94 3.05
-2 6 2 105.94 3.49
2 6 -2 104.62 3.06
2 6 -2 105.96 3.32
-2 6 2 110.17 3.41
2 6 -2 110.24 3.54
0 -6 2 311.43 8.49
0 -6 -2 318.45 8.52
0 6 -2 290.68 9.78
0 6 -2 283.12 8.73
0 6 -2 314.12 9.31
0 6 2 306.48 9.29
0 6 2 290.59 9.76
-2 -6 -2 41.16 1.16
-2 6 -2 43.27 1.27
-2 6 -2 40.88 1.33
2 6 2 39.94 1.27
2 6 2 40.38 1.34
4 -6 2 93.76 3.06
4 -6 2 95.86 2.68
-4 6 -2 94.77 2.9
4 6 2 100.22 3.08
4 6 2 90.18 2.9
6 -6 2 53.44 1.5
6 -6 2 51.86 1.72
6 6 2 49.79 1.61
6 6 2 53.21 1.74
6 6 2 54.56 1.5
8 -6 2 24.24 0.76
8 -6 2 26.47 0.86
8 6 2 24.09 0.89
8 6 2 25.97 0.75
10 -6 2 12.59 0.5
10 -6 2 12.95 0.44
10 6 2 12.61 0.43
10 6 2 12.86 0.54
12 -6 2 0.71 0.16
12 6 2 0.85 0.14
12 6 2 0.66 0.22
13 -7 -2 4.48 0.31
13 7 -2 5.29 0.4
11 -7 -2 10.05 0.4
11 7 -2 10.32 0.5
11 7 -2 10.37 0.37
9 -7 -2 22.74 0.8
9 -7 -2 23.07 0.72
9 7 -2 24.6 0.7
9 7 -2 22.09 0.84
7 -7 -2 26.8 0.9
7 -7 -2 26.59 0.8
7 7 -2 26.43 0.94
-7 7 2 28.63 0.85
7 7 -2 27.15 0.86
7 7 -2 26.57 0.79
5 -7 -2 72.92 2.02
5 -7 -2 68.1 2.29
5 7 -2 69.8 2.19
-5 7 2 72.16 2.18
5 7 -2 71.55 2.33
5 7 -2 71.88 2
3 -7 -2 67.8 2.21
3 -7 -2 68.39 1.94
-3 7 2 68.25 2.21
3 7 -2 69.41 2.11
3 7 -2 67.58 1.93
3 7 -2 69.22 2.24
-3 7 2 69.95 2.11
-1 -7 2 141.07 3.96
1 -7 -2 135.14 4
1 7 -2 146.56 4
-1 7 2 138.73 4.55
1 7 -2 146.77 4.63
1 7 -2 145.85 4.37
-1 7 2 134.96 4.36
-1 7 2 140.03 4.56
-1 -7 -2 26.87 0.76
-1 7 -2 27.15 0.84
1 7 2 27.61 0.84
1 7 2 26.94 0.88
-1 7 -2 25.57 0.88
3 -7 2 46.69 1.33
-3 -7 -2 46.84 1.32
3 -7 2 46.79 1.51
3 7 2 45.37 1.53
-3 7 -2 45.79 1.44
3 7 2 48.85 1.44
5 -7 2 18.97 0.54
5 -7 2 17.48 0.61
5 7 2 18.54 0.58
-5 7 -2 17.75 0.57
7 -7 2 17.04 0.53
7 -7 2 17.43 0.6
7 7 2 16.83 0.62
7 7 2 17.65 0.52
7 7 2 17.04 0.55
9 -7 2 7.6 0.3
9 -7 2 7.62 0.32
9 7 2 7.33 0.38
9 7 2 8.05 0.28
11 -7 2 4.65 0.27
11 7 2 5.1 0.25
11 7 2 5.28 0.36
13 -7 2 1.37 0.21
13 7 2 1.25 0.27
13 7 2 1.73 0.18
12 -8 -2 0.06 0.16
12 8 -2 -0.04 0.21
10 -8 -2 5.53 0.27
10 8 -2 5.04 0.23
10 8 -2 5.48 0.34
8 -8 -2 0.43 0.1
8 -8 -2 0.41 0.08
8 8 -2 0.63 0.08
8 8 -2 0.57 0.08
8 8 -2 0.45 0.14
-8 8 2 0.49 0.06
6 -8 -2 39.46 1.32
6 -8 -2 39.72 1.17
6 8 -2 37.83 1.35
6 8 -2 41.6 1.15
6 8 -2 41.8 1.26
-6 8 2 41.6 1.26
4 -8 -2 18.85 0.57
4 -8 -2 19.51 0.63
4 8 -2 18.69 0.55
-4 8 2 19.81 0.62
4 8 -2 18.7 0.62
-4 8 2 19.45 0.63
4 8 -2 20.5 0.67
-2 -8 2 9.89 0.28
2 -8 -2 9.71 0.3
2 8 -2 10.06 0.34
2 8 -2 10.12 0.36
2 8 -2 9.59 0.28
-2 8 2 10.33 0.33
0 -8 -2 74.04 2.18
0 8 -2 79.46 2.53
0 8 2 73.03 2.51
0 8 2 80.58 2.37
0 8 -2 79.16 2.42
-2 -8 -2 0.09 0.03
2 -8 2 0.05 0.03
2 8 2 0.06 0.05
-2 8 -2 0.07 0.05
2 8 2 0.06 0.05
-2 8 -2 0.18 0.04
4 -8 2 2.31 0.11
4 -8 2 2.45 0.11
4 8 2 2.7 0.12
-4 8 -2 2.5 0.11
6 -8 2 1.05 0.1
6 -8 2 1.04 0.1
-6 8 -2 0.94 0.07
6 8 2 1.05 0.12
6 8 2 0.95 0.09
6 8 2 1.1 0.08
8 -8 2 23.36 0.7
8 -8 2 23.24 0.79
8 8 2 23.77 0.83
8 8 2 22.4 0.69
10 -8 2 5.8 0.3
10 -8 2 7.03 0.29
10 8 2 6.21 0.26
10 8 2 6.28 0.37
12 -8 2 2.29 0.26
12 8 2 2.73 0.23
12 8 2 2.65 0.29
13 -9 -2 4.76 0.32
13 9 -2 4.81 0.41
11 -9 -2 51.87 1.54
11 9 -2 53.64 1.51
11 9 -2 50.84 1.8
9 -9 -2 61.38 1.79
9 9 -2 61.51 1.77
9 9 -2 62.62 2.08
7 -9 -2 1.35 0.11
7 -9 -2 1.32 0.14
7 9 -2 1.01 0.14
-7 9 2 1.16 0.1
7 9 -2 1.08 0.12
7 9 -2 1.26 0.1
5 -9 -2 179.54 5.84
5 -9 -2 183.12 5.2
-5 9 2 183.9 5.59
5 9 -2 180.6 5.56
5 9 -2 175.65 5.11
-5 9 2 188.63 5.85
3 -9 -2 31.98 0.95
3 9 -2 32.72 1.04
3 9 -2 33.96 0.93
3 9 -2 34.86 1.1
-3 9 2 31.21 1.03
1 -9 -2 238.08 6.64
-1 -9 2 228.24 6.57
1 9 -2 235.49 7.65
1 9 -2 243.87 7.28
-1 9 2 232.61 7.56
-1 9 2 229.27 7.24
1 -9 2 63.6 1.77
-1 -9 -2 62.33 1.78
1 9 2 64.69 2.04
-1 9 -2 60.72 2.03
-1 9 -2 64.87 1.94
1 9 2 60.76 1.94
-3 -9 -2 176.29 4.94
3 -9 2 171.62 4.96
3 -9 2 175.96 5.66
3 9 2 180.82 5.7
-3 9 -2 171.25 5.39
3 9 2 174.64 5.35
5 -9 2 120.47 3.88
5 -9 2 119.59 3.4
5 9 2 115.99 3.91
5 9 2 119 3.69
-5 9 -2 126.87 3.68
7 -9 2 0.56 0.08
7 -9 2 0.41 0.08
7 9 2 0.38 0.07
7 9 2 0.56 0.12
7 9 2 0.37 0.07
9 -9 2 3.09 0.2
9 -9 2 3.58 0.2
9 9 2 2.79 0.17
9 9 2 2.76 0.26
11 -9 2 7.46 0.34
11 9 2 7.68 0.31
11 9 2 8.16 0.45
13 -9 2 4.16 0.32
13 9 2 3.26 0.44
12 -10 -2 1.67 0.19
12 10 -2 1.98 0.26
10 -10 -2 35.66 1.12
10 10 -2 38.87 1.09
10 10 -2 37.19 1.31
8 -10 -2 4.5 0.21
8 10 -2 3.65 0.2
8 10 -2 3.8 0.17
8 10 -2 4.45 0.28
-8 10 2 4.18 0.17
6 -10 -2 158.15 5.4
6 -10 -2 172.76 4.74
6 10 -2 166.09 4.71
6 10 -2 171.98 5.14
-6 10 2 168.13 5.14
6 10 -2 171.56 5.45
4 -10 -2 96.22 2.66
-4 10 2 92.42 2.89
4 10 -2 96.65 2.9
4 10 -2 94.89 2.65
4 10 -2 90.83 3.07
2 -10 -2 1.93 0.09
2 10 -2 2.07 0.13
2 10 -2 1.89 0.12
-2 10 2 1.95 0.12
0 -10 2 174.58 4.85
0 -10 -2 170.82 4.86
0 10 -2 163 5.6
0 10 2 177.32 5.57
0 10 -2 177.33 5.36
0 10 2 169.54 5.34
2 -10 2 21.86 0.64
-2 -10 -2 21.49 0.63
-2 10 -2 21.51 0.73
2 10 2 22.27 0.74
-2 10 -2 22.68 0.7
2 10 2 22.91 0.71
4 -10 2 10.54 0.35
4 -10 2 10.08 0.32
-4 10 -2 9.9 0.34
4 10 2 10.27 0.35
4 10 2 10.21 0.38
6 -10 2 15.96 0.49
6 -10 2 16.5 0.55
-6 10 -2 15.62 0.51
6 10 2 16.72 0.48
6 10 2 15.69 0.53
6 10 2 15.59 0.59
8 -10 2 42.83 1.28
8 -10 2 43.79 1.45
8 10 2 43.22 1.49
8 10 2 45.3 1.26
10 -10 2 17.41 0.58
10 10 2 17.62 0.55
10 10 2 18.16 0.72
12 -10 2 1.06 0.19
12 10 2 1.56 0.26
13 -11 -2 0.79 0.18
13 11 -2 1.2 0.26
11 -11 -2 0.58 0.15
11 11 -2 0.67 0.22
9 -11 -2 1.08 0.13
9 11 -2 1.39 0.13
9 11 -2 1.18 0.19
7 -11 -2 5.35 0.22
7 11 -2 5.37 0.29
-7 11 2 4.68 0.2
7 11 -2 5.02 0.22
7 11 -2 5.01 0.18
5 -11 -2 0.47 0.07
5 11 -2 0.18 0.09
-5 11 2 0.35 0.07
5 11 -2 0.3 0.04
5 11 -2 0.18 0.07
3 -11 -2 9.3 0.29
3 11 -2 8.81 0.36
3 11 -2 9.03 0.33
-3 11 2 9.98 0.33
1 -11 -2 0.03 0.03
1 11 -2 -0.09 0.05
-1 11 2 0.03 0.06
1 11 -2 0.31 0.06
-1 11 2 0.04 0.03
-1 -11 -2 0.3 0.03
1 -11 2 0.28 0.03
1 11 2 0.2 0.06
-1 11 -2 0.42 0.05
-1 11 -2 0.31 0.06
1 11 2 0.34 0.06
-3 -11 -2 3.96 0.13
3 -11 2 3.98 0.14
-3 11 -2 4.1 0.17
3 11 2 3.73 0.17
3 11 2 3.8 0.19
5 -11 2 0.11 0.06
5 -11 2 0.18 0.05
5 11 2 0.15 0.09
-5 11 -2 0.19 0.06
5 11 2 0.18 0.07
7 -11 2 3.46 0.16
7 -11 2 2.98 0.17
7 11 2 3.28 0.24
7 11 2 3.07 0.16
7 11 2 3.01 0.14
9 -11 2 0.6 0.12
9 11 2 0.48 0.09
9 11 2 0.62 0.17
11 -11 2 0.58 0.16
11 11 2 0.74 0.22
13 -11 2 0.98 0.2
13 11 2 1.38 0.29
12 -12 -2 11.17 0.46
12 12 -2 10.31 0.57
10 -12 -2 40.06 1.19
10 12 -2 39.43 1.4
8 -12 -2 32.85 0.97
8 12 -2 31.14 0.94
8 12 -2 31.07 1.04
8 12 -2 33.54 1.14
-8 12 2 33.65 1.03
6 -12 -2 47.19 1.4
-6 12 2 47.58 1.52
6 12 -2 49.3 1.53
6 12 -2 49.37 1.63
6 12 -2 49.81 1.38
4 -12 -2 85.21 2.39
4 12 -2 84.87 2.61
-4 12 2 81.83 2.6
4 12 -2 85.8 2.76
2 -12 -2 47.27 1.29
2 12 -2 43.3 1.49
-2 12 2 43.28 1.41
2 12 -2 46.87 1.42
0 -12 2 148.49 4.2
0 -12 -2 152.1 4.22
0 12 -2 140.32 4.84
0 12 2 141.15 4.63
0 12 -2 161.84 4.62
0 12 2 151.38 4.82
-2 -12 -2 40.44 1.13
2 -12 2 40.34 1.14
2 12 2 40.09 1.26
2 12 2 38.82 1.32
-2 12 -2 42.44 1.31
-2 12 -2 38.95 1.26
4 -12 2 52.07 1.69
4 -12 2 51.77 1.49
4 12 2 53.23 1.62
4 12 2 48.91 1.72
-4 12 -2 54.67 1.62
6 -12 2 25.22 0.73
6 -12 2 24.18 0.81
6 12 2 23.62 0.78
6 12 2 24.2 0.85
-6 12 -2 24.78 0.77
6 12 2 23.94 0.7
8 -12 2 26.05 0.81
8 12 2 27.34 0.79
8 12 2 25.94 0.86
8 12 2 27.89 0.96
10 -12 2 2.33 0.22
10 12 2 2.25 0.25
12 -12 2 2.07 0.22
12 12 2 2.37 0.3
13 -13 -2 3.96 0.32
13 13 -2 3.09 0.41
11 -13 -2 13.91 0.51
11 13 -2 13.25 0.62
9 -13 -2 38.44 1.16
9 13 -2 39.75 1.37
9 13 -2 38.24 1.24
7 -13 -2 19.01 0.6
-7 13 2 18.52 0.63
7 13 -2 19.54 0.72
7 13 -2 20.08 0.65
5 -13 -2 89.07 2.44
-5 13 2 83.26 2.65
5 13 -2 89.33 2.66
5 13 -2 86.16 2.41
5 13 -2 81.98 2.82
3 -13 -2 25.15 0.71
3 13 -2 24.12 0.79
-3 13 2 25.31 0.79
3 13 -2 22.94 0.83
1 -13 -2 112.16 3.22
1 13 -2 114.53 3.71
1 13 -2 114.42 3.53
-1 13 2 117.85 3.69
1 -13 2 50.35 1.43
-1 -13 -2 51.39 1.42
-1 13 -2 49.93 1.64
1 13 2 50.94 1.65
1 13 2 50.97 1.58
-1 13 -2 49.68 1.58
3 -13 2 14.76 0.43
-3 -13 -2 14.32 0.42
3 13 2 15.36 0.49
3 13 2 14.92 0.52
-3 13 -2 13.47 0.48
5 -13 2 78.97 2.28
5 -13 2 81.4 2.6
-5 13 -2 77.03 2.48
5 13 2 81.41 2.64
5 13 2 83.45 2.49
7 -13 2 2.44 0.17
7 13 2 2.9 0.17
7 13 2 2.66 0.13
7 13 2 2.82 0.23
9 -13 2 11.85 0.42
9 13 2 11.45 0.52
11 -13 2 2.51 0.26
11 13 2 2.4 0.28
12 -14 -2 0.86 0.19
12 14 -2 0.6 0.24
10 -14 -2 1.38 0.16
10 14 -2 1.59 0.23
8 -14 -2 5.34 0.25
8 14 -2 5.77 0.26
8 14 -2 5.35 0.34
6 -14 -2 0.04 0.08
-6 14 2 0 0.07
6 14 -2 0.01 0.08
6 14 -2 0.06 0.11
4 -14 -2 2.19 0.13
4 14 -2 2.39 0.15
4 14 -2 2.38 0.18
-4 14 2 2 0.14
2 -14 -2 11.28 0.33
2 14 -2 11.03 0.4
-2 14 2 10.35 0.38
2 14 -2 10.28 0.38
0 -14 -2 19.94 0.56
0 -14 2 18.89 0.55
0 14 2 20.75 0.65
0 14 -2 19.17 0.64
0 14 -2 18.66 0.66
-2 -14 -2 17.73 0.5
2 -14 2 18.19 0.51
-2 14 -2 16.8 0.57
2 14 2 17.28 0.58
2 14 2 16.87 0.6
-2 14 -2 17.07 0.58
4 -14 2 11.66 0.37
4 -14 2 11.63 0.4
4 14 2 12.03 0.41
4 14 2 11 0.44
-4 14 -2 12.6 0.41
6 -14 2 2.9 0.16
-6 14 -2 2.53 0.15
6 14 2 2.79 0.12
6 14 2 2.96 0.22
6 14 2 2.5 0.17
8 -14 2 5.23 0.25
8 14 2 5.55 0.24
8 14 2 5.12 0.34
10 -14 2 2.34 0.24
10 14 2 2.36 0.26
12 -14 2 0.63 0.19
12 14 2 0.64 0.28
11 -15 -2 14.89 0.55
11 15 -2 15.73 0.7
9 -15 -2 5.28 0.26
9 15 -2 4.05 0.34
9 15 -2 4.08 0.24
7 -15 -2 51.17 1.42
-7 15 2 48.81 1.53
7 15 -2 48.07 1.54
7 15 -2 46.75 1.65
5 -15 -2 30.97 0.91
5 15 -2 30.08 1
5 15 -2 31.98 1.07
-5 15 2 31.42 1
3 -15 -2 104.6 3.1
3 15 -2 112.51 3.57
-3 15 2 112.63 3.38
3 15 -2 109.6 3.39
1 -15 -2 15.07 0.43
-1 15 2 14.87 0.49
1 15 -2 13.66 0.51
-1 15 2 14.01 0.5
1 15 -2 14.63 0.5
1 -15 2 106.86 3.02
-1 -15 -2 107.97 3.02
1 15 2 112.72 3.32
-1 15 -2 107.96 3.48
-1 15 -2 104.03 3.32
1 15 2 106.74 3.49
-3 -15 -2 69.45 1.9
3 -15 2 67.48 1.92
-3 15 -2 63.8 2.1
3 15 2 72.55 2.22
-3 15 -2 68.15 2.19
3 15 2 64.69 2.11
5 -15 2 0.64 0.08
5 15 2 0.63 0.12
-5 15 -2 0.64 0.09
5 15 2 0.55 0.06
5 15 2 0.5 0.1
7 -15 2 36.04 1.09
7 15 2 38.7 1.18
7 15 2 36.38 1.28
9 -15 2 3.55 0.25
9 15 2 3.22 0.32
11 -15 2 2.34 0.27
11 15 2 2.98 0.39
12 -16 -2 14.37 0.54
12 16 -2 13.14 0.68
10 -16 -2 22.29 0.74
10 16 -2 23.19 0.89
8 -16 -2 27.09 0.86
8 16 -2 28.15 1.02
8 16 -2 28.89 0.93
6 -16 -2 39.1 1.21
6 16 -2 44.55 1.43
-6 16 2 42.37 1.32
6 16 -2 40.79 1.33
4 -16 -2 52.21 1.42
4 16 -2 47.91 1.65
-4 16 2 48.87 1.56
4 16 -2 49 1.56
2 -16 -2 51.5 1.44
-2 16 2 50.13 1.59
2 16 -2 52.35 1.68
2 16 -2 48.79 1.59
0 -16 2 20.89 0.61
0 -16 -2 21.69 0.62
0 16 2 20.42 0.72
0 16 -2 20.72 0.71
0 16 -2 22.53 0.73
0 16 2 22.51 0.71
-2 -16 -2 104.98 2.86
2 -16 2 101.28 2.88
2 16 2 103.99 3.16
-2 16 -2 103.74 3.3
2 16 2 100.55 3.32
-2 16 -2 98.02 3.15
4 -16 2 14.46 0.45
4 -16 2 14.53 0.49
4 16 2 14.66 0.55
-4 16 -2 15.72 0.51
4 16 2 13.83 0.51
6 -16 2 30.11 0.85
6 16 2 27.36 0.92
-6 16 -2 28.87 0.91
6 16 2 27.18 1
8 -16 2 9.72 0.39
8 16 2 11.04 0.49
8 16 2 10.24 0.39
10 -16 2 3.99 0.28
10 16 2 3.9 0.39
12 -16 2 0.06 0.18
12 16 2 -0.27 0.25
11 -17 -2 0.24 0.16
11 17 -2 -0.02 0.23
9 -17 -2 1.09 0.15
9 17 -2 0.72 0.2
9 17 -2 1.24 0.15
7 -17 -2 0.48 0.11
-7 17 2 0.55 0.11
7 17 -2 0.49 0.16
7 17 -2 0.47 0.12
5 -17 -2 6.62 0.26
5 17 -2 6.93 0.29
5 17 -2 6.65 0.33
-5 17 2 7.1 0.29
3 -17 -2 0.18 0.06
3 17 -2 0.21 0.09
3 17 -2 0.18 0.1
-3 17 2 0.17 0.09
1 -17 -2 7.56 0.24
1 17 -2 7.48 0.3
1 17 -2 7.7 0.3
-1 17 2 7.52 0.3
-1 17 2 7.35 0.27
1 -17 2 1.64 0.09
-1 -17 -2 2.02 0.08
1 17 2 1.74 0.14
-1 17 -2 1.97 0.12
-1 17 -2 1.8 0.15
1 17 2 1.77 0.16
3 -17 2 1.86 0.11
-3 -17 -2 1.79 0.07
-3 17 -2 1.75 0.1
3 17 2 2.09 0.17
-3 17 -2 1.77 0.15
3 17 2 1.95 0.17
5 -17 2 0.86 0.09
-5 17 -2 0.84 0.11
5 17 2 0.69 0.12
5 17 2 0.72 0.14
7 -17 2 0.01 0.1
7 17 2 -0.19 0.14
7 17 2 0.12 0.1
9 -17 2 0.95 0.16
9 17 2 1.08 0.22
11 -17 2 0.38 0.18
11 17 2 0.38 0.26
10 -18 -2 4.22 0.28
10 18 -2 3.99 0.41
8 -18 -2 71.45 2.06
8 18 -2 72.25 2.24
8 18 -2 70.59 2.4
6 -18 -2 3.72 0.19
6 18 -2 3.1 0.27
6 18 -2 4.01 0.23
-6 18 2 3.84 0.22
4 -18 -2 56.83 1.65
4 18 -2 59.92 1.92
-4 18 2 58.72 1.81
4 18 -2 55.27 1.82
2 -18 -2 104.72 2.91
-2 18 2 102.18 3.2
2 18 -2 97.3 3.2
2 18 -2 108.98 3.37
0 -18 -2 1.49 0.08
0 -18 2 1.51 0.07
0 18 2 1.55 0.12
0 18 2 1.53 0.16
0 18 -2 1.6 0.13
0 18 -2 1.75 0.16
2 -18 2 22.71 0.65
-2 -18 -2 22.2 0.64
2 18 2 23.42 0.78
2 18 2 21.85 0.75
-2 18 -2 21.68 0.75
-2 18 -2 22.31 0.74
4 -18 2 10.87 0.35
4 18 2 11.04 0.41
-4 18 -2 10.8 0.4
4 18 2 10.56 0.43
6 -18 2 33.36 1.01
-6 18 -2 35.61 1.1
6 18 2 35 1.11
6 18 2 32.39 1.19
8 -18 2 11.16 0.41
8 18 2 10.59 0.43
8 18 2 11.83 0.54
10 -18 2 2.96 0.29
10 18 2 2.66 0.31
11 -19 -2 10.81 0.45
11 19 -2 9.98 0.57
9 -19 -2 11.99 0.44
9 19 -2 11.51 0.56
9 19 -2 12.14 0.47
7 -19 -2 50.59 1.49
7 19 -2 47.83 1.74
7 19 -2 52.45 1.63
-7 19 2 52.63 1.62
5 -19 -2 4.56 0.2
5 19 -2 4.85 0.27
-5 19 2 5.2 0.26
5 19 -2 4.97 0.29
3 -19 -2 80.29 2.25
3 19 -2 80.95 2.61
3 19 -2 81.6 2.48
-3 19 2 74.43 2.47
1 -19 -2 18.26 0.52
1 19 -2 17.19 0.63
-1 19 2 18.41 0.62
-1 19 2 17.29 0.6
1 19 -2 18.05 0.62
1 -19 2 110.74 3.21
-1 -19 -2 113.05 3.2
1 19 2 110.14 3.53
-1 19 -2 114.29 3.53
-1 19 -2 121.45 3.69
1 19 2 115.16 3.7
3 -19 2 52.75 1.51
-3 19 -2 53.88 1.67
3 19 2 55.6 1.76
3 19 2 49.39 1.67
5 -19 2 3.39 0.18
5 19 2 3.18 0.26
-5 19 -2 2.97 0.2
5 19 2 3.5 0.23
7 -19 2 27.66 0.84
7 19 2 27.87 1.01
7 19 2 26.52 0.91
9 -19 2 0.62 0.16
9 19 2 1.09 0.24
11 -19 2 -0.31 0.17
11 19 2 -0.69 0.26
10 -20 -2 1.25 0.17
10 20 -2 0.81 0.24
8 -20 -2 7.27 0.33
8 20 -2 7.6 0.43
8 20 -2 7.9 0.36
6 -20 -2 0.48 0.1
6 20 -2 0.42 0.16
6 20 -2 0.45 0.13
-6 20 2 0.28 0.11
4 -20 -2 5.02 0.21
4 20 -2 4.85 0.29
-4 20 2 5.35 0.26
4 20 -2 4.59 0.27
2 -20 -2 4.82 0.18
-2 20 2 4.74 0.24
2 20 -2 4.65 0.25
2 20 -2 4.79 0.25
0 -20 -2 1.25 0.08
0 20 -2 1.25 0.13
0 20 2 1.14 0.12
0 20 -2 1.2 0.14
0 20 2 0.84 0.12
2 -20 2 1.53 0.1
2 20 2 1.56 0.18
2 20 2 1.87 0.18
-2 20 -2 1.64 0.18
4 -20 2 0.88 0.09
4 20 2 0.95 0.15
-4 20 -2 0.81 0.13
4 20 2 0.74 0.14
6 -20 2 0.06 0.1
-6 20 -2 0.07 0.1
6 20 2 0 0.16
6 20 2 0.16 0.12
8 -20 2 1.83 0.21
8 20 2 1.94 0.21
8 20 2 1.48 0.25
10 -20 2 0.19 0.16
10 20 2 0.1 0.25
11 -21 -2 12.63 0.51
11 21 -2 13.07 0.64
9 -21 -2 2.77 0.26
9 21 -2 2.31 0.25
9 21 -2 3 0.38
7 -21 -2 17.88 0.56
-7 21 2 16.1 0.61
7 21 -2 17.9 0.69
7 21 -2 15.96 0.62
5 -21 -2 37.94 1.07
5 21 -2 35.65 1.27
-5 21 2 35.83 1.18
5 21 -2 36.03 1.19
3 -21 -2 20.87 0.6
3 21 -2 19.16 0.72
3 21 -2 20.13 0.7
-3 21 2 19.77 0.69
1 -21 -2 6.69 0.22
1 21 -2 6.61 0.31
-1 21 2 6.27 0.31
1 21 -2 6.75 0.29
-1 21 -2 47.81 1.47
1 21 2 43.67 1.51
-1 21 -2 44.16 1.5
1 21 2 47.46 1.47
3 -21 2 17 0.53
3 21 2 17.75 0.62
3 21 2 17.9 0.65
-3 21 -2 17.35 0.62
5 -21 2 3.29 0.18
5 21 2 3.14 0.23
5 21 2 2.26 0.28
-5 21 -2 3.2 0.22
7 -21 2 12.25 0.42
7 21 2 12.54 0.47
7 21 2 10.28 0.53
9 -21 2 4.52 0.29
9 21 2 4.54 0.44
10 -22 -2 7.78 0.37
10 22 -2 8.39 0.52
8 -22 -2 23.5 0.72
8 22 -2 20.99 0.79
8 22 -2 23.01 0.88
6 -22 -2 24.89 0.76
-6 22 2 24.79 0.85
6 22 -2 25.88 0.86
6 22 -2 24.07 0.92
4 -22 -2 33.44 0.97
4 22 -2 33 1.1
-4 22 2 32.52 1.09
4 22 -2 32.96 1.15
2 -22 -2 54.52 1.53
2 22 -2 55.01 1.79
2 22 -2 54.57 1.72
-2 22 2 50.57 1.71
0 22 -2 15.75 0.58
0 22 -2 15.93 0.56
0 22 2 16.12 0.58
2 22 2 64.34 2.12
-2 22 -2 63.72 2.02
2 22 2 64.16 2.03
4 -22 2 8.95 0.3
4 22 2 9.12 0.38
-4 22 -2 7.76 0.37
4 22 2 8.73 0.4
6 -22 2 14.54 0.5
6 22 2 16.02 0.64
-6 22 -2 15.14 0.55
6 22 2 15.52 0.58
8 -22 2 9.72 0.41
8 22 2 10.86 0.45
8 22 2 11.62 0.56
10 -22 2 0.47 0.17
10 22 2 -0.16 0.24
9 -23 -2 0.82 0.16
9 23 -2 1.06 0.24
7 -23 -2 12.02 0.43
7 23 -2 10.8 0.55
-7 23 2 12.32 0.48
7 23 -2 11.87 0.5
5 -23 -2 0.14 0.09
-5 23 2 0.07 0.13
5 23 -2 0.32 0.15
5 23 -2 -0.24 0.14
3 -23 -2 12.29 0.39
3 23 -2 11.56 0.49
-3 23 2 12.41 0.48
3 23 -2 12.36 0.49
-1 23 2 0.61 0.14
1 23 -2 0.47 0.11
1 23 -2 0.39 0.13
1 23 2 4.46 0.28
-1 23 -2 4.93 0.28
3 23 2 6.67 0.34
3 23 2 7.1 0.34
-3 23 -2 6.54 0.32
5 -23 2 5.02 0.22
5 23 2 4.72 0.34
5 23 2 5.05 0.31
-5 23 -2 5.56 0.29
7 -23 2 14.76 0.5
7 23 2 15.4 0.65
7 23 2 13.27 0.55
9 -23 2 0.26 0.15
9 23 2 0.14 0.25
8 -24 -2 4.32 0.26
8 24 -2 3.83 0.4
8 24 -2 3.52 0.3
6 -24 -2 26.87 0.87
6 24 -2 29.1 0.99
-6 24 2 29.42 0.98
6 24 -2 30.43 1.06
4 24 -2 9.7 0.43
-4 24 2 9.72 0.43
4 24 -2 10.28 0.45
2 24 -2 0.93 0.14
2 24 -2 1.23 0.16
-2 24 2 0.91 0.16
0 24 2 38.22 1.25
0 24 -2 37.74 1.25
2 24 2 0.48 0.15
-2 24 -2 0.44 0.15
-4 24 -2 12.09 0.48
4 24 2 12.48 0.51
4 24 2 11.72 0.49
6 24 2 7.61 0.44
-6 24 -2 7.62 0.37
6 24 2 8.25 0.4
8 -24 2 6.76 0.32
8 24 2 6.83 0.37
8 24 2 6.24 0.45
9 -25 -2 15.53 0.55
9 25 -2 15.08 0.7
7 -25 -2 3.97 0.24
-7 25 2 3.3 0.28
7 25 -2 3.95 0.37
7 25 -2 2.82 0.3
5 25 -2 37.12 1.34
5 25 -2 37.12 1.28
-5 25 2 41.2 1.28
3 25 -2 24.27 0.88
3 25 -2 25.94 0.9
-3 25 2 24.63 0.87
1 25 -2 57 1.81
-1 25 2 55.78 1.81
1 25 2 13.53 0.53
-1 25 -2 12.7 0.52
3 25 2 19.48 0.71
-3 25 -2 18.56 0.69
3 25 2 19.05 0.7
5 25 2 16.89 0.68
5 25 2 16.65 0.65
-5 25 -2 17.32 0.63
7 25 2 3.01 0.3
7 25 2 3.39 0.36
9 25 2 2.5 0.31
8 26 -2 4.64 0.35
8 26 -2 4.81 0.4
6 26 -2 2.97 0.33
6 26 -2 2.43 0.29
-6 26 2 2.58 0.28
-4 26 2 0.55 0.17
4 26 -2 0.36 0.17
4 26 -2 0.37 0.15
2 26 -2 8.07 0.4
-2 26 2 8.64 0.4
0 26 2 0.61 0.16
0 26 -2 1 0.18
2 26 2 7.2 0.39
-2 26 -2 7.13 0.37
4 26 2 5.68 0.34
4 26 2 5.64 0.36
-4 26 -2 5.63 0.33
6 26 2 3 0.3
-6 26 -2 3.15 0.27
6 26 2 2.59 0.32
8 26 2 0.31 0.23
7 27 -2 1.28 0.24
7 27 -2 1.28 0.22
-5 27 2 17.94 0.68
5 27 -2 17.73 0.7
5 27 -2 17.89 0.71
-3 27 2 0.35 0.17
3 27 -2 0.52 0.18
1 27 -2 18.12 0.68
-1 27 2 18.07 0.68
1 27 2 5.74 0.35
-1 27 -2 6 0.35
-3 27 -2 12.63 0.5
3 27 2 11.3 0.52
5 27 2 14 0.59
5 27 2 13.58 0.57
-5 27 -2 13.71 0.56
7 27 2 0.75 0.2
7 27 2 0.9 0.23
6 28 -2 44.25 1.48
6 28 -2 44.89 1.55
-6 28 2 43.57 1.46
-4 28 2 36.31 1.23
4 28 -2 36.65 1.24
2 28 -2 1.05 0.21
-2 28 2 1.26 0.21
0 28 2 46.05 1.54
0 28 -2 47.41 1.54
2 28 2 2.84 0.32
-2 28 -2 2.71 0.3
4 28 2 13.55 0.56
-4 28 -2 12.42 0.54
6 28 2 2.88 0.33
6 28 2 3.28 0.34
5 29 -2 11.77 0.54
-5 29 2 10.11 0.49
-3 29 2 0.23 0.18
3 29 -2 0.27 0.2
1 29 -2 9.13 0.49
-1 29 2 10.92 0.49
1 29 2 11.75 0.53
-1 29 -2 11.96 0.52
-3 29 -2 0.23 0.18
3 29 2 0.2 0.19
5 29 2 5.1 0.37
-5 29 -2 4.83 0.35
-4 30 2 1.08 0.21
4 30 -2 1.09 0.23
-2 30 2 3.95 0.36
2 30 -2 4.84 0.37
0 30 -2 3.75 0.36
0 30 2 3.05 0.35
2 30 2 8.31 0.46
-2 30 -2 7.4 0.42
-4 30 -2 -0.03 0.18
4 30 2 -0.34 0.19
-3 31 2 10.89 0.54
3 31 -2 11.04 0.55
-1 31 2 18.53 0.76
1 31 -2 20.91 0.78
1 31 2 8.1 0.44
-1 31 -2 6.34 0.44
3 31 2 5.82 0.4
-3 31 -2 6.17 0.41
2 32 -2 1.35 0.26
-2 32 2 1.19 0.24
0 32 -2 12.62 0.58
0 32 2 12.71 0.58
-2 32 -2 2.13 0.27
2 32 2 2.31 0.27
14 0 -3 0.16 0.15
12 0 -3 -0.05 0.16
12 0 -3 0.01 0.13
10 0 -3 -0.1 0.12
10 0 -3 -0.07 0.1
8 0 -3 -0.06 0.1
8 0 -3 -0.07 0.07
-8 0 3 0.05 0.05
-6 0 3 0.04 0.04
6 0 -3 -0.09 0.07
6 0 -3 0 0.05
-4 0 3 -0.04 0.04
4 0 -3 -0.06 0.04
4 0 -3 -0.06 0.06
2 0 -3 0.06 0.04
2 0 -3 -0.02 0.03
-2 0 3 -0.06 0.03
0 0 -3 0.01 0.03
0 0 -3 -0.04 0.04
0 0 3 0.01 0.03
2 0 3 -0.04 0.04
2 0 3 -0.05 0.02
-2 0 -3 -0.03 0.03
4 0 3 -0.04 0.05
4 0 3 0.04 0.03
4 0 3 0.1 0.02
6 0 3 -0.03 0.05
6 0 3 0 0.07
8 0 3 0 0.07
8 0 3 -0.04 0.09
10 0 3 0.08 0.1
10 0 3 0.07 0.13
12 0 3 -0.01 0.17
12 0 3 0.08 0.14
13 -1 -3 0.83 0.17
13 1 -3 1.11 0.21
13 1 -3 0.8 0.16
11 -1 -3 1.92 0.21
11 -1 -3 1.73 0.19
11 1 -3 1.66 0.2
11 1 -3 2.55 0.2
9 -1 -3 1.04 0.14
9 -1 -3 1.01 0.11
9 1 -3 1.16 0.14
9 1 -3 0.82 0.11
7 -1 -3 6.24 0.27
-7 -1 3 6.23 0.22
7 -1 -3 6.17 0.23
7 1 -3 5.77 0.22
7 1 -3 6.48 0.28
-7 1 3 6.06 0.22
-5 -1 3 36.2 1.12
5 -1 -3 36.87 1.04
5 -1 -3 37.74 1.19
-5 1 3 36.31 1.12
5 1 -3 33.69 1.2
5 1 -3 35.77 1.03
3 -1 -3 0.48 0.05
3 -1 -3 0.54 0.07
-3 -1 3 0.62 0.06
3 1 -3 0.65 0.06
3 1 -3 0.61 0.08
-3 1 3 0.54 0.06
-1 -1 3 124.6 3.82
1 -1 -3 117.92 4
1 -1 -3 127.1 3.5
1 1 -3 123.39 3.5
-1 1 3 125.04 3.81
1 1 -3 122.32 4.05
-1 -1 -3 551.85 15.91
1 -1 3 550.22 17.23
-1 1 -3 519.23 15.87
1 1 3 554.83 17.18
1 1 3 545.85 18.39
3 -1 3 3.02 0.11
-3 -1 -3 2.9 0.11
3 -1 3 3.02 0.14
-3 1 -3 3.05 0.11
3 1 3 3.07 0.11
5 -1 3 77.38 2.54
5 1 3 78.09 2.55
5 1 3 79.31 2.38
7 -1 3 11.33 0.36
7 -1 3 11.3 0.42
7 1 3 11.18 0.36
7 1 3 11.18 0.43
9 -1 3 44.7 1.3
9 -1 3 45.49 1.5
9 1 3 44.96 1.3
9 1 3 43.52 1.51
11 -1 3 7.78 0.4
11 -1 3 7.47 0.32
11 1 3 8.01 0.41
11 1 3 8.14 0.33
13 -1 3 8.68 0.4
13 -1 3 9.09 0.48
13 1 3 8.25 0.48
13 1 3 8.75 0.39
14 -2 -3 4.16 0.31
14 2 -3 4.14 0.38
14 2 -3 4.46 0.3
12 -2 -3 0.21 0.14
12 -2 -3 0.11 0.15
12 2 -3 -0.18 0.12
12 2 -3 0.18 0.17
10 -2 -3 16.46 0.64
10 -2 -3 16.47 0.55
10 2 -3 18.06 0.65
10 2 -3 17.37 0.55
8 -2 -3 0.24 0.08
8 -2 -3 0.17 0.1
-8 -2 3 0.28 0.05
-8 2 3 0.28 0.05
8 2 -3 0.23 0.08
8 2 -3 0.18 0.11
6 -2 -3 28.87 0.89
6 -2 -3 30.08 1.02
-6 -2 3 30.5 0.95
-6 2 3 31.14 0.95
6 2 -3 32.02 1.03
6 2 -3 31 0.89
-4 -2 3 149.85 4.5
4 -2 -3 140.14 5.25
4 -2 -3 148.11 4.98
-4 2 3 144.3 4.52
4 2 -3 154.53 4.73
4 2 -3 140.36 4.18
-2 -2 3 0.52 0.05
2 -2 -3 0.48 0.06
2 -2 -3 0.59 0.06
2 2 -3 0.38 0.05
2 2 -3 0.46 0.05
-2 2 3 0.54 0.06
0 -2 -3 101.73 3.13
0 -2 -3 97.3 2.74
0 -2 3 93.18 2.97
0 2 -3 91.3 3.11
0 2 3 97.34 2.98
0 2 -3 95.37 2.74
-2 -2 -3 3.19 0.11
2 -2 3 3.22 0.12
2 2 3 3.54 0.12
2 2 3 3.31 0.14
-2 2 -3 3.2 0.11
4 -2 3 161.35 5.59
4 -2 3 174.1 5.25
4 -2 3 180.58 5.24
4 2 3 171.74 5.62
4 2 3 170.65 5.25
6 -2 3 79.04 2.67
6 -2 3 82.33 2.32
6 2 3 84.51 2.67
6 2 3 82.07 2.32
8 -2 3 18.39 0.57
8 -2 3 19.46 0.67
8 2 3 18.35 0.57
8 2 3 18.6 0.68
10 -2 3 50.98 1.69
10 -2 3 50.4 1.47
10 2 3 51.01 1.46
10 2 3 48.28 1.7
12 -2 3 2.47 0.24
12 -2 3 2.26 0.23
12 2 3 2.35 0.32
12 2 3 2.13 0.19
13 -3 -3 0.33 0.16
13 3 -3 0.34 0.14
13 3 -3 0.19 0.2
11 -3 -3 0.29 0.13
11 -3 -3 0.48 0.14
11 3 -3 0.34 0.16
11 3 -3 0.23 0.12
9 -3 -3 0.1 0.1
9 -3 -3 -0.06 0.09
9 3 -3 0.03 0.12
9 3 -3 0.11 0.08
7 -3 -3 4.83 0.2
-7 -3 3 4.77 0.18
7 -3 -3 4.97 0.23
7 3 -3 4.94 0.19
-7 3 3 4.87 0.18
7 3 -3 4.74 0.24
5 -3 -3 5.88 0.2
-5 -3 3 5.91 0.2
5 -3 -3 5.92 0.23
5 3 -3 5.85 0.19
-5 3 3 5.7 0.21
5 3 -3 5.59 0.25
3 -3 -3 6.54 0.24
3 -3 -3 6.96 0.22
3 3 -3 6.82 0.26
-3 3 3 6.92 0.23
3 3 -3 6.91 0.21
1 -3 -3 84.76 2.43
1 -3 -3 86.32 2.76
1 3 -3 83.1 2.64
1 3 -3 87.98 2.79
-1 3 3 86.31 2.64
1 3 -3 83.1 2.42
-1 -3 -3 6.84 0.21
-1 3 -3 6.86 0.25
-1 3 -3 6.56 0.21
1 3 3 7.06 0.23
1 3 3 6.83 0.24
-1 3 -3 6.59 0.23
3 -3 3 9.8 0.31
3 -3 3 9.93 0.34
-3 -3 -3 9.92 0.29
3 3 3 9.64 0.31
3 3 3 9.46 0.34
5 -3 3 26.8 0.9
5 3 3 26.81 0.83
5 3 3 27.13 0.91
7 -3 3 12.89 0.48
7 -3 3 13.95 0.42
7 3 3 13.01 0.49
7 3 3 12.96 0.41
9 -3 3 4.57 0.25
9 -3 3 4.14 0.21
9 3 3 4.72 0.27
9 3 3 4.44 0.2
11 -3 3 0 0.14
11 -3 3 0.1 0.12
11 3 3 -0.03 0.15
11 3 3 -0.1 0.12
13 -3 3 0.5 0.18
13 3 3 0.69 0.16
13 3 3 0.65 0.23
14 -4 -3 0.65 0.18
14 4 -3 0.74 0.22
14 4 -3 0.94 0.16
12 -4 -3 2.32 0.25
12 4 -3 2.06 0.21
12 4 -3 2.26 0.3
10 -4 -3 0.26 0.11
10 -4 -3 0.44 0.12
10 4 -3 0.27 0.1
10 4 -3 0.42 0.15
8 -4 -3 2.27 0.16
-8 -4 3 2.46 0.12
8 -4 -3 2.76 0.18
8 4 -3 2.28 0.15
-8 4 3 2.56 0.12
8 4 -3 2.61 0.22
-6 -4 3 6.09 0.21
6 -4 -3 5.84 0.22
6 -4 -3 5.89 0.24
-6 4 3 6.05 0.22
6 4 -3 6.19 0.27
6 4 -3 6.45 0.21
4 -4 -3 34.49 1.08
4 -4 -3 33.58 0.95
4 4 -3 33.77 1.1
4 4 -3 32.85 1.03
-4 4 3 31.01 1.03
4 4 -3 32.73 0.94
2 -4 -3 141.67 4.76
2 -4 -3 150.39 4.2
2 4 -3 151.2 4.16
2 4 -3 152.67 4.86
2 4 -3 142.82 4.53
-2 4 3 145.06 4.53
0 -4 -3 26.32 0.72
0 4 -3 26.47 0.79
0 4 3 24.83 0.83
0 4 -3 24.29 0.84
0 4 3 24.61 0.79
0 4 -3 25.94 0.72
-2 -4 -3 106.65 2.98
-2 4 -3 106.39 3.36
-2 4 -3 103.87 3.2
-2 4 -3 105.81 2.99
2 4 3 105.81 3.2
2 4 3 97.56 3.36
4 -4 3 20.46 0.62
-4 -4 -3 20.67 0.58
4 -4 3 19.84 0.67
4 4 3 19.8 0.68
4 4 3 19.66 0.63
6 -4 3 54.62 1.53
6 -4 3 53.91 1.76
6 4 3 52.27 1.77
6 4 3 53.63 1.64
8 -4 3 18.87 0.65
8 -4 3 17.69 0.56
8 4 3 18.52 0.56
8 4 3 17.83 0.66
10 -4 3 9.54 0.4
10 -4 3 9.03 0.35
10 4 3 8.4 0.33
10 4 3 8.6 0.42
12 -4 3 23.32 0.75
12 -4 3 24.02 0.87
12 4 3 22.26 0.74
12 4 3 22.49 0.89
13 -5 -3 0.47 0.17
13 5 -3 0.63 0.22
13 5 -3 0.34 0.14
11 -5 -3 2.94 0.23
11 5 -3 2.61 0.31
11 5 -3 2.56 0.2
9 -5 -3 6.43 0.29
9 -5 -3 5.92 0.26
9 5 -3 6.37 0.34
9 5 -3 6.61 0.25
7 -5 -3 18.17 0.58
-7 -5 3 18.95 0.6
7 -5 -3 18.6 0.65
-7 5 3 19.17 0.61
7 5 -3 18.99 0.68
7 5 -3 19.95 0.57
5 -5 -3 34.54 1.02
5 -5 -3 35.72 1.16
5 5 -3 35.32 1.18
-5 5 3 35.06 1.1
5 5 -3 35.52 1.1
5 5 -3 35.2 1.01
3 -5 -3 1.85 0.09
3 -5 -3 2.04 0.09
-3 5 3 1.96 0.1
3 5 -3 1.92 0.11
3 5 -3 2.14 0.13
3 5 -3 1.9 0.08
1 -5 -3 81.52 2.68
1 -5 -3 83.56 2.35
1 5 -3 80.33 2.34
1 5 -3 84.58 2.71
1 5 -3 85.98 2.57
-1 5 3 80.28 2.56
-1 -5 -3 83.13 2.41
1 5 3 84.04 2.77
-1 5 -3 83.48 2.74
-1 5 -3 84.71 2.63
-1 5 -3 86.77 2.4
1 5 3 87.71 2.64
3 -5 3 79.19 2.58
-3 -5 -3 79.58 2.27
3 5 3 77.47 2.59
-3 5 -3 81.88 2.44
3 5 3 81.01 2.44
5 -5 3 60.38 1.88
5 -5 3 61.02 2.01
5 -5 3 63.74 1.75
5 5 3 61.99 1.89
5 5 3 61.14 2.02
7 -5 3 57.07 1.93
7 -5 3 56.71 1.68
7 5 3 61.44 1.68
7 5 3 57.16 1.94
7 5 3 61.11 1.8
9 -5 3 25.83 0.89
9 -5 3 25.91 0.78
9 5 3 24.85 0.92
9 5 3 26.19 0.77
11 -5 3 16.92 0.58
11 -5 3 17.4 0.66
11 5 3 18.16 0.56
11 5 3 15.48 0.69
13 -5 3 5.36 0.35
13 5 3 5.66 0.45
13 5 3 5.32 0.31
14 -6 -3 0.1 0.17
14 6 -3 0.6 0.23
12 -6 -3 0.28 0.15
12 6 -3 0.42 0.12
12 6 -3 0.53 0.2
10 -6 -3 7.71 0.32
10 -6 -3 7.8 0.35
10 6 -3 8.33 0.3
10 6 -3 8.77 0.41
8 -6 -3 18.96 0.6
8 -6 -3 18.21 0.66
-8 -6 3 19.6 0.61
8 6 -3 18.91 0.7
8 6 -3 20.22 0.58
-8 6 3 19.11 0.61
6 -6 -3 3.28 0.15
6 -6 -3 2.93 0.15
6 6 -3 3.5 0.21
-6 6 3 3.43 0.14
6 6 -3 3.18 0.13
6 6 -3 3.22 0.15
4 -6 -3 0.82 0.07
4 -6 -3 0.89 0.08
4 6 -3 0.72 0.09
4 6 -3 0.89 0.06
-4 6 3 0.91 0.08
4 6 -3 0.91 0.12
2 -6 -3 5.58 0.2
2 -6 -3 6.03 0.19
2 6 -3 5.72 0.17
-2 6 3 5.99 0.21
2 6 -3 5.72 0.23
0 -6 -3 43.04 1.22
0 6 3 43.15 1.4
0 6 -3 41.22 1.33
0 6 3 42.91 1.33
0 6 -3 44.91 1.21
0 6 -3 43.08 1.4
-2 -6 -3 4.37 0.14
2 6 3 4.3 0.17
2 6 3 4.62 0.18
-2 6 -3 4.33 0.18
-2 6 -3 4.86 0.17
4 -6 3 8.11 0.29
-4 -6 -3 8.3 0.25
4 -6 3 8.2 0.26
4 6 3 8.34 0.28
-4 6 -3 8.19 0.27
4 6 3 7.83 0.31
6 -6 3 0.17 0.06
6 -6 3 0.12 0.06
6 6 3 0.03 0.08
6 6 3 0.03 0.04
8 -6 3 0.2 0.09
8 -6 3 0.15 0.08
8 6 3 0.05 0.12
8 6 3 0.3 0.07
10 -6 3 9.3 0.4
10 -6 3 9.37 0.36
10 6 3 9.46 0.34
10 6 3 9.47 0.44
12 -6 3 0.54 0.16
12 6 3 0.46 0.21
12 6 3 0.24 0.13
13 -7 -3 2.67 0.28
13 7 -3 3.81 0.4
11 -7 -3 1.94 0.23
11 7 -3 1.61 0.22
11 7 -3 1.55 0.17
-9 -7 3 2.87 0.15
9 -7 -3 3.01 0.2
9 -7 -3 3.73 0.2
9 7 -3 2.87 0.26
9 7 -3 2.87 0.16
7 -7 -3 1.37 0.12
7 -7 -3 1.34 0.13
7 7 -3 1.34 0.15
7 7 -3 1.29 0.11
-7 7 3 1.45 0.11
5 -7 -3 0.58 0.07
5 -7 -3 0.6 0.07
5 7 -3 0.55 0.06
-5 7 3 0.6 0.07
5 7 -3 0.48 0.09
5 7 -3 0.48 0.07
3 -7 -3 104.35 3.42
3 -7 -3 105.3 3.03
-3 7 3 108.66 3.26
3 7 -3 108.8 3
3 7 -3 106.57 3.26
3 7 -3 104.12 3.44
1 -7 -3 42.9 1.21
1 7 -3 42.54 1.33
-1 7 3 43.77 1.39
-1 7 3 41.33 1.33
1 7 -3 44.04 1.21
1 7 -3 42.37 1.4
-1 -7 -3 75.57 2.17
1 7 3 74.97 2.47
-1 7 -3 75.33 2.16
1 7 3 81.13 2.35
-1 7 -3 73.48 2.47
-1 7 -3 78.03 2.35
3 -7 3 122.67 4.02
-3 -7 -3 128.63 3.52
3 7 3 125.65 4.06
-3 7 -3 119.12 3.82
3 7 3 125.41 3.83
5 -7 3 1.24 0.1
5 -7 3 1.22 0.1
-5 7 -3 1.41 0.08
5 7 3 1.18 0.13
5 7 3 1.37 0.09
7 -7 3 50.16 1.41
7 -7 3 49.23 1.61
7 7 3 47.03 1.51
7 7 3 48.85 1.4
7 7 3 49.03 1.63
9 -7 3 0.97 0.12
9 -7 3 0.81 0.12
9 7 3 0.83 0.16
9 7 3 0.9 0.1
11 -7 3 14.3 0.51
11 7 3 14.88 0.5
11 7 3 14.87 0.63
13 -7 3 15.42 0.56
13 7 3 13.91 0.52
13 7 3 14.02 0.67
12 -8 -3 2.97 0.26
12 8 -3 2.6 0.34
10 -8 -3 1.99 0.21
10 8 -3 1.91 0.21
10 8 -3 1.99 0.16
-8 -8 3 18.7 0.61
8 -8 -3 20.07 0.66
8 -8 -3 18.56 0.59
8 8 -3 19.46 0.57
8 8 -3 19.14 0.71
-8 8 3 18.39 0.62
6 -8 -3 43.86 1.49
6 -8 -3 45.58 1.32
-6 8 3 47.18 1.43
6 8 -3 44.97 1.3
6 8 -3 47.97 1.53
6 8 -3 45.76 1.43
4 -8 -3 31.19 1.03
4 -8 -3 31.13 0.92
-4 8 3 32.73 1
4 8 -3 30.84 1.01
4 8 -3 32.56 0.91
4 8 -3 33.08 1.07
2 -8 -3 22.63 0.66
2 8 -3 23.11 0.72
-2 8 3 22.97 0.72
-2 8 3 22.96 0.74
2 8 -3 22.18 0.64
2 8 -3 22.94 0.77
-2 8 3 22.47 0.74
0 -8 -3 32.03 0.89
0 8 -3 31.67 0.88
0 8 -3 31.1 0.98
0 8 3 32.36 0.98
0 8 -3 30.02 1.03
0 8 3 30.23 1.02
-2 -8 -3 87.85 2.54
-2 8 -3 87.39 2.88
2 8 3 94.56 2.74
-2 8 -3 86.32 2.74
2 8 3 90.29 2.89
4 -8 3 14.61 0.49
4 -8 3 14.9 0.44
-4 -8 -3 14.3 0.43
4 8 3 14.15 0.51
4 8 3 15.2 0.47
-4 8 -3 13.83 0.46
6 -8 3 62.8 1.8
6 -8 3 61.83 2.06
6 8 3 62.5 2.09
-6 8 -3 66.4 1.94
6 8 3 62.38 1.95
8 -8 3 107.26 3.03
8 -8 3 103.7 3.46
8 8 3 107.37 3.49
8 8 3 107.66 3.01
10 -8 3 3.35 0.23
10 -8 3 2.86 0.22
10 8 3 3.09 0.19
10 8 3 2.26 0.3
12 -8 3 29.32 0.94
12 8 3 28.99 1.11
12 8 3 30.85 0.92
13 -9 -3 0.15 0.17
13 9 -3 0.1 0.22
11 -9 -3 -0.18 0.12
11 9 -3 0.1 0.18
9 -9 -3 0.43 0.11
-9 -9 3 0.64 0.08
9 9 -3 0.6 0.08
9 9 -3 0.84 0.16
7 -9 -3 0.07 0.05
7 -9 -3 0.05 0.07
7 9 -3 0.12 0.06
7 9 -3 0.03 0.11
-7 9 3 0.04 0.07
7 9 -3 0.11 0.08
5 -9 -3 0.07 0.06
5 -9 -3 0.02 0.03
5 9 -3 -0.01 0.08
5 9 -3 -0.02 0.06
5 9 -3 0.05 0.04
-5 9 3 0.08 0.06
3 -9 -3 12.4 0.38
-3 9 3 12.8 0.42
3 9 -3 12.12 0.45
3 9 -3 12.37 0.36
3 9 -3 13.07 0.42
-3 9 3 12.05 0.41
-3 9 3 12.55 0.41
1 -9 -3 4.08 0.14
-1 9 3 4.07 0.17
1 9 -3 4.51 0.18
1 9 -3 4.16 0.13
-1 9 3 4.02 0.15
1 9 -3 4.27 0.17
-1 -9 -3 3 0.11
1 9 3 3.13 0.14
-1 9 -3 3.03 0.14
1 9 3 3.04 0.14
-1 9 -3 3.01 0.14
3 -9 3 10.9 0.32
-3 -9 -3 10.78 0.32
-3 9 -3 10.4 0.35
3 9 3 10.26 0.36
3 9 3 10.86 0.39
5 -9 3 9.3 0.31
5 -9 3 9.36 0.34
-5 9 -3 9.7 0.32
5 9 3 9.98 0.33
5 9 3 9.15 0.37
7 -9 3 4.25 0.2
7 -9 3 4.34 0.2
7 9 3 4.47 0.18
7 9 3 4.58 0.18
7 9 3 4.36 0.25
9 -9 3 0.66 0.11
9 -9 3 0.47 0.12
9 9 3 0.59 0.15
9 9 3 0.49 0.09
11 -9 3 1.04 0.16
11 9 3 1.03 0.21
11 9 3 1.12 0.13
13 -9 3 3.84 0.32
13 9 3 3.56 0.44
12 -10 -3 0.34 0.16
12 10 -3 0.13 0.21
10 -10 -3 1.13 0.15
10 10 -3 1.03 0.19
8 -10 -3 1.7 0.16
8 10 -3 1.86 0.23
8 10 -3 1.77 0.12
-8 10 3 1.63 0.12
8 10 -3 1.66 0.15
6 -10 -3 30.3 0.92
6 -10 -3 31.71 1.02
6 10 -3 30.93 1.07
6 10 -3 31.99 0.89
-6 10 3 31.4 0.99
6 10 -3 31.1 1
4 -10 -3 3.98 0.16
-4 10 3 4 0.17
4 10 -3 3.86 0.2
4 10 -3 3.71 0.12
4 10 -3 3.91 0.18
-2 -10 3 38.05 1.09
2 -10 -3 37.06 1.1
-2 10 3 38.82 1.25
-2 10 3 38.01 1.25
2 10 -3 38.88 1.28
-2 10 3 39.02 1.21
2 10 -3 40.77 1.21
2 10 -3 38.69 1.09
0 -10 -3 0.67 0.06
0 10 3 0.72 0.08
0 10 -3 0.55 0.07
0 10 -3 0.68 0.09
0 10 3 0.61 0.07
2 -10 3 50.02 1.41
-2 -10 -3 49.88 1.41
2 10 3 49.38 1.63
-2 10 -3 48.99 1.55
-2 10 -3 51.43 1.62
2 10 3 49.38 1.55
4 -10 3 6.59 0.22
-4 -10 -3 6.55 0.21
4 -10 3 6.51 0.24
-4 10 -3 7.02 0.24
4 10 3 6.3 0.27
4 10 3 6.07 0.24
6 -10 3 44.55 1.44
6 -10 3 44.32 1.27
-6 10 -3 42.74 1.35
6 10 3 44.08 1.37
6 10 3 43.33 1.47
8 -10 3 21.48 0.67
8 -10 3 21.98 0.75
8 10 3 20.28 0.79
8 10 3 22.43 0.65
10 -10 3 0.9 0.14
10 10 3 0.67 0.11
10 10 3 1.01 0.2
12 -10 3 12.74 0.5
12 10 3 13.35 0.63
13 -11 -3 1.9 0.21
13 11 -3 2.04 0.28
11 -11 -3 2.67 0.25
11 11 -3 3.09 0.34
9 -11 -3 1.05 0.13
9 11 -3 0.85 0.18
7 -11 -3 6.11 0.25
7 11 -3 6.04 0.21
7 11 -3 6.18 0.31
-7 11 3 5.98 0.24
7 11 -3 6.39 0.26
5 -11 -3 3.84 0.16
5 11 -3 3.76 0.13
5 11 -3 3.88 0.18
-5 11 3 3.66 0.18
5 11 -3 3.43 0.22
3 -11 -3 66.43 1.87
-3 11 3 63.71 2.04
3 11 -3 69.33 2.16
3 11 -3 63.69 2.04
-1 -11 3 53.98 1.56
1 -11 -3 56.1 1.57
1 11 -3 56.45 1.81
1 11 -3 54.45 1.72
-1 11 3 57.25 1.79
-1 11 3 54.53 1.72
-1 -11 -3 91.96 2.71
1 -11 3 94.95 2.7
1 11 3 92.34 3.11
1 11 3 98.27 2.96
-1 11 -3 99.04 3.11
-1 11 -3 101.35 2.96
-3 -11 -3 152.01 4.3
3 -11 3 154.78 4.31
3 11 3 150.94 4.72
3 11 3 149.74 4.93
-3 11 -3 158.41 4.93
-3 11 -3 149.42 4.66
5 -11 3 1.14 0.09
5 -11 3 0.98 0.11
5 11 3 0.98 0.12
-5 11 -3 1.16 0.1
5 11 3 1.1 0.11
7 -11 3 87.77 2.78
7 -11 3 86.98 2.44
7 11 3 84.39 2.82
7 11 3 86.69 2.42
7 11 3 82.24 2.64
9 -11 3 4.5 0.24
9 11 3 4.14 0.31
9 11 3 4.33 0.2
11 -11 3 26.08 0.82
11 11 3 25.39 0.98
13 -11 3 11.04 0.48
13 11 3 10.97 0.61
12 -12 -3 0.06 0.16
12 12 -3 -0.43 0.22
10 -12 -3 0.67 0.15
10 12 -3 0.83 0.2
8 -12 -3 15.65 0.52
8 12 -3 15.85 0.55
8 12 -3 15.81 0.63
-8 12 3 16.64 0.54
6 -12 -3 0.6 0.09
-6 12 3 0.56 0.09
6 12 -3 0.63 0.13
6 12 -3 0.64 0.1
6 12 -3 0.62 0.06
4 -12 -3 0 0.05
4 12 -3 0.07 0.02
4 12 -3 0.05 0.07
4 12 -3 0.03 0.08
-4 12 3 0.08 0.07
2 -12 -3 24.37 0.68
-2 12 3 23.9 0.76
-2 12 3 23.12 0.76
2 12 -3 23.47 0.8
-2 12 3 22.79 0.76
0 -12 -3 8.24 0.25
0 -12 3 7.94 0.24
0 12 3 8.04 0.29
0 12 -3 8.41 0.3
0 12 -3 8.05 0.3
0 12 3 8.43 0.3
2 -12 3 44.27 1.24
-2 -12 -3 43.91 1.24
2 12 3 45.18 1.37
2 12 3 41.61 1.44
-2 12 -3 44.36 1.43
-2 12 -3 43.2 1.37
4 -12 3 0.11 0.05
4 -12 3 0.26 0.06
-4 -12 -3 0.15 0.04
-4 12 -3 0.21 0.06
4 12 3 0.2 0.08
4 12 3 0.25 0.07
6 -12 3 23.02 0.79
6 -12 3 23.48 0.71
-6 12 -3 24.09 0.76
6 12 3 23.92 0.84
6 12 3 24.38 0.77
8 -12 3 11.32 0.4
8 12 3 11.77 0.37
8 12 3 11.58 0.49
10 -12 3 -0.02 0.13
10 12 3 0.12 0.18
12 -12 3 8.95 0.43
12 12 3 9.95 0.55
13 -13 -3 1.41 0.21
13 13 -3 1.52 0.28
11 -13 -3 3.27 0.28
11 13 -3 2.61 0.36
9 -13 -3 5.78 0.28
9 13 -3 5.7 0.36
9 13 -3 5.23 0.26
7 -13 -3 3.02 0.18
-7 13 3 3.24 0.18
7 13 -3 3.34 0.19
7 13 -3 2.82 0.25
5 -13 -3 15.29 0.49
-5 13 3 16.55 0.54
5 13 -3 16.16 0.54
5 13 -3 16.32 0.59
5 13 -3 15.34 0.45
3 -13 -3 0.25 0.06
3 13 -3 0.48 0.09
3 13 -3 0.22 0.07
-3 13 3 0.43 0.08
-1 -13 3 24.67 0.71
-1 -13 3 24.58 0.71
1 -13 -3 25.32 0.73
-1 13 3 26.31 0.83
1 13 -3 25.64 0.85
-1 13 3 25.09 0.81
1 -13 3 16.67 0.49
-1 -13 -3 16.37 0.49
-1 13 -3 16.63 0.56
-1 13 -3 16.91 0.57
1 13 3 16.96 0.57
1 13 3 17.39 0.56
3 -13 3 6.48 0.21
-3 -13 -3 6.32 0.19
-3 13 -3 5.92 0.24
-3 13 -3 5.9 0.23
3 13 3 5.84 0.26
3 13 3 5.91 0.25
5 -13 3 45.66 1.3
5 -13 3 44.1 1.47
5 13 3 44.2 1.41
5 13 3 46.09 1.51
-5 13 -3 44.97 1.4
7 -13 3 2.76 0.18
7 13 3 2.82 0.25
7 13 3 2.49 0.16
7 13 3 2.69 0.13
9 -13 3 12.73 0.45
9 13 3 12.89 0.57
11 -13 3 2.74 0.29
11 13 3 3.3 0.4
12 -14 -3 2.64 0.28
12 14 -3 3.06 0.41
10 -14 -3 0.16 0.14
10 14 -3 -0.13 0.19
8 -14 -3 2.95 0.2
-8 14 3 2.92 0.18
8 14 -3 2.9 0.28
8 14 -3 2.75 0.21
6 -14 -3 11.32 0.39
-6 14 3 12.56 0.42
6 14 -3 11.48 0.48
6 14 -3 11.63 0.43
4 -14 -3 27.24 0.83
4 14 -3 29.48 0.92
4 14 -3 27.38 0.97
-4 14 3 29.21 0.91
2 -14 -3 33.45 0.95
2 14 -3 32.16 1.11
2 14 -3 33.31 1.06
-2 14 3 33.33 1.05
0 -14 3 81 2.28
0 -14 -3 81.04 2.29
0 14 -3 76.84 2.51
0 14 3 79.82 2.63
0 14 -3 83.29 2.64
0 14 3 84.77 2.51
-2 -14 -3 36.87 1.07
2 -14 3 37.83 1.08
-2 14 -3 36.37 1.19
-2 14 -3 38.04 1.24
2 14 3 38.05 1.2
2 14 3 39.2 1.25
-4 -14 -3 32.4 0.93
4 -14 3 32.32 0.95
4 -14 3 31.57 1.07
4 14 3 32.63 1.11
-4 14 -3 34.52 1.04
4 14 3 33.37 1.05
6 -14 3 42.82 1.46
6 -14 3 47.26 1.3
6 14 3 44.99 1.41
-6 14 -3 43.27 1.4
6 14 3 46.28 1.52
6 14 3 44.68 1.28
8 -14 3 23.94 0.73
8 14 3 23.04 0.87
10 -14 3 15.55 0.53
10 14 3 14.4 0.65
12 -14 3 14.39 0.56
12 14 3 14.33 0.71
11 -15 -3 0.22 0.15
11 15 -3 0.5 0.23
9 -15 -3 1.08 0.14
9 15 -3 0.75 0.13
9 15 -3 0.91 0.19
7 -15 -3 3.47 0.21
-7 15 3 4.34 0.21
7 15 -3 3.86 0.23
7 15 -3 3.88 0.28
5 -15 -3 0.71 0.09
5 15 -3 0.54 0.11
5 15 -3 0.75 0.13
-5 15 3 0.69 0.1
3 -15 -3 25.81 0.73
-3 15 3 25.58 0.82
3 15 -3 24.33 0.86
3 15 -3 24.04 0.82
1 -15 -3 1.46 0.09
1 15 -3 1.48 0.13
1 15 -3 1.35 0.14
-1 15 3 1.78 0.14
-1 15 3 1.35 0.09
1 -15 3 3.71 0.13
-1 -15 -3 3.81 0.13
-1 15 -3 3.66 0.18
-1 15 -3 3.5 0.17
1 15 3 3.56 0.18
1 15 3 4.02 0.19
-3 -15 -3 17.89 0.51
3 -15 3 17.19 0.52
-3 15 -3 17.92 0.59
3 15 3 17.19 0.62
3 15 3 17.87 0.59
-3 15 -3 17.17 0.59
5 -15 3 6.08 0.23
5 -15 3 6.29 0.23
5 15 3 6.18 0.27
-5 15 -3 6.17 0.25
5 15 3 6.34 0.3
7 -15 3 24.79 0.74
7 15 3 23.1 0.88
7 15 3 24.51 0.8
9 -15 3 1.9 0.17
9 15 3 1.23 0.22
11 -15 3 3.83 0.3
11 15 3 3.47 0.42
12 -16 -3 -0.05 0.17
12 16 -3 0.43 0.24
10 -16 -3 15.15 0.55
10 16 -3 15.83 0.68
8 -16 -3 0.13 0.11
8 16 -3 0.07 0.16
8 16 -3 0.24 0.12
-8 16 3 0.44 0.11
6 -16 -3 7.45 0.28
-6 16 3 7.43 0.31
6 16 -3 7.61 0.36
6 16 -3 7.29 0.32
4 -16 -3 27 0.82
-4 16 3 27.67 0.91
4 16 -3 29.29 0.97
4 16 -3 27.89 0.91
2 -16 -3 0.43 0.06
-2 16 3 0.45 0.09
2 16 -3 0.21 0.09
2 16 -3 0.27 0.09
0 -16 -3 7.75 0.25
0 -16 3 7.99 0.24
0 16 3 8.2 0.3
0 16 -3 7.96 0.31
0 16 3 8 0.31
0 16 -3 7.96 0.31
-2 -16 -3 8.24 0.26
2 -16 3 8.39 0.27
2 16 3 9.13 0.34
-2 16 -3 8.4 0.31
-2 16 -3 8.95 0.33
2 16 3 8.64 0.33
-4 -16 -3 40.9 1.15
4 -16 3 40.25 1.32
4 -16 3 40.63 1.17
4 16 3 41.42 1.36
-4 16 -3 39.71 1.28
4 16 3 39.63 1.29
6 -16 3 14.9 0.46
-6 16 -3 15.22 0.49
6 16 3 13.31 0.56
6 16 3 13.61 0.5
8 -16 3 0.47 0.13
8 16 3 0.63 0.17
10 -16 3 15.69 0.56
10 16 3 15.83 0.7
12 -16 3 -0.32 0.18
12 16 3 -0.21 0.27
11 -17 -3 2.11 0.21
11 17 -3 2.22 0.28
9 -17 -3 0.32 0.13
9 17 -3 0.25 0.13
9 17 -3 0.03 0.18
7 -17 -3 4.41 0.23
7 17 -3 4.46 0.25
7 17 -3 4.35 0.31
-7 17 3 4.35 0.24
5 -17 -3 33.29 0.96
-5 17 3 34.38 1.06
5 17 -3 30.88 1.14
5 17 -3 32.5 1.07
3 -17 -3 0.33 0.07
-3 17 3 0.38 0.1
3 17 -3 0.28 0.09
3 17 -3 0.53 0.11
1 -17 -3 52.02 1.42
-1 17 3 51.14 1.58
-1 17 3 50.66 1.63
1 17 -3 47.92 1.58
1 17 -3 48.34 1.65
-1 -17 -3 155.49 4.43
1 -17 3 163.58 4.43
-1 17 -3 158.06 5.1
1 17 3 158.83 5.1
-1 17 -3 160.18 4.85
1 17 3 151.94 4.86
3 -17 3 8.57 0.27
-3 -17 -3 8.06 0.25
3 17 3 7.2 0.34
3 17 3 8.52 0.33
-3 17 -3 8.61 0.3
-3 17 -3 7.89 0.32
5 -17 3 54.8 1.55
5 17 3 54.58 1.81
-5 17 -3 55.36 1.7
5 17 3 51.25 1.7
7 -17 3 4.35 0.24
7 17 3 4.76 0.32
7 17 3 4.95 0.24
9 -17 3 38.46 1.19
9 17 3 41.2 1.42
11 -17 3 2.18 0.22
11 17 3 2.38 0.32
10 -18 -3 1.76 0.18
10 18 -3 1.64 0.25
8 -18 -3 0.54 0.12
8 18 -3 0.6 0.14
8 18 -3 0.57 0.18
6 -18 -3 1.4 0.16
6 18 -3 1.72 0.24
-6 18 3 1.37 0.17
6 18 -3 1.95 0.2
4 -18 -3 8.64 0.3
4 18 -3 8.41 0.35
-4 18 3 8.77 0.35
4 18 -3 8.75 0.39
2 -18 -3 4.06 0.17
2 18 -3 4.55 0.23
-2 18 3 4.31 0.23
2 18 -3 4.3 0.23
0 -18 -3 17.62 0.52
0 18 -3 17.81 0.62
0 18 3 18.89 0.61
0 18 -3 17.55 0.61
0 18 3 16.73 0.61
2 -18 3 0.35 0.06
-2 -18 -3 0.35 0.04
-2 18 -3 0.43 0.1
-2 18 -3 0.31 0.07
2 18 3 0.44 0.11
2 18 3 0.31 0.1
4 -18 3 19.11 0.6
4 18 3 20.66 0.72
-4 18 -3 18.85 0.67
4 18 3 21.23 0.68
6 -18 3 12.12 0.42
6 18 3 12.46 0.52
6 18 3 13.22 0.47
-6 18 -3 12.57 0.45
8 -18 3 3.4 0.23
8 18 3 3.76 0.33
10 -18 3 12.09 0.47
10 18 3 11.28 0.61
11 -19 -3 0.31 0.17
11 19 -3 0.49 0.24
9 -19 -3 0.67 0.14
9 19 -3 0.77 0.22
9 19 -3 0.54 0.15
7 -19 -3 1.59 0.19
7 19 -3 1.39 0.16
-7 19 3 1.4 0.18
7 19 -3 1.32 0.2
5 -19 -3 1.94 0.16
-5 19 3 1.84 0.19
5 19 -3 2.38 0.25
5 19 -3 2.2 0.2
3 -19 -3 0.58 0.08
-3 19 3 0.55 0.12
3 19 -3 0.65 0.12
3 19 -3 0.41 0.12
1 -19 -3 9.78 0.3
-1 19 3 8.87 0.37
1 19 -3 9.85 0.37
1 19 -3 8.58 0.37
1 -19 3 18.72 0.54
-1 -19 -3 19.31 0.54
1 19 3 17.41 0.65
1 19 3 17.92 0.64
-1 19 -3 19.14 0.64
-1 19 -3 18.49 0.64
3 -19 3 0.11 0.06
-3 19 -3 0.03 0.1
3 19 3 0.01 0.1
3 19 3 0.03 0.11
5 -19 3 5.36 0.22
5 19 3 5.33 0.28
-5 19 -3 5.48 0.26
5 19 3 4.87 0.31
7 -19 3 0.92 0.13
7 19 3 0.95 0.14
7 19 3 0.64 0.18
9 -19 3 2.3 0.26
9 19 3 2.28 0.28
11 -19 3 1.07 0.21
11 19 3 1.28 0.29
10 -20 -3 8.56 0.39
10 20 -3 8.27 0.51
8 -20 -3 0.2 0.12
8 20 -3 0.22 0.19
8 20 -3 0.28 0.14
6 -20 -3 19.76 0.61
6 20 -3 20.42 0.69
-6 20 3 17.81 0.67
6 20 -3 19.16 0.74
4 -20 -3 23.55 0.74
-4 20 3 26.21 0.84
4 20 -3 26.03 0.89
4 20 -3 23.54 0.84
2 -20 -3 2.49 0.13
-2 20 3 2.78 0.2
2 20 -3 2.62 0.2
2 20 -3 2.55 0.2
0 -20 -3 37.34 1.03
0 20 3 35.31 1.19
0 20 3 34.91 1.16
0 20 -3 35.45 1.16
0 20 -3 36.05 1.2
2 -20 3 7.59 0.26
2 20 3 7.59 0.34
-2 20 -3 8.43 0.35
-2 20 -3 8.65 0.31
2 20 3 8.38 0.35
4 -20 3 38.59 1.14
-4 20 -3 38.91 1.26
4 20 3 41.91 1.34
4 20 3 37.44 1.27
6 -20 3 33.77 1.04
-6 20 -3 34.71 1.13
6 20 3 37.13 1.24
6 20 3 34.78 1.15
8 -20 3 10.3 0.4
8 20 3 9.65 0.53
10 -20 3 21.36 0.74
10 20 3 23.46 0.93
9 -21 -3 0.18 0.14
9 21 -3 0.03 0.21
9 21 -3 0.19 0.15
7 -21 -3 0.74 0.13
7 21 -3 0.49 0.15
-7 21 3 0.88 0.15
7 21 -3 0.78 0.2
5 -21 -3 13.17 0.42
-5 21 3 12.17 0.49
5 21 -3 12.34 0.53
5 21 -3 13.08 0.5
3 -21 -3 0.21 0.07
-3 21 3 0.26 0.12
3 21 -3 0.02 0.11
3 21 -3 0.39 0.13
1 -21 -3 40.54 1.11
1 21 -3 37.04 1.26
1 21 -3 39.33 1.3
-1 21 3 37.75 1.26
-1 21 -3 8.69 0.36
1 21 3 8.76 0.34
1 21 3 8.2 0.36
-1 21 -3 8.14 0.33
3 -21 3 1.51 0.12
3 21 3 1.79 0.21
-3 21 -3 1.87 0.2
3 21 3 1.54 0.21
5 -21 3 36.84 1.07
-5 21 -3 39.06 1.19
5 21 3 35.22 1.19
5 21 3 34.88 1.27
7 -21 3 0.18 0.12
7 21 3 0.31 0.14
7 21 3 0.08 0.19
9 -21 3 5.47 0.33
9 21 3 6.34 0.47
10 -22 -3 0.92 0.18
10 22 -3 1.1 0.27
8 -22 -3 4 0.26
8 22 -3 3.5 0.36
8 22 -3 3.44 0.29
6 -22 -3 1.82 0.18
6 22 -3 2.17 0.25
-6 22 3 1.97 0.23
6 22 -3 1.75 0.21
4 -22 -3 9.09 0.32
-4 22 3 9.39 0.39
4 22 -3 9.47 0.41
4 22 -3 8.61 0.4
2 -22 -3 9.81 0.31
-2 22 3 9.23 0.4
2 22 -3 9.47 0.4
2 22 -3 9.47 0.4
0 22 -3 0.24 0.12
0 22 3 0.22 0.12
0 22 -3 0.36 0.09
2 22 3 4.2 0.25
-2 22 -3 4.2 0.26
2 22 3 4.45 0.26
4 -22 3 0.19 0.08
4 22 3 0.06 0.14
-4 22 -3 0.18 0.13
4 22 3 0.26 0.14
6 -22 3 1.5 0.18
-6 22 -3 1.58 0.2
6 22 3 1.18 0.21
6 22 3 1.37 0.17
8 -22 3 1.18 0.16
8 22 3 1.41 0.25
10 -22 3 -0.03 0.17
10 22 3 0.08 0.26
9 -23 -3 3.03 0.25
9 23 -3 3.58 0.41
9 23 -3 2.45 0.29
7 -23 -3 7.58 0.33
7 23 -3 8.3 0.46
-7 23 3 7.68 0.37
7 23 -3 7.34 0.39
5 -23 -3 7.56 0.29
5 23 -3 7.46 0.37
-5 23 3 7.28 0.36
5 23 -3 7.96 0.4
3 -23 -3 4.97 0.21
3 23 -3 5.31 0.3
-3 23 3 5.39 0.3
3 23 -3 5.23 0.29
1 23 -3 11.9 0.45
-1 23 3 11.65 0.47
1 23 -3 11.29 0.47
-1 23 -3 26.19 0.91
1 23 3 27.5 0.91
-3 23 -3 17.92 0.67
3 23 3 20.24 0.69
3 23 3 19.09 0.71
-5 23 -3 14.98 0.54
5 23 3 13.89 0.6
5 23 3 14.18 0.55
7 -23 3 22.63 0.71
7 23 3 22.28 0.79
7 23 3 22.27 0.88
9 -23 3 6.83 0.35
9 23 3 6.76 0.51
8 -24 -3 1.06 0.16
8 24 -3 0.85 0.19
8 24 -3 0.78 0.24
6 -24 -3 0.55 0.12
-6 24 3 0.73 0.16
6 24 -3 0.58 0.17
6 24 -3 0.52 0.18
4 -24 -3 8.93 0.32
4 24 -3 9.75 0.43
4 24 -3 9.11 0.42
-4 24 3 7.83 0.39
2 24 -3 2.1 0.22
-2 24 3 2.31 0.24
2 24 -3 1.92 0.23
0 24 3 29.13 0.96
0 24 -3 26.88 0.95
-2 24 -3 6.63 0.35
2 24 3 6.44 0.34
-4 24 -3 18 0.63
4 24 3 16.05 0.64
4 24 3 17.26 0.67
6 24 3 1.8 0.2
-6 24 -3 1.86 0.22
6 24 3 1.32 0.23
8 -24 3 6.69 0.33
8 24 3 7.31 0.49
9 -25 -3 0.75 0.16
9 25 -3 0.2 0.23
7 -25 -3 0.35 0.13
7 25 -3 0.08 0.17
7 25 -3 0.18 0.2
-7 25 3 0 0.16
5 25 -3 3.46 0.32
-5 25 3 4.34 0.29
5 25 -3 3.35 0.3
3 25 -3 10.36 0.45
3 25 -3 10.14 0.45
-3 25 3 10.24 0.45
1 25 -3 1.08 0.17
-1 25 3 1.45 0.18
1 25 3 1.05 0.17
-1 25 -3 0.52 0.16
3 25 3 12.82 0.53
-3 25 -3 12.94 0.51
5 25 3 3.74 0.31
5 25 3 3.1 0.33
-5 25 -3 4.9 0.29
7 25 3 3.61 0.3
7 25 3 3.07 0.3
8 -26 -3 4.42 0.3
8 26 -3 5.29 0.43
8 26 -3 4.39 0.35
6 26 -3 24.85 0.99
6 26 -3 28.71 0.95
-6 26 3 26.38 0.93
4 26 -3 1.35 0.19
-4 26 3 1.4 0.2
4 26 -3 1.36 0.2
2 26 -3 11.63 0.5
-2 26 3 11.48 0.49
0 26 -3 0.65 0.17
0 26 3 1.01 0.19
-2 26 -3 39.2 1.3
2 26 3 39.08 1.31
4 26 3 0.63 0.18
-4 26 -3 0.57 0.16
6 26 3 15.6 0.68
6 26 3 16.25 0.63
8 26 3 32.43 1.22
-7 27 3 0.03 0.18
7 27 -3 0.28 0.2
7 27 -3 -0.14 0.17
5 27 -3 -0.03 0.18
5 27 -3 0.11 0.17
-5 27 3 -0.09 0.17
3 27 -3 12.32 0.54
-3 27 3 13.02 0.53
-1 27 3 7.23 0.4
1 27 -3 8.82 0.41
-1 27 -3 2.55 0.28
1 27 3 2.89 0.29
3 27 3 24.39 0.87
-3 27 -3 23.76 0.86
-5 27 -3 5.98 0.36
5 27 3 6.46 0.37
7 27 3 13.27 0.56
7 27 3 13.12 0.62
6 28 -3 1.06 0.21
6 28 -3 0.56 0.21
-6 28 3 0.95 0.2
-4 28 3 0.33 0.19
4 28 -3 0.16 0.2
2 28 -3 0.08 0.18
-2 28 3 0.18 0.18
0 28 3 -0.16 0.17
0 28 -3 0.22 0.17
2 28 3 0.25 0.19
-2 28 -3 0.38 0.18
4 28 3 0.79 0.21
-4 28 -3 1.23 0.2
6 28 3 0.43 0.2
-5 29 3 2.05 0.25
5 29 -3 2.06 0.25
3 29 -3 10.37 0.49
-3 29 3 9.78 0.48
-1 29 3 6.35 0.39
1 29 -3 6.03 0.4
1 29 3 10.35 0.52
-1 29 -3 11.62 0.52
3 29 3 15.88 0.67
-3 29 -3 17.18 0.66
5 29 3 0.36 0.2
-5 29 -3 0.6 0.19
4 30 -3 1.14 0.23
-4 30 3 1.14 0.22
2 30 -3 6.65 0.41
-2 30 3 5.92 0.39
0 30 -3 1.03 0.22
0 30 3 0.43 0.2
2 30 3 17.58 0.69
-2 30 -3 16.13 0.68
4 30 3 2.2 0.26
-4 30 -3 2.27 0.25
3 31 -3 4.11 0.39
-3 31 3 3.24 0.34
-1 31 3 1.17 0.23
1 31 -3 1.13 0.23
1 31 3 0.26 0.21
-1 31 -3 -0.15 0.2
3 31 3 0.2 0.22
-3 31 -3 0.68 0.21
-2 32 3 2.24 0.26
2 32 -3 2.57 0.29
0 32 -3 12.81 0.61
0 32 3 13.51 0.6
-2 32 -3 0.59 0.23
2 32 3 0.48 0.23
14 0 -4 13.99 0.53
12 0 -4 15.73 0.54
12 0 -4 16.26 0.65
10 0 -4 62.54 2.16
10 0 -4 67.35 1.88
-8 0 4 4.51 0.18
8 0 -4 4.27 0.2
8 0 -4 4.07 0.24
6 0 -4 91.79 2.91
-6 0 4 90.06 2.74
6 0 -4 86.08 2.53
4 0 -4 66.75 1.95
4 0 -4 71.44 2.24
-4 0 4 68.24 2.11
2 0 -4 27.54 0.79
-2 0 4 27.39 0.86
2 0 -4 28.19 0.91
0 0 -4 68.91 2.19
0 0 -4 65.83 1.94
0 0 4 68.37 2.1
2 0 4 100.37 3.33
2 0 4 104 3.16
-2 0 -4 102.42 2.92
4 0 4 76.13 2.48
-4 0 -4 76.59 2.15
4 0 4 75.89 2.33
6 0 4 3.11 0.17
8 0 4 4.3 0.24
8 0 4 3.94 0.19
10 0 4 7.3 0.3
10 0 4 7.69 0.38
12 0 4 18.73 0.63
12 0 4 18.26 0.74
13 -1 -4 0.54 0.16
13 1 -4 0.51 0.19
13 1 -4 0.82 0.16
11 -1 -4 14.53 0.58
11 -1 -4 15.55 0.51
11 1 -4 13.64 0.59
11 1 -4 14.93 0.5
-9 -1 4 16.52 0.54
9 -1 -4 15.57 0.61
9 -1 -4 15.65 0.52
9 1 -4 17.14 0.62
9 1 -4 17.09 0.52
7 -1 -4 4.72 0.22
-7 -1 4 3.91 0.17
7 -1 -4 4.46 0.18
7 1 -4 4.11 0.23
-7 1 4 4.09 0.17
7 1 -4 4.35 0.18
5 -1 -4 34.97 1.15
5 -1 -4 34.39 1
-5 -1 4 36.11 1.08
-5 1 4 35.07 1.08
5 1 -4 33.63 1.16
5 1 -4 34.37 1
3 -1 -4 23.3 0.67
3 -1 -4 22.45 0.77
-3 -1 4 23.3 0.72
3 1 -4 22.89 0.67
-3 1 4 23.11 0.73
3 1 -4 23.8 0.77
1 -1 -4 53.46 1.55
1 -1 -4 51.74 1.78
1 1 -4 56.27 1.55
-1 1 4 55.52 1.69
1 1 -4 58.27 1.79
1 -1 4 5.96 0.2
-1 -1 -4 5.63 0.18
-1 1 -4 6.28 0.22
-1 1 -4 5.71 0.19
1 1 4 5.97 0.2
3 -1 4 1.16 0.07
3 -1 4 1.41 0.1
-3 -1 -4 1.42 0.08
-3 1 -4 1.44 0.08
3 1 4 1.6 0.07
3 1 4 1.45 0.1
5 -1 4 23.58 0.71
5 -1 4 23.11 0.78
5 1 4 23.72 0.79
5 1 4 22.26 0.72
7 -1 4 3.81 0.18
7 -1 4 4.4 0.22
7 1 4 3.78 0.17
7 1 4 3.94 0.21
9 -1 4 5.02 0.23
9 -1 4 5.07 0.27
9 1 4 4.86 0.22
9 1 4 4.54 0.28
11 -1 4 0.65 0.17
11 -1 4 0.46 0.14
11 1 4 0.69 0.17
11 1 4 0.61 0.13
13 -1 4 0.18 0.17
13 -1 4 0.17 0.2
13 1 4 0.08 0.21
13 1 4 0 0.16
14 -2 -4 3.95 0.32
14 2 -4 4.14 0.3
12 -2 -4 3.62 0.26
12 -2 -4 2.92 0.27
12 2 -4 2.39 0.31
12 2 -4 2.76 0.24
10 -2 -4 8.49 0.33
10 -2 -4 8.96 0.39
10 2 -4 8.75 0.32
10 2 -4 8.27 0.39
8 -2 -4 6.48 0.25
8 -2 -4 6.92 0.3
-8 -2 4 6.53 0.24
8 2 -4 6.82 0.25
-8 2 4 6.57 0.24
8 2 -4 6.39 0.31
6 -2 -4 9.53 0.35
6 -2 -4 9.21 0.31
-6 -2 4 9.7 0.32
6 2 -4 8.83 0.37
-6 2 4 9.54 0.32
6 2 -4 9.51 0.3
4 -2 -4 0.77 0.08
4 -2 -4 0.84 0.09
-4 -2 4 0.91 0.07
4 2 -4 0.77 0.07
-4 2 4 0.81 0.07
4 2 -4 0.77 0.1
-2 -2 4 78.92 2.42
2 -2 -4 77.81 2.2
2 -2 -4 75.01 2.5
2 2 -4 77.59 2.2
2 2 -4 76.1 2.51
-2 2 4 78.84 2.43
0 -2 -4 3.68 0.13
0 -2 -4 3.59 0.15
0 -2 4 3.58 0.13
0 2 4 3.52 0.14
0 2 -4 3.62 0.12
0 2 -4 3.9 0.16
2 -2 4 23.59 0.75
2 -2 4 22.55 0.71
-2 -2 -4 22.45 0.65
2 2 4 23 0.71
2 2 4 21.82 0.75
-2 2 -4 22.94 0.65
-4 -2 -4 2.4 0.11
4 -2 4 2.25 0.09
4 -2 4 2.43 0.13
4 2 4 2.37 0.1
6 -2 4 6.12 0.25
6 2 4 5.58 0.26
6 2 4 6.21 0.2
8 -2 4 0.63 0.11
8 -2 4 0.53 0.09
8 2 4 0.48 0.12
8 2 4 0.39 0.09
10 -2 4 0.68 0.12
10 -2 4 0.88 0.15
10 2 4 0.66 0.16
10 2 4 0.78 0.12
12 -2 4 1.19 0.2
12 -2 4 1.05 0.17
12 2 4 1.2 0.21
12 2 4 1.35 0.17
13 -3 -4 7.39 0.35
13 3 -4 8.07 0.45
13 3 -4 6.37 0.33
11 -3 -4 18.54 0.69
11 -3 -4 18.54 0.6
11 3 -4 17.75 0.71
11 3 -4 18.65 0.59
-9 -3 4 28.45 0.89
9 -3 -4 29.43 0.98
9 -3 -4 26.95 0.85
9 3 -4 27.58 0.84
9 3 -4 28.89 0.99
7 -3 -4 70.83 1.96
-7 -3 4 67.76 2.11
7 -3 -4 67.23 2.25
7 3 -4 67.73 1.96
-7 3 4 69.83 2.12
7 3 -4 68.94 2.26
5 -3 -4 99.32 3.17
5 -3 -4 99.36 2.77
-5 -3 4 94.7 3
5 3 -4 100.86 2.76
5 3 -4 96.37 3.18
-5 3 4 97.4 3
-3 -3 4 15.74 0.5
3 -3 -4 15.76 0.53
3 3 -4 15.72 0.46
-3 3 4 16.13 0.5
3 3 -4 14.97 0.54
1 -3 -4 85.84 2.39
-1 -3 4 83.96 2.64
1 -3 -4 87.36 2.78
1 3 -4 81.84 2.79
1 3 -4 86.19 2.42
1 -3 4 27.43 0.83
-1 -3 -4 25.89 0.76
-1 3 -4 25.72 0.88
-1 3 -4 26.52 0.76
1 3 4 27 0.88
1 3 4 27.25 0.83
3 -3 4 30.89 0.95
-3 -3 -4 30.38 0.89
3 -3 4 30.68 1.02
3 3 4 31.64 0.96
-3 3 -4 30.99 0.89
3 3 4 31.05 1.02
5 -3 4 6.61 0.22
5 -3 4 6.52 0.27
5 3 4 6.75 0.23
5 3 4 7.04 0.27
7 -3 4 6.25 0.24
7 -3 4 6.5 0.28
7 3 4 6.49 0.24
7 3 4 6.87 0.29
9 -3 4 1.93 0.17
9 -3 4 2.11 0.19
9 3 4 2.3 0.16
9 3 4 2.05 0.22
11 -3 4 -0.04 0.14
11 -3 4 0.31 0.13
11 3 4 0.28 0.13
11 3 4 0.07 0.16
13 -3 4 0.85 0.18
13 3 4 0.36 0.17
13 3 4 0.23 0.22
14 -4 -4 5.88 0.35
14 4 -4 6.44 0.44
12 -4 -4 0.87 0.16
12 4 -4 0.6 0.2
12 4 -4 0.81 0.14
10 -4 -4 45.02 1.33
10 -4 -4 44.12 1.52
10 4 -4 46.95 1.55
10 4 -4 45.15 1.32
8 -4 -4 1.29 0.16
8 -4 -4 1.54 0.14
-8 -4 4 1.11 0.1
8 4 -4 1.52 0.13
8 4 -4 1.93 0.2
-8 4 4 1.46 0.11
6 -4 -4 29.83 1
6 -4 -4 29.74 0.88
-6 -4 4 30.8 0.94
6 4 -4 29.43 1.02
-6 4 4 29.71 0.94
6 4 -4 30.76 0.87
4 -4 -4 12.65 0.45
-4 -4 4 13.34 0.42
4 -4 -4 13.58 0.4
-4 4 4 12.62 0.43
4 4 -4 13.01 0.47
4 4 -4 13.25 0.39
2 -4 -4 47.85 1.54
2 -4 -4 48.65 1.35
2 4 -4 47.59 1.47
2 4 -4 48.57 1.55
2 4 -4 47.1 1.34
-2 4 4 45.09 1.46
0 -4 -4 51.54 1.46
0 4 4 50.9 1.59
0 4 -4 52.56 1.46
0 4 -4 51.72 1.69
0 4 -4 52.12 1.6
-2 -4 -4 0.33 0.04
2 -4 4 0.55 0.05
2 4 4 0.26 0.05
-2 4 -4 0.52 0.06
-2 4 -4 0.29 0.06
2 4 4 0.38 0.05
-4 -4 -4 28.05 0.81
4 -4 4 27.6 0.94
4 -4 4 28.12 0.87
4 4 4 29.17 0.88
4 4 4 28.43 0.95
6 -4 4 2.87 0.15
6 -4 4 2.49 0.14
6 4 4 2.75 0.11
6 4 4 2.83 0.18
8 -4 4 1.45 0.16
8 -4 4 1.42 0.14
8 4 4 1.31 0.14
8 4 4 1.02 0.14
10 -4 4 6.31 0.28
10 -4 4 5.78 0.32
10 4 4 6.01 0.34
10 4 4 5.75 0.26
12 -4 4 2.71 0.31
12 -4 4 2.56 0.26
12 4 4 2.79 0.25
12 4 4 3.21 0.34
13 -5 -4 1.87 0.2
13 5 -4 1.91 0.26
13 5 -4 2.62 0.23
11 -5 -4 0.06 0.13
11 5 -4 0.25 0.16
11 5 -4 0.08 0.11
9 -5 -4 11.21 0.39
9 -5 -4 11.61 0.44
-9 -5 4 11.23 0.38
9 5 -4 11.66 0.48
9 5 -4 11.03 0.38
-7 -5 4 8.04 0.28
7 -5 -4 7.64 0.31
7 -5 -4 8.67 0.29
-7 5 4 7.78 0.29
7 5 -4 8.8 0.36
7 5 -4 8.04 0.27
5 -5 -4 0.87 0.09
5 -5 -4 0.85 0.09
-5 -5 4 0.96 0.08
5 5 -4 0.78 0.1
-5 5 4 0.77 0.09
5 5 -4 0.95 0.08
3 -5 -4 108.54 3.01
3 -5 -4 107.7 3.46
3 5 -4 103.07 3.27
3 5 -4 103.68 3.01
-3 5 4 103.95 3.27
3 5 -4 113.47 3.46
1 -5 -4 26.57 0.76
1 -5 -4 26.18 0.87
1 5 -4 26.67 0.75
-1 5 4 27.01 0.83
1 5 -4 25.29 0.87
1 5 -4 26.3 0.83
-1 -5 -4 0.15 0.04
-1 5 -4 0.46 0.05
-1 5 -4 0.18 0.03
-1 5 -4 0.15 0.05
1 5 4 0.13 0.05
1 5 4 0.16 0.05
3 -5 4 38.97 1.25
-3 -5 -4 36.91 1.09
3 5 4 36.95 1.26
3 5 4 40.22 1.19
5 -5 4 2.9 0.15
5 -5 4 2.83 0.11
5 5 4 2.87 0.12
5 5 4 2.57 0.16
7 -5 4 3.54 0.19
7 -5 4 2.99 0.16
7 5 4 3.17 0.21
9 -5 4 -0.06 0.09
9 -5 4 -0.16 0.1
9 5 4 0.06 0.09
9 5 4 -0.07 0.12
11 -5 4 1.72 0.17
11 -5 4 1.52 0.18
11 5 4 1.56 0.22
11 5 4 1.46 0.15
13 -5 4 -0.01 0.16
13 5 4 -0.38 0.15
13 5 4 -0.12 0.22
12 -6 -4 27.67 0.87
12 6 -4 26.07 1.02
12 6 -4 28.38 0.84
10 -6 -4 17.98 0.59
10 6 -4 17.61 0.57
10 6 -4 18.63 0.7
8 -6 -4 62.5 2.13
8 -6 -4 65.71 1.87
-8 -6 4 63.37 2.01
-8 6 4 64.77 2.02
8 6 -4 69.6 2.17
8 6 -4 65.83 1.86
6 -6 -4 2.82 0.14
-6 -6 4 2.61 0.13
6 -6 -4 2.46 0.14
6 6 -4 2.68 0.12
6 6 -4 2.48 0.19
-6 6 4 2.23 0.13
4 -6 -4 102.89 2.79
4 -6 -4 96.08 3.19
-4 6 4 102.78 3.03
4 6 -4 99.12 2.78
4 6 -4 95.16 3.21
4 6 -4 97.11 3.04
2 -6 -4 86.63 2.83
2 -6 -4 89.77 2.49
2 6 -4 91.49 2.68
2 6 -4 81.46 2.47
2 6 -4 83.75 2.83
-2 6 4 89.93 2.72
0 -6 -4 40.05 1.14
0 6 -4 39.42 1.25
0 6 -4 41.02 1.14
0 6 4 39.37 1.25
0 6 4 40.42 1.31
0 6 -4 41.61 1.32
-2 -6 -4 60 1.7
2 6 4 60.05 1.95
-2 6 -4 59.33 1.95
2 6 4 60.36 1.85
-2 6 -4 60.98 1.85
-2 6 -4 59.63 1.7
-4 -6 -4 12.55 0.37
4 -6 4 12.39 0.43
4 6 4 12.04 0.41
4 6 4 12.48 0.45
6 -6 4 2.24 0.14
6 -6 4 1.93 0.13
6 -6 4 2.16 0.09
6 6 4 2.28 0.11
6 6 4 2.07 0.16
8 -6 4 4.66 0.21
8 -6 4 4.51 0.23
8 6 4 4.42 0.26
8 6 4 4.46 0.2
10 -6 4 0.83 0.13
10 -6 4 1.12 0.15
10 6 4 0.99 0.18
10 6 4 0.96 0.12
12 -6 4 0.31 0.16
12 6 4 0.48 0.22
12 6 4 0.39 0.13
13 -7 -4 4.36 0.32
13 7 -4 4.71 0.39
11 -7 -4 7.61 0.35
11 7 -4 7.91 0.3
11 7 -4 7.29 0.43
9 -7 -4 23.74 0.76
9 -7 -4 24.62 0.85
-9 -7 4 24.31 0.79
9 7 -4 25.57 0.74
9 7 -4 25.71 0.9
7 -7 -4 15.11 0.52
-7 -7 4 14.51 0.48
7 7 -4 14.39 0.45
-7 7 4 14.94 0.49
7 7 -4 15.12 0.56
5 -7 -4 39.58 1.31
5 -7 -4 39.52 1.16
5 7 -4 40.6 1.15
-5 7 4 41.53 1.26
5 7 -4 40.03 1.35
5 7 -4 40.63 1.27
3 -7 -4 51.07 1.64
3 -7 -4 50.54 1.44
-3 7 4 51.56 1.57
3 7 -4 51.13 1.58
3 7 -4 50.69 1.43
3 7 -4 49.21 1.67
1 -7 -4 1.57 0.08
-1 7 4 1.64 0.08
-1 7 4 1.69 0.11
1 7 -4 1.59 0.07
1 7 -4 1.54 0.11
1 7 -4 1.58 0.11
-1 -7 -4 10.39 0.31
-1 7 -4 11 0.35
-1 7 -4 10.08 0.31
-1 7 -4 10.64 0.37
1 7 4 10.3 0.36
1 7 4 10.61 0.37
3 -7 4 16.01 0.55
-3 -7 -4 16.27 0.48
3 7 4 15.95 0.57
3 7 4 16.91 0.53
-3 7 -4 17.13 0.53
5 -7 4 9.23 0.35
5 -7 4 9.75 0.31
-5 -7 -4 9.57 0.3
5 7 4 9.81 0.33
7 -7 4 0.29 0.08
7 -7 4 0.25 0.08
7 7 4 0.28 0.11
7 7 4 0.19 0.06
9 -7 4 4.77 0.26
9 -7 4 4.15 0.23
9 7 4 4.23 0.2
9 7 4 4.8 0.3
11 -7 4 0.58 0.15
11 7 4 0.26 0.12
11 7 4 0.35 0.19
13 -7 4 -0.14 0.17
13 7 4 -0.18 0.15
13 7 4 0.05 0.24
12 -8 -4 2.77 0.26
12 8 -4 2.89 0.34
10 -8 -4 0.29 0.12
10 8 -4 0.27 0.09
10 8 -4 0.1 0.16
-8 -8 4 15.67 0.52
8 -8 -4 16.5 0.56
8 8 -4 14.88 0.49
-8 8 4 16.36 0.53
8 8 -4 16.38 0.61
6 -8 -4 2.66 0.13
6 -8 -4 2.39 0.15
6 8 -4 2.87 0.12
6 8 -4 2.49 0.2
-6 8 4 2.65 0.15
6 8 -4 2.77 0.16
4 -8 -4 1.07 0.07
4 -8 -4 1.04 0.09
4 8 -4 0.99 0.1
4 8 -4 1 0.06
4 8 -4 1.05 0.13
-4 8 4 1.02 0.11
2 -8 -4 18.82 0.54
-2 8 4 18.8 0.6
2 8 -4 18.09 0.53
-2 8 4 18.35 0.6
2 8 -4 17.88 0.63
0 -8 -4 1.22 0.07
0 8 4 1.32 0.1
0 8 -4 1.21 0.06
0 8 -4 1.24 0.1
0 8 4 1.27 0.08
0 8 -4 1.36 0.1
-2 -8 -4 0.36 0.04
2 8 4 0.41 0.06
-2 8 -4 0.38 0.06
-2 8 -4 0.28 0.06
2 8 4 0.38 0.06
-4 -8 -4 0.02 0.04
4 -8 4 -0.02 0.05
4 8 4 -0.05 0.07
-4 8 -4 -0.03 0.05
4 8 4 0.01 0.05
6 -8 4 14.12 0.44
6 -8 4 13.74 0.5
6 -8 4 14.28 0.45
6 8 4 14.1 0.47
6 8 4 14.73 0.53
8 -8 4 0.28 0.1
8 -8 4 0.52 0.1
8 8 4 0.2 0.13
8 8 4 0.35 0.08
10 -8 4 10.37 0.43
10 -8 4 10.21 0.39
10 8 4 10.35 0.5
10 8 4 10.45 0.37
12 -8 4 1.88 0.2
12 8 4 2.09 0.22
12 8 4 2.31 0.27
13 -9 -4 31.06 0.99
13 9 -4 31.01 1.17
11 -9 -4 1.6 0.17
11 9 -4 1.43 0.22
-9 -9 4 24.23 0.79
9 -9 -4 24.51 0.76
9 9 -4 23.86 0.73
9 9 -4 26.36 0.91
7 -9 -4 74.21 2.3
7 -9 -4 67.09 2.03
7 9 -4 73.33 2.21
7 9 -4 67.5 2.01
7 9 -4 72.44 2.35
-7 9 4 71.43 2.2
5 -9 -4 36.7 1.1
5 -9 -4 37.61 1.23
-5 9 4 38.96 1.19
5 9 -4 38.16 1.08
5 9 -4 37.11 1.27
5 9 -4 38.82 1.2
3 -9 -4 102.14 2.87
3 9 -4 103.53 2.87
3 9 -4 100.26 3.31
-3 9 4 100.66 3.13
3 9 -4 102.44 3.13
1 -9 -4 6.13 0.2
-1 9 4 6.25 0.22
1 9 -4 5.78 0.25
-1 9 4 6.38 0.23
1 9 -4 6.1 0.19
1 9 -4 6.3 0.24
-1 -9 -4 99.9 2.71
1 9 4 98.77 3.09
-1 9 -4 93.72 2.71
-1 9 -4 92.82 3.09
-1 9 -4 92.71 2.93
1 9 4 94.66 2.93
-3 -9 -4 26.6 0.76
3 9 4 26.56 0.88
3 9 4 26.49 0.83
-3 9 -4 25.84 0.87
-3 9 -4 25.75 0.83
5 -9 4 7.16 0.25
-5 -9 -4 6.91 0.23
5 -9 4 7.41 0.27
-5 9 -4 7.15 0.25
5 9 4 7.44 0.26
5 9 4 6.66 0.3
7 -9 4 9.52 0.35
7 -9 4 8.36 0.32
7 9 4 9.45 0.32
7 9 4 9.38 0.39
9 -9 4 10.47 0.38
9 -9 4 10.92 0.42
9 9 4 10.4 0.47
9 9 4 10.19 0.36
11 -9 4 -0.2 0.15
11 9 4 0.07 0.11
11 9 4 -0.25 0.19
13 -9 4 -0.21 0.18
13 9 4 -0.16 0.25
12 -10 -4 14.95 0.55
12 10 -4 14.59 0.68
10 -10 -4 3.32 0.24
10 10 -4 3.65 0.31
8 -10 -4 72.42 2.06
8 10 -4 70.63 2.04
-8 10 4 70.62 2.22
8 10 -4 73.72 2.39
6 -10 -4 0.34 0.05
6 -10 -4 0.37 0.08
6 10 -4 0.46 0.05
6 10 -4 0.48 0.12
6 10 -4 0.38 0.09
-6 10 4 0.45 0.08
4 -10 -4 31.73 1.03
4 -10 -4 31.32 0.92
4 10 -4 30.47 1.08
4 10 -4 33.26 1.01
4 10 -4 32.29 0.9
-4 10 4 31.78 1.01
2 -10 -4 56.91 1.54
-2 10 4 55.68 1.75
-2 10 4 50.69 1.68
2 10 -4 53.26 1.53
2 10 -4 54.98 1.78
2 10 -4 53.84 1.69
0 -10 -4 17.26 0.49
0 10 4 17.14 0.57
0 10 4 16.83 0.55
0 10 -4 16.92 0.58
0 10 -4 16.53 0.49
0 10 -4 16.68 0.55
-2 -10 -4 27.04 0.75
-2 10 -4 25.79 0.83
2 10 4 24.54 0.88
2 10 4 27.42 0.84
-2 10 -4 26.61 0.88
4 -10 4 5.05 0.18
-4 -10 -4 4.91 0.17
4 -10 4 4.83 0.2
-4 10 -4 4.95 0.19
4 10 4 5.08 0.21
4 10 4 5.07 0.23
6 -10 4 14.6 0.5
6 -10 4 13.94 0.45
-6 10 -4 14.69 0.47
6 10 4 13.9 0.54
6 10 4 14.56 0.48
8 -10 4 1.39 0.16
8 -10 4 1.61 0.15
8 10 4 1.5 0.13
8 10 4 1.46 0.17
10 -10 4 12.31 0.45
10 10 4 12.17 0.42
10 10 4 12.53 0.56
12 -10 4 2.9 0.31
12 10 4 2.94 0.38
13 -11 -4 0.56 0.18
13 11 -4 0.45 0.25
11 -11 -4 1.32 0.17
11 11 -4 0.98 0.22
-9 -11 4 0.52 0.09
9 -11 -4 0.59 0.12
9 11 -4 0.31 0.16
7 -11 -4 0.48 0.1
7 11 -4 0.58 0.06
-7 11 4 0.64 0.1
7 11 -4 0.46 0.13
7 11 -4 0.41 0.1
5 -11 -4 4.71 0.2
5 11 -4 5.03 0.22
-5 11 4 4.97 0.22
5 11 -4 4.95 0.16
5 11 -4 5.35 0.26
3 -11 -4 0.04 0.06
-3 11 4 0.09 0.07
3 11 -4 0.08 0.07
3 11 -4 0.13 0.08
-3 11 4 0.13 0.03
3 11 -4 0.14 0.02
1 -11 -4 0.04 0.04
1 11 -4 -0.01 0.06
-1 11 4 -0.06 0.06
1 11 -4 0 0.02
1 11 -4 0.1 0.07
-1 11 4 0.07 0.04
-1 -11 -4 0.18 0.04
-1 11 -4 0.05 0.06
-1 11 -4 0.17 0.06
1 11 4 0.13 0.06
1 11 4 0.03 0.06
-3 -11 -4 3.06 0.12
3 -11 4 3.02 0.13
-3 11 -4 3.13 0.15
3 11 4 3.18 0.16
3 11 4 3.2 0.17
-3 11 -4 2.92 0.15
-5 -11 -4 3.5 0.14
5 -11 4 3.31 0.16
5 -11 4 3.31 0.15
5 11 4 3.54 0.17
5 11 4 3.16 0.2
-5 11 -4 3.38 0.16
7 -11 4 3.1 0.17
7 -11 4 2.81 0.16
7 11 4 2.86 0.16
7 11 4 2.67 0.23
9 -11 4 0.91 0.13
9 11 4 1.22 0.14
9 11 4 0.9 0.18
11 -11 4 -0.16 0.15
11 11 4 -0.14 0.21
12 -12 -4 11.25 0.46
12 12 -4 10.98 0.59
10 -12 -4 21.27 0.69
10 12 -4 21.36 0.83
8 -12 -4 27.1 0.83
-8 12 4 26.81 0.88
8 12 -4 27.43 0.89
8 12 -4 27.61 0.98
6 -12 -4 10.57 0.34
-6 12 4 10.25 0.37
6 12 -4 9.55 0.37
6 12 -4 10.11 0.3
6 12 -4 9.51 0.42
4 -12 -4 37.59 1.13
4 12 -4 37.28 1.32
-4 12 4 40.54 1.24
4 12 -4 38.86 1.1
4 12 -4 41.63 1.24
2 -12 -4 56.91 1.67
2 12 -4 56.93 1.92
-2 12 4 59.63 1.89
2 12 -4 59.96 1.83
-2 12 4 60.56 1.83
2 12 -4 57.92 1.65
0 -12 -4 15.28 0.45
0 12 4 14.76 0.51
0 12 -4 14.42 0.51
0 12 -4 14.93 0.53
0 12 4 15.89 0.51
2 -12 4 28.99 0.82
-2 -12 -4 28.57 0.81
-2 12 -4 27.15 0.94
2 12 4 29.31 0.91
2 12 4 29.08 0.95
-2 12 -4 26.76 0.9
4 -12 4 6.31 0.24
4 -12 4 6.34 0.22
-4 -12 -4 6.08 0.21
4 12 4 6.46 0.28
-4 12 -4 6.27 0.24
4 12 4 6.41 0.25
6 -12 4 2.71 0.15
6 -12 4 2.9 0.16
6 12 4 2.74 0.21
6 12 4 2.78 0.17
-6 12 -4 2.87 0.14
8 -12 4 1.33 0.13
8 12 4 1.71 0.24
8 12 4 1.62 0.13
10 -12 4 0.2 0.14
10 12 4 0.36 0.1
10 12 4 0.07 0.19
12 -12 4 -0.45 0.17
12 12 4 -0.45 0.24
11 -13 -4 8.93 0.38
11 13 -4 8.14 0.51
9 -13 -4 26.54 0.84
9 13 -4 28.33 0.91
9 13 -4 27.34 1.01
7 -13 -4 19.95 0.6
-7 13 4 17.5 0.64
7 13 -4 20.4 0.65
7 13 -4 18.37 0.71
5 -13 -4 7.41 0.26
5 13 -4 6.81 0.21
5 13 -4 6.94 0.29
-5 13 4 6.62 0.28
5 13 -4 6.98 0.32
3 -13 -4 111.68 2.99
-3 13 4 104.3 3.26
3 13 -4 106.53 3.26
3 13 -4 100.08 3.44
1 -13 -4 2.31 0.11
1 13 -4 2.39 0.15
-1 13 4 2.3 0.11
1 13 -4 2.32 0.15
-1 13 4 2.25 0.15
1 -13 4 7.9 0.25
-1 -13 -4 8.34 0.25
-1 13 -4 8.75 0.31
-1 13 -4 7.86 0.31
1 13 4 7.91 0.3
-3 -13 -4 55.13 1.54
3 -13 4 54.89 1.55
-3 13 -4 54.13 1.78
3 13 4 55.21 1.79
3 13 4 54.77 1.7
-3 13 -4 52.32 1.69
5 -13 4 0.43 0.08
5 -13 4 0.54 0.07
5 13 4 0.32 0.11
-5 13 -4 0.34 0.08
5 13 4 0.42 0.09
7 -13 4 5.41 0.24
7 -13 4 5.66 0.24
7 13 4 5.57 0.21
7 13 4 5.53 0.24
7 13 4 5.63 0.32
9 -13 4 0.12 0.12
9 13 4 -0.02 0.09
9 13 4 0.01 0.16
11 -13 4 1.75 0.2
11 13 4 1.04 0.25
12 -14 -4 0.64 0.18
12 14 -4 0.54 0.25
10 -14 -4 4.2 0.27
10 14 -4 3.06 0.35
8 -14 -4 4.74 0.24
8 14 -4 4.88 0.33
8 14 -4 4.72 0.26
-8 14 4 5.12 0.24
6 -14 -4 -0.01 0.08
6 14 -4 0.11 0.13
-6 14 4 -0.03 0.08
6 14 -4 0.05 0.1
4 -14 -4 0.31 0.07
-4 14 4 0.23 0.09
4 14 -4 0.34 0.11
4 14 -4 0.23 0.09
2 -14 -4 1.12 0.09
2 14 -4 1.15 0.13
-2 14 4 1.13 0.07
-2 14 4 1.18 0.13
2 14 -4 0.81 0.11
0 -14 4 24.33 0.68
0 -14 -4 24.34 0.69
0 14 4 22.95 0.78
0 14 4 24.34 0.8
0 14 -4 23.07 0.81
0 14 -4 23.93 0.78
2 -14 4 18.26 0.53
-2 -14 -4 18.44 0.52
2 14 4 18.11 0.61
-2 14 -4 17.76 0.62
-2 14 -4 18.29 0.6
2 14 4 16.91 0.62
4 -14 4 11.76 0.36
4 -14 4 11.53 0.4
-4 -14 -4 10.87 0.34
4 14 4 11.19 0.43
4 14 4 10.96 0.41
-4 14 -4 11.51 0.4
6 -14 4 0.43 0.07
6 -14 4 0.53 0.09
6 14 4 0.64 0.1
6 14 4 0.53 0.13
-6 14 -4 0.45 0.08
8 -14 4 1.84 0.2
8 14 4 1.73 0.14
8 14 4 2.14 0.28
10 -14 4 1.68 0.18
10 14 4 1.84 0.25
12 -14 4 1.82 0.22
12 14 4 1.65 0.3
11 -15 -4 10.26 0.42
11 15 -4 8.95 0.55
9 -15 -4 14.86 0.49
9 15 -4 13.78 0.61
9 15 -4 13.92 0.52
7 -15 -4 27.37 0.82
7 15 -4 26.8 0.89
-7 15 4 26.71 0.88
7 15 -4 26.8 0.97
5 -15 -4 53.22 1.57
5 15 -4 55.92 1.72
-5 15 4 55.74 1.71
5 15 -4 52.87 1.82
3 -15 -4 3.32 0.15
-3 15 4 3.22 0.19
3 15 -4 4.11 0.21
3 15 -4 3.49 0.19
-1 -15 4 31.38 0.89
1 -15 -4 32.88 0.91
1 15 -4 31.98 1.01
-1 15 4 32.35 1.01
-1 15 4 30.14 1.03
1 15 -4 29.79 1.05
1 -15 4 3.1 0.12
-1 -15 -4 3.32 0.13
1 15 4 3.47 0.19
-1 15 -4 3.08 0.17
-1 15 -4 3.19 0.18
1 15 4 3.36 0.17
3 -15 4 1.44 0.1
-3 -15 -4 1.63 0.09
-3 15 -4 1.47 0.12
3 15 4 1.46 0.16
3 15 4 1.55 0.15
-3 15 -4 1.46 0.14
5 -15 4 18.16 0.65
5 -15 4 19.62 0.58
-5 15 -4 19.04 0.63
5 15 4 19.47 0.65
5 15 4 19.44 0.69
7 -15 4 0.14 0.1
7 15 4 0.07 0.06
7 15 4 0.16 0.1
7 15 4 0.21 0.14
9 -15 4 5.77 0.31
9 15 4 6.23 0.4
11 -15 4 -0.09 0.17
11 15 4 -0.41 0.23
12 -16 -4 13.31 0.55
12 16 -4 15.3 0.71
10 -16 -4 13.21 0.48
10 16 -4 12.6 0.62
8 -16 -4 12.39 0.44
-8 16 4 11.98 0.46
8 16 -4 12.79 0.47
8 16 -4 12.18 0.56
6 -16 -4 25.92 0.77
6 16 -4 24.73 0.85
-6 16 4 24.86 0.84
6 16 -4 26.85 0.92
4 -16 -4 14.78 0.49
4 16 -4 16.07 0.55
4 16 -4 15.8 0.59
-4 16 4 16.45 0.55
2 -16 -4 20.8 0.6
2 16 -4 20.43 0.71
-2 16 4 19.84 0.67
-2 16 4 20.58 0.68
2 16 -4 20.23 0.68
0 -16 4 42.35 1.17
0 -16 -4 40.02 1.18
0 16 4 43.61 1.36
0 16 4 41.68 1.32
0 16 -4 40.41 1.37
0 16 -4 39.76 1.31
2 -16 4 15.68 0.48
-2 -16 -4 16.37 0.48
2 16 4 16.91 0.58
-2 16 -4 16.52 0.57
2 16 4 16.67 0.56
-2 16 -4 15.86 0.56
4 -16 4 5.28 0.22
4 -16 4 5.68 0.21
-4 -16 -4 5.48 0.19
4 16 4 5.74 0.28
-4 16 -4 5.48 0.25
4 16 4 5.19 0.26
6 -16 4 0.65 0.1
6 16 4 0.51 0.11
6 16 4 0.36 0.14
-6 16 -4 0.56 0.09
8 -16 4 0.91 0.14
8 16 4 0.92 0.19
10 -16 4 -0.06 0.15
10 16 4 0.07 0.22
11 -17 -4 0.23 0.16
11 17 -4 -0.01 0.23
9 -17 -4 0.03 0.13
9 17 -4 0.1 0.13
9 17 -4 -0.08 0.2
7 -17 -4 2.67 0.19
-7 17 4 2.11 0.2
7 17 -4 2.33 0.22
7 17 -4 2.7 0.29
5 -17 -4 0.44 0.09
5 17 -4 0.23 0.11
5 17 -4 0.31 0.13
-5 17 4 0.32 0.11
3 -17 -4 4.99 0.19
-3 17 4 4.24 0.23
3 17 -4 4.85 0.25
3 17 -4 4.4 0.24
1 -17 -4 0.67 0.07
1 17 -4 0.44 0.1
-1 17 4 0.57 0.06
1 17 -4 0.47 0.1
-1 17 4 0.78 0.11
1 -17 4 2.35 0.1
-1 -17 -4 2.41 0.11
-1 17 -4 2.19 0.17
1 17 4 2.14 0.15
1 17 4 2.11 0.17
-1 17 -4 2.38 0.16
3 -17 4 -0.14 0.05
-3 -17 -4 -0.02 0.04
3 17 4 -0.06 0.1
3 17 4 -0.07 0.09
-3 17 -4 -0.02 0.06
-3 17 -4 0.07 0.09
5 -17 4 0.09 0.07
-5 17 -4 0.11 0.09
5 17 4 0.21 0.12
5 17 4 0.03 0.1
7 -17 4 1.37 0.14
7 17 4 1.37 0.19
7 17 4 1.5 0.15
9 -17 4 -0.06 0.14
9 17 4 0.09 0.2
11 -17 4 1.06 0.2
11 17 4 0.68 0.27
10 -18 -4 35.13 1.11
10 18 -4 37.93 1.33
8 -18 -4 1.3 0.14
8 18 -4 1.62 0.22
8 18 -4 1.16 0.16
-8 18 4 1.11 0.15
6 -18 -4 33.37 1.01
6 18 -4 34.78 1.11
-6 18 4 33.4 1.1
6 18 -4 34.29 1.19
4 -18 -4 8.13 0.29
-4 18 4 8.6 0.35
4 18 -4 7.97 0.37
4 18 -4 8.12 0.35
2 -18 -4 13.31 0.41
2 18 -4 13.56 0.49
-2 18 4 13.38 0.49
2 18 -4 13.11 0.5
0 -18 -4 9.94 0.3
0 18 -4 9.03 0.37
0 18 4 9.77 0.35
0 18 4 9.49 0.37
0 18 -4 9.62 0.37
-2 -18 -4 17.98 0.52
2 -18 4 17.78 0.53
2 18 4 18.57 0.64
-2 18 -4 18.08 0.62
2 18 4 17.31 0.62
-2 18 -4 17.02 0.61
4 -18 4 13.1 0.42
-4 18 -4 13.95 0.49
4 18 4 13.53 0.5
4 18 4 13.66 0.52
6 -18 4 0.22 0.1
-6 18 -4 0.2 0.1
6 18 4 0.2 0.11
6 18 4 -0.01 0.14
8 -18 4 0.35 0.13
8 18 4 0.49 0.19
10 -18 4 4.69 0.31
10 18 4 5.04 0.45
11 -19 -4 21.31 0.74
11 19 -4 23.18 0.93
9 -19 -4 18.71 0.63
9 19 -4 18.11 0.68
9 19 -4 19.54 0.79
7 -19 -4 8.41 0.33
7 19 -4 7.91 0.37
-7 19 4 8.24 0.36
7 19 -4 8.82 0.43
5 -19 -4 43.51 1.3
-5 19 4 46.6 1.44
5 19 -4 44.5 1.53
5 19 -4 44.53 1.44
3 -19 -4 10.44 0.34
3 19 -4 10.26 0.43
3 19 -4 10.24 0.41
-3 19 4 10.01 0.41
1 -19 -4 50.38 1.43
1 19 -4 53.19 1.67
-1 19 4 50.96 1.6
1 19 -4 46.33 1.59
-1 -19 -4 0.3 0.05
1 19 4 0.26 0.11
1 19 4 0.34 0.09
-1 19 -4 0.46 0.11
-1 19 -4 0.31 0.08
3 -19 4 5.54 0.2
3 19 4 5.36 0.28
-3 19 -4 5.42 0.27
-3 19 -4 5.52 0.23
3 19 4 4.89 0.28
5 -19 4 11.36 0.38
-5 19 -4 10.74 0.42
5 19 4 11.56 0.44
5 19 4 11.15 0.47
7 -19 4 0.1 0.12
7 19 4 0.1 0.17
7 19 4 0.17 0.12
9 -19 4 1.84 0.19
9 19 4 1.96 0.27
10 -20 -4 4.44 0.29
10 20 -4 4.4 0.44
8 -20 -4 0.65 0.14
-8 20 4 0.25 0.14
8 20 -4 0.43 0.16
8 20 -4 0.59 0.2
6 -20 -4 6.68 0.27
6 20 -4 6.63 0.38
6 20 -4 6.75 0.33
-6 20 4 6 0.32
4 -20 -4 0.81 0.1
4 20 -4 0.51 0.14
-4 20 4 0.68 0.13
4 20 -4 0.38 0.13
2 -20 -4 0 0.06
2 20 -4 0.05 0.1
2 20 -4 0.06 0.11
-2 20 4 0.05 0.11
0 -20 -4 2.06 0.11
0 20 -4 2.36 0.18
0 20 -4 1.74 0.19
0 20 4 2.17 0.2
0 20 4 1.99 0.15
-2 20 -4 0.15 0.08
-2 20 -4 0.18 0.11
2 20 4 0.12 0.11
2 20 4 0.09 0.1
4 -20 4 5.37 0.22
4 20 4 5.76 0.31
4 20 4 5.7 0.29
-4 20 -4 6.17 0.28
6 -20 4 0.33 0.11
-6 20 -4 0.32 0.11
6 20 4 0.02 0.15
6 20 4 0.23 0.13
8 -20 4 1.62 0.17
8 20 4 1.59 0.24
10 -20 4 2.11 0.22
10 20 4 2.57 0.32
9 -21 -4 6.5 0.34
9 21 -4 6.68 0.45
9 21 -4 6.92 0.37
7 -21 -4 13.45 0.45
7 21 -4 11.93 0.5
-7 21 4 12.69 0.5
7 21 -4 11.87 0.56
5 -21 -4 7.98 0.29
5 21 -4 7.11 0.38
5 21 -4 7.69 0.36
-5 21 4 7.47 0.36
3 -21 -4 7.54 0.27
3 21 -4 7.9 0.35
-3 21 4 6.66 0.35
3 21 -4 7.35 0.35
1 -21 -4 7.83 0.26
-1 21 4 7.71 0.36
1 21 -4 7.98 0.34
1 21 -4 7.91 0.35
1 21 4 5.1 0.28
-1 21 -4 5.21 0.24
1 21 4 4.75 0.25
-1 21 -4 4.9 0.27
3 21 4 3.95 0.25
-3 21 -4 3.69 0.25
3 21 4 3.48 0.24
5 -21 4 1.67 0.15
5 21 4 1.57 0.18
5 21 4 1.42 0.19
-5 21 -4 1.49 0.2
7 -21 4 1.5 0.15
7 21 4 1.79 0.23
7 21 4 1.83 0.18
9 -21 4 -0.25 0.15
9 21 4 -0.23 0.23
10 -22 -4 18.44 0.64
10 22 -4 18.51 0.8
8 -22 -4 10.58 0.4
8 22 -4 9.79 0.45
8 22 -4 9.75 0.52
6 -22 -4 19.05 0.6
6 22 -4 18.57 0.73
-6 22 4 18.62 0.67
6 22 -4 18.3 0.68
4 -22 -4 20.68 0.63
4 22 -4 20.27 0.77
-4 22 4 22.61 0.74
4 22 -4 19.21 0.73
2 -22 -4 8.72 0.3
-2 22 4 9.1 0.39
2 22 -4 9.15 0.39
2 22 -4 9.47 0.39
0 22 4 20.41 0.72
0 22 -4 20.74 0.72
0 22 -4 20.04 0.72
2 22 4 1.43 0.2
-2 22 -4 1.53 0.17
2 22 4 2.07 0.22
4 22 4 13.62 0.54
4 22 4 12.68 0.52
-4 22 -4 13.83 0.51
6 -22 4 0.05 0.11
6 22 4 0.26 0.15
6 22 4 0.08 0.17
8 -22 4 0.52 0.16
8 22 4 0.37 0.23
9 -23 -4 0.8 0.16
9 23 -4 1.12 0.25
9 23 -4 0.53 0.19
7 -23 -4 0.2 0.12
7 23 -4 0.24 0.19
7 23 -4 0.13 0.16
-7 23 4 0.16 0.15
5 -23 -4 6.36 0.27
5 23 -4 7.55 0.39
5 23 -4 6.71 0.36
-5 23 4 6.46 0.34
3 -23 -4 2.79 0.16
3 23 -4 2.98 0.25
3 23 -4 2.59 0.25
-3 23 4 2.63 0.24
-1 23 4 22.9 0.81
1 23 -4 23.59 0.82
1 23 -4 23.22 0.81
-1 23 -4 3.01 0.24
1 23 4 3.13 0.25
3 23 4 1.99 0.23
3 23 4 1.8 0.24
-3 23 -4 2.12 0.22
-5 23 -4 7.74 0.36
5 23 4 7.75 0.37
5 23 4 6.92 0.4
7 -23 4 1.14 0.15
7 23 4 1.38 0.18
7 23 4 0.86 0.22
9 -23 4 -0.47 0.16
9 23 4 -0.49 0.24
8 -24 -4 11.99 0.46
8 24 -4 12.52 0.54
8 24 -4 12.85 0.61
6 -24 -4 5.96 0.28
-6 24 4 6.07 0.35
6 24 -4 6.69 0.4
6 24 -4 6.22 0.36
4 -24 -4 9.69 0.34
4 24 -4 8.91 0.43
4 24 -4 9.76 0.45
-4 24 4 9.19 0.42
2 24 -4 19.07 0.67
2 24 -4 17.41 0.67
-2 24 4 17.51 0.66
0 24 -4 0.57 0.16
0 24 4 0.66 0.15
2 24 4 15.76 0.58
-2 24 -4 14.09 0.56
4 24 4 0.7 0.18
4 24 4 0.94 0.18
-4 24 -4 1.26 0.17
6 24 4 0.32 0.16
6 24 4 0.23 0.2
8 24 4 -0.41 0.22
7 -25 -4 14.83 0.51
-7 25 4 15.13 0.58
7 25 -4 14.49 0.66
7 25 -4 14.58 0.61
5 25 -4 19.39 0.76
5 25 -4 19.76 0.72
-5 25 4 18.72 0.71
-3 25 4 25.76 0.88
3 25 -4 24.29 0.88
3 25 -4 25.24 0.9
-1 25 4 0.3 0.16
1 25 -4 0.34 0.16
1 25 4 9.95 0.45
-1 25 -4 9.48 0.43
-3 25 -4 4.73 0.3
3 25 4 4.45 0.33
-5 25 -4 0.4 0.15
5 25 4 0.6 0.17
5 25 4 0.25 0.19
7 25 4 1.89 0.27
7 25 4 2.55 0.28
8 -26 -4 0.67 0.15
8 26 -4 1.05 0.21
8 26 -4 0.89 0.24
6 26 -4 0.9 0.2
6 26 -4 1.01 0.21
-6 26 4 0.89 0.18
4 26 -4 6.82 0.38
-4 26 4 5.95 0.36
4 26 -4 6.58 0.37
-2 26 4 0.99 0.19
2 26 -4 0.87 0.18
2 26 -4 0.75 0.16
0 26 -4 1.19 0.19
0 26 4 1.43 0.2
2 26 4 1.75 0.22
-2 26 -4 2.2 0.27
-4 26 -4 3.59 0.29
4 26 4 3.32 0.32
6 26 4 2.09 0.27
6 26 4 2.3 0.3
-7 27 4 5.34 0.38
7 27 -4 5.9 0.38
7 27 -4 7.21 0.45
5 27 -4 1.55 0.23
-5 27 4 1.4 0.2
5 27 -4 2.39 0.31
3 27 -4 9.83 0.46
-3 27 4 10.92 0.48
3 27 -4 10.17 0.48
-1 27 4 1.47 0.21
1 27 -4 0.95 0.19
1 27 4 5.63 0.37
-1 27 -4 5.11 0.34
-3 27 -4 2.83 0.27
3 27 4 2.65 0.3
-5 27 -4 1.75 0.21
5 27 4 2.02 0.23
7 27 4 1.2 0.26
7 27 4 1.18 0.21
6 28 -4 0.64 0.22
6 28 -4 0.73 0.21
-6 28 4 0.89 0.2
4 28 -4 7.76 0.42
-4 28 4 8.38 0.43
4 28 -4 8.12 0.43
2 28 -4 13.02 0.57
-2 28 4 14.26 0.59
0 28 4 2.44 0.25
0 28 -4 2.2 0.29
-2 28 -4 17.31 0.68
2 28 4 17.53 0.68
4 28 4 0.23 0.19
-4 28 -4 0.44 0.18
6 28 4 3.83 0.35
-5 29 4 -0.07 0.19
5 29 -4 0.14 0.2
3 29 -4 9.38 0.48
-3 29 4 9.71 0.49
-1 29 4 1.67 0.24
1 29 -4 1.73 0.24
-1 29 -4 0.8 0.2
1 29 4 0.54 0.2
-3 29 -4 0.55 0.19
3 29 4 0.6 0.21
5 29 4 0.38 0.21
-5 29 -4 0.47 0.19
4 30 -4 2.57 0.34
-4 30 4 3.02 0.36
2 30 -4 1.22 0.24
-2 30 4 1.4 0.23
0 30 -4 2.68 0.34
0 30 4 2.42 0.32
-2 30 -4 0.42 0.2
2 30 4 0.2 0.21
4 30 4 2.51 0.27
-4 30 -4 2.49 0.32
3 31 -4 21.15 0.81
-3 31 4 20.46 0.8
-1 31 4 1.05 0.23
1 31 -4 0.74 0.22
-1 31 -4 3.96 0.38
1 31 4 4.56 0.4
3 31 4 8.12 0.46
-3 31 -4 7.98 0.45
0 32 -4 0.52 0.22
0 32 4 0.36 0.22
12 0 -5 0.21 0.13
12 0 -5 0.09 0.16
10 0 -5 -0.12 0.13
10 0 -5 -0.01 0.1
8 0 -5 -0.14 0.1
8 0 -5 0.05 0.08
-8 0 5 0.03 0.06
6 0 -5 0.05 0.07
-6 0 5 0 0.06
6 0 -5 0.07 0.06
4 0 -5 0.04 0.05
-4 0 5 0 0.05
4 0 -5 -0.03 0.06
2 0 -5 -0.01 0.04
2 0 -5 -0.01 0.05
-2 0 5 0.01 0.04
0 0 5 -0.02 0.04
0 0 -5 -0.05 0.05
0 0 -5 -0.06 0.04
2 0 5 -0.21 0.04
2 0 5 -0.2 0.05
-2 0 -5 -0.23 0.03
-4 0 -5 0 0.05
4 0 5 -0.01 0.04
4 0 5 0.01 0.06
6 0 5 -0.03 0.08
6 0 5 -0.02 0.03
8 0 5 0.05 0.09
8 0 5 0.17 0.1
10 0 5 -0.04 0.11
10 0 5 0.08 0.14
12 0 5 0.05 0.14
12 0 5 -0.15 0.18
13 -1 -5 0.4 0.15
13 1 -5 0.46 0.15
13 1 -5 0.52 0.19
11 -1 -5 5.06 0.31
11 -1 -5 5.11 0.27
11 1 -5 4.43 0.33
11 1 -5 5.34 0.26
9 -1 -5 31.33 0.9
9 -1 -5 31.58 1.05
-9 -1 5 28.75 0.95
-9 1 5 29.76 0.95
9 1 -5 28.51 1.05
9 1 -5 31.18 0.9
7 -1 -5 48.77 1.66
-7 -1 5 49.26 1.55
7 -1 -5 49.5 1.44
-7 1 5 49.79 1.55
7 1 -5 49.67 1.44
7 1 -5 52.83 1.66
5 -1 -5 11.9 0.36
-5 -1 5 11.8 0.39
5 -1 -5 11.75 0.42
5 1 -5 10.86 0.36
5 1 -5 11.24 0.42
-5 1 5 11.67 0.39
3 -1 -5 263.52 7.75
3 -1 -5 283.18 8.9
-3 -1 5 272.92 8.41
-3 1 5 265.78 8.43
3 1 -5 281.21 8.91
3 1 -5 275.2 7.75
1 -1 -5 57.23 1.95
1 -1 -5 61.69 1.7
-1 -1 5 59.8 1.85
1 1 -5 63.21 1.7
1 1 -5 60.71 1.96
-1 1 5 57.71 1.85
-1 -1 -5 46.96 1.53
-1 -1 -5 45.23 1.32
1 -1 5 48.21 1.44
-1 1 -5 48.5 1.53
-1 1 -5 46.08 1.32
1 1 5 45.23 1.44
3 -1 5 67.37 2.09
3 -1 5 68.12 2.21
-3 -1 -5 67.21 1.93
-3 1 -5 69.72 1.93
3 1 5 67.94 2.09
5 -1 5 27.03 0.83
5 -1 5 26.46 0.9
5 1 5 27.3 0.91
5 1 5 26.09 0.83
7 -1 5 111.66 3.65
7 1 5 112.33 3.65
9 -1 5 10.41 0.36
9 -1 5 9.08 0.42
9 1 5 10.35 0.43
9 1 5 9.76 0.36
11 -1 5 24.4 0.94
11 -1 5 26.65 0.81
11 1 5 26.12 0.8
11 1 5 25.59 0.95
13 -1 5 5.06 0.34
13 -1 5 4.66 0.39
13 1 5 5.01 0.33
13 1 5 4.43 0.41
12 -2 -5 24.33 0.75
12 2 -5 21.9 0.87
12 2 -5 22.61 0.73
10 -2 -5 5.24 0.3
10 -2 -5 4.86 0.25
10 2 -5 4.86 0.32
10 2 -5 4.86 0.24
-8 -2 5 28.84 0.92
8 -2 -5 29.39 0.86
8 -2 -5 28.72 0.99
-8 2 5 28.57 0.92
8 2 -5 29.67 0.86
8 2 -5 28.78 1
6 -2 -5 27.28 0.79
6 -2 -5 25.23 0.9
-6 -2 5 26.85 0.84
-6 2 5 27.99 0.85
6 2 -5 25.98 0.78
6 2 -5 26.82 0.91
-4 -2 5 56.68 1.8
4 -2 -5 58.8 1.66
4 -2 -5 60.16 1.91
-4 2 5 58.59 1.8
4 2 -5 58.23 1.91
4 2 -5 58.44 1.66
-2 -2 5 84.02 2.55
2 -2 -5 81.29 2.37
2 -2 -5 86.09 2.69
2 2 -5 83.32 2.34
2 2 -5 82.56 2.69
-2 2 5 80.97 2.55
0 -2 5 24.57 0.76
0 -2 -5 24.12 0.69
0 -2 -5 23.81 0.8
0 2 -5 24.44 0.81
0 2 5 23.7 0.76
0 2 -5 23.94 0.69
-2 -2 -5 581.73 16.4
2 -2 5 579.8 17.8
2 2 5 579.84 17.81
2 2 5 583.21 18.99
-2 2 -5 586.99 16.41
-4 -2 -5 16.07 0.47
4 -2 5 16.09 0.5
4 -2 5 15.38 0.55
4 2 5 15.81 0.5
4 2 5 15.71 0.55
6 -2 5 58.57 1.95
6 -2 5 59.2 1.82
6 2 5 60.16 1.82
6 2 5 59.56 1.96
8 -2 5 30.41 0.9
8 -2 5 29.92 1.04
8 2 5 31.23 1.05
8 2 5 29.57 0.9
10 -2 5 3.38 0.23
10 -2 5 2.91 0.27
10 2 5 3.4 0.27
10 2 5 2.89 0.21
12 -2 5 17.12 0.59
12 -2 5 16.7 0.69
12 2 5 16.79 0.57
12 2 5 16.09 0.69
13 -3 -5 0.64 0.17
13 3 -5 0.46 0.21
13 3 -5 0.35 0.14
11 -3 -5 2.36 0.24
11 -3 -5 2.51 0.22
11 3 -5 2.49 0.29
11 3 -5 2.05 0.2
9 -3 -5 1.06 0.14
-9 -3 5 1.05 0.12
9 -3 -5 0.89 0.11
-9 3 5 1.09 0.12
9 3 -5 1.23 0.15
9 3 -5 1.34 0.16
-7 -3 5 4.13 0.18
7 -3 -5 4.41 0.19
7 -3 -5 4.32 0.22
7 3 -5 4.69 0.19
7 3 -5 4.45 0.24
-7 3 5 4.43 0.19
-5 -3 5 0.13 0.06
5 -3 -5 0.27 0.07
5 -3 -5 0.18 0.06
-5 3 5 0.25 0.06
5 3 -5 0.28 0.05
5 3 -5 0.23 0.08
3 -3 -5 50.22 1.39
-3 -3 5 48.34 1.5
3 -3 -5 46.39 1.59
-3 3 5 48.98 1.51
3 3 -5 50.28 1.38
3 3 -5 48.05 1.6
-1 -3 5 9.94 0.34
1 -3 -5 10.33 0.36
1 -3 -5 9.86 0.31
-1 3 5 10.33 0.34
1 3 -5 10.31 0.31
1 3 -5 10.6 0.37
-1 -3 -5 1.07 0.08
1 -3 5 1.25 0.08
1 3 5 1.14 0.09
-1 3 -5 1.06 0.07
-1 3 -5 1.3 0.11
1 3 5 1.23 0.09
3 -3 5 2.99 0.14
3 -3 5 2.9 0.12
-3 -3 -5 2.89 0.12
3 3 5 2.91 0.15
3 3 5 2.6 0.13
-3 3 -5 2.75 0.12
5 -3 5 3.29 0.17
-5 -3 -5 3.04 0.14
5 -3 5 3.08 0.12
5 3 5 3.34 0.18
5 3 5 3.21 0.13
7 -3 5 19.76 0.7
7 -3 5 19.95 0.6
7 3 5 19.74 0.71
9 -3 5 0.5 0.11
9 -3 5 0.61 0.14
9 3 5 0.59 0.15
9 3 5 0.58 0.11
11 -3 5 4.83 0.27
11 -3 5 4.42 0.32
11 3 5 4.71 0.26
11 3 5 4.99 0.35
13 -3 5 -0.07 0.17
13 3 5 0.13 0.16
13 3 5 -0.03 0.21
12 -4 -5 4.46 0.29
12 4 -5 4.39 0.26
12 4 -5 3.72 0.36
10 -4 -5 12.76 0.49
10 -4 -5 12.06 0.43
10 4 -5 12.15 0.53
10 4 -5 11.7 0.41
8 -4 -5 10.16 0.35
-8 -4 5 9.7 0.35
8 -4 -5 10.31 0.39
-8 4 5 9.49 0.35
8 4 -5 9.89 0.42
8 4 -5 10.12 0.33
6 -4 -5 55.77 1.6
-6 -4 5 55.39 1.73
6 -4 -5 52.21 1.83
6 4 -5 56.37 1.59
6 4 -5 59.04 1.85
-6 4 5 57.11 1.73
4 -4 -5 108.2 3.48
4 -4 -5 108.05 3.03
-4 -4 5 107.98 3.29
4 4 -5 107 3.03
4 4 -5 102.31 3.49
-4 4 5 111.43 3.3
-2 -4 5 41.24 1.32
2 -4 -5 40.8 1.4
2 -4 -5 44.68 1.22
2 4 -5 41.99 1.41
2 4 -5 44.02 1.21
-2 4 5 43.88 1.33
0 -4 -5 67.91 1.93
0 -4 5 68.14 2.09
0 4 -5 66.22 2.22
0 4 5 70.76 2.1
0 4 -5 68.03 1.92
-2 -4 -5 39.78 1.08
2 -4 5 38.17 1.17
-2 4 -5 38.2 1.08
2 4 5 38.01 1.25
2 4 5 37.57 1.18
-2 4 -5 36.08 1.25
4 -4 5 83.91 2.7
-4 -4 -5 82.64 2.35
4 -4 5 83.6 2.55
4 4 5 83.1 2.71
4 4 5 83.04 2.55
6 -4 5 27.34 0.83
6 -4 5 27.36 0.92
6 4 5 25.63 0.93
6 4 5 27.52 0.84
8 -4 5 33.62 1.08
8 -4 5 30.96 0.94
8 4 5 30.44 1.1
8 4 5 31.51 0.93
10 -4 5 22.12 0.83
10 -4 5 22.88 0.71
10 4 5 22.94 0.85
10 4 5 22.78 0.71
12 -4 5 4.95 0.34
12 -4 5 4.56 0.31
12 4 5 4.41 0.37
12 4 5 4.14 0.28
13 -5 -5 5.56 0.34
13 5 -5 5.66 0.3
13 5 -5 5.17 0.42
11 -5 -5 11.98 0.44
11 5 -5 11.92 0.53
11 5 -5 12.01 0.42
9 -5 -5 32.46 1.12
9 -5 -5 32.64 0.98
-9 -5 5 33.36 1.04
9 5 -5 32.07 1.15
-9 5 5 32.74 1.05
9 5 -5 34.34 0.97
-7 -5 5 24.26 0.74
7 -5 -5 22.64 0.7
7 -5 -5 23.16 0.79
-7 5 5 22.73 0.74
7 5 -5 22.93 0.82
7 5 -5 22.91 0.69
5 -5 -5 25.8 0.79
-5 -5 5 27.46 0.85
5 -5 -5 27.46 0.89
5 5 -5 26.66 0.78
-5 5 5 27.28 0.85
5 5 -5 25.99 0.91
3 -5 -5 103.84 2.94
-3 -5 5 104.32 3.18
3 -5 -5 98.31 3.32
3 5 -5 102.09 2.91
-3 5 5 105.54 3.15
1 -5 -5 86.04 2.8
1 -5 -5 87.55 2.44
1 5 -5 84.06 2.43
-1 5 5 85.76 2.65
1 5 -5 88.88 2.81
-1 -5 -5 196.52 5.48
-1 5 -5 199.58 5.51
-1 5 -5 194.16 6.28
1 5 5 185.29 6
1 5 5 193.27 6.32
-3 -5 -5 99.8 2.74
3 -5 5 93.49 2.97
3 -5 5 96.52 3.15
3 5 5 100.66 2.98
-3 5 -5 96.32 2.74
3 5 5 96.31 3.15
5 -5 5 50.68 1.55
5 -5 5 49.61 1.66
-5 -5 -5 51.11 1.45
5 5 5 51.44 1.57
5 5 5 50.34 1.67
7 -5 5 40.7 1.4
7 -5 5 42.8 1.22
7 5 5 42.52 1.42
9 -5 5 25.35 0.81
9 -5 5 27.54 0.93
9 5 5 25.33 0.95
9 5 5 27.68 0.8
11 -5 5 7.6 0.34
11 -5 5 7.3 0.38
11 5 5 7.17 0.32
11 5 5 7.39 0.43
13 -5 5 11.1 0.47
13 5 5 11.14 0.45
13 5 5 10.83 0.58
12 -6 -5 1.06 0.17
12 6 -5 1.03 0.22
12 6 -5 1.23 0.14
10 -6 -5 6.09 0.28
10 6 -5 5.56 0.25
10 6 -5 5.74 0.36
-8 -6 5 14.3 0.47
8 -6 -5 13.64 0.46
8 -6 -5 13.5 0.5
8 6 -5 14.46 0.55
-8 6 5 13.88 0.48
8 6 -5 14.33 0.44
-6 -6 5 0.91 0.1
6 -6 -5 0.92 0.11
6 -6 -5 0.9 0.11
-6 6 5 1.17 0.11
6 6 -5 1.01 0.09
6 6 -5 1.22 0.16
4 -6 -5 23.82 0.79
4 -6 -5 23.57 0.7
4 6 -5 23.46 0.69
-4 6 5 24.33 0.76
4 6 -5 23.55 0.81
2 -6 -5 1.65 0.1
2 -6 -5 1.47 0.09
2 6 -5 1.6 0.08
-2 6 5 1.52 0.11
2 6 -5 1.51 0.11
0 -6 -5 0.16 0.04
0 6 -5 0.38 0.06
0 6 5 0.1 0.05
0 6 -5 0.1 0.06
0 6 -5 0.15 0.04
0 6 5 0.19 0.06
-2 -6 -5 12.03 0.35
-2 6 -5 11.76 0.35
-2 6 -5 11.76 0.42
2 6 5 11.48 0.41
-2 6 -5 11.78 0.39
2 6 5 11.43 0.39
4 -6 5 4.96 0.18
4 -6 5 5.1 0.21
-4 -6 -5 5.01 0.18
4 6 5 4.88 0.19
4 6 5 5.08 0.22
6 -6 5 6.64 0.24
6 -6 5 6.28 0.22
6 -6 5 6.34 0.27
6 6 5 6.47 0.29
6 6 5 6.47 0.23
8 -6 5 14.53 0.56
8 -6 5 14.8 0.49
8 6 5 15.95 0.59
8 6 5 15.27 0.48
10 -6 5 0 0.12
10 -6 5 -0.05 0.13
10 6 5 0.07 0.11
10 6 5 -0.06 0.16
12 -6 5 3.26 0.29
12 6 5 3.89 0.26
12 6 5 3.17 0.39
13 -7 -5 0.34 0.17
13 7 -5 0.23 0.23
11 -7 -5 7.54 0.33
11 7 -5 7.31 0.42
11 7 -5 7.32 0.3
-9 -7 5 7.48 0.29
9 -7 -5 7.75 0.31
9 7 -5 7.32 0.28
9 7 -5 7.82 0.38
7 -7 -5 14.63 0.47
7 -7 -5 15.4 0.52
-7 -7 5 14.36 0.49
7 7 -5 14.64 0.45
7 7 -5 15.2 0.57
-7 7 5 15.26 0.5
5 -7 -5 179.55 5.84
5 -7 -5 176.32 5.11
-5 7 5 185.68 5.55
5 7 -5 184.31 5.87
5 7 -5 181.38 5.11
3 -7 -5 1 0.08
3 -7 -5 0.97 0.09
3 7 -5 0.96 0.06
3 7 -5 1.18 0.12
3 7 -5 0.81 0.11
-3 7 5 1.07 0.1
1 -7 -5 86.63 2.42
1 7 -5 85.69 2.79
-1 7 5 84.26 2.77
1 7 -5 87.32 2.65
1 7 -5 86.29 2.42
-1 7 5 85.18 2.64
-1 -7 -5 47.22 1.37
1 7 5 47.96 1.57
-1 7 -5 50.51 1.58
-1 7 -5 47.46 1.36
1 7 5 46.34 1.49
-1 7 -5 48.97 1.49
-3 -7 -5 21.13 0.63
3 7 5 21.26 0.73
3 7 5 20.86 0.69
-3 7 -5 22.65 0.69
5 -7 5 28.22 0.94
-5 -7 -5 28.59 0.82
5 -7 5 29.2 0.87
5 7 5 26.51 0.96
5 7 5 27.67 0.89
7 -7 5 15.87 0.49
7 -7 5 15.88 0.56
7 7 5 14.99 0.59
9 -7 5 84.37 2.75
9 -7 5 85.04 2.4
9 7 5 80.24 2.39
9 7 5 85.18 2.78
11 -7 5 2.76 0.26
11 -7 5 2.93 0.26
11 7 5 2.65 0.22
11 7 5 2.45 0.33
12 -8 -5 1.37 0.18
12 8 -5 1.16 0.23
10 -8 -5 55.71 1.61
10 8 -5 52.42 1.58
10 8 -5 56.88 1.87
-8 -8 5 8.54 0.31
8 -8 -5 8.58 0.32
8 -8 -5 7.96 0.31
8 8 -5 8.4 0.28
8 8 -5 8.37 0.39
-8 8 5 8.25 0.32
6 -8 -5 26.8 0.85
6 -8 -5 24.95 0.76
-6 8 5 24.7 0.82
6 8 -5 26.07 0.74
6 8 -5 25.07 0.89
4 -8 -5 48.3 1.46
4 -8 -5 51.03 1.66
-4 8 5 52.4 1.6
4 8 -5 51.68 1.6
4 8 -5 53.3 1.7
4 8 -5 50.68 1.45
2 -8 -5 93.1 2.65
2 8 -5 94.76 2.89
-2 8 5 99.62 2.89
2 8 -5 91.15 3.05
2 8 -5 90.86 2.65
0 -8 -5 173.41 5.06
0 8 -5 187.49 5.54
0 8 -5 175.85 5.74
0 8 5 180.11 5.77
0 8 5 174.67 5.44
0 8 -5 176.47 5.25
-2 -8 -5 27.86 0.82
2 8 5 28.4 0.95
-2 8 -5 29.1 0.82
2 8 5 28.08 0.9
-2 8 -5 27.47 0.9
-2 8 -5 29.28 0.95
4 -8 5 215.04 7.24
-4 -8 -5 221.47 6.31
4 8 5 214.46 6.84
-4 8 -5 227.51 6.86
4 8 5 238.16 7.27
6 -8 5 39.91 1.34
6 -8 5 40.69 1.18
6 -8 5 39.69 1.25
6 8 5 41 1.37
6 8 5 41.57 1.27
8 -8 5 10.66 0.43
8 -8 5 11.08 0.39
8 8 5 10.76 0.47
8 8 5 12.05 0.38
10 -8 5 16.2 0.61
10 -8 5 16.09 0.55
10 8 5 17.16 0.68
10 8 5 15.49 0.53
12 -8 5 6.16 0.35
12 8 5 6.38 0.47
12 8 5 6.4 0.31
13 -9 -5 0.26 0.17
13 9 -5 -0.12 0.23
11 -9 -5 0.96 0.16
11 9 -5 1.09 0.21
-9 -9 5 0.63 0.09
9 -9 -5 0.49 0.12
9 9 -5 0.76 0.09
9 9 -5 0.67 0.17
-7 -9 5 2.15 0.14
7 -9 -5 2.03 0.13
7 -9 -5 1.74 0.15
7 9 -5 1.97 0.21
-7 9 5 1.97 0.15
7 9 -5 2.17 0.12
5 -9 -5 20.87 0.7
5 -9 -5 20.05 0.63
5 9 -5 20.74 0.69
-5 9 5 21.84 0.69
5 9 -5 21.72 0.61
3 -9 -5 0.77 0.09
3 -9 -5 0.83 0.08
-3 9 5 0.9 0.1
3 9 -5 0.97 0.11
3 9 -5 0.81 0.1
3 9 -5 0.71 0.06
1 -9 -5 7.79 0.25
-1 9 5 7.93 0.28
1 9 -5 7.51 0.29
1 9 -5 8.32 0.31
1 9 -5 7.92 0.24
-1 9 5 8.04 0.29
-1 -9 -5 4.61 0.16
-1 9 -5 4.4 0.19
-1 9 -5 4.55 0.2
-1 9 -5 4.55 0.15
1 9 5 4.58 0.19
1 9 5 4.35 0.19
-3 -9 -5 15.18 0.46
3 9 5 14.89 0.54
-3 9 -5 15.57 0.53
-3 9 -5 15.19 0.5
3 9 5 15.73 0.51
5 -9 5 3.89 0.17
-5 -9 -5 4.15 0.16
5 -9 5 3.81 0.18
5 9 5 3.8 0.22
5 9 5 3.7 0.18
7 -9 5 3.17 0.17
7 -9 5 2.62 0.17
7 9 5 2.54 0.15
7 9 5 2.38 0.22
9 -9 5 5.17 0.26
9 -9 5 5.85 0.28
9 9 5 5.54 0.24
9 9 5 5.17 0.34
11 -9 5 2.12 0.25
11 9 5 2.04 0.21
11 9 5 2.09 0.26
12 -10 -5 2.63 0.27
12 10 -5 3.25 0.37
10 -10 -5 13.29 0.48
10 10 -5 14.25 0.61
-8 -10 5 9.81 0.35
8 -10 -5 9.37 0.35
8 10 -5 9.35 0.32
-8 10 5 9.97 0.36
8 10 -5 9.89 0.44
6 -10 -5 4.71 0.21
6 -10 -5 5.05 0.19
6 10 -5 5.01 0.17
6 10 -5 4.74 0.27
-6 10 5 5.36 0.23
6 10 -5 4.72 0.23
4 -10 -5 48.19 1.39
4 -10 -5 47.33 1.57
4 10 -5 50.1 1.61
4 10 -5 48.27 1.37
4 10 -5 50.09 1.52
-4 10 5 46.48 1.51
2 -10 -5 12.66 0.39
2 10 -5 12.57 0.46
2 10 -5 13.21 0.37
2 10 -5 13.08 0.44
-2 10 5 12.21 0.44
-2 10 5 12.88 0.43
0 -10 -5 84.68 2.47
0 10 -5 88.78 2.48
0 10 5 85.97 2.83
0 10 -5 90.13 2.85
0 10 -5 88.72 2.7
-2 -10 -5 10.1 0.31
2 10 5 10.02 0.38
2 10 5 10.23 0.36
-2 10 -5 10.55 0.36
-2 10 -5 10.39 0.38
-4 -10 -5 96.92 2.8
4 -10 5 99.94 3.22
4 10 5 100.12 3.06
4 10 5 102.03 3.24
-4 10 -5 98.33 3.05
6 -10 5 6.84 0.27
6 -10 5 7.85 0.3
6 10 5 7.33 0.28
6 10 5 7.41 0.33
8 -10 5 7.02 0.31
8 -10 5 7.76 0.3
8 10 5 7.13 0.27
8 10 5 7.6 0.37
10 -10 5 5.27 0.3
10 10 5 4.88 0.25
10 10 5 5.09 0.37
12 -10 5 3.7 0.3
12 10 5 3.47 0.4
13 -11 -5 0.97 0.2
13 11 -5 0.72 0.25
11 -11 -5 8.97 0.39
11 11 -5 9.85 0.5
9 -11 -5 16.35 0.55
-9 -11 5 17.04 0.56
9 11 -5 16.84 0.67
7 -11 -5 19.93 0.6
7 11 -5 19.29 0.66
7 11 -5 18.91 0.57
7 11 -5 18.59 0.72
-7 11 5 19.88 0.65
5 -11 -5 165.62 4.49
5 -11 -5 157.86 5.12
5 11 -5 152.69 5.17
-5 11 5 157.45 4.88
5 11 -5 157.83 4.89
5 11 -5 163.81 4.47
3 -11 -5 26.92 0.78
3 11 -5 26.46 0.76
3 11 -5 27.43 0.92
-3 11 5 26.51 0.88
1 -11 -5 99.15 2.75
1 11 -5 93.21 3.01
-1 11 5 97.82 3.01
-1 11 5 98.42 3.15
1 11 -5 96.27 2.74
1 11 -5 100.28 3.17
-1 -11 -5 90.77 2.48
-1 11 -5 90.01 2.86
-1 11 -5 85.91 2.71
1 11 5 83.6 2.71
1 11 5 89.53 2.85
-3 -11 -5 27.8 0.79
3 11 5 28.96 0.93
3 11 5 27.13 0.88
-3 11 -5 26.66 0.87
-3 11 -5 25.77 0.91
-5 -11 -5 68.62 1.93
5 -11 5 71.03 1.94
5 -11 5 69.75 2.22
5 11 5 67.37 2.11
-5 11 -5 65.25 2.1
5 11 5 65.83 2.24
7 -11 5 21.93 0.68
7 -11 5 22.94 0.77
7 11 5 22.29 0.72
7 11 5 21.43 0.81
9 -11 5 94.97 2.72
9 11 5 99.67 3.15
9 11 5 90.43 2.7
11 -11 5 2.56 0.26
11 11 5 1.72 0.26
12 -12 -5 0.7 0.18
12 12 -5 1.14 0.25
10 -12 -5 10.46 0.42
10 12 -5 11.06 0.54
8 -12 -5 0.3 0.11
8 12 -5 0.25 0.15
-8 12 5 0.2 0.1
6 -12 -5 5.12 0.23
6 12 -5 5.94 0.19
-6 12 5 5.55 0.25
6 12 -5 5.48 0.26
6 12 -5 5.71 0.3
4 -12 -5 4.38 0.18
-4 12 5 4.34 0.16
4 12 -5 4.4 0.14
4 12 -5 4.55 0.23
4 12 -5 3.98 0.22
-4 12 5 4.52 0.21
2 -12 -5 1.53 0.1
2 12 -5 1.72 0.07
-2 12 5 1.63 0.09
2 12 -5 1.89 0.15
2 12 -5 1.8 0.14
-2 12 5 1.72 0.14
0 -12 -5 65.87 1.88
0 12 5 66.07 2.16
0 12 -5 69.74 2.07
0 12 -5 68.32 1.87
0 12 -5 63.95 2.17
0 12 5 64.65 2.06
-2 -12 -5 1.47 0.09
-2 12 -5 1.24 0.12
2 12 5 1.38 0.13
-2 12 -5 1.6 0.13
2 12 5 1.49 0.13
4 -12 5 48.14 1.4
4 -12 5 48.08 1.6
-4 -12 -5 48.3 1.4
4 12 5 49.21 1.54
-4 12 -5 50.36 1.53
4 12 5 49.84 1.63
6 -12 5 0.44 0.08
6 -12 5 0.31 0.08
-6 12 -5 0.39 0.07
6 12 5 0.4 0.12
6 12 5 0.27 0.08
8 -12 5 1.87 0.18
8 -12 5 1.94 0.16
8 12 5 1.37 0.19
8 12 5 1.95 0.15
10 -12 5 7.09 0.33
10 12 5 6.8 0.43
10 12 5 6.77 0.29
12 -12 5 0.24 0.18
12 12 5 0.05 0.25
11 -13 -5 2.89 0.27
11 13 -5 3.14 0.37
9 -13 -5 11.97 0.43
-9 -13 5 11.89 0.42
9 13 -5 10.94 0.53
7 -13 -5 8.3 0.31
7 13 -5 8.43 0.35
-7 13 5 8.06 0.33
7 13 -5 8.13 0.4
5 -13 -5 4.38 0.19
5 13 -5 4.16 0.25
-5 13 5 3.97 0.21
5 13 -5 3.79 0.22
5 13 -5 4.03 0.14
3 -13 -5 31.01 0.9
3 13 -5 29.47 0.99
3 13 -5 31.4 0.87
3 13 -5 32.98 1.05
-3 13 5 29.24 0.99
-3 13 5 30.38 1
1 -13 -5 7.92 0.27
1 13 -5 7.76 0.32
1 13 -5 8.47 0.25
1 13 -5 8.83 0.32
-1 13 5 8.36 0.32
-1 13 5 8.1 0.29
-1 -13 -5 55.88 1.56
-1 13 -5 52.05 1.8
-1 13 -5 54.36 1.72
1 13 5 57.14 1.8
1 13 5 55.34 1.72
3 -13 5 40.35 1.14
-3 -13 -5 40.53 1.14
3 13 5 39.2 1.33
3 13 5 40.03 1.26
-3 13 -5 39.29 1.26
-3 13 -5 39.25 1.32
5 -13 5 0.92 0.09
5 -13 5 1.09 0.12
-5 -13 -5 0.87 0.08
5 13 5 0.94 0.11
5 13 5 0.92 0.13
-5 13 -5 0.97 0.12
7 -13 5 26.12 0.86
7 -13 5 25.61 0.77
7 13 5 25.05 0.82
7 13 5 24.43 0.91
9 -13 5 2.71 0.24
9 13 5 3.04 0.18
9 13 5 3.22 0.32
11 -13 5 2.88 0.28
11 13 5 3.07 0.41
12 -14 -5 2.49 0.28
12 14 -5 1.85 0.28
10 -14 -5 16.85 0.59
10 14 -5 17.65 0.72
8 -14 -5 15.99 0.51
8 14 -5 14.75 0.55
-8 14 5 14.73 0.53
8 14 -5 15.02 0.62
6 -14 -5 35.66 1.06
6 14 -5 37.63 1.25
6 14 -5 36.18 1.16
-6 14 5 34.67 1.16
4 -14 -5 71.55 2.05
4 14 -5 73.6 2.37
-4 14 5 73.61 2.24
4 14 -5 68.47 2.24
2 -14 -5 82.61 2.28
2 14 -5 81.46 2.5
-2 14 5 81.18 2.59
-2 14 5 79.13 2.49
2 14 -5 77.59 2.63
2 14 -5 79.8 2.25
0 -14 -5 35.33 0.99
0 14 -5 33.63 1.15
0 14 5 34.98 1.14
0 14 5 34.45 1.1
0 14 -5 33.53 1.1
-2 -14 -5 66.5 1.91
2 -14 5 67.19 1.91
2 14 5 68.52 2.21
-2 14 -5 64.69 2.1
-2 14 -5 67.82 2.21
2 14 5 70.88 2.11
-4 -14 -5 52.97 1.51
4 -14 5 54.91 1.52
4 -14 5 52.17 1.74
4 14 5 52.25 1.67
-4 14 -5 52.57 1.66
4 14 5 53.76 1.77
6 -14 5 45.41 1.5
6 -14 5 45.86 1.32
6 14 5 46.03 1.44
6 14 5 44.48 1.54
-6 14 -5 44.93 1.42
8 -14 5 28.46 0.87
8 14 5 28.15 0.84
8 14 5 28.75 1.03
10 -14 5 16.04 0.57
10 14 5 16.44 0.7
11 -15 -5 5.5 0.33
11 15 -5 6.07 0.46
9 -15 -5 0.23 0.13
9 15 -5 0.71 0.19
9 15 -5 0.46 0.13
7 -15 -5 1.53 0.17
7 15 -5 1.95 0.25
7 15 -5 1.72 0.19
-7 15 5 1.28 0.14
5 -15 -5 19.91 0.62
5 15 -5 18.13 0.73
-5 15 5 21.16 0.68
5 15 -5 21.27 0.69
3 -15 -5 0.07 0.07
-3 15 5 0.03 0.09
3 15 -5 0.34 0.1
3 15 -5 0.21 0.1
1 -15 -5 26.42 0.74
1 15 -5 24.08 0.83
-1 15 5 26.18 0.84
1 15 -5 24.04 0.87
-1 15 5 26.38 0.85
-1 -15 -5 27.91 0.82
1 -15 5 28.41 0.82
1 15 5 29.77 0.93
-1 15 -5 27.85 0.96
-1 15 -5 29.32 0.92
1 15 5 27.53 0.95
3 -15 5 24.01 0.7
-3 -15 -5 23.03 0.69
-3 15 -5 23.89 0.8
3 15 5 24.13 0.78
-3 15 -5 22.66 0.77
3 15 5 24.16 0.82
5 -15 5 15.19 0.55
5 -15 5 16.14 0.49
-5 -15 -5 15.84 0.48
5 15 5 16.05 0.6
-5 15 -5 15.24 0.54
5 15 5 16.36 0.55
7 -15 5 0.85 0.12
7 15 5 0.86 0.12
7 15 5 1.03 0.17
9 -15 5 7.28 0.34
9 15 5 7.42 0.43
11 -15 5 0.35 0.17
11 15 5 0.09 0.23
12 -16 -5 14.34 0.56
12 16 -5 14.99 0.71
10 -16 -5 0.11 0.15
10 16 -5 0.12 0.21
8 -16 -5 4.8 0.25
-8 16 5 4.18 0.25
8 16 -5 4.26 0.27
8 16 -5 4.24 0.34
6 -16 -5 4.02 0.21
6 16 -5 4.24 0.28
-6 16 5 3.79 0.23
6 16 -5 3.93 0.25
4 -16 -5 11.16 0.35
4 16 -5 10.41 0.41
4 16 -5 10.09 0.43
-4 16 5 10.38 0.4
2 -16 -5 7.48 0.25
-2 16 5 7.59 0.26
2 16 -5 6.95 0.32
2 16 -5 7.32 0.31
0 -16 5 1.26 0.08
0 -16 -5 1.32 0.1
0 16 5 1.12 0.15
0 16 -5 1.14 0.14
0 16 5 1.46 0.12
0 16 -5 1.17 0.14
2 -16 5 139.18 3.82
-2 -16 -5 136.92 3.82
-2 16 -5 129.48 4.39
2 16 5 141.57 4.18
-2 16 -5 136.6 4.18
2 16 5 130.63 4.4
-4 -16 -5 0.08 0.05
4 -16 5 0.08 0.07
4 -16 5 0.13 0.07
4 16 5 0.18 0.11
4 16 5 0.17 0.1
-4 16 -5 0.1 0.09
6 -16 5 8.85 0.31
6 16 5 8.82 0.39
6 16 5 7.17 0.33
-6 16 -5 7.97 0.32
8 -16 5 4.88 0.27
8 16 5 4.95 0.35
10 -16 5 -0.02 0.16
10 16 5 0.39 0.23
11 -17 -5 2.93 0.29
11 17 -5 3.71 0.41
9 -17 -5 26.98 0.83
9 17 -5 26.18 0.99
9 17 -5 25.39 0.89
7 -17 -5 44 1.26
7 17 -5 43.25 1.38
-7 17 5 38.25 1.36
7 17 -5 44.71 1.48
5 -17 -5 5.44 0.24
-5 17 5 5.73 0.27
5 17 -5 5.56 0.31
5 17 -5 5.46 0.28
3 -17 -5 148.06 4.05
3 17 -5 136.34 4.42
3 17 -5 143.53 4.66
-3 17 5 145.66 4.42
1 -17 -5 30.26 0.89
-1 17 5 29.19 1.01
1 17 -5 32.3 1
1 17 -5 30.12 1.04
-1 17 5 30.94 1
1 -17 5 28.39 0.82
-1 -17 -5 27.17 0.82
-1 17 -5 30.08 0.93
1 17 5 29.3 0.96
1 17 5 28.57 0.94
-1 17 -5 27.4 0.96
3 -17 5 39.31 1.14
-3 -17 -5 39.25 1.13
-3 17 -5 39.37 1.31
3 17 5 40.74 1.27
3 17 5 37.79 1.33
-3 17 -5 39.97 1.26
5 -17 5 18.98 0.58
-5 -17 -5 18.67 0.56
5 17 5 18.49 0.65
-5 17 -5 19.16 0.64
5 17 5 19.7 0.71
7 -17 5 91.99 2.61
7 17 5 91.74 3.03
7 17 5 90.3 2.84
9 -17 5 2.75 0.26
9 17 5 2.58 0.35
11 -17 5 23.01 0.79
11 17 5 23.85 0.97
10 -18 -5 0.88 0.17
10 18 -5 1.16 0.25
8 -18 -5 4 0.24
8 18 -5 4.57 0.36
8 18 -5 3.46 0.27
-8 18 5 3.54 0.25
6 -18 -5 5.65 0.26
-6 18 5 5.57 0.29
6 18 -5 5.55 0.34
6 18 -5 5.89 0.3
4 -18 -5 10.73 0.36
4 18 -5 11.42 0.43
4 18 -5 10.22 0.45
-4 18 5 10.8 0.43
2 -18 -5 13.32 0.41
-2 18 5 13.39 0.49
2 18 -5 13.33 0.48
2 18 -5 12.51 0.5
0 -18 -5 9.36 0.3
0 18 5 9.23 0.38
0 18 -5 9.43 0.37
0 18 5 9.35 0.35
0 18 -5 9.84 0.38
2 -18 5 62.37 1.8
-2 -18 -5 62.75 1.8
2 18 5 62.57 2
2 18 5 65.57 2.09
-2 18 -5 67.29 1.99
-2 18 -5 59.94 2.08
4 -18 5 2.18 0.14
-4 -18 -5 2.4 0.12
4 -18 5 2.3 0.15
4 18 5 2.75 0.21
-4 18 -5 2.17 0.19
4 18 5 2.55 0.21
6 -18 5 9.66 0.35
-6 18 -5 9.43 0.37
6 18 5 9.54 0.44
6 18 5 9.77 0.39
8 -18 5 11.15 0.42
8 18 5 11.16 0.55
10 -18 5 2.17 0.22
10 18 5 2.16 0.3
11 -19 -5 1.18 0.2
11 19 -5 1.23 0.27
9 -19 -5 2.92 0.25
9 19 -5 3.35 0.28
9 19 -5 2.91 0.36
7 -19 -5 7.64 0.32
7 19 -5 7.25 0.41
7 19 -5 7.73 0.37
-7 19 5 7.32 0.35
5 -19 -5 0.5 0.1
-5 19 5 0.42 0.13
5 19 -5 0.68 0.15
5 19 -5 0.3 0.13
3 -19 -5 19.67 0.59
3 19 -5 20.03 0.68
3 19 -5 18.59 0.71
-3 19 5 19.37 0.68
1 -19 -5 4.06 0.17
-1 19 5 3.73 0.24
1 19 -5 4.12 0.23
1 19 -5 4.18 0.24
-1 -19 -5 5.59 0.19
-1 19 -5 5.35 0.25
1 19 5 5.21 0.27
-1 19 -5 5.31 0.27
1 19 5 5.1 0.24
3 -19 5 3.27 0.16
3 19 5 4.21 0.24
-3 19 -5 3.53 0.2
3 19 5 3.46 0.23
-3 19 -5 4.12 0.23
5 -19 5 1.51 0.15
-5 19 -5 1.85 0.18
5 19 5 1.43 0.16
5 19 5 1.51 0.17
7 -19 5 7.79 0.32
7 19 5 7.35 0.35
7 19 5 6.96 0.41
9 -19 5 2.91 0.28
9 19 5 2.79 0.36
10 -20 -5 4.04 0.29
10 20 -5 4.04 0.41
8 -20 -5 18.19 0.61
-8 20 5 17.66 0.66
8 20 -5 18.13 0.67
8 20 -5 18.75 0.76
6 -20 -5 7.98 0.32
6 20 -5 8.22 0.38
-6 20 5 7.42 0.36
6 20 -5 8.83 0.42
4 -20 -5 29.96 0.94
4 20 -5 33.71 1.11
-4 20 5 31.81 1.05
4 20 -5 31.24 1.05
2 -20 -5 35.86 1.09
-2 20 5 36.9 1.23
2 20 -5 38.71 1.28
2 20 -5 39.23 1.23
0 -20 -5 19.05 0.56
0 20 -5 18.68 0.66
0 20 5 18.9 0.67
0 20 -5 18.97 0.67
2 20 5 124.36 3.96
-2 20 -5 129.92 4.14
2 20 5 129.79 4.16
-2 20 -5 127.04 3.95
4 -20 5 12.08 0.41
4 20 5 12.97 0.49
-4 20 -5 12.96 0.48
4 20 5 13.12 0.52
6 -20 5 28.1 0.84
6 20 5 27.72 0.93
6 20 5 26.74 1
8 -20 5 15.44 0.53
8 20 5 15.02 0.66
10 -20 5 1.23 0.2
10 20 5 1.27 0.28
9 -21 -5 3.3 0.28
9 21 -5 2.79 0.3
9 21 -5 3.31 0.38
7 -21 -5 11.58 0.42
7 21 -5 11.51 0.48
7 21 -5 11.29 0.55
-7 21 5 11.31 0.47
5 -21 -5 4.28 0.22
5 21 -5 4.22 0.32
5 21 -5 4.5 0.28
-5 21 5 3.97 0.27
3 -21 -5 58.33 1.69
-3 21 5 56.32 1.87
3 21 -5 61.91 1.97
3 21 -5 58.64 1.87
1 -21 -5 0.49 0.07
1 21 -5 0.19 0.12
1 21 -5 0.37 0.12
-1 21 5 0.24 0.12
-1 21 -5 17.92 0.64
-1 21 -5 17.25 0.64
1 21 5 18.13 0.65
1 21 5 18.67 0.64
-3 21 -5 20.44 0.68
3 21 5 17.64 0.68
3 21 5 19.18 0.7
5 -21 5 2.88 0.18
-5 21 -5 2.55 0.23
5 21 5 3.15 0.26
5 21 5 2.87 0.27
7 -21 5 21.74 0.71
7 21 5 23.17 0.88
7 21 5 22.83 0.79
9 -21 5 4.24 0.31
9 21 5 4.43 0.42
10 -22 -5 3.56 0.3
10 22 -5 2.51 0.32
8 -22 -5 1.56 0.17
8 22 -5 1.89 0.21
8 22 -5 1.91 0.26
6 -22 -5 17.02 0.55
6 22 -5 17 0.68
-6 22 5 15.85 0.62
6 22 -5 15.96 0.63
4 -22 -5 3.36 0.19
4 22 -5 3.06 0.28
-4 22 5 3.51 0.28
4 22 -5 3.04 0.26
2 -22 -5 0.58 0.09
-2 22 5 0.81 0.16
2 22 -5 0.67 0.15
2 22 -5 0.62 0.14
0 22 -5 3.67 0.22
0 22 5 3.29 0.25
0 22 -5 2.72 0.25
-2 22 -5 0.17 0.13
2 22 5 0.08 0.11
2 22 5 0.31 0.15
4 22 5 5.77 0.33
-4 22 -5 5.6 0.29
4 22 5 6.08 0.32
6 -22 5 0.5 0.12
6 22 5 0.69 0.16
6 22 5 0.4 0.17
8 -22 5 0.83 0.16
8 22 5 0.67 0.23
9 -23 -5 13.11 0.49
9 23 -5 12.78 0.64
9 23 -5 11.57 0.54
7 -23 -5 6.39 0.3
-7 23 5 5.81 0.35
7 23 -5 6.12 0.42
7 23 -5 6.15 0.37
5 -23 -5 18.86 0.61
-5 23 5 18.78 0.7
5 23 -5 19.19 0.71
5 23 -5 20.77 0.76
3 -23 -5 18.04 0.55
-3 23 5 17.27 0.66
3 23 -5 18.06 0.66
3 23 -5 17.51 0.68
-1 23 5 34.23 1.15
1 23 -5 34.94 1.15
1 23 -5 34.23 1.18
1 23 5 24.92 0.85
-1 23 -5 23.88 0.85
3 23 5 34.68 1.2
-3 23 -5 35.95 1.15
3 23 5 33.8 1.16
5 23 5 18.8 0.69
5 23 5 19.46 0.73
-5 23 -5 17.84 0.67
7 23 5 12.79 0.58
7 23 5 11.96 0.51
9 -23 5 6.98 0.36
9 23 5 6.59 0.52
8 -24 -5 5.77 0.31
8 24 -5 5.36 0.42
8 24 -5 5.03 0.37
6 -24 -5 14.18 0.48
6 24 -5 13.92 0.61
6 24 -5 12.93 0.57
-6 24 5 14.11 0.55
4 -24 -5 11.75 0.41
-4 24 5 12.74 0.52
4 24 -5 11.87 0.52
4 24 -5 12.29 0.53
2 24 -5 13.56 0.53
-2 24 5 13.58 0.53
2 24 -5 11.92 0.52
0 24 5 8.69 0.4
0 24 -5 8.32 0.4
2 24 5 25.39 0.88
-2 24 -5 25.09 0.88
4 24 5 0.83 0.18
4 24 5 0.85 0.18
-4 24 -5 0.81 0.16
6 24 5 12.95 0.53
6 24 5 12.55 0.59
8 24 5 16 0.74
7 -25 -5 1.15 0.15
-7 25 5 0.92 0.19
7 25 -5 0.73 0.2
7 25 -5 0.77 0.23
5 -25 -5 22.29 0.7
5 25 -5 21.67 0.86
5 25 -5 24.11 0.82
-5 25 5 22.12 0.82
3 25 -5 2.81 0.27
3 25 -5 2.37 0.29
-3 25 5 2.96 0.29
1 25 -5 1.48 0.17
-1 25 5 1.6 0.2
1 25 -5 1.51 0.2
1 25 5 1.61 0.2
-1 25 -5 1.52 0.2
-3 25 -5 1.51 0.19
3 25 5 1.25 0.2
5 25 5 0.59 0.18
5 25 5 -0.04 0.19
-5 25 -5 0.46 0.16
7 25 5 0.04 0.17
7 25 5 0.04 0.23
8 -26 -5 4.36 0.28
8 26 -5 4.36 0.43
8 26 -5 3.96 0.37
6 26 -5 0.71 0.2
6 26 -5 0.56 0.21
-6 26 5 0.71 0.19
4 26 -5 14.01 0.6
-4 26 5 14.82 0.6
4 26 -5 14.82 0.61
2 26 -5 14.58 0.57
-2 26 5 13.38 0.58
2 26 -5 14.79 0.58
0 26 -5 59.79 1.97
0 26 5 62.72 1.98
-2 26 -5 0.6 0.17
2 26 5 0.81 0.19
4 26 5 71.13 2.26
-4 26 -5 70.19 2.25
6 26 5 5.61 0.43
6 26 5 6.93 0.39
7 27 -5 3.12 0.33
7 27 -5 4.12 0.4
-7 27 5 3.31 0.32
-5 27 5 30.27 1.1
5 27 -5 33.06 1.16
5 27 -5 32.12 1.11
3 27 -5 3.82 0.31
-3 27 5 4.15 0.32
3 27 -5 3.85 0.33
1 27 -5 8.74 0.43
-1 27 5 8.41 0.43
-1 27 -5 11.3 0.51
1 27 5 12.25 0.53
-3 27 -5 11.25 0.5
3 27 5 11.02 0.52
-5 27 -5 11.74 0.51
5 27 5 11.83 0.54
-6 28 5 0.18 0.19
6 28 -5 -0.19 0.2
6 28 -5 -0.06 0.19
4 28 -5 0.65 0.21
4 28 -5 0.52 0.19
-4 28 5 0.56 0.19
2 28 -5 0.05 0.19
-2 28 5 -0.07 0.18
0 28 5 -0.21 0.19
0 28 -5 -0.1 0.18
-2 28 -5 0.25 0.18
2 28 5 0.55 0.21
-4 28 -5 1.62 0.21
4 28 5 1.39 0.24
6 28 5 0.11 0.2
-5 29 5 32.83 1.13
5 29 -5 30.84 1.17
5 29 -5 32.63 1.13
-3 29 5 3.6 0.35
3 29 -5 2.91 0.36
1 29 -5 15.47 0.64
-1 29 5 15.58 0.64
-1 29 -5 11.73 0.51
1 29 5 10.66 0.52
3 29 5 5.37 0.4
-3 29 -5 5.55 0.36
5 29 5 8.5 0.47
4 30 -5 3.63 0.39
-4 30 5 3.69 0.37
2 30 -5 4.66 0.37
-2 30 5 4.26 0.36
0 30 -5 27.72 0.96
0 30 5 25.23 0.96
-2 30 -5 4.91 0.38
2 30 5 5.36 0.41
1 31 -5 2.24 0.27
-1 31 5 1.85 0.27
1 31 5 1.38 0.26
-1 31 -5 1.32 0.23
12 0 -6 2.01 0.24
12 0 -6 2.2 0.3
10 0 -6 7.25 0.32
10 0 -6 8.19 0.38
8 0 -6 37.66 1.12
8 0 -6 38.38 1.3
-8 0 6 38.6 1.2
6 0 -6 5.02 0.24
6 0 -6 4.95 0.2
-6 0 6 5.01 0.21
4 0 -6 11.04 0.35
-4 0 6 11.29 0.38
4 0 -6 11.4 0.41
2 0 -6 31.43 1.07
-2 0 6 32.55 1.01
2 0 -6 32.99 0.93
0 0 -6 9.79 0.38
0 0 -6 10.06 0.32
0 0 6 10.92 0.35
2 0 6 4.81 0.2
2 0 6 5.09 0.19
-4 0 -6 9.66 0.32
4 0 6 10.08 0.33
4 0 6 10.03 0.37
6 0 6 1.56 0.16
6 0 6 2.01 0.1
8 0 6 0.48 0.1
8 0 6 0.35 0.12
10 0 6 24.82 0.78
10 0 6 25.24 0.92
12 0 6 1.12 0.22
12 0 6 0.87 0.17
13 -1 -6 17.41 0.61
13 1 -6 17.42 0.61
11 -1 -6 0.03 0.15
11 -1 -6 0.15 0.13
11 1 -6 -0.01 0.12
11 1 -6 0.01 0.15
-9 -1 6 1.48 0.14
9 -1 -6 1.52 0.2
9 -1 -6 1.1 0.12
-9 1 6 1.44 0.14
9 1 -6 1.33 0.16
9 1 -6 1.48 0.17
7 -1 -6 2.04 0.17
7 -1 -6 2.25 0.14
-7 -1 6 2.06 0.14
-7 1 6 1.94 0.14
7 1 -6 1.95 0.14
7 1 -6 2.21 0.19
5 -1 -6 1.53 0.11
-5 -1 6 1.5 0.11
5 -1 -6 1.31 0.13
5 1 -6 1.49 0.11
5 1 -6 1.87 0.14
-5 1 6 1.63 0.11
-3 -1 6 2.65 0.13
3 -1 -6 2.66 0.12
3 -1 -6 2.47 0.15
3 1 -6 2.51 0.11
3 1 -6 2.39 0.15
-3 1 6 2.78 0.13
-1 -1 6 0.56 0.07
1 -1 -6 0.57 0.07
1 -1 -6 0.61 0.07
1 1 -6 0.7 0.1
-1 1 6 0.56 0.06
1 1 -6 0.53 0.05
-1 -1 -6 8.18 0.31
-1 -1 -6 8.38 0.26
1 -1 6 8.12 0.28
1 1 6 8.04 0.28
3 -1 6 19.18 0.6
-3 -1 -6 18.58 0.56
3 -1 6 19.14 0.65
3 1 6 19.54 0.61
3 1 6 18.65 0.65
5 -1 6 30.27 0.9
5 -1 6 29.54 0.98
-5 -1 -6 28.74 0.84
5 1 6 29.23 0.9
5 1 6 27.96 0.98
-5 1 -6 27.26 0.84
7 -1 6 0.84 0.12
7 1 6 0.71 0.12
9 -1 6 4.47 0.29
9 -1 6 4.38 0.23
9 1 6 4.41 0.24
9 1 6 4.53 0.29
11 -1 6 0.1 0.17
11 -1 6 0.22 0.14
11 1 6 0.45 0.18
11 1 6 0.25 0.13
12 -2 -6 1.29 0.17
12 2 -6 1.05 0.21
12 2 -6 1.39 0.16
10 -2 -6 0.37 0.14
10 -2 -6 0.41 0.12
10 2 -6 0.51 0.11
10 2 -6 0.39 0.15
8 -2 -6 1.19 0.12
-8 -2 6 1.29 0.13
8 -2 -6 1.7 0.17
-8 2 6 1.33 0.13
8 2 -6 1.43 0.2
8 2 -6 1.39 0.14
6 -2 -6 0.13 0.07
6 -2 -6 0.34 0.08
-6 -2 6 0.28 0.07
-6 2 6 0.38 0.07
6 2 -6 0.36 0.1
6 2 -6 0.42 0.07
4 -2 -6 4.71 0.21
4 -2 -6 4.62 0.18
-4 -2 6 5 0.19
4 2 -6 4.93 0.22
-4 2 6 5.08 0.2
4 2 -6 4.91 0.18
-2 -2 6 3.88 0.16
2 -2 -6 3.92 0.15
2 -2 -6 4.42 0.18
-2 2 6 3.86 0.17
2 2 -6 3.91 0.14
2 2 -6 3.68 0.18
0 -2 6 7.08 0.25
0 -2 -6 7.33 0.27
0 2 -6 6.73 0.27
0 2 6 6.87 0.25
0 2 -6 7.06 0.22
-2 -2 -6 23.11 0.66
2 -2 6 22.58 0.71
-2 2 -6 22.24 0.65
2 2 6 21.56 0.76
2 2 6 22.83 0.71
4 -2 6 7.5 0.28
4 -2 6 6.68 0.24
-4 -2 -6 7.03 0.24
-4 2 -6 7.15 0.24
4 2 6 7.11 0.25
4 2 6 6.71 0.28
6 -2 6 2.23 0.11
6 -2 6 2.6 0.18
6 2 6 2.4 0.18
6 2 6 2.44 0.12
8 -2 6 1.06 0.14
8 -2 6 1.31 0.15
8 2 6 1.44 0.2
10 -2 6 0.01 0.15
10 -2 6 0.11 0.13
10 2 6 -0.02 0.11
10 2 6 0.12 0.16
12 -2 6 0.17 0.16
12 -2 6 0.11 0.19
12 2 6 0.23 0.19
12 2 6 0.13 0.15
13 -3 -6 9.73 0.43
13 3 -6 10.35 0.42
13 3 -6 10.84 0.53
11 -3 -6 1.23 0.17
11 -3 -6 1.16 0.15
11 3 -6 1.36 0.2
11 3 -6 1.27 0.14
-9 -3 6 28.72 0.9
9 -3 -6 28.17 0.97
9 -3 -6 27.98 0.85
9 3 -6 28.54 0.84
9 3 -6 27.07 0.99
-9 3 6 28.16 0.9
7 -3 -6 17.24 0.55
7 -3 -6 18.26 0.62
-7 -3 6 17.75 0.58
7 3 -6 17.03 0.54
7 3 -6 17.86 0.64
-7 3 6 17.07 0.58
-5 -3 6 0.68 0.08
5 -3 -6 0.6 0.09
5 -3 -6 0.66 0.08
-5 3 6 0.68 0.08
5 3 -6 0.69 0.09
5 3 -6 0.7 0.1
3 -3 -6 8 0.27
3 -3 -6 8.26 0.31
-3 -3 6 8.82 0.29
-3 3 6 8.55 0.3
3 3 -6 7.99 0.32
3 3 -6 8.03 0.26
-1 -3 6 3.01 0.14
1 -3 -6 2.9 0.12
1 -3 -6 2.95 0.15
1 3 -6 2.87 0.12
-1 3 6 3.31 0.14
1 3 -6 3.51 0.16
-1 -3 -6 0.15 0.05
1 -3 6 0.13 0.05
1 3 6 0.21 0.06
-1 3 -6 0.1 0.04
-1 3 -6 0.08 0.06
1 3 6 0.15 0.06
3 -3 6 1.4 0.09
3 -3 6 1.55 0.12
-3 -3 -6 1.45 0.09
3 3 6 1.55 0.1
3 3 6 1.48 0.12
-5 -3 -6 0.07 0.06
5 -3 6 0.08 0.04
5 -3 6 0.14 0.08
5 3 6 0.03 0.05
5 3 6 0.11 0.08
7 -3 6 6.47 0.29
7 3 6 5.88 0.3
9 -3 6 6.46 0.33
9 -3 6 6.62 0.28
9 3 6 6.25 0.35
9 3 6 6.78 0.28
11 -3 6 0.6 0.15
11 -3 6 0.6 0.18
11 3 6 0.72 0.2
11 3 6 0.22 0.14
12 -4 -6 7.82 0.36
12 4 -6 8.56 0.35
12 4 -6 7.54 0.46
10 -4 -6 0.33 0.12
10 -4 -6 0.24 0.12
10 4 -6 0.32 0.16
10 4 -6 0.14 0.1
8 -4 -6 19 0.61
-8 -4 6 19.23 0.64
8 -4 -6 20.12 0.69
8 4 -6 18.78 0.72
-8 4 6 19.95 0.65
8 4 -6 19.98 0.6
-6 -4 6 0.56 0.08
6 -4 -6 0.59 0.08
6 -4 -6 0.44 0.08
6 4 -6 0.43 0.11
6 4 -6 0.56 0.07
-6 4 6 0.47 0.08
4 -4 -6 22.02 0.65
-4 -4 6 22.16 0.71
4 -4 -6 22.1 0.74
-4 4 6 22.48 0.71
4 4 -6 21.34 0.76
4 4 -6 22.17 0.64
2 -4 -6 2.84 0.12
2 -4 -6 2.87 0.14
2 4 -6 3.06 0.16
-2 4 6 2.97 0.14
2 4 -6 2.89 0.11
0 -4 6 5.74 0.2
0 -4 -6 5.36 0.22
0 -4 -6 5.53 0.18
0 4 6 5.09 0.2
0 4 -6 4.95 0.22
0 4 -6 5.4 0.18
-2 -4 -6 9.87 0.31
2 -4 6 10.26 0.33
2 4 6 9.99 0.36
-2 4 -6 9.92 0.31
2 4 6 10.05 0.34
-2 4 -6 9.09 0.36
4 -4 6 6.81 0.28
-4 -4 -6 7.12 0.23
4 -4 6 6.99 0.24
4 4 6 6.73 0.25
4 4 6 6.68 0.28
-4 4 -6 6.76 0.23
6 -4 6 0.04 0.08
6 -4 6 0.08 0.04
6 4 6 0.14 0.06
6 4 6 0.2 0.09
8 -4 6 0.1 0.11
8 -4 6 -0.01 0.09
8 4 6 0.18 0.12
10 -4 6 4.42 0.26
10 -4 6 4.32 0.3
10 4 6 4.09 0.32
10 4 6 4.27 0.24
12 -4 6 0.17 0.16
12 -4 6 0.41 0.19
12 4 6 0.24 0.2
12 4 6 0.32 0.15
13 -5 -6 0.46 0.17
13 5 -6 0.18 0.22
11 -5 -6 10.2 0.41
11 5 -6 9.55 0.48
11 5 -6 10.29 0.38
9 -5 -6 0.99 0.12
-9 -5 6 0.85 0.1
9 -5 -6 0.94 0.12
9 5 -6 1.24 0.15
-9 5 6 0.91 0.11
9 5 -6 0.9 0.16
7 -5 -6 0.07 0.08
7 -5 -6 0.07 0.08
-7 -5 6 0 0.07
7 5 -6 0.01 0.07
7 5 -6 0.04 0.11
-7 5 6 -0.04 0.07
5 -5 -6 22.39 0.66
5 -5 -6 22.17 0.75
-5 -5 6 21.93 0.71
5 5 -6 22.29 0.77
5 5 -6 21.84 0.65
-5 5 6 22.07 0.71
3 -5 -6 29.97 0.86
-3 -5 6 29.37 0.93
3 -5 -6 29.23 0.98
3 5 -6 29.09 0.85
-3 5 6 29.64 0.94
3 5 -6 30.1 1
1 -5 -6 3.43 0.16
1 -5 -6 3.14 0.13
-1 -5 6 3.15 0.14
1 5 -6 3.3 0.12
-1 5 6 3.21 0.15
1 5 -6 3.03 0.17
1 -5 6 2.42 0.11
-1 -5 -6 2.5 0.11
1 5 6 2.44 0.13
-1 5 -6 2.29 0.15
1 5 6 2.58 0.13
-1 5 -6 2.43 0.11
-3 -5 -6 0.73 0.08
3 -5 6 0.75 0.07
3 -5 6 1 0.1
3 5 6 0.72 0.09
-3 5 -6 0.8 0.09
3 5 6 0.89 0.11
5 -5 6 0.07 0.05
-5 -5 -6 0.09 0.06
5 -5 6 0 0.07
5 5 6 0.02 0.08
5 5 6 0.05 0.06
7 -5 6 11.49 0.44
7 -5 6 11.29 0.38
7 5 6 11.62 0.46
9 -5 6 7.01 0.34
9 -5 6 7.64 0.3
9 5 6 7.6 0.3
9 5 6 7.29 0.38
11 -5 6 4.88 0.33
11 -5 6 4.86 0.29
11 5 6 5.61 0.28
11 5 6 5.09 0.4
12 -6 -6 5.44 0.33
12 6 -6 5.69 0.28
12 6 -6 5.77 0.42
10 -6 -6 9.23 0.36
10 6 -6 8.23 0.33
10 6 -6 9.21 0.44
8 -6 -6 1.18 0.15
8 -6 -6 1.11 0.12
-8 -6 6 1.22 0.13
8 6 -6 1.28 0.16
8 6 -6 1.09 0.13
-8 6 6 1.05 0.11
-6 -6 6 26.34 0.83
6 -6 -6 26.16 0.77
6 -6 -6 25.34 0.87
6 6 -6 25.19 0.76
6 6 -6 27 0.91
-6 6 6 25.95 0.84
-4 -6 6 6.31 0.23
4 -6 -6 5.9 0.24
4 -6 -6 6.51 0.22
-4 6 6 6.14 0.24
4 6 -6 5.84 0.2
4 6 -6 5.84 0.27
2 -6 -6 18.02 0.52
2 -6 -6 17.34 0.59
-2 -6 6 17.69 0.56
2 6 -6 17.48 0.6
2 6 -6 16.79 0.5
-2 6 6 16.27 0.56
0 -6 6 0.33 0.06
0 -6 -6 0.62 0.07
0 6 -6 0.38 0.05
0 6 6 0.4 0.07
-2 -6 -6 11.54 0.36
2 -6 6 11.25 0.38
2 6 6 11.36 0.4
2 6 6 11.7 0.42
-2 6 -6 12.09 0.42
-2 6 -6 11.77 0.36
4 -6 6 -0.04 0.06
-4 -6 -6 -0.06 0.05
4 -6 6 -0.04 0.04
4 6 6 -0.09 0.07
4 6 6 0.08 0.06
6 -6 6 1.32 0.09
6 -6 6 1.66 0.15
6 6 6 1.37 0.11
6 6 6 0.99 0.13
8 -6 6 4.35 0.22
8 -6 6 4.46 0.25
8 6 6 4.62 0.29
10 -6 6 0.66 0.15
10 -6 6 0.41 0.14
10 6 6 0.5 0.18
10 6 6 0.26 0.12
12 -6 6 7.85 0.38
12 6 6 7.81 0.49
12 6 6 7.51 0.36
13 -7 -6 3.59 0.3
13 7 -6 3.22 0.41
11 -7 -6 4.98 0.29
11 7 -6 5.43 0.26
11 7 -6 5.26 0.37
9 -7 -6 3.89 0.22
-9 -7 6 4.08 0.2
9 7 -6 3.82 0.19
9 7 -6 4.39 0.3
-9 7 6 3.75 0.21
-7 -7 6 15.88 0.53
7 -7 -6 15.71 0.5
7 -7 -6 15.52 0.55
7 7 -6 15.25 0.6
-7 7 6 15.37 0.53
7 7 -6 16.29 0.48
5 -7 -6 1.15 0.11
5 -7 -6 0.92 0.11
-5 -7 6 0.97 0.1
5 7 -6 0.96 0.12
5 7 -6 1.03 0.09
-5 7 6 1.02 0.1
3 -7 -6 0.38 0.06
3 -7 -6 0.53 0.07
3 7 -6 0.33 0.08
-3 7 6 0.35 0.07
3 7 -6 0.56 0.05
1 -7 -6 0.07 0.05
-1 7 6 0.12 0.06
1 7 -6 0.04 0.06
1 7 -6 0.17 0.04
1 7 -6 0.06 0.07
-1 7 6 0.13 0.05
-1 -7 -6 2.71 0.12
-1 7 -6 2.47 0.15
1 7 6 2.68 0.14
1 7 6 2.67 0.14
-1 7 -6 2.62 0.11
3 -7 6 0.52 0.06
-3 -7 -6 0.49 0.06
3 7 6 0.63 0.09
-3 7 -6 0.57 0.06
3 7 6 0.4 0.07
5 -7 6 0.54 0.06
5 -7 6 0.7 0.09
-5 -7 -6 0.55 0.07
5 7 6 0.73 0.11
5 7 6 0.58 0.08
7 -7 6 1.73 0.16
7 -7 6 1.64 0.17
7 7 6 1.55 0.19
9 -7 6 1.97 0.21
9 -7 6 1.87 0.19
9 7 6 2.07 0.28
9 7 6 2.1 0.17
11 -7 6 1.07 0.17
11 -7 6 0.69 0.17
11 7 6 0.7 0.15
11 7 6 0.8 0.21
12 -8 -6 0.07 0.16
12 8 -6 -0.1 0.2
10 -8 -6 1.27 0.15
10 8 -6 1.52 0.21
10 8 -6 1.16 0.12
-8 -8 6 0 0.08
8 -8 -6 0.07 0.1
-8 8 6 0.15 0.09
8 8 -6 0.01 0.13
8 8 -6 0.08 0.08
6 -8 -6 5.72 0.24
6 -8 -6 5.73 0.23
-6 -8 6 5.99 0.23
-6 8 6 6.34 0.25
6 8 -6 5.9 0.21
4 -8 -6 0.13 0.06
4 -8 -6 0.04 0.05
4 8 -6 0.03 0.08
-4 8 6 0.06 0.07
4 8 -6 0.12 0.08
4 8 -6 0.08 0.04
2 -8 -6 0 0.05
2 8 -6 0 0.07
-2 8 6 -0.03 0.06
2 8 -6 -0.01 0.04
2 8 -6 -0.01 0.07
0 -8 -6 0.69 0.08
0 8 -6 0.81 0.07
0 8 6 0.67 0.09
0 8 -6 0.77 0.09
0 8 -6 0.61 0.08
0 8 6 0.66 0.08
-2 -8 -6 10.28 0.32
2 8 6 10.54 0.39
-2 8 -6 10.85 0.39
-2 8 -6 10.45 0.36
-2 8 -6 10.39 0.33
2 8 6 10.44 0.37
4 -8 6 6.75 0.27
-4 -8 -6 6.88 0.23
4 -8 6 7.04 0.24
4 8 6 6.26 0.26
4 8 6 6.39 0.28
6 -8 6 0.41 0.08
6 -8 6 0.39 0.09
-6 -8 -6 0.41 0.08
6 -8 6 0.59 0.07
6 8 6 0.51 0.08
6 8 6 0.35 0.11
8 -8 6 2.92 0.2
8 -8 6 3.13 0.21
8 8 6 2.97 0.26
10 -8 6 2.92 0.26
10 -8 6 3.41 0.24
10 8 6 2.99 0.32
10 8 6 2.91 0.22
12 -8 6 1.99 0.22
12 8 6 2.26 0.25
12 8 6 2.23 0.28
13 -9 -6 0.16 0.17
13 9 -6 0.36 0.24
11 -9 -6 14.26 0.51
11 9 -6 13.74 0.63
-9 -9 6 5.69 0.26
9 -9 -6 5.64 0.27
9 9 -6 5.49 0.23
9 9 -6 5.98 0.35
-9 9 6 5.76 0.26
7 -9 -6 8.33 0.32
7 -9 -6 8.85 0.32
-7 -9 6 9.13 0.32
7 9 -6 7.94 0.39
-7 9 6 9.07 0.34
7 9 -6 8.35 0.28
5 -9 -6 0.45 0.07
5 -9 -6 0.5 0.08
-5 9 6 0.41 0.09
5 9 -6 0.36 0.09
5 9 -6 0.53 0.06
5 9 -6 0.46 0.11
3 -9 -6 0.12 0.05
3 -9 -6 0.15 0.06
3 9 -6 0.05 0.09
3 9 -6 0.05 0.04
3 9 -6 0.18 0.08
-3 9 6 0.03 0.07
1 -9 -6 51.02 1.47
1 9 -6 51.14 1.7
-1 9 6 50.75 1.61
-1 9 6 53.38 1.68
1 9 -6 52.17 1.61
1 9 -6 51.18 1.46
-1 -9 -6 0.08 0.05
-1 9 -6 0.1 0.07
1 9 6 0.11 0.06
-1 9 -6 0.12 0.04
-1 9 -6 0.16 0.08
1 9 6 0.02 0.07
-3 -9 -6 4.54 0.17
3 9 6 4.87 0.2
3 9 6 4.63 0.22
-3 9 -6 4.53 0.21
-3 9 -6 4.46 0.2
5 -9 6 9.29 0.35
-5 -9 -6 9.27 0.3
5 -9 6 9.04 0.31
5 9 6 8.83 0.33
5 9 6 9.01 0.37
7 -9 6 21.57 0.67
7 -9 6 21.73 0.75
7 9 6 21.29 0.79
9 -9 6 1.75 0.2
9 -9 6 1.69 0.21
9 9 6 1.96 0.27
9 9 6 1.47 0.17
11 -9 6 2.92 0.27
11 9 6 3.31 0.38
11 9 6 2.83 0.24
12 -10 -6 2.4 0.27
12 10 -6 1.75 0.26
10 -10 -6 9.75 0.39
10 10 -6 9.02 0.47
8 -10 -6 1.48 0.17
-8 -10 6 1.56 0.15
-8 10 6 1.43 0.16
8 10 -6 1.44 0.18
8 10 -6 1.56 0.12
6 -10 -6 33.47 1.06
6 -10 -6 30.97 0.95
6 10 -6 30.77 0.93
-6 10 6 32.38 1.04
6 10 -6 33.99 1.12
4 -10 -6 0.7 0.09
4 -10 -6 0.74 0.08
4 10 -6 0.51 0.11
-4 10 6 0.79 0.11
4 10 -6 0.72 0.07
4 10 -6 0.75 0.1
2 -10 -6 4.07 0.16
2 10 -6 3.51 0.19
2 10 -6 4.07 0.14
-2 10 6 4.2 0.19
-2 10 6 3.92 0.16
2 10 -6 3.73 0.2
0 -10 -6 0.07 0.05
0 10 -6 0.04 0.04
0 10 6 0.05 0.07
0 10 -6 -0.04 0.07
0 10 6 0.08 0.06
0 10 -6 -0.06 0.06
-2 -10 -6 10.87 0.34
-2 10 -6 11.49 0.34
2 10 6 11.14 0.39
2 10 6 10.88 0.41
-2 10 -6 11.15 0.41
-2 10 -6 11.11 0.39
-4 -10 -6 5.17 0.19
4 -10 6 4.92 0.22
4 10 6 5.62 0.23
-4 10 -6 5.35 0.22
4 10 6 5.35 0.25
6 -10 6 2.64 0.18
-6 -10 -6 2.81 0.15
6 -10 6 2.98 0.13
6 -10 6 2.81 0.17
6 10 6 2.67 0.16
6 10 6 3.03 0.23
8 -10 6 6.76 0.29
8 -10 6 7.08 0.31
8 10 6 6.81 0.37
10 -10 6 5.71 0.3
10 10 6 5.49 0.27
10 10 6 5.28 0.41
12 -10 6 7.89 0.39
12 10 6 6.47 0.48
11 -11 -6 0.56 0.16
11 11 -6 0.48 0.21
9 -11 -6 0.14 0.12
-9 -11 6 -0.06 0.09
9 11 -6 0.15 0.16
-9 11 6 -0.09 0.11
7 -11 -6 3.14 0.19
-7 11 6 3.02 0.19
7 11 -6 2.95 0.25
7 11 -6 2.82 0.14
5 -11 -6 0.74 0.09
5 -11 -6 0.95 0.1
5 11 -6 0.88 0.07
5 11 -6 0.63 0.11
-5 11 6 0.72 0.11
5 11 -6 0.66 0.12
3 -11 -6 0.05 0.06
3 11 -6 0.05 0.04
3 11 -6 0.03 0.08
3 11 -6 0.06 0.08
-3 11 6 -0.02 0.08
-3 11 6 0.06 0.04
1 -11 -6 11.26 0.36
-1 11 6 11.88 0.42
1 11 -6 11.91 0.44
1 11 -6 11.95 0.42
1 11 -6 11.63 0.35
-1 11 6 11.78 0.41
-1 -11 -6 3.98 0.16
-1 11 -6 4.19 0.19
1 11 6 3.94 0.2
1 11 6 4.16 0.19
-1 11 -6 4.15 0.15
-1 11 -6 3.84 0.2
-3 -11 -6 0.09 0.05
3 11 6 0.12 0.08
-3 11 -6 0.05 0.07
-3 11 -6 0.1 0.08
3 11 6 -0.03 0.08
5 -11 6 3.4 0.18
5 -11 6 3.66 0.17
-5 -11 -6 3.77 0.16
5 11 6 3.31 0.19
5 11 6 3.04 0.21
7 -11 6 0.35 0.09
7 -11 6 0.67 0.1
7 11 6 0.37 0.09
7 11 6 0.53 0.14
9 -11 6 -0.01 0.12
9 11 6 -0.09 0.17
9 11 6 -0.09 0.1
11 -11 6 0.08 0.16
11 11 6 0.03 0.13
11 11 6 0.05 0.22
12 -12 -6 5.52 0.34
12 12 -6 5.84 0.45
10 -12 -6 2.25 0.23
10 12 -6 2.6 0.35
-8 -12 6 4.5 0.22
8 -12 -6 4.46 0.25
8 12 -6 4.3 0.31
-8 12 6 4.09 0.24
6 -12 -6 3.94 0.2
6 12 -6 4.66 0.28
6 12 -6 3.83 0.15
-6 12 6 3.86 0.22
6 12 -6 3.86 0.23
4 -12 -6 6.73 0.25
-4 12 6 6.92 0.24
-4 12 6 6.78 0.28
4 12 -6 6.83 0.21
4 12 -6 6.39 0.29
4 12 -6 7.35 0.31
2 -12 -6 6.07 0.21
-2 12 6 6.06 0.22
-2 12 6 5.72 0.25
2 12 -6 6.01 0.19
2 12 -6 6.19 0.27
2 12 -6 5.18 0.25
0 -12 -6 0.48 0.06
0 12 6 0.47 0.07
0 12 -6 0.64 0.07
0 12 6 0.55 0.09
0 12 -6 0.5 0.09
0 12 -6 0.42 0.09
-2 -12 -6 3.89 0.15
2 12 6 4.02 0.2
2 12 6 3.95 0.2
-2 12 -6 3.92 0.2
-2 12 -6 3.75 0.2
4 -12 6 0.02 0.07
-4 -12 -6 -0.02 0.06
-4 12 -6 0.01 0.08
4 12 6 0.08 0.09
4 12 6 0.13 0.08
6 -12 6 0.82 0.1
6 -12 6 0.93 0.1
6 -12 6 0.98 0.1
6 12 6 0.79 0.11
6 12 6 0.95 0.14
8 -12 6 2.46 0.2
8 -12 6 2.28 0.19
8 12 6 2.82 0.29
10 -12 6 0.38 0.15
10 12 6 0.34 0.2
10 12 6 0.43 0.12
11 -13 -6 12.69 0.5
11 13 -6 13.89 0.65
9 -13 -6 0.69 0.14
-9 -13 6 1.01 0.12
9 13 -6 1.09 0.2
7 -13 -6 4.68 0.23
-7 13 6 4.63 0.25
7 13 -6 4.07 0.3
7 13 -6 4.5 0.25
5 -13 -6 22.49 0.69
5 13 -6 22.28 0.77
5 13 -6 22.24 0.82
-5 13 6 24.65 0.77
3 -13 -6 0.91 0.09
3 13 -6 0.91 0.12
3 13 -6 0.99 0.12
-3 13 6 0.94 0.08
3 13 -6 1.12 0.06
-3 13 6 1.13 0.12
1 -13 -6 2.44 0.13
1 13 -6 2.76 0.17
1 13 -6 2.93 0.19
-1 13 6 2.83 0.14
1 13 -6 2.62 0.11
-1 13 6 3.15 0.18
-1 -13 -6 1.18 0.1
-1 13 -6 1.53 0.15
1 13 6 1.36 0.15
1 13 6 1.42 0.12
-1 13 -6 1.21 0.13
-3 -13 -6 0.77 0.09
-3 13 -6 0.58 0.1
3 13 6 0.72 0.11
-3 13 -6 0.65 0.1
3 13 6 0.62 0.1
-5 -13 -6 0.1 0.06
5 -13 6 -0.02 0.07
5 -13 6 0.06 0.08
5 13 6 0.15 0.11
-5 13 -6 -0.05 0.07
5 13 6 0.14 0.09
7 -13 6 13.94 0.5
7 -13 6 12.91 0.45
7 13 6 13.53 0.56
7 13 6 13.62 0.48
9 -13 6 4.79 0.27
9 13 6 4.76 0.23
9 13 6 4.84 0.38
11 -13 6 8.11 0.41
11 13 6 9.44 0.54
12 -14 -6 -0.01 0.18
12 14 -6 0 0.23
10 -14 -6 2.1 0.25
10 14 -6 1.98 0.26
8 -14 -6 0.95 0.13
-8 14 6 0.66 0.13
8 14 -6 0.92 0.19
6 -14 -6 3.62 0.2
6 14 -6 3.65 0.24
-6 14 6 3.45 0.23
6 14 -6 3.55 0.28
4 -14 -6 2.07 0.14
4 14 -6 1.96 0.2
4 14 -6 2.08 0.18
-4 14 6 1.74 0.17
2 -14 -6 2.93 0.15
2 14 -6 2.79 0.19
-2 14 6 2.81 0.19
2 14 -6 2.99 0.11
2 14 -6 2.86 0.19
-2 14 6 3 0.14
0 -14 -6 17.24 0.53
0 14 -6 18.05 0.61
0 14 6 18.38 0.61
0 14 -6 17.66 0.63
0 14 6 18.22 0.61
-2 -14 -6 5.68 0.2
-2 14 -6 5.88 0.26
2 14 6 5.97 0.26
-2 14 -6 5.96 0.26
2 14 6 5.66 0.25
4 -14 6 14.05 0.49
-4 -14 -6 13.3 0.42
4 -14 6 13.96 0.43
4 14 6 13.61 0.49
4 14 6 13.69 0.52
-4 14 -6 14 0.48
6 -14 6 1.97 0.17
6 -14 6 1.88 0.16
6 14 6 2.52 0.18
6 14 6 2.15 0.23
8 -14 6 0.58 0.13
8 14 6 0.35 0.18
10 -14 6 0.9 0.17
10 14 6 1.32 0.24
11 -15 -6 0.07 0.16
11 15 -6 0.06 0.22
-9 -15 6 15.39 0.54
9 -15 -6 14.89 0.52
9 15 -6 15.01 0.65
7 -15 -6 3.64 0.22
7 15 -6 3.5 0.26
-7 15 6 3.74 0.24
7 15 -6 4.18 0.3
5 -15 -6 0.91 0.11
5 15 -6 0.82 0.14
-5 15 6 0.96 0.13
5 15 -6 1 0.14
3 -15 -6 3.01 0.15
3 15 -6 3 0.21
3 15 -6 2.81 0.2
-3 15 6 2.88 0.2
1 -15 -6 0.01 0.06
1 15 -6 -0.08 0.08
-1 15 6 0.06 0.06
-1 15 6 -0.12 0.08
1 15 -6 -0.1 0.09
-1 -15 -6 0.1 0.05
1 15 6 0.2 0.1
-1 15 -6 -0.14 0.08
1 15 6 0.08 0.07
-1 15 -6 0.05 0.09
-3 -15 -6 9.07 0.29
3 -15 6 8.81 0.29
-3 15 -6 9.22 0.34
3 15 6 8.88 0.36
3 15 6 8.98 0.35
-3 15 -6 8.64 0.35
5 -15 6 4.21 0.21
5 -15 6 4.59 0.2
-5 -15 -6 4.34 0.18
5 15 6 4.07 0.23
5 15 6 3.97 0.26
-5 15 -6 4.04 0.21
7 -15 6 0.11 0.11
7 15 6 0 0.1
7 15 6 -0.14 0.15
9 -15 6 12.84 0.47
9 15 6 12.66 0.59
11 -15 6 -0.17 0.18
11 15 6 -0.06 0.24
10 -16 -6 5.35 0.32
10 16 -6 4.59 0.44
8 -16 -6 9.17 0.37
-8 16 6 9.3 0.39
8 16 -6 9.24 0.47
8 16 -6 9.6 0.41
6 -16 -6 2.77 0.2
6 16 -6 2.96 0.26
6 16 -6 2.84 0.24
-6 16 6 2.86 0.22
4 -16 -6 2.35 0.16
4 16 -6 3 0.24
4 16 -6 2.56 0.2
-4 16 6 2.36 0.2
2 -16 -6 17.24 0.52
-2 16 6 15.97 0.59
2 16 -6 17.34 0.62
2 16 -6 16.4 0.59
-2 16 6 16.81 0.57
0 -16 -6 0.12 0.06
0 16 6 0.24 0.1
0 16 6 0 0.07
0 16 -6 0.12 0.1
0 16 -6 0.11 0.09
-2 -16 -6 3.87 0.16
2 -16 6 3.73 0.16
2 16 6 3.81 0.22
-2 16 -6 3.91 0.22
-2 16 -6 4.12 0.21
2 16 6 3.7 0.22
4 -16 6 0.23 0.08
-4 -16 -6 0.14 0.06
4 -16 6 0.14 0.07
4 16 6 0.08 0.11
-4 16 -6 0.13 0.09
4 16 6 0.12 0.12
6 -16 6 0.47 0.1
6 16 6 0.33 0.14
6 16 6 0.46 0.12
8 -16 6 1.43 0.16
8 16 6 1.68 0.22
10 -16 6 0.7 0.18
10 16 6 0.8 0.24
11 -17 -6 2.5 0.3
11 17 -6 2.18 0.3
9 -17 -6 1.31 0.17
9 17 -6 1.59 0.24
7 -17 -6 0.04 0.11
7 17 -6 0.14 0.14
7 17 -6 0.09 0.16
-7 17 6 0.07 0.12
5 -17 -6 1.92 0.17
5 17 -6 1.88 0.22
-5 17 6 2.21 0.2
5 17 -6 2.34 0.24
3 -17 -6 0.07 0.08
3 17 -6 0.08 0.11
-3 17 6 0.22 0.11
3 17 -6 -0.03 0.11
1 -17 -6 3.37 0.15
-1 17 6 2.97 0.2
1 17 -6 2.89 0.21
1 17 -6 2.69 0.2
-1 17 6 3.06 0.16
1 -17 6 3.41 0.14
-1 -17 -6 3.4 0.14
1 17 6 3.25 0.21
-1 17 -6 3.4 0.2
-1 17 -6 3.15 0.22
1 17 6 3.59 0.2
3 -17 6 0.05 0.07
-3 -17 -6 -0.03 0.06
3 17 6 0.04 0.1
3 17 6 0.13 0.11
-3 17 -6 0.09 0.09
-3 17 -6 0.08 0.1
-5 -17 -6 2.76 0.15
5 -17 6 2.69 0.16
5 -17 6 2.98 0.17
5 17 6 2.83 0.22
-5 17 -6 2.88 0.19
5 17 6 2.18 0.25
7 -17 6 0.13 0.11
7 17 6 0.05 0.16
7 17 6 0.06 0.12
9 -17 6 0.08 0.15
9 17 6 0.14 0.2
10 -18 -6 0.24 0.16
10 18 -6 0.08 0.23
8 -18 -6 21.32 0.69
8 18 -6 20.15 0.75
-8 18 6 21.31 0.75
8 18 -6 22.09 0.84
6 -18 -6 0.35 0.11
-6 18 6 0.45 0.13
6 18 -6 0.43 0.16
6 18 -6 0.52 0.14
4 -18 -6 8.27 0.29
4 18 -6 8.28 0.39
4 18 -6 8.29 0.37
-4 18 6 7.23 0.35
2 -18 -6 0.67 0.08
2 18 -6 0.62 0.13
-2 18 6 0.55 0.12
2 18 -6 0.77 0.13
0 -18 -6 1.34 0.11
0 18 -6 1.62 0.18
0 18 -6 1.46 0.17
0 18 6 1.48 0.14
0 18 6 1.46 0.18
2 -18 6 1.25 0.11
-2 -18 -6 1.2 0.11
-2 18 -6 1.18 0.14
2 18 6 1.59 0.19
2 18 6 1.33 0.17
-2 18 -6 1.56 0.16
-4 -18 -6 2.48 0.14
4 -18 6 2.63 0.16
4 -18 6 2.63 0.15
4 18 6 2.58 0.23
4 18 6 2.25 0.23
-4 18 -6 2.94 0.2
6 -18 6 0.3 0.11
6 18 6 -0.02 0.15
6 18 6 0.19 0.13
8 -18 6 1.04 0.16
8 18 6 1.21 0.22
10 -18 6 10.56 0.45
10 18 6 10.2 0.59
9 -19 -6 4.24 0.28
9 19 -6 4.47 0.39
9 19 -6 4.39 0.32
7 -19 -6 2.38 0.21
7 19 -6 2.28 0.3
-7 19 6 2.85 0.24
7 19 -6 2.1 0.26
5 -19 -6 0.38 0.11
5 19 -6 0.52 0.15
-5 19 6 0.49 0.14
5 19 -6 0.58 0.16
3 -19 -6 11.7 0.38
-3 19 6 12.27 0.46
3 19 -6 10.4 0.45
3 19 -6 11.35 0.48
1 -19 -6 1.11 0.12
1 19 -6 1.39 0.18
-1 19 6 0.76 0.14
1 19 -6 1.16 0.14
-1 -19 -6 5.47 0.2
1 19 6 5.81 0.29
-1 19 -6 5.58 0.27
-1 19 -6 5.58 0.28
1 19 6 5.7 0.26
-3 -19 -6 2.75 0.14
3 -19 6 2.74 0.15
-3 19 -6 3.02 0.19
3 19 6 2.64 0.22
3 19 6 3.04 0.24
-3 19 -6 2.98 0.22
5 -19 6 7.37 0.28
-5 19 -6 7.09 0.32
5 19 6 7.72 0.34
5 19 6 7.33 0.38
7 -19 6 0.14 0.11
7 19 6 0.15 0.18
7 19 6 0.23 0.13
9 -19 6 2.94 0.26
9 19 6 3.42 0.38
10 -20 -6 0.08 0.17
10 20 -6 0.05 0.24
8 -20 -6 7.17 0.34
8 20 -6 7.32 0.4
-8 20 6 6.53 0.36
8 20 -6 8.21 0.45
6 -20 -6 0.04 0.11
6 20 -6 -0.15 0.16
6 20 -6 0.27 0.15
-6 20 6 0.03 0.14
4 -20 -6 3 0.19
4 20 -6 2.72 0.25
4 20 -6 3.67 0.26
-4 20 6 3.14 0.25
2 -20 -6 0.38 0.08
-2 20 6 0.26 0.13
2 20 -6 0.54 0.13
2 20 -6 0.47 0.14
0 -20 -6 0.2 0.07
0 20 -6 0.22 0.12
0 20 -6 0.23 0.11
0 20 6 0.63 0.14
-2 -20 -6 6.95 0.25
2 20 6 7.34 0.35
-2 20 -6 7.39 0.33
2 20 6 7.48 0.32
-2 20 -6 6.91 0.31
4 -20 6 3.34 0.18
4 20 6 3.29 0.26
-4 20 -6 3.53 0.24
4 20 6 4.08 0.27
6 -20 6 -0.19 0.1
6 20 6 -0.01 0.16
6 20 6 0.01 0.13
8 -20 6 0.57 0.15
8 20 6 0.49 0.22
9 -21 -6 3.74 0.29
9 21 -6 3.56 0.33
9 21 -6 3.43 0.39
7 -21 -6 2.61 0.23
7 21 -6 2.75 0.32
-7 21 6 2.42 0.27
7 21 -6 2.94 0.28
5 -21 -6 0.14 0.11
5 21 -6 0.15 0.15
-5 21 6 0.06 0.14
5 21 -6 0.03 0.16
3 -21 -6 0.34 0.09
3 21 -6 0.31 0.14
-3 21 6 0.12 0.14
3 21 -6 0.29 0.14
1 -21 -6 1.57 0.13
1 21 -6 1.75 0.2
1 21 -6 1.7 0.22
-1 21 6 1.76 0.19
-1 -21 -6 1.73 0.12
1 21 6 2.09 0.22
-1 21 -6 1.92 0.19
-1 21 -6 2.08 0.22
3 21 6 0.61 0.14
3 21 6 0.63 0.15
-3 21 -6 0.72 0.14
5 -21 6 -0.14 0.09
5 21 6 0.14 0.15
5 21 6 0.19 0.15
-5 21 -6 0.12 0.13
7 -21 6 2.77 0.23
7 21 6 2.82 0.26
7 21 6 2.46 0.33
9 -21 6 0.58 0.17
9 21 6 0.69 0.25
8 -22 -6 9.61 0.4
8 22 -6 9.46 0.52
8 22 -6 9.29 0.47
-8 22 6 9.48 0.45
6 -22 -6 0.34 0.12
6 22 -6 0.84 0.2
-6 22 6 0.46 0.17
6 22 -6 0.57 0.18
4 -22 -6 1.83 0.17
-4 22 6 1.55 0.19
4 22 -6 1.52 0.19
4 22 -6 1.7 0.2
2 -22 -6 5.18 0.22
2 22 -6 5.8 0.31
-2 22 6 4.93 0.31
2 22 -6 5.61 0.31
0 22 -6 0.95 0.14
0 22 -6 0.74 0.16
0 22 6 1.05 0.17
2 22 6 3.17 0.26
-2 22 -6 3.23 0.25
2 22 6 2.92 0.23
4 22 6 1.77 0.19
4 22 6 2.12 0.24
-4 22 -6 1.86 0.23
6 -22 6 0.06 0.11
6 22 6 0.22 0.15
6 22 6 -0.08 0.17
8 -22 6 0.72 0.17
8 22 6 1.02 0.23
9 -23 -6 2.46 0.26
9 23 -6 2.48 0.31
9 23 -6 3.2 0.34
7 -23 -6 3.17 0.25
-7 23 6 2.95 0.3
7 23 -6 3.21 0.38
7 23 -6 3.34 0.33
5 -23 -6 0.24 0.11
5 23 -6 0.64 0.18
-5 23 6 0.51 0.17
5 23 -6 0.72 0.18
3 -23 -6 19.31 0.61
3 23 -6 19.47 0.74
3 23 -6 19.75 0.72
-3 23 6 19.95 0.72
1 23 -6 0.42 0.13
1 23 -6 0.44 0.16
-1 23 6 0.5 0.16
-1 23 -6 0.91 0.17
1 23 6 0.55 0.17
-3 23 -6 0.04 0.14
3 23 6 0.1 0.13
3 23 6 0.06 0.16
5 23 6 0.71 0.17
5 23 6 0.59 0.18
-5 23 -6 0.83 0.16
7 23 6 2.36 0.27
8 -24 -6 1.43 0.18
8 24 -6 1.11 0.22
8 24 -6 1.59 0.26
6 -24 -6 11.06 0.4
6 24 -6 10.61 0.52
-6 24 6 10.39 0.49
6 24 -6 10.59 0.5
4 -24 -6 0.91 0.12
4 24 -6 1.08 0.19
-4 24 6 0.99 0.19
4 24 -6 1.07 0.18
2 24 -6 0.26 0.16
2 24 -6 0.27 0.14
-2 24 6 0.1 0.16
0 24 -6 0.14 0.16
0 24 -6 0.15 0.13
0 24 6 0.23 0.16
-2 24 -6 6.62 0.36
2 24 6 6.58 0.37
4 24 6 -0.22 0.16
4 24 6 -0.01 0.15
-4 24 -6 0.08 0.15
6 24 6 1.67 0.22
6 24 6 1.49 0.24
8 24 6 0.29 0.24
7 -25 -6 6.06 0.3
7 25 -6 5.89 0.44
7 25 -6 5.98 0.4
-7 25 6 5.39 0.37
5 -25 -6 0.17 0.11
5 25 -6 0.29 0.18
-5 25 6 0.29 0.18
5 25 -6 0.33 0.18
3 25 -6 0.29 0.17
3 25 -6 0.08 0.15
-3 25 6 0.38 0.18
-1 25 6 3.64 0.3
1 25 -6 3.66 0.26
1 25 -6 3.31 0.3
-1 25 -6 0.1 0.17
1 25 6 0.08 0.16
-3 25 -6 0.03 0.16
3 25 6 -0.07 0.17
-5 25 -6 1.91 0.2
5 25 6 1.66 0.23
5 25 6 1.61 0.21
7 25 6 1.86 0.28
6 26 -6 2.17 0.25
6 26 -6 1.62 0.23
-6 26 6 1.95 0.23
-4 26 6 1.77 0.22
4 26 -6 1.72 0.21
4 26 -6 1.44 0.22
2 26 -6 0.2 0.15
-2 26 6 0.06 0.17
2 26 -6 0.02 0.17
0 26 6 0.42 0.18
0 26 -6 0.38 0.18
-2 26 -6 3.66 0.3
2 26 6 3.7 0.32
4 26 6 3.01 0.32
-4 26 -6 2.81 0.29
6 26 6 0.63 0.2
6 26 6 0.24 0.22
-5 27 6 0.5 0.19
5 27 -6 0.73 0.21
5 27 -6 0.77 0.22
-3 27 6 0.16 0.18
3 27 -6 0.15 0.16
3 27 -6 0.48 0.2
1 27 -6 3.18 0.31
-1 27 6 2.83 0.27
1 27 6 -0.13 0.18
-1 27 -6 -0.11 0.17
-3 27 -6 1.55 0.21
3 27 6 1.39 0.23
5 27 6 2.24 0.25
6 28 -6 7.16 0.45
6 28 -6 6.66 0.45
-6 28 6 7.19 0.43
4 28 -6 0.27 0.19
4 28 -6 0.29 0.2
-4 28 6 0.42 0.2
-2 28 6 0.63 0.2
2 28 -6 0.67 0.2
0 28 -6 0.68 0.21
0 28 6 0.52 0.2
-2 28 -6 5.71 0.39
2 28 6 5.76 0.41
-4 28 -6 2.53 0.31
4 28 6 2.23 0.27
5 29 -6 1.44 0.24
5 29 -6 1.54 0.26
-5 29 6 1.31 0.23
3 29 -6 0.28 0.21
-3 29 6 0.33 0.21
1 29 -6 3.22 0.34
-1 29 6 3.59 0.35
-1 29 -6 0.38 0.21
1 29 6 0.27 0.21
3 29 6 0.18 0.21
-3 29 -6 -0.03 0.19
-2 30 6 -0.1 0.21
2 30 -6 0.59 0.22
0 30 6 1.55 0.25
0 30 -6 1.41 0.24
-2 30 -6 0.87 0.22
2 30 6 0.62 0.22
12 0 -7 0.13 0.15
12 0 -7 0.04 0.16
10 0 -7 0.01 0.11
10 0 -7 0.2 0.13
8 0 -7 0.09 0.09
-8 0 7 -0.05 0.08
8 0 -7 0.17 0.12
6 0 -7 0.1 0.09
-6 0 7 0.01 0.08
6 0 -7 0.04 0.07
4 0 -7 0.02 0.08
-4 0 7 -0.04 0.06
4 0 -7 0.02 0.05
-2 0 7 -0.15 0.05
2 0 -7 0.11 0.05
2 0 -7 0.02 0.07
0 0 -7 0.08 0.05
0 0 -7 0.12 0.07
0 0 7 0.01 0.06
-2 0 -7 -0.09 0.04
2 0 7 0.02 0.06
2 0 7 -0.03 0.05
4 0 7 0.13 0.05
4 0 7 -0.05 0.07
-4 0 -7 -0.01 0.06
6 0 7 0.06 0.05
6 0 7 0 0.09
8 0 7 0.09 0.12
10 0 7 -0.01 0.16
10 0 7 -0.19 0.12
12 0 7 -0.05 0.16
12 0 7 -0.01 0.2
13 -1 -7 5.15 0.33
13 1 -7 5.22 0.32
11 -1 -7 33.98 1
11 -1 -7 30.25 1.14
11 1 -7 32.42 0.99
11 1 -7 33.09 1.15
9 -1 -7 26.11 0.81
9 -1 -7 26.15 0.94
-9 -1 7 26.35 0.87
9 1 -7 26.84 0.81
9 1 -7 26.8 0.95
-9 1 7 27.67 0.87
-7 -1 7 16.24 0.55
7 -1 -7 15.43 0.59
7 -1 -7 16.72 0.51
7 1 -7 17.72 0.6
-7 1 7 16.28 0.55
7 1 -7 15.82 0.51
5 -1 -7 86.82 2.77
5 -1 -7 84.9 2.41
-5 -1 7 87 2.62
5 1 -7 82.73 2.78
-5 1 7 84.31 2.62
5 1 -7 84.55 2.41
3 -1 -7 23.94 0.84
-3 -1 7 24.71 0.79
3 -1 -7 24.9 0.73
3 1 -7 25.39 0.72
3 1 -7 23.94 0.84
-3 1 7 25.8 0.79
1 -1 -7 110.58 3.48
1 -1 -7 102.87 3.03
-1 -1 7 108.19 3.29
1 1 -7 105.88 3.48
1 1 -7 106.37 3.03
-1 1 7 110.58 3.3
1 -1 7 34.77 1.07
-1 -1 -7 32.15 0.98
-1 1 -7 33.96 1.14
-1 1 -7 34.59 0.98
1 1 7 35.47 1.07
3 -1 7 141.1 4.3
3 -1 7 138.31 4.52
3 1 7 137.28 4.27
3 1 7 138 4.52
-3 1 -7 143.97 3.97
5 -1 7 36.72 1.25
-5 -1 -7 35.39 1.08
5 -1 7 37.9 1.16
5 1 7 37.63 1.25
5 1 7 36.39 1.16
-5 1 -7 39.5 1.08
7 -1 7 5.07 0.27
7 1 7 4.93 0.28
9 -1 7 32.7 0.95
9 -1 7 30.55 1.1
9 1 7 31.5 0.95
9 1 7 29.87 1.1
11 -1 7 0.61 0.16
11 -1 7 0.87 0.2
11 1 7 0.8 0.16
11 1 7 0.5 0.21
12 -2 -7 1.73 0.18
12 2 -7 1.8 0.18
12 2 -7 1.7 0.23
10 -2 -7 28.37 0.88
10 -2 -7 28.97 1
10 2 -7 28 0.87
10 2 -7 28.3 1.02
-8 -2 7 19.31 0.66
8 -2 -7 19.02 0.71
8 -2 -7 20.34 0.62
8 2 -7 19.54 0.61
8 2 -7 20.53 0.73
-8 2 7 20.72 0.66
6 -2 -7 106.21 2.97
-6 -2 7 105 3.23
6 -2 -7 101.1 3.41
-6 2 7 106.78 3.23
6 2 -7 106.64 3.42
6 2 -7 103.98 2.97
-4 -2 7 37 1.19
4 -2 -7 36.32 1.09
4 -2 -7 38.09 1.26
4 2 -7 39.34 1.26
4 2 -7 37.29 1.09
-4 2 7 38.47 1.19
2 -2 -7 123.39 3.49
2 -2 -7 120.03 4.01
-2 -2 7 125.89 3.8
2 2 -7 122.21 4.02
2 2 -7 128.95 3.56
-2 2 7 124.09 3.8
0 -2 7 141.61 4.36
0 -2 -7 140.7 4.61
0 -2 -7 134.98 3.99
0 2 7 140.32 4.36
0 2 -7 144.19 4.56
0 2 -7 143.42 4.02
-2 -2 -7 1.2 0.09
2 -2 7 1.3 0.09
2 2 7 1.19 0.1
-2 2 -7 1.13 0.09
2 2 7 1.07 0.11
-4 -2 -7 98.16 2.79
4 -2 7 95.25 3.2
4 -2 7 100.31 3.02
-4 2 -7 99.05 2.79
4 2 7 97.38 3.21
4 2 7 101.08 3.02
6 -2 7 9.39 0.39
6 -2 7 10.05 0.32
6 2 7 9.28 0.39
6 2 7 9.46 0.33
8 -2 7 24.48 0.87
8 2 7 24.46 0.88
10 -2 7 18.85 0.61
10 -2 7 17.89 0.72
10 2 7 18.91 0.73
10 2 7 17.7 0.6
12 -2 7 4.1 0.32
12 -2 7 5.1 0.38
12 2 7 4.12 0.4
12 2 7 4.07 0.3
13 -3 -7 0.83 0.19
13 3 -7 0.46 0.21
13 3 -7 0.65 0.17
11 -3 -7 5.13 0.29
11 3 -7 5.94 0.29
11 3 -7 5.34 0.37
9 -3 -7 0.08 0.12
-9 -3 7 0.01 0.09
9 -3 -7 0.18 0.11
9 3 -7 0.03 0.14
-9 3 7 0.07 0.09
9 3 -7 -0.05 0.1
-7 -3 7 0.01 0.08
7 -3 -7 0.21 0.08
7 -3 -7 0 0.09
7 3 -7 0.18 0.11
-7 3 7 0.22 0.09
7 3 -7 0.18 0.08
5 -3 -7 6.36 0.24
5 -3 -7 6.62 0.27
-5 -3 7 6.54 0.25
-5 3 7 6.73 0.26
5 3 -7 6.48 0.29
5 3 -7 6.42 0.23
3 -3 -7 8.25 0.26
-3 -3 7 7.5 0.28
3 -3 -7 7.85 0.31
3 3 -7 8.36 0.32
3 3 -7 7.7 0.26
-3 3 7 7.73 0.29
1 -3 -7 5.13 0.22
-1 -3 7 5 0.2
1 -3 -7 5.3 0.18
-1 3 7 5.05 0.2
1 3 -7 5 0.18
1 -3 7 -0.03 0.05
-1 -3 -7 -0.05 0.05
1 3 7 -0.1 0.05
-1 3 -7 0 0.05
1 3 7 0.02 0.06
-1 3 -7 -0.04 0.07
3 -3 7 5.86 0.22
3 -3 7 6.12 0.25
-3 -3 -7 6.11 0.21
-3 3 -7 5.82 0.21
3 3 7 5.45 0.23
3 3 7 6.05 0.25
5 -3 7 11.89 0.4
5 -3 7 12.3 0.46
-5 -3 -7 13 0.39
-5 3 -7 12.24 0.39
5 3 7 12.1 0.41
5 3 7 12.43 0.47
7 -3 7 4.92 0.27
7 3 7 5.43 0.29
9 -3 7 6.45 0.33
9 -3 7 5.85 0.28
9 3 7 5.69 0.27
9 3 7 6.5 0.36
11 -3 7 1.87 0.23
11 -3 7 2.87 0.25
11 3 7 2.53 0.24
11 3 7 2.91 0.33
12 -4 -7 4.69 0.3
12 4 -7 4.99 0.28
12 4 -7 4.25 0.38
10 -4 -7 15.1 0.51
10 -4 -7 13.92 0.56
10 4 -7 13.64 0.59
10 4 -7 15.13 0.49
8 -4 -7 44.33 1.43
8 -4 -7 40.96 1.25
-8 -4 7 43.43 1.35
8 4 -7 41.96 1.24
-8 4 7 41.89 1.35
8 4 -7 44.07 1.46
-6 -4 7 35.05 1.1
6 -4 -7 33.94 1.16
6 -4 -7 32.67 1.01
6 4 -7 36.08 1.01
6 4 -7 35.42 1.18
-6 4 7 34.97 1.1
-4 -4 7 49.25 1.52
4 -4 -7 50.36 1.6
4 -4 -7 49.13 1.4
-4 4 7 47.61 1.52
4 4 -7 46.98 1.39
4 4 -7 48.44 1.61
2 -4 -7 56.2 1.8
2 -4 -7 53.62 1.56
-2 -4 7 53.96 1.7
2 4 -7 56.95 1.81
2 4 -7 54.06 1.56
-2 4 7 54.16 1.7
0 -4 -7 16.47 0.59
0 -4 -7 16.79 0.5
0 -4 7 17.21 0.55
0 4 -7 16.99 0.59
0 4 -7 17.32 0.5
0 4 7 16.66 0.55
-2 -4 -7 84.03 2.4
2 -4 7 88.32 2.6
-2 4 -7 84.78 2.76
-2 4 -7 84.43 2.4
2 4 7 82.81 2.75
2 4 7 83.81 2.61
4 -4 7 40.76 1.34
-4 -4 -7 38.71 1.16
4 -4 7 40.17 1.25
4 4 7 41.46 1.26
4 4 7 40.64 1.35
-4 4 -7 40.38 1.17
6 -4 7 29.19 0.93
6 -4 7 31.36 1.03
-6 -4 -7 30.19 0.88
6 4 7 28.83 1.03
6 4 7 30.12 0.94
8 -4 7 12.05 0.48
8 -4 7 12 0.41
8 4 7 10.97 0.49
10 -4 7 4.7 0.31
10 -4 7 3.84 0.26
10 4 7 3.36 0.24
10 4 7 4.42 0.34
12 -4 7 4.15 0.36
12 -4 7 4.07 0.32
12 4 7 4.29 0.41
12 4 7 4.04 0.29
13 -5 -7 7.92 0.39
13 5 -7 8.32 0.5
11 -5 -7 18.8 0.61
11 5 -7 17.23 0.72
11 5 -7 17.53 0.58
9 -5 -7 30.13 0.91
-9 -5 7 30.82 0.97
9 -5 -7 29.77 1.03
9 5 -7 29.42 0.9
9 5 -7 29.14 1.07
-9 5 7 30.8 0.97
-7 -5 7 31.87 0.98
7 -5 -7 30.38 1.04
7 -5 -7 31.67 0.91
-7 5 7 29.31 0.98
7 5 -7 31.28 1.07
7 5 -7 29.46 0.9
-5 -5 7 63.27 1.88
5 -5 -7 59.89 1.74
5 -5 -7 60.43 1.99
5 5 -7 59.67 2.01
5 5 -7 58.44 1.73
-5 5 7 62.43 1.89
3 -5 -7 93.86 2.96
-3 -5 7 93.13 2.8
3 -5 -7 86.48 2.58
-3 5 7 90.42 2.81
3 5 -7 90.54 2.57
3 5 -7 92.52 2.97
1 -5 -7 120.89 3.57
1 -5 -7 124.4 4.1
-1 -5 7 127.42 3.88
-1 5 7 129.62 3.89
1 5 -7 128.19 3.59
1 5 -7 130.57 4.11
1 -5 7 57.5 1.75
-1 -5 -7 56.24 1.61
-1 5 -7 54.06 1.86
-1 5 -7 57.81 1.61
1 5 7 55.84 1.75
1 5 7 57.33 1.85
3 -5 7 57.71 1.85
-3 -5 -7 55.92 1.61
3 -5 7 55.47 1.74
3 5 7 56.06 1.75
3 5 7 57.88 1.86
-3 5 -7 55.54 1.61
5 -5 7 29.28 0.98
-5 -5 -7 28.79 0.85
5 -5 7 29.03 0.91
5 5 7 29.64 0.92
5 5 7 28.06 0.99
7 -5 7 19.34 0.68
7 5 7 17.89 0.69
9 -5 7 21.33 0.77
9 -5 7 19.72 0.67
9 5 7 21.5 0.66
9 5 7 20.74 0.8
11 -5 7 10.11 0.47
11 -5 7 9.26 0.4
11 5 7 9.61 0.5
11 5 7 8.79 0.39
12 -6 -7 0.25 0.16
12 6 -7 0.17 0.2
10 -6 -7 9.4 0.37
10 6 -7 9.57 0.46
10 6 -7 9 0.34
8 -6 -7 -0.11 0.09
8 -6 -7 -0.1 0.1
-8 -6 7 0.05 0.09
8 6 -7 -0.19 0.13
-8 6 7 0.07 0.09
8 6 -7 0.04 0.08
-6 -6 7 12.01 0.42
6 -6 -7 12.43 0.44
6 -6 -7 11.42 0.39
-6 6 7 12.58 0.43
6 6 -7 12.08 0.38
6 6 -7 10.93 0.47
4 -6 -7 2.6 0.14
-4 -6 7 2.76 0.15
4 -6 -7 2.52 0.16
-4 6 7 2.8 0.16
4 6 -7 2.68 0.12
4 6 -7 2.84 0.18
2 -6 -7 5.25 0.23
2 -6 -7 5.66 0.2
-2 -6 7 5.46 0.21
-2 6 7 5.16 0.22
2 6 -7 5.42 0.25
2 6 -7 5.71 0.19
0 -6 -7 12.46 0.39
0 -6 7 12.64 0.42
0 6 7 13.46 0.43
0 6 7 12.51 0.45
0 6 -7 11.71 0.46
0 6 -7 13.19 0.38
2 -6 7 0.51 0.06
-2 -6 -7 0.61 0.07
-2 6 -7 0.49 0.07
-2 6 -7 0.54 0.09
2 6 7 0.34 0.07
2 6 7 0.41 0.08
4 -6 7 20.49 0.72
4 -6 7 20.53 0.66
-4 -6 -7 20.72 0.62
-4 6 -7 20.55 0.62
4 6 7 20.83 0.68
4 6 7 21.54 0.73
-6 -6 -7 3.69 0.18
6 -6 7 3.85 0.22
6 -6 7 3.54 0.16
6 6 7 3.77 0.18
6 6 7 3.75 0.24
8 -6 7 0.26 0.12
8 -6 7 0.32 0.12
8 6 7 0.11 0.13
10 -6 7 0.24 0.14
10 -6 7 0.21 0.15
10 6 7 -0.15 0.18
10 6 7 0.21 0.13
12 -6 7 0.87 0.19
12 6 7 1.45 0.26
12 6 7 1.04 0.17
13 -7 -7 12.6 0.5
13 7 -7 11.48 0.59
11 -7 -7 3.23 0.26
11 7 -7 3.07 0.36
9 -7 -7 42.85 1.23
-9 -7 7 40.73 1.31
-9 7 7 39.39 1.31
9 7 -7 41.55 1.43
9 7 -7 41.92 1.21
-7 -7 7 44.32 1.4
7 -7 -7 44.94 1.3
7 -7 -7 44.37 1.47
-7 7 7 44.89 1.41
7 7 -7 44.06 1.28
7 7 -7 44.88 1.52
-5 -7 7 3.22 0.17
5 -7 -7 3.38 0.17
5 7 -7 3.37 0.21
-5 7 7 3.21 0.19
5 7 -7 3.25 0.14
-3 -7 7 110.81 3.43
3 -7 -7 115.55 3.62
3 -7 -7 109.93 3.16
3 7 -7 107.75 3.14
-3 7 7 114.1 3.44
3 7 -7 111.9 3.63
-1 -7 7 18.96 0.61
1 -7 -7 19.16 0.57
1 7 -7 17.84 0.66
1 7 -7 19.11 0.56
-1 7 7 19.48 0.63
-1 7 7 19.47 0.64
-1 -7 -7 105.7 3
1 -7 7 106.85 3.26
-1 7 -7 107.38 2.99
-1 7 -7 107.98 3.45
1 7 7 103.08 3.27
1 7 7 106.16 3.44
3 -7 7 13.87 0.46
-3 -7 -7 13.24 0.43
3 7 7 14.71 0.47
3 7 7 13.96 0.5
-3 7 -7 13.79 0.43
5 -7 7 40.9 1.28
5 -7 7 38.42 1.19
-5 -7 -7 38.63 1.11
5 7 7 36.54 1.21
5 7 7 37.43 1.3
7 -7 7 41.46 1.23
7 -7 7 43.53 1.42
7 7 7 41.16 1.44
9 -7 7 0.46 0.14
9 -7 7 0.1 0.13
9 7 7 0.33 0.17
9 7 7 0.32 0.11
11 -7 7 0.93 0.19
11 -7 7 1 0.17
11 7 7 0.82 0.16
11 7 7 0.63 0.23
12 -8 -7 23.06 0.77
12 8 -7 22.51 0.9
10 -8 -7 3.3 0.25
10 8 -7 3.38 0.2
10 8 -7 3.5 0.32
-8 -8 7 63.06 1.93
8 -8 -7 59.85 1.79
8 8 -7 60.44 2.07
-8 8 7 61.02 1.94
8 8 -7 64.3 1.77
6 -8 -7 24.07 0.75
6 -8 -7 24.57 0.84
-6 -8 7 25.37 0.81
6 8 -7 25.18 0.88
-6 8 7 24.98 0.82
6 8 -7 25.54 0.73
4 -8 -7 199.84 6.41
-4 -8 7 196.03 6.08
4 -8 -7 198.76 5.6
4 8 -7 199.48 6.43
4 8 -7 191.15 5.58
-4 8 7 208.27 6.09
2 -8 -7 51.03 1.72
2 -8 -7 51.54 1.51
2 8 -7 52.11 1.5
-2 8 7 53.27 1.65
2 8 -7 55.64 1.75
0 -8 -7 15.22 0.45
0 8 -7 14.39 0.44
0 8 7 14.2 0.51
0 8 -7 15.37 0.53
0 8 7 14.18 0.5
2 -8 7 155.85 4.74
-2 -8 -7 162.96 4.31
2 8 7 155.77 4.69
2 8 7 148.26 4.94
-2 8 -7 149.04 4.34
-2 8 -7 146.01 4.95
4 -8 7 19.59 0.63
-4 -8 -7 19.58 0.59
4 -8 7 20.23 0.68
4 8 7 19.5 0.65
4 8 7 19.27 0.69
-6 -8 -7 19.01 0.57
6 -8 7 19.08 0.66
6 8 7 17.94 0.68
6 8 7 18.14 0.61
8 -8 7 17.97 0.58
8 -8 7 18.16 0.66
8 8 7 17.85 0.7
10 -8 7 28.4 1.04
10 -8 7 29.58 0.92
10 8 7 30.28 1.09
10 8 7 29.07 0.9
12 -8 7 5.54 0.34
12 8 7 5.92 0.32
12 8 7 5.3 0.47
11 -9 -7 0.43 0.16
11 9 -7 0.49 0.21
-9 -9 7 4.25 0.23
9 -9 -7 5.03 0.27
9 9 -7 4.73 0.21
-9 9 7 4.27 0.24
9 9 -7 5.27 0.35
7 -9 -7 5.82 0.25
-7 -9 7 5.45 0.25
-7 9 7 5.44 0.26
7 9 -7 5.52 0.31
7 9 -7 5.62 0.21
5 -9 -7 0.36 0.07
-5 -9 7 0.35 0.08
5 -9 -7 0.18 0.07
-5 9 7 0.35 0.09
5 9 -7 0.36 0.11
5 9 -7 0.27 0.06
3 -9 -7 14.51 0.45
3 -9 -7 14.85 0.51
3 9 -7 13.68 0.53
3 9 -7 15.07 0.43
-3 9 7 14.23 0.5
1 -9 -7 3.38 0.15
1 9 -7 3.69 0.19
1 9 -7 3.49 0.14
-1 9 7 3.42 0.17
1 9 -7 3.65 0.2
-1 -9 -7 19.12 0.57
1 9 7 19.32 0.64
1 9 7 19.98 0.66
-1 9 -7 18.71 0.57
-1 9 -7 18.59 0.67
3 -9 7 3.01 0.15
-3 -9 -7 3.17 0.14
-3 9 -7 3.29 0.15
-3 9 -7 3.38 0.2
3 9 7 3.02 0.18
3 9 7 3.14 0.19
5 -9 7 6.55 0.28
5 -9 7 6.41 0.24
-5 -9 -7 6.38 0.24
5 9 7 6.76 0.27
5 9 7 7.03 0.31
7 -9 7 2.31 0.19
7 -9 7 1.84 0.18
7 9 7 1.92 0.24
9 -9 7 0.8 0.14
9 -9 7 0.64 0.14
9 9 7 0.59 0.2
9 9 7 0.72 0.12
11 -9 7 0.06 0.16
11 9 7 -0.07 0.13
11 9 7 0.2 0.21
12 -10 -7 6.24 0.36
12 10 -7 7.04 0.48
10 -10 -7 3.13 0.27
10 10 -7 3.35 0.36
8 -10 -7 18.25 0.58
-8 -10 7 17.68 0.6
-8 10 7 17.9 0.62
8 10 -7 17.61 0.54
8 10 -7 17.04 0.69
-6 -10 7 14.56 0.49
6 -10 -7 14.95 0.51
6 -10 -7 13.38 0.46
6 10 -7 14.58 0.44
-6 10 7 14.62 0.51
6 10 -7 14.41 0.56
4 -10 -7 53.34 1.78
4 -10 -7 55.52 1.57
-4 10 7 55.94 1.71
4 10 -7 52.09 1.81
4 10 -7 55.16 1.54
2 -10 -7 38.13 1.1
2 10 -7 36.47 1.28
-2 10 7 38.79 1.21
-2 10 7 38.93 1.25
2 10 -7 39.22 1.09
2 10 -7 37.04 1.22
0 -10 -7 2.68 0.13
0 10 -7 2.21 0.17
0 10 7 2.45 0.16
0 10 -7 2.49 0.11
0 10 -7 2.24 0.16
0 10 7 2.62 0.15
-2 -10 -7 68.89 1.91
-2 10 -7 67.81 2.21
-2 10 -7 64.58 1.91
2 10 7 69.96 2.21
-2 10 -7 66.33 2.09
2 10 7 66.6 2.1
-4 -10 -7 6.41 0.23
4 -10 7 6.45 0.24
4 -10 7 6.19 0.27
4 10 7 6.72 0.27
4 10 7 6.09 0.29
6 -10 7 9.71 0.34
6 -10 7 9.38 0.38
-6 -10 -7 9.84 0.32
6 10 7 9.4 0.41
6 10 7 9.32 0.36
8 -10 7 4.33 0.24
8 -10 7 4.35 0.26
8 10 7 4.01 0.31
10 -10 7 12.53 0.46
10 10 7 12.22 0.44
10 10 7 11.35 0.57
11 -11 -7 5.49 0.33
11 11 -7 6.02 0.45
9 -11 -7 46.66 1.44
-9 -11 7 47.94 1.54
-9 11 7 50.29 1.56
9 11 -7 50.31 1.69
7 -11 -7 60.66 1.72
-7 -11 7 61.07 1.86
7 11 -7 58.48 2
7 11 -7 58.45 1.69
-7 11 7 58.29 1.87
5 -11 -7 6.03 0.24
5 -11 -7 6.07 0.24
5 11 -7 5.97 0.3
5 11 -7 5.87 0.2
-5 11 7 5.95 0.27
3 -11 -7 116.33 3.3
3 11 -7 110.33 3.6
3 11 -7 118.8 3.28
3 11 -7 113.97 3.8
-3 11 7 121.12 3.6
-3 11 7 119.23 3.76
1 -11 -7 38.83 1.13
-1 11 7 38.13 1.25
-1 11 7 38.17 1.29
1 11 -7 39.8 1.25
1 11 -7 41.27 1.32
1 11 -7 39.14 1.12
-1 -11 -7 95.67 2.66
1 11 7 95.5 2.91
-1 11 -7 94.48 3.07
1 11 7 89.99 3.06
-1 11 -7 96.33 2.66
-1 11 -7 92.63 2.91
-3 -11 -7 49.4 1.4
3 11 7 46.91 1.54
-3 11 -7 48.9 1.62
3 11 7 48.72 1.62
-3 11 -7 50.08 1.53
5 -11 7 37.06 1.28
5 -11 7 37.83 1.19
-5 -11 -7 38.37 1.11
5 11 7 37.65 1.22
5 11 7 40.37 1.3
7 -11 7 54.32 1.8
7 -11 7 55.72 1.58
7 11 7 52.49 1.83
9 -11 7 0.38 0.14
9 -11 7 0.36 0.13
9 11 7 0.41 0.2
9 11 7 0.78 0.12
11 -11 7 6.98 0.37
11 11 7 7.2 0.47
11 11 7 7.23 0.33
12 -12 -7 1.12 0.19
12 12 -7 0.9 0.26
10 -12 -7 0.22 0.15
10 12 -7 0.5 0.2
8 -12 -7 13.86 0.47
-8 -12 7 13.57 0.49
8 12 -7 13.07 0.57
-8 12 7 13.93 0.51
6 -12 -7 0.18 0.1
6 12 -7 0.34 0.13
-6 12 7 0.16 0.11
4 -12 -7 25.21 0.75
-4 12 7 25.33 0.82
4 12 -7 23.41 0.88
4 12 -7 25.15 0.83
4 12 -7 25.65 0.72
-4 12 7 24.39 0.82
2 -12 -7 28.8 0.84
2 12 -7 30.11 0.93
-2 12 7 28.26 0.94
2 12 -7 27.2 0.98
-2 12 7 27.06 0.92
2 12 -7 29.09 0.82
0 -12 -7 1.02 0.1
0 12 7 0.76 0.1
0 12 -7 0.74 0.11
0 12 -7 0.93 0.08
0 12 -7 0.81 0.11
0 12 7 0.88 0.11
-2 -12 -7 33.59 0.98
2 12 7 32.55 1.09
-2 12 -7 34.99 1.09
2 12 7 34.62 1.14
-2 12 -7 33.44 1.14
4 -12 7 1.29 0.13
-4 -12 -7 1.35 0.12
4 12 7 1.53 0.19
4 12 7 1.51 0.16
6 -12 7 9.33 0.34
-6 -12 -7 9.91 0.32
6 -12 7 9.41 0.37
6 12 7 8.91 0.36
6 12 7 9.36 0.41
8 -12 7 3.47 0.22
8 -12 7 3.29 0.24
8 12 7 3.02 0.32
10 -12 7 1.02 0.18
10 12 7 0.96 0.14
10 12 7 0.84 0.22
11 -13 -7 7.92 0.4
11 13 -7 8.63 0.5
9 -13 -7 7.33 0.33
-9 -13 7 6.94 0.31
-9 13 7 7.41 0.34
9 13 -7 6.5 0.42
-7 -13 7 8.04 0.32
7 -13 -7 8.42 0.32
-7 13 7 8.01 0.35
7 13 -7 8.01 0.4
5 -13 -7 10.54 0.36
5 13 -7 10.96 0.45
-5 13 7 10.26 0.4
5 13 -7 9.99 0.41
3 -13 -7 14.94 0.47
3 13 -7 15.15 0.44
-3 13 7 14.94 0.53
-3 13 7 14.83 0.51
3 13 -7 14.68 0.56
3 13 -7 15.25 0.53
1 -13 -7 58.27 1.66
1 13 -7 58.1 1.65
-1 13 7 56.16 1.82
1 13 -7 57.17 1.83
1 13 -7 58.91 1.92
-1 13 7 59.81 1.9
-1 -13 -7 11.08 0.34
-1 13 -7 10.23 0.4
-1 13 -7 11.12 0.42
1 13 7 10.64 0.4
-1 13 -7 10.24 0.33
1 13 7 11.05 0.4
-3 -13 -7 5.89 0.22
-3 13 -7 5.48 0.27
3 13 7 5.97 0.27
3 13 7 5.69 0.28
-3 13 -7 6.44 0.26
-5 -13 -7 14.94 0.47
5 -13 7 15.33 0.48
5 -13 7 15.2 0.54
5 13 7 14.53 0.53
5 13 7 15.41 0.58
7 -13 7 0.42 0.11
7 -13 7 0.74 0.12
7 13 7 0.67 0.17
9 -13 7 11.41 0.45
9 13 7 12.28 0.41
9 13 7 11.32 0.55
11 -13 7 0.48 0.19
11 13 7 0.26 0.25
10 -14 -7 16.4 0.59
10 14 -7 17.25 0.74
-8 -14 7 30.77 1.02
8 -14 -7 31.73 0.96
8 14 -7 30.3 1.14
-8 14 7 33.5 1.05
6 -14 -7 44.73 1.3
6 14 -7 43.69 1.51
6 14 -7 43.53 1.42
-6 14 7 44.65 1.42
4 -14 -7 56.51 1.65
4 14 -7 60.33 1.81
-4 14 7 56.98 1.81
4 14 -7 55.06 1.91
2 -14 -7 44.32 1.23
2 14 -7 42.1 1.21
2 14 -7 42.18 1.43
2 14 -7 41.88 1.36
-2 14 7 43.8 1.36
-2 14 7 41.5 1.4
0 -14 -7 35.13 1.02
0 14 7 35.08 1.16
0 14 -7 36.34 1.13
0 14 -7 35.78 1.18
0 14 7 32.67 1.13
0 14 -7 34.91 1
-2 -14 -7 61.23 1.66
-2 14 -7 58.54 1.83
2 14 7 57.5 1.83
-2 14 -7 55.6 1.92
2 14 7 57.85 1.92
4 -14 7 58.44 1.68
4 -14 7 58.58 1.92
-4 -14 -7 59.03 1.68
4 14 7 56.42 1.95
-4 14 -7 57.61 1.84
4 14 7 61.47 1.85
6 -14 7 15.34 0.52
-6 -14 -7 16.2 0.5
6 -14 7 15.38 0.57
6 14 7 16.89 0.63
6 14 7 15.86 0.56
8 -14 7 17.59 0.58
8 14 7 17.14 0.7
10 -14 7 8.51 0.4
10 14 7 8.5 0.5
11 -15 -7 -0.01 0.17
11 15 -7 0.24 0.24
-9 -15 7 7.56 0.33
9 -15 -7 7.66 0.34
9 15 -7 7.45 0.45
7 -15 -7 11.98 0.44
7 15 -7 13 0.55
-7 15 7 13 0.49
7 15 -7 12.98 0.5
5 -15 -7 2.88 0.18
5 15 -7 3.41 0.26
5 15 -7 3.31 0.23
-5 15 7 2.83 0.22
3 -15 -7 36.63 1.06
3 15 -7 37.06 1.17
-3 15 7 35.36 1.17
3 15 -7 35.39 1.23
1 -15 -7 10.87 0.35
-1 15 7 10.41 0.41
-1 15 7 10.28 0.39
1 15 -7 11.38 0.42
1 15 -7 11.13 0.33
1 15 -7 10.93 0.43
-1 -15 -7 13.89 0.43
1 15 7 13.36 0.5
1 15 7 13.9 0.5
-1 15 -7 13.21 0.51
-1 15 -7 14.27 0.5
-3 -15 -7 5.03 0.2
-3 15 -7 4.94 0.25
-3 15 -7 4.7 0.25
3 15 7 5.22 0.26
3 15 7 4.91 0.26
-5 -15 -7 1.88 0.14
5 -15 7 1.84 0.16
5 -15 7 1.84 0.15
5 15 7 2.13 0.19
-5 15 -7 2.08 0.18
5 15 7 2.1 0.22
7 -15 7 11.52 0.41
7 15 7 11.48 0.51
9 -15 7 0.44 0.15
9 15 7 0.18 0.21
10 -16 -7 7.35 0.36
10 16 -7 7.07 0.48
8 -16 -7 2.95 0.23
8 16 -7 3 0.32
-8 16 7 2.99 0.24
6 -16 -7 31.16 0.91
6 16 -7 28.81 1.08
6 16 -7 30.25 1.01
-6 16 7 30.44 1.01
4 -16 -7 2.05 0.16
4 16 -7 1.77 0.2
4 16 -7 1.33 0.17
-4 16 7 1.87 0.2
2 -16 -7 23.96 0.71
2 16 -7 22.3 0.79
2 16 -7 23.37 0.84
-2 16 7 24.49 0.8
0 -16 -7 28.2 0.8
0 16 -7 29.1 0.95
0 16 7 27.56 0.92
0 16 -7 25.67 0.9
0 16 7 25.86 0.91
-2 -16 -7 8.86 0.28
-2 16 -7 8.85 0.35
-2 16 -7 8.23 0.35
2 16 7 8.01 0.35
2 16 7 8.18 0.35
4 -16 7 20.8 0.63
-4 -16 -7 20.78 0.62
4 -16 7 21 0.72
4 16 7 21.69 0.71
-4 16 -7 20.1 0.7
4 16 7 19.62 0.75
-6 -16 -7 1.41 0.14
6 -16 7 1.55 0.17
6 16 7 1.2 0.15
6 16 7 1.04 0.18
8 -16 7 3.32 0.26
8 16 7 3.83 0.34
10 -16 7 3.5 0.29
10 16 7 3.74 0.4
11 -17 -7 32.01 1
11 17 -7 30.58 1.21
-9 -17 7 13.03 0.5
9 -17 -7 13.85 0.49
9 17 -7 12.75 0.63
7 -17 -7 8.29 0.34
-7 17 7 7.87 0.37
7 17 -7 8.43 0.43
7 17 -7 7.22 0.39
5 -17 -7 71.79 2.02
5 17 -7 68.23 2.22
-5 17 7 67.81 2.22
5 17 -7 73.7 2.35
3 -17 -7 10.83 0.36
-3 17 7 10.12 0.42
3 17 -7 10.47 0.44
3 17 -7 10.24 0.42
1 -17 -7 69.7 1.95
-1 17 7 67.2 2.23
1 17 -7 68.82 2.26
-1 17 7 69.03 2.15
1 17 -7 67 2.15
-1 -17 -7 24.69 0.74
-1 17 -7 24.85 0.87
1 17 7 23.56 0.84
-1 17 -7 24.72 0.84
1 17 7 26.92 0.86
-3 -17 -7 103.07 2.86
3 -17 7 100.39 2.87
3 17 7 101.13 3.31
-3 17 -7 106.84 3.14
3 17 7 96.7 3.15
-3 17 -7 99.15 3.3
5 -17 7 25.23 0.77
-5 -17 -7 26.1 0.76
5 -17 7 25.81 0.88
-5 17 -7 26.3 0.85
5 17 7 25.02 0.86
5 17 7 24.28 0.92
7 -17 7 0.71 0.13
7 17 7 0.86 0.19
9 -17 7 27.38 0.88
9 17 7 28.4 1.07
10 -18 -7 7.25 0.36
10 18 -7 6.92 0.5
8 -18 -7 7.77 0.35
8 18 -7 9.07 0.47
8 18 -7 8.51 0.41
-8 18 7 8 0.38
6 -18 -7 13.34 0.47
-6 18 7 13.96 0.53
6 18 -7 13.81 0.59
6 18 -7 14.46 0.55
4 -18 -7 7.03 0.28
4 18 -7 7.49 0.35
4 18 -7 7.61 0.37
-4 18 7 7.71 0.35
2 -18 -7 25.55 0.77
2 18 -7 25.11 0.87
-2 18 7 26.7 0.87
2 18 -7 25.36 0.91
0 -18 -7 21.45 0.65
0 18 -7 22.87 0.78
0 18 7 21.56 0.75
0 18 7 20.58 0.75
0 18 -7 22.27 0.75
-2 -18 -7 0.38 0.07
2 -18 7 0.4 0.07
-2 18 -7 0.1 0.11
-2 18 -7 0.25 0.11
2 18 7 0.3 0.13
2 18 7 0.16 0.11
-4 -18 -7 16.71 0.5
4 -18 7 15.83 0.51
4 -18 7 15.87 0.57
4 18 7 15.77 0.61
4 18 7 16.11 0.59
-4 18 -7 15.96 0.57
6 -18 7 7.22 0.29
6 18 7 6.71 0.33
6 18 7 6.41 0.39
8 -18 7 6.25 0.32
8 18 7 5.82 0.43
9 -19 -7 6.7 0.34
9 19 -7 6.7 0.48
7 -19 -7 0.19 0.12
7 19 -7 0.15 0.18
7 19 -7 0.38 0.17
-7 19 7 0.22 0.15
5 -19 -7 8.56 0.33
-5 19 7 8.16 0.4
5 19 -7 8.86 0.42
5 19 -7 8.87 0.4
3 -19 -7 1.26 0.15
-3 19 7 1.11 0.16
3 19 -7 0.9 0.15
3 19 -7 1.45 0.17
1 -19 -7 11.5 0.37
1 19 -7 11.5 0.47
1 19 -7 11.18 0.45
-1 19 7 11.23 0.45
-1 -19 -7 0.39 0.08
1 19 7 0.41 0.14
-1 19 -7 0.66 0.13
-1 19 -7 0.61 0.13
1 19 7 0.48 0.11
-3 -19 -7 11.37 0.37
3 -19 7 11.3 0.38
-3 19 -7 11.92 0.45
-3 19 -7 10.91 0.45
3 19 7 11.33 0.46
3 19 7 12.11 0.47
5 -19 7 1.22 0.12
5 19 7 1.13 0.18
-5 19 -7 0.98 0.15
5 19 7 1.29 0.17
7 -19 7 2.87 0.23
7 19 7 2.19 0.25
9 -19 7 2.3 0.27
9 19 7 1.97 0.29
10 -20 -7 16.33 0.61
10 20 -7 17.4 0.76
8 -20 -7 6.31 0.31
8 20 -7 6.32 0.39
-8 20 7 6 0.35
8 20 -7 6.85 0.45
6 -20 -7 51.05 1.47
6 20 -7 45.98 1.62
-6 20 7 50.14 1.62
6 20 -7 52.62 1.72
4 -20 -7 17.41 0.56
-4 20 7 18.8 0.66
4 20 -7 18.58 0.69
4 20 -7 16.71 0.65
2 -20 -7 53.44 1.53
2 20 -7 53.03 1.79
-2 20 7 52.29 1.7
2 20 -7 53.54 1.71
0 -20 -7 50.22 1.4
0 20 7 46 1.57
0 20 -7 50.66 1.57
0 20 -7 48.08 1.64
-2 -20 -7 5.87 0.22
2 20 7 5.94 0.29
-2 20 -7 5.55 0.29
-2 20 -7 6.16 0.3
2 20 7 5.73 0.32
4 -20 7 37.17 1.11
4 20 7 37.26 1.25
-4 20 -7 38.5 1.24
4 20 7 39.26 1.32
6 -20 7 4.25 0.24
6 20 7 4.48 0.29
6 20 7 4.21 0.34
8 -20 7 11.66 0.45
8 20 7 11.68 0.59
9 -21 -7 7.07 0.35
9 21 -7 7 0.48
7 -21 -7 6.45 0.31
7 21 -7 7.16 0.4
7 21 -7 5.81 0.43
-7 21 7 6.4 0.37
5 -21 -7 27.36 0.81
5 21 -7 25.42 0.96
5 21 -7 26.88 0.92
-5 21 7 25.19 0.91
3 -21 -7 0.95 0.11
3 21 -7 0.74 0.16
3 21 -7 0.6 0.16
-3 21 7 0.72 0.16
1 -21 -7 30.58 0.93
1 21 -7 33.02 1.11
-1 21 7 30.93 1.07
1 21 -7 32.83 1.07
-1 -21 -7 2.36 0.14
-1 21 -7 2.57 0.24
1 21 7 2.4 0.25
-1 21 -7 2.5 0.21
3 21 7 26.06 0.92
-3 21 -7 24.62 0.88
3 21 7 26.51 0.9
5 -21 7 14.97 0.52
-5 21 -7 16.55 0.59
5 21 7 15.8 0.65
5 21 7 17.49 0.62
7 -21 7 0.88 0.15
7 21 7 0.69 0.21
8 -22 -7 13.94 0.51
8 22 -7 13.82 0.6
8 22 -7 13.66 0.66
-8 22 7 14.33 0.57
6 -22 -7 -0.05 0.11
-6 22 7 0 0.16
6 22 -7 0.28 0.18
6 22 -7 0.35 0.18
4 -22 -7 5.96 0.26
4 22 -7 5.72 0.36
4 22 -7 5.53 0.35
-4 22 7 5.99 0.34
2 -22 -7 0.89 0.11
2 22 -7 0.89 0.18
2 22 -7 0.82 0.16
-2 22 7 1.11 0.18
0 -22 -7 0.17 0.08
0 22 -7 0.29 0.13
0 22 7 0.2 0.15
0 22 -7 0.09 0.15
-2 22 -7 5.51 0.32
2 22 7 5.4 0.32
-4 22 -7 0.57 0.15
4 22 7 0.6 0.16
4 22 7 0.64 0.17
6 22 7 4.3 0.36
6 22 7 4.12 0.32
8 -22 7 0.51 0.16
8 22 7 0.01 0.23
7 -23 -7 12.63 0.48
7 23 -7 13.95 0.63
-7 23 7 13.48 0.56
7 23 -7 13.34 0.58
5 -23 -7 11.11 0.4
5 23 -7 10.93 0.52
5 23 -7 10.56 0.5
-5 23 7 10.6 0.48
3 -23 -7 42.51 1.27
3 23 -7 43.51 1.44
-3 23 7 44.87 1.44
3 23 -7 43.18 1.5
1 23 -7 14.97 0.59
1 23 -7 15.36 0.59
-1 23 7 14.62 0.59
-1 23 -7 34.63 1.16
1 23 7 34.41 1.17
-3 23 -7 16.38 0.62
3 23 7 16.81 0.64
5 23 7 9.77 0.45
5 23 7 9.95 0.49
-5 23 -7 10.11 0.44
7 23 7 4 0.39
8 -24 -7 11.84 0.45
8 24 -7 11.42 0.61
8 24 -7 11.5 0.55
6 -24 -7 4.74 0.27
6 24 -7 4.28 0.37
6 24 -7 4.98 0.35
-6 24 7 5.04 0.34
4 -24 -7 6.98 0.3
4 24 -7 7.57 0.42
-4 24 7 6.97 0.39
4 24 -7 7.41 0.41
-2 24 7 14.83 0.59
2 24 -7 13.81 0.58
2 24 -7 14.2 0.59
0 24 -7 23.94 0.85
0 24 -7 22.42 0.84
0 24 7 24.22 0.85
2 24 7 2.54 0.28
-2 24 -7 2.84 0.29
4 24 7 20.73 0.75
-4 24 -7 18.9 0.72
6 24 7 9.48 0.5
6 24 7 8.78 0.44
7 -25 -7 1.62 0.17
7 25 -7 1.92 0.26
-7 25 7 1.83 0.23
7 25 -7 1.48 0.25
5 -25 -7 10.83 0.4
5 25 -7 11.69 0.54
5 25 -7 10.2 0.52
-5 25 7 11.56 0.51
3 25 -7 4.18 0.33
3 25 -7 3.93 0.35
-3 25 7 3.82 0.33
1 25 -7 0.21 0.15
1 25 -7 0.45 0.18
-1 25 7 0.68 0.19
1 25 7 2.98 0.3
-1 25 -7 3.03 0.29
-3 25 -7 0.09 0.17
3 25 7 -0.09 0.18
5 25 7 0.67 0.19
-6 26 7 9.31 0.47
6 26 -7 9.05 0.51
6 26 -7 8.65 0.48
4 26 -7 51.81 1.72
4 26 -7 55.24 1.8
-4 26 7 49.96 1.72
2 26 -7 15.33 0.62
-2 26 7 13.51 0.6
2 26 -7 14.42 0.59
0 26 7 0.36 0.19
0 26 -7 0.57 0.18
2 26 7 45.54 1.56
-2 26 -7 49.09 1.56
4 26 7 1.1 0.21
-4 26 -7 0.8 0.19
6 26 7 5.24 0.38
5 27 -7 1.12 0.23
-5 27 7 0.83 0.21
5 27 -7 1.11 0.22
-3 27 7 19.38 0.76
3 27 -7 19.11 0.76
3 27 -7 19.65 0.76
-1 27 7 7.59 0.42
1 27 -7 7.11 0.43
-1 27 -7 17.54 0.7
1 27 7 18.22 0.71
-3 27 -7 11.32 0.5
3 27 7 10.2 0.51
5 27 7 4.4 0.37
4 28 -7 1.23 0.22
-4 28 7 1.14 0.23
4 28 -7 1.13 0.23
2 28 -7 0.25 0.2
-2 28 7 -0.11 0.19
0 28 -7 0.24 0.19
0 28 7 -0.09 0.19
-2 28 -7 0.35 0.2
2 28 7 0.15 0.21
-4 28 -7 0.05 0.17
4 28 7 -0.09 0.19
3 29 -7 20.37 0.79
-3 29 7 20.17 0.79
1 29 -7 3.48 0.36
-1 29 7 4.73 0.39
-1 29 -7 14.89 0.62
1 29 7 14.59 0.64
3 29 7 5.2 0.42
-3 29 -7 5.85 0.4
0 30 -7 3.96 0.4
0 30 7 4.81 0.39
12 0 -8 21.43 0.7
10 0 -8 0.21 0.12
10 0 -8 0.04 0.15
-8 0 8 8.94 0.36
8 0 -8 9.47 0.4
8 0 -8 9.07 0.33
-6 0 8 -0.05 0.08
6 0 -8 0.04 0.09
6 0 -8 0.03 0.08
4 0 -8 7.26 0.29
4 0 -8 6.8 0.24
-4 0 8 6.16 0.26
2 0 -8 54.13 1.49
-2 0 8 52.19 1.63
2 0 -8 50.04 1.72
0 0 -8 2.27 0.16
0 0 -8 2.48 0.12
0 0 8 2.57 0.14
2 0 8 32.49 1.08
-2 0 -8 32.39 0.94
2 0 8 32.28 1.02
-4 0 -8 2.51 0.15
4 0 8 2.96 0.15
6 0 8 32.15 1.11
6 0 8 32.11 1.01
8 0 8 38.08 1.31
10 0 8 5.01 0.35
10 0 8 5.05 0.28
12 0 8 14.98 0.67
12 0 8 14.48 0.54
13 -1 -8 3.37 0.3
13 1 -8 2.62 0.28
11 -1 -8 0.35 0.14
11 -1 -8 0.03 0.15
11 1 -8 0.18 0.16
11 1 -8 0 0.13
9 -1 -8 -0.02 0.11
9 -1 -8 0.07 0.13
-9 -1 8 0.03 0.1
9 1 -8 0.08 0.11
-9 1 8 0.03 0.1
9 1 -8 -0.04 0.14
7 -1 -8 4.88 0.26
-7 -1 8 5.4 0.24
7 -1 -8 5.24 0.23
-7 1 8 4.86 0.24
7 1 -8 4.72 0.22
7 1 -8 5.12 0.27
-5 -1 8 0.02 0.07
5 -1 -8 -0.01 0.09
5 -1 -8 0.04 0.07
5 1 -8 -0.08 0.06
5 1 -8 -0.1 0.09
-5 1 8 0.03 0.08
3 -1 -8 6.19 0.27
3 -1 -8 6.42 0.23
-3 -1 8 6.37 0.25
-3 1 8 6.28 0.25
3 1 -8 6.12 0.28
3 1 -8 6.65 0.22
1 -1 -8 3.5 0.19
1 -1 -8 3.48 0.15
-1 -1 8 3.68 0.17
1 1 -8 3.79 0.15
1 1 -8 3.44 0.19
-1 1 8 3.6 0.17
-1 -1 -8 14.03 0.42
1 -1 8 13.15 0.46
-1 -1 -8 13.53 0.5
1 1 8 14.09 0.46
-1 1 -8 13.61 0.42
-1 1 -8 13.26 0.5
3 -1 8 55.07 1.88
3 -1 8 58.85 1.77
-3 -1 -8 58.41 1.63
3 1 8 57.69 1.77
3 1 8 55.7 1.88
-3 1 -8 56.26 1.63
5 -1 8 1.22 0.11
-5 -1 -8 1.35 0.14
5 -1 8 1.26 0.13
5 1 8 1.44 0.11
5 1 8 1.33 0.16
-5 1 -8 1.16 0.13
7 -1 8 8.25 0.39
7 1 8 9.38 0.39
9 -1 8 1.8 0.16
9 -1 8 2.01 0.27
9 1 8 1.84 0.21
9 1 8 1.57 0.2
11 -1 8 9.68 0.41
11 -1 8 10.13 0.51
11 1 8 9.84 0.52
11 1 8 9.87 0.42
12 -2 -8 0.38 0.15
12 2 -8 0.38 0.15
12 2 -8 0 0.18
10 -2 -8 -0.02 0.13
10 -2 -8 -0.05 0.12
10 2 -8 0.08 0.12
10 2 -8 -0.13 0.15
-8 -2 8 -0.06 0.09
8 -2 -8 0.12 0.11
8 -2 -8 0.15 0.1
-8 2 8 -0.02 0.09
8 2 -8 -0.08 0.12
8 2 -8 0.09 0.1
6 -2 -8 0.13 0.08
-6 -2 8 0.22 0.09
6 -2 -8 0.18 0.1
6 2 -8 0.1 0.07
-6 2 8 0.1 0.08
6 2 -8 0.09 0.1
4 -2 -8 0.67 0.08
-4 -2 8 0.68 0.09
4 -2 -8 0.56 0.1
-4 2 8 0.54 0.09
4 2 -8 0.43 0.07
4 2 -8 0.68 0.11
2 -2 -8 1.28 0.13
-2 -2 8 1.33 0.12
2 -2 -8 1.2 0.1
2 2 -8 1.35 0.1
-2 2 8 1.43 0.12
2 2 -8 1.36 0.14
0 -2 -8 14.8 0.43
0 -2 -8 14.07 0.51
0 -2 8 13.93 0.47
0 2 8 13.96 0.48
0 2 -8 13.7 0.51
0 2 -8 14.19 0.43
-2 -2 -8 2.18 0.13
2 -2 8 2.23 0.13
2 2 8 2.35 0.13
-2 2 -8 2.41 0.12
2 2 8 2.42 0.16
4 -2 8 4.72 0.24
4 -2 8 4.93 0.2
-4 -2 -8 4.63 0.2
4 2 8 4.73 0.24
4 2 8 5.16 0.2
-6 -2 -8 0.63 0.1
6 -2 8 0.3 0.11
6 2 8 0.47 0.12
6 2 8 0.42 0.08
8 -2 8 2.87 0.26
8 2 8 2.84 0.26
10 -2 8 0.75 0.19
10 -2 8 0.62 0.15
10 2 8 0.62 0.19
10 2 8 0.77 0.15
12 -2 8 0.8 0.22
12 -2 8 0.92 0.18
12 2 8 0.7 0.23
12 2 8 0.86 0.18
13 -3 -8 0.54 0.17
13 3 -8 0.08 0.2
13 3 -8 0.06 0.15
11 -3 -8 1.19 0.16
11 3 -8 1.37 0.16
11 3 -8 1.21 0.21
9 -3 -8 0.26 0.12
9 -3 -8 0.36 0.12
-9 -3 8 0.18 0.11
9 3 -8 0.18 0.11
9 3 -8 0.38 0.15
-9 3 8 0.16 0.1
7 -3 -8 1.2 0.17
-7 -3 8 1.34 0.16
7 -3 -8 1.45 0.15
7 3 -8 1.2 0.15
7 3 -8 1.42 0.13
-7 3 8 1.52 0.15
5 -3 -8 0.11 0.09
-5 -3 8 0.21 0.08
5 -3 -8 0.21 0.08
-5 3 8 0.07 0.08
5 3 -8 0.17 0.09
5 3 -8 0.1 0.07
3 -3 -8 14.26 0.54
-3 -3 8 14.79 0.51
3 -3 -8 16.22 0.47
3 3 -8 16.29 0.56
-3 3 8 15.41 0.52
3 3 -8 14.73 0.46
1 -3 -8 1.13 0.13
1 -3 -8 1.37 0.1
-1 -3 8 1.31 0.11
1 3 -8 1.3 0.14
-1 3 8 1.32 0.12
1 3 -8 1.49 0.1
-1 -3 -8 15.6 0.47
1 -3 8 15.39 0.51
1 3 8 15.62 0.51
1 3 8 15.22 0.54
-1 3 -8 15.03 0.47
-3 -3 -8 18.76 0.56
3 -3 8 18.26 0.6
3 -3 8 18.33 0.65
-3 3 -8 18.17 0.56
3 3 8 17.86 0.6
3 3 8 18.98 0.65
-5 -3 -8 15.83 0.48
5 -3 8 14.87 0.56
5 -3 8 15.52 0.5
-5 3 -8 15.49 0.48
5 3 8 14.65 0.57
5 3 8 15.39 0.51
7 -3 8 30.22 1.06
7 3 8 30.66 1.07
9 -3 8 1.92 0.25
9 -3 8 2.28 0.21
9 3 8 1.68 0.21
11 -3 8 4.71 0.38
11 -3 8 4.63 0.32
11 3 8 4.75 0.29
11 3 8 4.28 0.38
12 -4 -8 0.37 0.16
12 4 -8 0.42 0.2
12 4 -8 0.29 0.15
10 -4 -8 1.62 0.16
-10 -4 8 1.55 0.19
10 4 -8 1.63 0.2
10 4 -8 1.43 0.14
-8 -4 8 3.86 0.21
8 -4 -8 4.09 0.22
8 -4 -8 3.85 0.24
-8 4 8 4.15 0.23
8 4 -8 4.24 0.2
8 4 -8 4.77 0.29
6 -4 -8 7.71 0.31
-6 -4 8 7.2 0.29
6 -4 -8 6.99 0.27
6 4 -8 6.62 0.26
-6 4 8 7.32 0.3
6 4 -8 7.79 0.34
4 -4 -8 12.06 0.44
-4 -4 8 12.66 0.42
4 -4 -8 11.28 0.38
4 4 -8 11.52 0.45
4 4 -8 11.8 0.37
-4 4 8 11.67 0.42
2 -4 -8 1.49 0.11
-2 -4 8 1.5 0.12
2 -4 -8 1.35 0.13
2 4 -8 1.7 0.15
2 4 -8 1.7 0.1
-2 4 8 1.52 0.13
0 -4 8 0.2 0.07
0 -4 -8 0.11 0.06
0 4 -8 0.29 0.06
0 4 8 0.16 0.07
0 4 -8 0.27 0.09
-2 -4 -8 37.7 1.08
2 -4 8 36.24 1.17
-2 4 -8 40.17 1.26
2 4 8 36.16 1.24
2 4 8 36.18 1.18
-2 4 -8 37.4 1.08
4 -4 8 0.48 0.1
4 -4 8 0.4 0.07
-4 -4 -8 0.44 0.07
4 4 8 0.45 0.08
4 4 8 0.38 0.1
-4 4 -8 0.51 0.08
-6 -4 -8 10.02 0.34
6 -4 8 9.53 0.4
6 4 8 10.31 0.41
6 4 8 9.15 0.34
8 -4 8 4.43 0.29
8 4 8 4.84 0.32
10 -4 8 2.06 0.19
10 -4 8 2.21 0.29
10 4 8 2.16 0.22
10 4 8 1.93 0.25
11 -5 -8 5.93 0.31
11 5 -8 5.75 0.29
11 5 -8 5.68 0.4
-9 -5 8 0.05 0.1
9 -5 -8 0.17 0.11
9 -5 -8 0.1 0.11
9 5 -8 0.04 0.15
9 5 -8 0.23 0.1
-9 5 8 0.29 0.11
7 -5 -8 2.96 0.18
-7 -5 8 2.64 0.18
7 -5 -8 2.57 0.19
7 5 -8 2.7 0.23
7 5 -8 2.67 0.16
-7 5 8 2.68 0.18
5 -5 -8 11.39 0.38
-5 -5 8 11.37 0.4
5 -5 -8 11.32 0.43
-5 5 8 11.21 0.41
5 5 -8 11.48 0.45
5 5 -8 11.65 0.36
3 -5 -8 0.43 0.09
-3 -5 8 0.52 0.08
3 -5 -8 0.35 0.06
-3 5 8 0.44 0.08
3 5 -8 0.27 0.1
3 5 -8 0.34 0.06
1 -5 -8 4.65 0.21
1 -5 -8 4.08 0.17
-1 -5 8 4.4 0.19
1 5 -8 4.31 0.17
-1 5 8 4.3 0.2
1 5 -8 4.42 0.22
-1 -5 -8 3.58 0.15
1 -5 8 3.53 0.16
1 5 8 3.5 0.18
1 5 8 3.59 0.19
-1 5 -8 3.67 0.2
-1 5 -8 3.47 0.15
3 -5 8 21.18 0.69
3 -5 8 22.2 0.75
-3 -5 -8 20.8 0.65
3 5 8 21.6 0.75
3 5 8 22.49 0.71
-3 5 -8 21.74 0.65
5 -5 8 7.45 0.31
-5 -5 -8 6.86 0.26
5 -5 8 7.21 0.26
5 5 8 7.07 0.28
5 5 8 7.51 0.33
7 -5 8 6.2 0.3
7 5 8 5.81 0.32
9 -5 8 16.75 0.55
9 -5 8 14.99 0.63
9 5 8 16.44 0.66
11 -5 8 -0.11 0.16
11 -5 8 0.29 0.19
11 5 8 -0.1 0.14
11 5 8 -0.24 0.2
12 -6 -8 0.82 0.18
12 6 -8 0.69 0.22
-10 -6 8 0.45 0.12
10 -6 -8 0.33 0.13
10 6 -8 0.37 0.12
10 6 -8 0.51 0.18
8 -6 -8 0.46 0.11
8 -6 -8 0.48 0.12
-8 -6 8 0.62 0.11
8 6 -8 0.5 0.09
-8 6 8 0.59 0.12
8 6 -8 0.62 0.15
6 -6 -8 1.16 0.15
-6 -6 8 1.3 0.15
6 -6 -8 0.87 0.1
-6 6 8 1 0.12
6 6 -8 1 0.14
6 6 -8 1.25 0.12
4 -6 -8 2.83 0.17
-4 -6 8 3.05 0.17
4 -6 -8 3.04 0.16
4 6 -8 3.2 0.14
-4 6 8 3.01 0.18
4 6 -8 3.3 0.2
2 -6 -8 6.7 0.24
2 -6 -8 7.09 0.28
-2 6 8 6.4 0.27
2 6 -8 6.27 0.29
2 6 -8 6.61 0.23
0 -6 -8 20.6 0.62
0 -6 8 20.84 0.68
0 6 -8 20.9 0.73
0 6 8 20.05 0.71
0 6 8 21.12 0.69
0 6 -8 21.68 0.62
-2 -6 -8 5.88 0.23
2 -6 8 6.38 0.24
-2 6 -8 6.2 0.29
-2 6 -8 6.75 0.23
2 6 8 6.79 0.28
2 6 8 6.46 0.25
4 -6 8 24.63 0.86
-4 -6 -8 26.1 0.75
4 -6 8 25.31 0.8
4 6 8 23.88 0.87
-4 6 -8 24.79 0.75
4 6 8 26.16 0.82
6 -6 8 0.85 0.12
-6 -6 -8 0.7 0.1
6 6 8 1.02 0.12
6 6 8 0.92 0.14
8 -6 8 15.46 0.52
8 -6 8 15.51 0.59
8 6 8 15.62 0.62
10 -6 8 20.36 0.66
10 -6 8 19.03 0.75
10 6 8 19.67 0.66
10 6 8 20.87 0.8
11 -7 -8 0.68 0.16
11 7 -8 0.46 0.2
-9 -7 8 0.01 0.1
9 -7 -8 0.08 0.12
-9 7 8 0.07 0.12
9 7 -8 0.05 0.09
9 7 -8 0.14 0.16
-7 -7 8 0.07 0.09
7 -7 -8 0.09 0.1
7 -7 -8 -0.02 0.09
-7 7 8 0.03 0.1
7 7 -8 -0.12 0.07
7 7 -8 -0.06 0.12
5 -7 -8 2.2 0.15
5 -7 -8 2.06 0.16
-5 -7 8 2.06 0.15
5 7 -8 2.11 0.13
-5 7 8 2.39 0.17
5 7 -8 2.14 0.19
-3 -7 8 5.7 0.24
3 -7 -8 5.74 0.23
3 -7 -8 6.36 0.26
3 7 -8 6.06 0.21
3 7 -8 6.36 0.28
-3 7 8 6.19 0.26
1 -7 -8 0.23 0.06
-1 -7 8 0.16 0.07
1 7 -8 0.13 0.05
1 7 -8 0.2 0.1
-1 7 8 0.28 0.08
-1 7 8 0.08 0.06
-1 -7 -8 3.96 0.17
1 -7 8 4.15 0.18
1 7 8 4.03 0.2
-1 7 -8 4.12 0.16
-1 7 -8 4.14 0.22
1 7 8 3.8 0.2
3 -7 8 8.03 0.29
-3 -7 -8 7.91 0.28
-3 7 -8 8.27 0.28
3 7 8 8.02 0.31
3 7 8 8.61 0.34
5 -7 8 9.75 0.35
-5 -7 -8 9.93 0.34
5 -7 8 9.89 0.4
5 7 8 10.19 0.37
5 7 8 10.76 0.42
7 -7 8 4.28 0.26
7 7 8 4.02 0.28
9 -7 8 8.53 0.4
9 -7 8 8.13 0.37
9 7 8 9.24 0.46
11 -7 8 2.3 0.31
11 -7 8 2.84 0.29
11 7 8 1.83 0.27
11 7 8 2.72 0.26
12 -8 -8 -0.18 0.16
12 8 -8 -0.03 0.21
10 -8 -8 0.22 0.14
-10 -8 8 0.23 0.12
10 8 -8 -0.08 0.18
8 -8 -8 -0.03 0.11
-8 -8 8 0.14 0.1
8 8 -8 0.05 0.08
-8 8 8 0.01 0.11
8 8 -8 0.08 0.14
6 -8 -8 12.92 0.47
-6 -8 8 13.32 0.46
6 -8 -8 12.68 0.43
6 8 -8 12.95 0.41
6 8 -8 12.45 0.52
-6 8 8 13.35 0.47
4 -8 -8 1.39 0.13
-4 -8 8 1.25 0.13
4 -8 -8 1.27 0.13
4 8 -8 1.42 0.17
4 8 -8 1.31 0.11
-4 8 8 1.21 0.15
2 -8 -8 0.06 0.07
-2 -8 8 0.06 0.07
2 8 -8 0.07 0.09
-2 8 8 0.07 0.08
2 8 -8 0.02 0.05
0 -8 -8 3.55 0.16
0 -8 8 3.46 0.17
0 8 -8 3.63 0.15
0 8 8 3.73 0.19
0 8 -8 3.54 0.21
0 8 8 3.87 0.18
-2 -8 -8 3.34 0.16
2 -8 8 3.43 0.17
2 8 8 3.67 0.2
-2 8 -8 3.55 0.15
-2 8 -8 3.59 0.21
2 8 8 3.52 0.2
4 -8 8 2.8 0.18
-4 -8 -8 2.84 0.15
4 -8 8 2.81 0.15
4 8 8 2.94 0.2
4 8 8 2.76 0.18
-6 -8 -8 0.03 0.09
6 -8 8 0.06 0.1
6 8 8 0.07 0.09
6 8 8 0.2 0.12
8 -8 8 4.31 0.25
8 -8 8 4.32 0.27
8 8 8 4.15 0.31
10 -8 8 4.09 0.3
10 -8 8 4.61 0.31
10 8 8 4.32 0.27
10 8 8 3.42 0.36
11 -9 -8 0.84 0.17
11 9 -8 0.77 0.22
-9 -9 8 0.78 0.13
9 -9 -8 0.87 0.15
-9 9 8 0.54 0.13
9 9 -8 0.85 0.19
7 -9 -8 0.26 0.11
-7 -9 8 0.18 0.1
-7 9 8 0.08 0.11
7 9 -8 0.1 0.07
7 9 -8 0.18 0.13
5 -9 -8 1.01 0.13
5 -9 -8 1.25 0.14
-5 -9 8 1.04 0.14
5 9 -8 1.05 0.14
5 9 -8 1.12 0.1
-5 9 8 1.03 0.13
-3 -9 8 0.69 0.09
3 -9 -8 0.57 0.08
3 -9 -8 0.64 0.09
3 9 -8 0.54 0.06
-3 9 8 0.46 0.09
3 9 -8 0.53 0.11
1 -9 -8 41.73 1.2
-1 -9 8 41.42 1.3
-1 9 8 41.79 1.37
-1 9 8 38.37 1.31
1 9 -8 42.03 1.19
1 9 -8 43.63 1.39
1 -9 8 13.93 0.46
-1 -9 -8 13.35 0.42
1 9 8 13.22 0.49
1 9 8 12.9 0.47
-1 9 -8 13.28 0.41
-1 9 -8 14.2 0.5
-3 -9 -8 9.55 0.31
3 -9 8 9.21 0.33
-3 9 -8 9.11 0.31
3 9 8 9.73 0.38
3 9 8 9.33 0.36
-3 9 -8 9.15 0.38
-5 -9 -8 52.58 1.51
5 -9 8 52.69 1.74
5 -9 8 50.06 1.63
5 9 8 52.9 1.76
5 9 8 53.98 1.65
7 -9 8 0.39 0.12
7 -9 8 0.26 0.11
7 9 8 0.26 0.14
9 -9 8 11.59 0.49
9 -9 8 11.16 0.44
9 9 8 12.15 0.56
11 -9 8 0.91 0.18
11 9 8 1.05 0.16
11 9 8 0.69 0.25
12 -10 -8 0.8 0.19
12 10 -8 0.82 0.24
10 -10 -8 0.66 0.15
-10 -10 8 0.54 0.13
10 10 -8 0.59 0.2
8 -10 -8 2.45 0.21
-8 -10 8 2.53 0.2
-8 10 8 2.98 0.22
8 10 -8 2.79 0.28
6 -10 -8 14.57 0.48
-6 -10 8 14.26 0.51
-6 10 8 15.2 0.53
6 10 -8 14.28 0.57
6 10 -8 14.34 0.44
4 -10 -8 3.96 0.19
4 -10 -8 4.1 0.2
-4 -10 8 3.91 0.2
4 10 -8 3.74 0.24
-4 10 8 4.39 0.22
4 10 -8 4.15 0.16
-2 -10 8 0.64 0.09
2 -10 -8 0.45 0.08
2 10 -8 0.55 0.06
-2 10 8 0.44 0.07
2 10 -8 0.4 0.1
-2 10 8 0.39 0.1
0 -10 -8 6.8 0.25
0 -10 8 7.26 0.27
0 10 8 6.86 0.29
0 10 -8 6.95 0.24
0 10 -8 7.3 0.31
0 10 8 6.78 0.28
-2 -10 -8 0.92 0.1
2 -10 8 1.07 0.12
2 10 8 0.87 0.11
2 10 8 0.93 0.12
-2 10 -8 0.96 0.11
-2 10 -8 0.9 0.12
4 -10 8 17.95 0.59
-4 -10 -8 18.67 0.55
4 -10 8 17.08 0.63
4 10 8 18.09 0.61
4 10 8 17.71 0.65
-6 -10 -8 0.56 0.1
6 -10 8 0.76 0.12
6 10 8 0.68 0.11
6 10 8 0.73 0.15
8 -10 8 11.77 0.43
8 -10 8 11.86 0.48
8 10 8 11.95 0.54
10 -10 8 16.64 0.59
10 10 8 17 0.57
10 10 8 17.05 0.72
11 -11 -8 0.37 0.16
11 11 -8 0.23 0.22
9 -11 -8 0.42 0.14
-9 -11 8 0.24 0.12
-9 11 8 0.28 0.13
9 11 -8 0.33 0.18
7 -11 -8 0.22 0.11
-7 -11 8 0.41 0.11
7 11 -8 0.18 0.15
-7 11 8 0.21 0.12
5 -11 -8 1.27 0.15
-5 -11 8 1.44 0.15
5 -11 -8 1.28 0.13
-5 11 8 1.44 0.18
5 11 -8 1.3 0.1
5 11 -8 1.47 0.16
3 -11 -8 12.43 0.4
-3 11 8 12.62 0.43
3 11 -8 12.53 0.37
-3 11 8 11.73 0.45
3 11 -8 11.68 0.48
1 -11 -8 8.72 0.29
-1 11 8 9.12 0.35
1 11 -8 8.53 0.28
-1 11 8 8.62 0.33
1 11 -8 9.13 0.37
-1 -11 -8 0.8 0.08
-1 11 -8 0.95 0.1
1 11 8 0.87 0.12
-1 11 -8 0.99 0.12
1 11 8 1 0.14
3 -11 8 0.28 0.07
-3 -11 -8 0.26 0.07
3 11 8 0.29 0.1
-3 11 -8 0.32 0.1
3 11 8 0.3 0.1
-5 -11 -8 0.42 0.09
5 -11 8 0.49 0.08
5 -11 8 0.33 0.1
5 11 8 0.38 0.13
5 11 8 0.64 0.11
7 -11 8 0.25 0.11
7 -11 8 0.5 0.12
7 11 8 0.18 0.15
9 -11 8 0.64 0.15
9 -11 8 0.52 0.15
9 11 8 0.26 0.2
11 -11 8 0.89 0.19
11 11 8 0.79 0.17
11 11 8 0.76 0.26
-10 -12 8 -0.03 0.12
10 -12 -8 -0.03 0.14
10 12 -8 0.12 0.2
8 -12 -8 0.4 0.13
-8 -12 8 0.34 0.11
8 12 -8 0.57 0.17
-8 12 8 0.44 0.14
-6 -12 8 0.36 0.1
6 -12 -8 0.26 0.1
6 12 -8 0.47 0.15
-6 12 8 0.35 0.12
4 -12 -8 6.04 0.24
-4 12 8 6.59 0.29
-4 12 8 6.29 0.24
4 12 -8 5.59 0.31
4 12 -8 5.91 0.21
2 -12 -8 2.15 0.14
2 12 -8 1.74 0.19
-2 12 8 2.25 0.14
2 12 -8 2.44 0.18
-2 12 8 2.15 0.18
2 12 -8 1.96 0.11
0 -12 -8 13.04 0.42
0 12 8 13.13 0.48
0 12 -8 13.18 0.48
0 12 -8 13.44 0.5
0 12 8 12.98 0.48
0 12 -8 13.23 0.4
-2 -12 -8 10.38 0.33
2 12 8 9.73 0.38
-2 12 -8 9.92 0.33
-2 12 -8 10.37 0.41
2 12 8 9.48 0.39
-4 -12 -8 12.79 0.41
4 -12 8 13.32 0.44
4 -12 8 12.65 0.48
4 12 8 12.85 0.51
4 12 8 12.91 0.47
6 -12 8 2.01 0.17
-6 -12 -8 1.82 0.16
6 -12 8 2.07 0.18
6 12 8 1.88 0.24
6 12 8 2.21 0.19
8 -12 8 10.91 0.41
8 -12 8 11.1 0.45
8 12 8 10.86 0.53
10 -12 8 9.24 0.43
10 12 8 10.46 0.39
10 12 8 9.39 0.53
11 -13 -8 1.19 0.19
11 13 -8 1.55 0.27
9 -13 -8 0.15 0.14
-9 -13 8 0.2 0.12
9 13 -8 0.28 0.19
-9 13 8 0.38 0.14
-7 -13 8 1.57 0.19
7 -13 -8 1.69 0.19
-7 13 8 1.65 0.22
7 13 -8 1.89 0.21
5 -13 -8 3.88 0.21
5 13 -8 4.42 0.28
-5 13 8 3.97 0.26
3 -13 -8 2.04 0.15
-3 13 8 1.87 0.19
3 13 -8 2 0.1
3 13 -8 1.88 0.2
-3 13 8 2.01 0.13
3 13 -8 1.92 0.19
1 -13 -8 3.29 0.16
1 13 -8 2.91 0.2
1 13 -8 2.97 0.22
-1 13 8 3.13 0.21
-1 13 8 2.97 0.17
1 13 -8 2.71 0.13
-1 -13 -8 1.05 0.12
-1 13 -8 0.77 0.13
1 13 8 0.98 0.11
-1 13 -8 0.94 0.1
1 13 8 1.02 0.13
-1 13 -8 0.87 0.13
-3 -13 -8 17.49 0.54
-3 13 -8 16.93 0.63
3 13 8 17.24 0.61
3 13 8 18.17 0.64
5 -13 8 13.1 0.46
-5 -13 -8 13.65 0.43
5 -13 8 13.94 0.5
5 13 8 13.06 0.53
5 13 8 13.48 0.49
7 -13 8 1.06 0.14
7 -13 8 1.37 0.19
7 13 8 1.1 0.2
9 -13 8 30.97 0.98
9 13 8 32.27 1.16
-10 -14 8 0.11 0.13
10 -14 -8 -0.03 0.16
10 14 -8 0.01 0.21
-8 -14 8 4.1 0.25
8 -14 -8 4.36 0.25
-8 14 8 4.15 0.28
8 14 -8 4.12 0.34
6 -14 -8 1.65 0.19
6 14 -8 1.42 0.19
-6 14 8 1.73 0.21
4 -14 -8 2.43 0.17
-4 14 8 2.62 0.21
4 14 -8 2.86 0.22
4 14 -8 2.58 0.25
2 -14 -8 2.06 0.15
-2 14 8 1.94 0.19
2 14 -8 1.75 0.2
2 14 -8 1.91 0.11
2 14 -8 2.15 0.2
-2 14 8 1.97 0.13
0 -14 -8 2.11 0.14
0 14 -8 2.26 0.2
0 14 -8 2.19 0.19
0 14 8 1.99 0.19
0 14 -8 2.15 0.12
0 14 8 2.27 0.16
-2 -14 -8 13.31 0.41
-2 14 -8 13.83 0.51
-2 14 -8 11.74 0.48
2 14 8 13.5 0.49
2 14 8 13.09 0.49
-4 -14 -8 12.98 0.42
4 -14 8 13.06 0.48
4 14 8 12.08 0.48
4 14 8 13.88 0.52
-6 -14 -8 1.3 0.15
6 -14 8 1.66 0.18
6 -14 8 1.41 0.18
6 14 8 1.43 0.15
6 14 8 1.29 0.19
8 -14 8 0 0.14
8 14 8 -0.05 0.19
10 -14 8 -0.05 0.16
10 14 8 0.14 0.22
11 -15 -8 0.55 0.18
11 15 -8 0.96 0.26
-9 -15 8 1.09 0.15
9 -15 -8 1.53 0.18
9 15 -8 1.24 0.24
-9 15 8 1.21 0.17
7 -15 -8 0.03 0.12
-7 -15 8 -0.01 0.11
7 15 -8 0.08 0.16
-7 15 8 0 0.14
5 -15 -8 0.72 0.11
-5 15 8 0.61 0.14
5 15 -8 0.75 0.16
5 15 -8 0.66 0.15
3 -15 -8 7.29 0.27
-3 15 8 7.12 0.33
3 15 -8 7.2 0.36
3 15 -8 7.19 0.33
1 -15 -8 0.05 0.07
-1 15 8 0.32 0.08
1 15 -8 0.3 0.12
-1 15 8 0.25 0.11
1 15 -8 0.25 0.06
1 15 -8 0.2 0.11
-1 -15 -8 5.88 0.23
-1 15 -8 5.95 0.3
1 15 8 6.08 0.29
1 15 8 5.83 0.28
-1 15 -8 6.46 0.3
-3 -15 -8 22.4 0.66
-3 15 -8 21.83 0.75
-3 15 -8 20.91 0.78
3 15 8 23.68 0.79
3 15 8 21.58 0.75
-5 -15 -8 1.77 0.15
5 -15 8 1.78 0.17
5 -15 8 1.86 0.14
5 -15 8 1.68 0.17
5 15 8 2.16 0.21
5 15 8 1.9 0.23
7 -15 8 30.64 0.94
7 15 8 31.22 1.12
9 -15 8 0.76 0.16
9 15 8 0.4 0.22
-10 -16 8 0.12 0.14
10 -16 -8 0.1 0.16
10 16 -8 -0.05 0.21
-8 -16 8 0.05 0.13
8 -16 -8 0.38 0.14
8 16 -8 0.02 0.19
-8 16 8 0.12 0.15
6 -16 -8 0.66 0.12
6 16 -8 0.54 0.16
-6 16 8 0.61 0.15
6 16 -8 0.52 0.17
4 -16 -8 0.39 0.1
4 16 -8 0.35 0.14
-4 16 8 0.21 0.13
4 16 -8 0.27 0.14
2 -16 -8 7.54 0.27
2 16 -8 7.16 0.35
-2 16 8 6.69 0.33
2 16 -8 7.65 0.34
0 -16 -8 5.74 0.23
0 16 -8 5.88 0.29
0 16 -8 6 0.3
0 16 8 5.95 0.26
0 16 8 5.38 0.29
-2 -16 -8 10.73 0.37
-2 16 -8 11.56 0.44
2 16 8 11.66 0.45
2 16 8 11.27 0.44
-2 16 -8 11.14 0.45
4 -16 8 0.89 0.1
-4 -16 -8 0.82 0.1
4 -16 8 1.27 0.16
4 16 8 0.76 0.14
4 16 8 0.93 0.15
-4 16 -8 0.86 0.13
6 -16 8 8.04 0.32
6 -16 8 7.4 0.34
-6 -16 -8 7.66 0.29
6 16 8 7.86 0.36
6 16 8 7.72 0.4
8 -16 8 6.39 0.31
8 16 8 6.75 0.42
10 -16 8 0.61 0.19
10 16 8 0.66 0.26
-9 -17 8 0.05 0.13
9 -17 -8 -0.01 0.14
9 17 -8 0.29 0.21
7 -17 -8 -0.17 0.12
-7 17 8 0.08 0.14
7 17 -8 0.27 0.18
5 -17 -8 0.5 0.11
-5 17 8 0.41 0.14
5 17 -8 0.36 0.16
5 17 -8 0.25 0.15
3 -17 -8 3.55 0.19
-3 17 8 3.21 0.25
3 17 -8 2.87 0.25
3 17 -8 3.11 0.25
1 -17 -8 2.74 0.16
1 17 -8 2.8 0.23
1 17 -8 2.59 0.24
-1 17 8 2.49 0.16
-1 17 8 2.6 0.22
-1 -17 -8 2.95 0.16
1 17 8 3.06 0.2
1 17 8 3.1 0.23
-1 17 -8 2.65 0.22
-1 17 -8 2.82 0.22
3 -17 8 1.58 0.14
-3 -17 -8 1.67 0.14
-3 17 -8 1.68 0.2
3 17 8 1.45 0.19
3 17 8 2.15 0.22
-3 17 -8 1.66 0.2
5 -17 8 -0.03 0.1
5 -17 8 0.04 0.1
-5 -17 -8 -0.15 0.08
5 17 8 0.06 0.13
5 17 8 0.05 0.15
7 -17 8 0.62 0.14
7 17 8 0.5 0.18
9 -17 8 1.5 0.19
9 17 8 1.66 0.27
10 -18 -8 0.17 0.17
10 18 -8 0.2 0.23
8 -18 -8 7.68 0.36
-8 -18 8 7.77 0.36
-8 18 8 7.89 0.39
8 18 -8 8.56 0.47
6 -18 -8 0.04 0.11
-6 18 8 0.16 0.14
6 18 -8 0.16 0.17
6 18 -8 0.09 0.17
4 -18 -8 8.86 0.33
4 18 -8 9.31 0.4
-4 18 8 8.61 0.4
4 18 -8 8.45 0.42
2 -18 -8 10.32 0.34
2 18 -8 9.49 0.43
2 18 -8 9.77 0.42
-2 18 8 9.41 0.42
0 -18 -8 0.53 0.09
0 18 8 0.56 0.1
0 18 -8 0.52 0.13
0 18 -8 0.44 0.14
0 18 8 0.5 0.14
-2 -18 -8 10.55 0.36
2 -18 8 10.54 0.35
-2 18 -8 10.98 0.45
-2 18 -8 10.4 0.43
2 18 8 11.61 0.45
2 18 8 11.44 0.44
-4 -18 -8 0.75 0.1
4 -18 8 0.79 0.1
4 -18 8 0.98 0.12
-4 18 -8 0.59 0.14
4 18 8 0.93 0.16
4 18 8 0.85 0.16
6 -18 8 8.97 0.35
6 18 8 9.59 0.41
6 18 8 8.53 0.46
8 -18 8 14.2 0.5
8 18 8 13.66 0.65
9 -19 -8 0.34 0.16
-9 -19 8 0.01 0.14
9 19 -8 0.02 0.22
7 -19 -8 2.09 0.24
7 19 -8 2.51 0.28
7 19 -8 2.49 0.35
-7 19 8 2.65 0.28
5 -19 -8 1.42 0.18
5 19 -8 1.64 0.2
5 19 -8 1.6 0.21
-5 19 8 1.37 0.18
3 -19 -8 10.62 0.37
-3 19 8 11.43 0.45
3 19 -8 9.85 0.45
3 19 -8 10 0.47
1 -19 -8 2.47 0.16
1 19 -8 2.13 0.24
-1 19 8 2.24 0.24
1 19 -8 2.7 0.24
-1 -19 -8 19.84 0.61
-1 19 -8 20.44 0.71
-1 19 -8 19.9 0.73
1 19 8 20.71 0.72
1 19 8 19.4 0.72
3 -19 8 26.68 0.8
-3 -19 -8 25.9 0.79
3 19 8 27.23 0.95
-3 19 -8 25.81 0.93
3 19 8 28.78 0.92
-3 19 -8 25.8 0.9
5 -19 8 0.41 0.11
5 19 8 0.36 0.17
-5 19 -8 0.44 0.14
5 19 8 0.39 0.15
7 -19 8 8.51 0.36
7 19 8 8.53 0.46
9 -19 8 0.06 0.17
9 19 8 0.15 0.24
8 -20 -8 0.29 0.15
-8 20 8 0.1 0.16
8 20 -8 0.4 0.22
6 -20 -8 2.49 0.23
-6 20 8 2.27 0.27
6 20 -8 2.87 0.31
6 20 -8 2.44 0.34
4 -20 -8 5.21 0.25
4 20 -8 5.96 0.35
4 20 -8 5.34 0.34
-4 20 8 5.41 0.34
2 -20 -8 0.24 0.09
-2 20 8 0.36 0.15
2 20 -8 0.14 0.15
2 20 -8 0.24 0.14
0 -20 -8 4.33 0.2
0 20 -8 4.32 0.28
0 20 8 4.35 0.3
0 20 -8 4.22 0.28
-2 -20 -8 0.96 0.1
-2 20 -8 0.79 0.14
2 20 8 0.81 0.14
2 20 8 1.13 0.18
-2 20 -8 0.74 0.15
-4 20 -8 0.36 0.14
4 20 8 0.35 0.16
4 20 8 0.42 0.16
6 -20 8 1.05 0.14
6 20 8 1.04 0.18
6 20 8 1.16 0.21
8 -20 8 0.07 0.15
8 20 8 -0.07 0.22
9 -21 -8 0.25 0.16
-9 -21 8 -0.01 0.15
9 21 -8 0.18 0.23
7 -21 -8 0.48 0.13
-7 21 8 0.94 0.19
7 21 -8 0.52 0.2
7 21 -8 0.42 0.21
5 -21 -8 1.77 0.19
5 21 -8 1.95 0.23
5 21 -8 2.17 0.3
-5 21 8 2.13 0.26
3 -21 -8 1.56 0.17
3 21 -8 1.53 0.2
-3 21 8 1.37 0.19
3 21 -8 1.5 0.19
1 -21 -8 3.71 0.2
1 21 -8 3.63 0.28
1 21 -8 3.66 0.28
-1 21 8 3.27 0.28
-1 -21 -8 0.67 0.1
-1 21 -8 0.67 0.15
-1 21 -8 0.88 0.17
1 21 8 0.75 0.17
-3 21 -8 6.32 0.34
3 21 8 6.57 0.36
3 21 8 5.99 0.34
5 21 8 2.19 0.29
5 21 8 2.47 0.28
7 -21 8 6.52 0.32
7 21 8 6.59 0.45
8 -22 -8 0.62 0.15
-8 22 8 0.43 0.19
8 22 -8 0.82 0.23
6 -22 -8 1.3 0.16
6 22 -8 1.21 0.22
-6 22 8 1.03 0.2
6 22 -8 1.37 0.22
4 -22 -8 2.77 0.2
4 22 -8 2.63 0.3
4 22 -8 2.99 0.31
-4 22 8 2.54 0.28
2 -22 -8 3.41 0.19
2 22 -8 3.08 0.3
-2 22 8 2.52 0.28
2 22 -8 3.33 0.29
0 -22 -8 0.08 0.08
0 22 -8 0.04 0.14
0 22 -8 0.06 0.15
0 22 8 0.15 0.16
2 22 8 15.25 0.63
-2 22 -8 17.12 0.62
4 22 8 0.97 0.18
4 22 8 1.16 0.2
-4 22 -8 1.06 0.18
6 22 8 7.91 0.41
6 22 8 7.95 0.46
7 -23 -8 0.32 0.14
7 23 -8 0.3 0.23
7 23 -8 -0.03 0.19
-7 23 8 0.18 0.19
5 -23 -8 1.61 0.16
5 23 -8 1.46 0.23
-5 23 8 2.01 0.23
5 23 -8 1.65 0.24
3 -23 -8 1.16 0.13
3 23 -8 1.18 0.2
3 23 -8 0.99 0.19
-3 23 8 1.02 0.2
1 -23 -8 0.62 0.11
1 23 -8 0.83 0.18
-1 23 8 0.71 0.18
1 23 -8 0.72 0.16
-1 23 -8 4.35 0.31
1 23 8 3.89 0.31
-1 23 -8 3.77 0.28
3 23 8 1.12 0.2
-3 23 -8 1.21 0.19
5 23 8 1.71 0.22
5 23 8 1.71 0.23
7 23 8 6.62 0.47
6 -24 -8 2.5 0.23
6 24 -8 2.17 0.26
-6 24 8 2.35 0.25
6 24 -8 2.15 0.26
4 -24 -8 3.66 0.24
-4 24 8 3.06 0.34
4 24 -8 3.36 0.34
4 24 -8 3.78 0.35
-2 24 8 1 0.21
2 24 -8 0.96 0.18
2 24 -8 1.23 0.2
0 24 -8 3.94 0.31
0 24 8 3.75 0.32
0 24 -8 3.89 0.28
2 24 8 0.17 0.18
-2 24 -8 0.22 0.17
-4 24 -8 8.16 0.41
4 24 8 8.5 0.44
6 24 8 1.4 0.25
6 24 8 2.01 0.23
5 -25 -8 0.07 0.13
5 25 -8 -0.03 0.2
5 25 -8 0.06 0.2
-5 25 8 0.19 0.2
3 25 -8 0.06 0.17
-3 25 8 0.05 0.19
3 25 -8 0.33 0.19
-1 25 8 2.96 0.34
1 25 -8 3.01 0.28
1 25 -8 2.32 0.3
1 25 8 2.05 0.24
-1 25 -8 2.14 0.23
-3 25 -8 2.76 0.3
3 25 8 2.2 0.25
5 25 8 8.97 0.46
-6 26 8 2.48 0.27
6 26 -8 1.86 0.27
6 26 -8 2.07 0.27
-4 26 8 0.28 0.21
4 26 -8 0.59 0.21
4 26 -8 0.6 0.21
2 26 -8 0.24 0.17
-2 26 8 0.22 0.2
2 26 -8 0.23 0.19
0 26 8 0.57 0.22
0 26 -8 0.71 0.2
2 26 8 4.45 0.35
-2 26 -8 3.85 0.34
4 26 8 0.98 0.22
-4 26 -8 1.13 0.2
-5 27 8 0.32 0.22
5 27 -8 0.18 0.21
5 27 -8 0.11 0.21
3 27 -8 -0.02 0.18
3 27 -8 0.12 0.21
-3 27 8 -0.05 0.2
-1 27 8 4.82 0.38
1 27 -8 4.2 0.36
-1 27 -8 3.12 0.34
1 27 8 4.32 0.36
3 27 8 0.42 0.21
-3 27 -8 0.79 0.2
4 28 -8 3.28 0.37
-4 28 8 4.51 0.39
2 28 -8 -0.07 0.2
-2 28 8 0.32 0.22
0 28 -8 3.87 0.35
0 28 8 4.27 0.37
-2 28 -8 1.17 0.22
2 28 8 1.28 0.23
-1 29 8 2.05 0.27
1 29 -8 2.17 0.27
12 0 -9 0.05 0.15
10 0 -9 -0.14 0.15
10 0 -9 -0.02 0.13
-10 0 9 0.04 0.12
-8 0 9 -0.14 0.1
8 0 -9 0.15 0.1
8 0 -9 0.05 0.13
6 0 -9 0 0.11
-6 0 9 -0.03 0.09
6 0 -9 -0.03 0.08
4 0 -9 0.1 0.07
4 0 -9 0.08 0.1
-4 0 9 0.07 0.08
2 0 -9 0.08 0.09
2 0 -9 0 0.06
-2 0 9 -0.13 0.07
0 0 9 -0.17 0.07
0 0 -9 0.02 0.06
0 0 -9 -0.07 0.08
2 0 9 -0.07 0.07
-2 0 -9 0.01 0.06
2 0 9 0 0.08
4 0 9 0.09 0.07
-4 0 -9 -0.02 0.07
4 0 9 -0.02 0.09
-6 0 -9 -0.07 0.09
6 0 9 -0.09 0.12
8 0 9 -0.08 0.14
10 0 9 0.04 0.19
10 0 9 0.01 0.14
11 -1 -9 1.18 0.2
11 -1 -9 1.23 0.17
11 1 -9 1.52 0.17
11 1 -9 1.48 0.21
9 -1 -9 28.31 0.96
-9 -1 9 26.74 0.89
9 -1 -9 25.71 0.82
-9 1 9 26.41 0.88
9 1 -9 26.06 0.95
9 1 -9 26.61 0.82
7 -1 -9 30.29 0.93
-7 -1 9 30.55 1.02
7 -1 -9 32.75 1.09
-7 1 9 31.57 1.02
7 1 -9 30.79 1.09
7 1 -9 32.03 0.93
5 -1 -9 23.98 0.7
-5 -1 9 23.12 0.77
5 -1 -9 23.09 0.82
5 1 -9 22.67 0.7
-5 1 9 24.62 0.77
5 1 -9 22.7 0.82
-3 -1 9 47.49 1.46
3 -1 -9 45.69 1.55
3 -1 -9 46.72 1.34
3 1 -9 45.23 1.55
3 1 -9 47.32 1.34
-3 1 9 45.84 1.46
1 -1 -9 37.72 1.21
-1 -1 9 35.33 1.14
1 -1 -9 35.83 1.04
1 1 -9 36.05 1.21
1 1 -9 34.59 1.04
-1 1 9 36.06 1.14
1 -1 9 46.22 1.41
-1 -1 -9 46.51 1.3
-1 1 -9 44.66 1.3
-1 1 -9 43.16 1.5
1 1 9 44.42 1.41
3 -1 9 0.43 0.08
3 -1 9 0.41 0.1
-3 -1 -9 0.39 0.08
3 1 9 0.24 0.09
-3 1 -9 0.34 0.07
3 1 9 0.45 0.08
5 -1 9 10.71 0.42
-5 -1 -9 10.15 0.35
5 -1 9 10.58 0.36
5 1 9 9.58 0.42
5 1 9 10.1 0.36
-5 1 -9 10.19 0.35
7 -1 9 17.49 0.67
7 1 9 17.72 0.67
9 -1 9 0.48 0.14
9 -1 9 0.29 0.18
9 1 9 0.68 0.19
11 -1 9 0.93 0.22
11 -1 9 1.37 0.19
11 1 9 1.23 0.24
11 1 9 1.21 0.19
12 -2 -9 14.22 0.52
12 2 -9 13.5 0.51
12 2 -9 13.6 0.62
10 -2 -9 10.57 0.48
10 -2 -9 10.75 0.42
-10 -2 9 10.95 0.43
10 2 -9 12.12 0.51
10 2 -9 11.14 0.42
8 -2 -9 54.2 1.84
8 -2 -9 56.47 1.6
-8 -2 9 55.1 1.73
8 2 -9 53.36 1.85
-8 2 9 56.59 1.74
8 2 -9 54.18 1.59
6 -2 -9 5.58 0.24
6 -2 -9 5.93 0.28
-6 -2 9 5.4 0.26
6 2 -9 6.16 0.24
-6 2 9 5.76 0.27
6 2 -9 5.34 0.3
4 -2 -9 66.85 2.22
-4 -2 9 67.55 2.1
4 -2 -9 69.26 1.93
-4 2 9 64.14 2.1
4 2 -9 67.44 1.92
4 2 -9 68.92 2.22
-2 -2 9 22.09 0.74
2 -2 -9 23.65 0.79
2 -2 -9 22.71 0.68
2 2 -9 21.66 0.79
-2 2 9 23.09 0.74
2 2 -9 22.65 0.67
0 -2 -9 14.99 0.45
0 -2 9 14.64 0.49
0 -2 -9 13.5 0.53
0 2 -9 14.15 0.45
0 2 9 14.9 0.5
0 2 -9 14.6 0.53
2 -2 9 54.46 1.68
-2 -2 -9 52.58 1.54
2 2 9 54.8 1.68
2 2 9 55.18 1.78
-2 2 -9 51.98 1.54
-4 -2 -9 18.75 0.57
4 -2 9 17.99 0.66
4 -2 9 18.43 0.61
4 2 9 17.91 0.67
4 2 9 19.01 0.62
-4 2 -9 19.1 0.57
6 -2 9 16.62 0.63
-6 -2 -9 16.98 0.53
6 2 9 16.67 0.63
8 -2 9 0.3 0.15
8 2 9 0.46 0.16
10 -2 9 1.92 0.23
10 -2 9 1.92 0.19
10 2 9 2.03 0.19
10 2 9 2.05 0.25
11 -3 -9 0.89 0.16
11 3 -9 0.81 0.16
11 3 -9 0.87 0.2
9 -3 -9 2.19 0.23
-9 -3 9 2.34 0.21
9 -3 -9 2.34 0.23
9 3 -9 2.72 0.19
-9 3 9 2.54 0.21
9 3 -9 2.82 0.28
7 -3 -9 0.11 0.1
-7 -3 9 0.36 0.11
7 -3 -9 0.31 0.12
-7 3 9 0.2 0.11
7 3 -9 0.36 0.09
7 3 -9 0.33 0.13
-5 -3 9 0.02 0.08
5 -3 -9 0.12 0.09
5 -3 -9 0.13 0.08
5 3 -9 0.11 0.07
5 3 -9 0.07 0.11
-5 3 9 0.03 0.09
3 -3 -9 5.33 0.21
-3 -3 9 5.43 0.23
3 -3 -9 4.87 0.25
3 3 -9 5.06 0.2
3 3 -9 5.27 0.26
-3 3 9 5.35 0.23
1 -3 -9 2.27 0.13
1 -3 -9 2.52 0.17
-1 -3 9 2.13 0.15
1 3 -9 2.4 0.14
1 3 -9 2.21 0.18
-1 3 9 2.35 0.15
1 -3 9 9 0.34
-1 -3 -9 9.12 0.31
-1 3 -9 9.42 0.38
-1 3 -9 9.54 0.31
1 3 9 9.8 0.35
1 3 9 9.52 0.36
-3 3 -9 1 0.12
3 3 9 1.2 0.15
3 3 9 0.98 0.13
-5 -3 -9 3.84 0.2
5 -3 9 4.17 0.18
5 -3 9 4.03 0.25
5 3 9 4.29 0.2
5 3 9 4.14 0.25
-5 3 -9 3.81 0.2
7 -3 9 7.09 0.35
7 3 9 6.89 0.37
9 -3 9 4.04 0.32
9 -3 9 3.8 0.26
9 3 9 3.58 0.32
11 -3 9 1.28 0.23
11 -3 9 1.66 0.2
11 3 9 1.6 0.25
11 3 9 1.26 0.18
12 -4 -9 12.4 0.48
12 4 -9 12.31 0.46
12 4 -9 12.05 0.59
10 -4 -9 13.12 0.47
-10 -4 9 12.89 0.48
10 4 -9 11.47 0.56
10 4 -9 12.26 0.44
8 -4 -9 16.84 0.64
-8 -4 9 17.58 0.61
8 -4 -9 17.05 0.57
8 4 -9 18.06 0.67
-8 4 9 17.54 0.61
8 4 -9 17.57 0.55
6 -4 -9 33.64 0.97
6 -4 -9 34.02 1.12
-6 -4 9 31.82 1.05
6 4 -9 33.76 1.13
6 4 -9 30.59 0.96
-6 4 9 32.62 1.06
4 -4 -9 13.43 0.43
4 -4 -9 13.59 0.5
-4 -4 9 13.62 0.47
4 4 -9 13.25 0.42
4 4 -9 13.41 0.51
-4 4 9 13.41 0.48
2 -4 -9 16.33 0.49
-2 -4 9 15.85 0.54
2 -4 -9 16.19 0.58
2 4 -9 15.77 0.58
2 4 -9 15.65 0.49
-2 4 9 16.45 0.55
0 -4 9 37.93 1.23
0 -4 -9 39.32 1.13
0 4 -9 39.95 1.13
0 4 9 39.5 1.24
0 4 -9 38.7 1.32
-2 -4 -9 14.56 0.43
2 -4 9 13.47 0.47
2 4 9 13.29 0.47
2 4 9 13.81 0.5
-2 4 -9 13.76 0.43
-2 4 -9 13.29 0.52
4 -4 9 31.01 1.05
-4 -4 -9 31.19 0.91
4 -4 9 30.95 0.97
4 4 9 30.27 0.98
4 4 9 29.25 1.05
-4 4 -9 31.36 0.91
6 -4 9 0.73 0.14
-6 -4 -9 0.81 0.11
6 4 9 0.6 0.14
6 4 9 0.85 0.12
8 -4 9 0.87 0.17
8 4 9 0.75 0.18
10 -4 9 3.92 0.34
10 -4 9 4.24 0.28
10 4 9 3.88 0.37
10 4 9 4.12 0.27
11 -5 -9 11.86 0.46
11 5 -9 11.67 0.43
11 5 -9 11.35 0.55
9 -5 -9 16.61 0.56
-9 -5 9 17.28 0.59
9 5 -9 16.86 0.54
9 5 -9 16.14 0.67
-9 5 9 16.26 0.6
-7 -5 9 39.42 1.25
7 -5 -9 38.28 1.31
7 -5 -9 38.82 1.15
7 5 -9 38.66 1.34
7 5 -9 39.99 1.14
-7 5 9 38.35 1.25
5 -5 -9 27.25 0.83
-5 -5 9 28.17 0.9
5 -5 -9 27.47 0.95
5 5 -9 28.22 0.82
5 5 -9 27.95 0.97
-5 5 9 28.08 0.91
3 -5 -9 60.88 1.81
3 -5 -9 61.69 2.08
-3 -5 9 64.98 1.97
3 5 -9 62.42 2.09
3 5 -9 64.65 1.8
-3 5 9 65.08 1.98
1 -5 -9 35.26 1.15
1 -5 -9 33.67 0.99
-1 -5 9 33.85 1.08
-1 5 9 33.35 1.09
1 5 -9 33.96 0.98
1 5 -9 33.46 1.15
-1 -5 -9 26.51 0.77
1 -5 9 26.36 0.84
1 5 9 26.64 0.89
1 5 9 25.81 0.85
-1 5 -9 25.11 0.91
-1 5 -9 26.42 0.77
3 -5 9 9.17 0.37
-3 -5 -9 8.86 0.31
3 -5 9 9.13 0.33
3 5 9 9.42 0.38
3 5 9 9.16 0.34
-3 5 -9 9.25 0.32
5 -5 9 17.69 0.61
-5 -5 -9 18.1 0.58
5 -5 9 19.39 0.67
-5 5 -9 17.88 0.58
5 5 9 18.76 0.62
5 5 9 19.8 0.69
7 -5 9 11.56 0.5
7 5 9 12.5 0.51
9 -5 9 3.6 0.31
9 -5 9 3.02 0.25
9 5 9 3.38 0.32
11 -5 9 1.22 0.22
11 -5 9 0.82 0.19
11 5 9 0.97 0.25
11 5 9 1.14 0.18
12 -6 -9 1.21 0.19
12 6 -9 1.38 0.25
10 -6 -9 0.24 0.14
-10 -6 9 -0.08 0.12
10 6 -9 0.15 0.11
10 6 -9 -0.23 0.18
8 -6 -9 9.53 0.4
-8 -6 9 9.71 0.38
8 -6 -9 9.18 0.36
-8 6 9 9.23 0.39
8 6 -9 10.16 0.45
8 6 -9 9.53 0.34
-6 -6 9 1.37 0.17
6 -6 -9 1.72 0.17
6 -6 -9 1.92 0.17
6 6 -9 1.89 0.21
-6 6 9 1.78 0.18
6 6 -9 1.58 0.13
-4 -6 9 13.49 0.47
4 -6 -9 13.66 0.5
4 -6 -9 13.28 0.44
-4 6 9 13.9 0.48
4 6 -9 13.71 0.42
4 6 -9 13.24 0.52
2 -6 -9 2.19 0.14
-2 -6 9 2.18 0.15
2 -6 -9 2.23 0.17
-2 6 9 2.35 0.17
2 6 -9 2.44 0.13
2 6 -9 2.4 0.19
0 -6 -9 0.1 0.07
0 -6 9 0.17 0.08
0 6 9 0.27 0.08
0 6 -9 0.18 0.07
0 6 9 0.22 0.09
0 6 -9 0.03 0.09
2 -6 9 7.65 0.29
-2 -6 -9 7.42 0.27
2 6 9 7.68 0.32
-2 6 -9 7.81 0.27
2 6 9 7.76 0.3
-2 6 -9 7.29 0.33
-4 -6 -9 0.01 0.08
4 -6 9 0.17 0.1
4 -6 9 0.13 0.07
4 6 9 0.12 0.1
4 6 9 0.01 0.09
-4 6 -9 0.11 0.08
-6 -6 -9 1.92 0.17
6 -6 9 2.26 0.21
6 6 9 2.14 0.24
6 6 9 2.29 0.17
8 -6 9 0.55 0.15
8 6 9 0.59 0.18
10 -6 9 -0.03 0.17
10 -6 9 -0.01 0.16
10 6 9 0.08 0.21
10 6 9 0.05 0.14
11 -7 -9 22.67 0.75
11 7 -9 22.33 0.88
-9 -7 9 3.05 0.23
9 -7 -9 3.51 0.24
9 7 -9 3.29 0.2
-9 7 9 3.39 0.24
9 7 -9 3.21 0.31
7 -7 -9 11.33 0.43
7 -7 -9 11.74 0.4
-7 -7 9 11.19 0.41
7 7 -9 10.7 0.36
7 7 -9 10.84 0.48
-7 7 9 9.54 0.42
5 -7 -9 40.28 1.19
5 -7 -9 40.28 1.36
-5 -7 9 40.96 1.29
5 7 -9 40.78 1.39
5 7 -9 39.47 1.18
-5 7 9 42.84 1.31
3 -7 -9 15.31 0.49
3 -7 -9 16.4 0.56
-3 -7 9 15.53 0.53
-3 7 9 15.81 0.54
3 7 -9 15.14 0.48
3 7 -9 15.67 0.58
1 -7 -9 72.82 2.02
-1 -7 9 67.07 2.19
1 7 -9 71.33 2.33
-1 7 9 71.51 2.31
-1 7 9 70.74 2.2
1 7 -9 70.97 2.01
1 -7 9 3.61 0.19
-1 -7 -9 3.7 0.17
-1 7 -9 3.89 0.16
1 7 9 3.42 0.21
-1 7 -9 3.81 0.23
1 7 9 3.78 0.2
-3 -7 -9 24.9 0.74
3 -7 9 24.92 0.8
3 -7 9 24.36 0.85
3 7 9 25.01 0.82
-3 7 -9 25.37 0.74
3 7 9 24.37 0.86
5 -7 9 8.51 0.38
5 -7 9 9.17 0.32
-5 -7 -9 8.73 0.32
5 7 9 8.47 0.39
5 7 9 9.49 0.35
7 -7 9 0.53 0.14
7 7 9 0.2 0.15
9 -7 9 6.31 0.31
9 -7 9 6.35 0.36
9 7 9 5.66 0.42
11 -7 9 3.98 0.35
11 -7 9 3.72 0.33
11 7 9 4.06 0.28
11 7 9 4.25 0.43
12 -8 -9 7.53 0.39
12 8 -9 8.77 0.51
10 -8 -9 24.26 0.79
-10 -8 9 24.88 0.84
10 8 -9 25.14 0.94
-8 -8 9 15.19 0.54
8 -8 -9 15.41 0.52
8 8 -9 14.86 0.49
8 8 -9 15.2 0.62
-8 8 9 15.4 0.56
6 -8 -9 87.49 3
-6 -8 9 94.91 2.85
6 -8 -9 91.21 2.63
-6 8 9 94.45 2.87
6 8 -9 91.64 3.04
6 8 -9 92.77 2.61
4 -8 -9 0.64 0.09
4 -8 -9 0.58 0.1
-4 -8 9 0.88 0.11
-4 8 9 0.7 0.12
4 8 -9 0.79 0.08
4 8 -9 0.6 0.13
2 -8 -9 51.36 1.53
-2 -8 9 53.72 1.67
2 8 -9 57.15 1.78
2 8 -9 53.94 1.52
-2 8 9 50.45 1.68
0 -8 9 58.86 1.84
0 -8 -9 59.17 1.7
0 8 -9 59.17 1.69
0 8 -9 57.62 1.96
0 8 9 60.3 1.95
0 8 9 60.03 1.86
-2 -8 -9 17.06 0.55
2 -8 9 17.96 0.6
2 8 9 18.1 0.61
-2 8 -9 18.41 0.66
2 8 9 18.62 0.65
-2 8 -9 18.32 0.55
4 -8 9 24.38 0.8
4 -8 9 24.9 0.87
-4 -8 -9 24.31 0.75
4 8 9 26.01 0.82
4 8 9 25.27 0.88
-4 8 -9 24.9 0.75
6 -8 9 11.28 0.46
-6 -8 -9 10.83 0.38
6 8 9 11.61 0.48
6 8 9 11.11 0.41
8 -8 9 5.33 0.33
8 -8 9 5.3 0.28
8 8 9 5.63 0.36
10 -8 9 0.51 0.17
10 -8 9 0.59 0.18
10 8 9 0.37 0.14
10 8 9 0.32 0.22
11 -9 -9 2.63 0.27
11 9 -9 2.15 0.27
-9 -9 9 0.79 0.14
9 -9 -9 0.85 0.15
9 9 -9 0.84 0.2
-9 9 9 0.89 0.15
-7 -9 9 2.82 0.22
7 -9 -9 3.28 0.22
-7 9 9 2.93 0.24
7 9 -9 3.15 0.17
7 9 -9 3.45 0.28
-5 -9 9 9.86 0.38
5 -9 -9 10.09 0.36
5 -9 -9 10 0.39
-5 9 9 10.51 0.4
5 9 -9 11.12 0.44
5 9 -9 10 0.33
3 -9 -9 2.87 0.17
3 -9 -9 2.39 0.16
-3 -9 9 2.43 0.17
3 9 -9 2.33 0.21
-3 9 9 2.69 0.19
3 9 -9 2.77 0.13
1 -9 -9 9.24 0.32
-1 -9 9 8.99 0.34
-1 9 9 8.61 0.35
1 9 -9 9.39 0.3
1 9 -9 9.8 0.39
-1 -9 -9 0.15 0.07
1 -9 9 0.09 0.08
-1 9 -9 0.13 0.07
-1 9 -9 0.14 0.11
1 9 9 0.1 0.09
1 9 9 0.08 0.09
3 -9 9 6.22 0.25
-3 -9 -9 6.44 0.24
-3 9 -9 5.88 0.24
3 9 9 5.89 0.28
3 9 9 6.2 0.3
-5 -9 -9 0.34 0.1
5 -9 9 0.18 0.11
5 -9 9 0.11 0.07
5 9 9 0.09 0.1
5 9 9 0.19 0.12
7 -9 9 0.69 0.13
7 9 9 0.49 0.17
9 -9 9 0.49 0.16
9 -9 9 0.53 0.16
9 9 9 0.38 0.22
-10 -10 9 5.22 0.29
10 -10 -9 5.53 0.31
10 10 -9 5.16 0.4
8 -10 -9 7.02 0.32
-8 -10 9 6.98 0.32
8 10 -9 6.53 0.41
-8 10 9 7.58 0.35
6 -10 -9 34.15 1.05
-6 -10 9 34.75 1.13
6 10 -9 34.71 1.23
-6 10 9 36.08 1.15
6 10 -9 35.79 1.02
4 -10 -9 1.26 0.15
-4 -10 9 1.42 0.15
4 -10 -9 1.39 0.15
4 10 -9 1.54 0.2
4 10 -9 1 0.11
-4 10 9 1.31 0.15
-2 -10 9 10.2 0.37
2 -10 -9 10.53 0.35
2 10 -9 10.19 0.33
-2 10 9 10.06 0.39
2 10 -9 9.32 0.42
-2 10 9 10.52 0.38
0 -10 9 20.84 0.69
0 -10 -9 20.81 0.64
0 10 -9 21.18 0.63
0 10 -9 22.15 0.76
0 10 9 21.39 0.73
0 10 9 20.65 0.71
-2 -10 -9 6.99 0.26
2 -10 9 7.08 0.28
2 10 9 6.88 0.31
-2 10 -9 6.96 0.25
2 10 9 6.63 0.3
-2 10 -9 6.73 0.32
4 -10 9 9.51 0.38
-4 -10 -9 8.83 0.33
4 -10 9 9.26 0.34
4 10 9 9.44 0.37
4 10 9 9.38 0.4
-6 -10 -9 1.89 0.17
6 -10 9 2.2 0.2
6 10 9 1.84 0.17
6 10 9 1.48 0.18
8 -10 9 2.37 0.22
8 -10 9 2.68 0.26
8 10 9 2.46 0.33
10 -10 9 0.94 0.19
10 10 9 1.17 0.17
10 10 9 1.32 0.25
11 -11 -9 28.97 0.94
11 11 -9 29.96 1.12
9 -11 -9 9.68 0.4
-9 -11 9 10.18 0.41
-9 11 9 10.04 0.43
9 11 -9 9.73 0.5
-7 -11 9 31.23 1.04
7 -11 -9 31.69 0.96
-7 11 9 32.59 1.06
7 11 -9 31.86 1.14
-5 -11 9 31.26 1.03
5 -11 -9 31.12 0.95
-5 11 9 30.89 1.05
5 11 -9 32 1.11
5 11 -9 33.19 0.92
3 -11 -9 31.22 0.92
-3 -11 9 31.55 0.99
-3 11 9 31.49 1.03
3 11 -9 29.08 1.07
-3 11 9 30.95 1.01
3 11 -9 30.45 0.89
1 -11 -9 78 2.2
-1 -11 9 78.41 2.39
-1 11 9 79.62 2.52
1 11 -9 77.43 2.19
-1 11 9 74.04 2.41
1 11 -9 74.82 2.54
1 -11 9 2.44 0.16
-1 -11 -9 2.45 0.15
1 11 9 2.72 0.19
-1 11 -9 2.34 0.14
-1 11 -9 2.6 0.21
1 11 9 2.37 0.19
-3 -11 -9 22.32 0.66
3 -11 9 22.52 0.71
3 11 9 21.12 0.77
-3 11 -9 21.88 0.66
3 11 9 21.1 0.74
-3 11 -9 21.66 0.78
5 -11 9 24.91 0.83
-5 -11 -9 26.69 0.78
5 -11 9 26.55 0.9
5 11 9 25.76 0.92
5 11 9 25.11 0.86
7 -11 9 0.58 0.14
7 -11 9 0.47 0.13
7 11 9 0.29 0.17
9 -11 9 9.68 0.41
9 -11 9 9.27 0.44
9 11 9 10.04 0.53
-10 -12 9 4.66 0.28
10 -12 -9 4.24 0.29
10 12 -9 4.47 0.41
-8 -12 9 0.2 0.13
8 -12 -9 0.03 0.13
8 12 -9 0.37 0.18
-8 12 9 -0.04 0.13
6 -12 -9 21.62 0.68
-6 -12 9 20.74 0.72
-6 12 9 21.99 0.75
6 12 -9 21.75 0.81
4 -12 -9 2.22 0.17
-4 -12 9 2.19 0.17
-4 12 9 2.13 0.14
4 12 -9 2.25 0.12
-4 12 9 2.17 0.21
4 12 -9 2.21 0.23
2 -12 -9 6.29 0.25
-2 -12 9 6.26 0.27
2 12 -9 6.34 0.22
-2 12 9 6.1 0.26
-2 12 9 6.37 0.3
2 12 -9 6.27 0.32
0 -12 9 12.17 0.43
0 -12 -9 12.12 0.39
0 12 9 11.76 0.45
0 12 9 11.69 0.45
0 12 -9 11.99 0.38
0 12 -9 12.65 0.48
2 -12 9 0.25 0.08
-2 -12 -9 0.21 0.08
-2 12 -9 0.28 0.12
2 12 9 0.25 0.11
2 12 9 0.18 0.1
-2 12 -9 0.23 0.08
-4 -12 -9 15.66 0.51
4 -12 9 15.41 0.58
4 -12 9 16.12 0.54
4 12 9 16.19 0.61
4 12 9 16.34 0.57
-6 -12 -9 0.36 0.1
6 -12 9 0.1 0.11
6 12 9 -0.01 0.11
6 12 9 0.06 0.15
8 -12 9 2.65 0.24
8 -12 9 3.6 0.26
8 12 9 2.93 0.34
10 -12 9 1.49 0.2
10 12 9 1.85 0.18
10 12 9 1.96 0.27
11 -13 -9 1.33 0.2
11 13 -9 0.99 0.25
9 -13 -9 5.34 0.31
-9 -13 9 6.24 0.31
-9 13 9 5.99 0.34
9 13 -9 6.15 0.41
7 -13 -9 4.14 0.24
-7 -13 9 4.38 0.26
-7 13 9 4.02 0.29
7 13 -9 4.18 0.33
-5 -13 9 9.07 0.35
5 -13 -9 8.81 0.33
5 13 -9 9.15 0.42
-5 13 9 8.14 0.39
-3 -13 9 25.7 0.83
3 -13 -9 24.57 0.77
3 13 -9 25.62 0.74
-3 13 9 25.75 0.86
-3 13 9 24.96 0.86
3 13 -9 25.47 0.91
1 -13 -9 3.43 0.17
1 13 -9 3.34 0.25
-1 13 9 3.35 0.19
1 13 -9 3.24 0.15
-1 13 9 2.89 0.23
1 -13 9 4.46 0.22
-1 -13 -9 4.41 0.2
1 13 9 4.6 0.25
-1 13 -9 4.65 0.19
1 13 9 4.68 0.24
-1 13 -9 4.67 0.26
3 -13 9 2.36 0.16
-3 -13 -9 2.24 0.15
3 13 9 2.27 0.21
-3 13 -9 2.12 0.22
3 13 9 2.16 0.21
5 -13 9 0.6 0.1
-5 -13 -9 1.04 0.11
5 -13 9 0.82 0.12
5 13 9 0.92 0.14
5 13 9 1.03 0.16
7 -13 9 10.26 0.43
7 -13 9 10.19 0.39
7 13 9 9.73 0.5
9 -13 9 0.04 0.15
9 13 9 0.11 0.21
-10 -14 9 13.63 0.53
10 -14 -9 13.04 0.51
10 14 -9 13.52 0.65
-8 -14 9 26.76 0.88
8 -14 -9 26.2 0.82
-8 14 9 26.41 0.9
8 14 -9 24.78 0.98
6 -14 -9 27.88 0.84
-6 -14 9 26.88 0.9
6 14 -9 27.17 0.99
-6 14 9 27.09 0.93
-4 -14 9 16.47 0.57
4 -14 -9 15.91 0.53
4 14 -9 15.77 0.64
-4 14 9 17.29 0.6
2 -14 -9 21.63 0.68
-2 14 9 23.39 0.77
2 14 -9 21.78 0.66
-2 14 9 22.2 0.77
2 14 -9 23.57 0.82
0 -14 -9 37.5 1.09
0 14 -9 35.31 1.27
0 14 9 39.78 1.25
0 14 -9 38.52 1.08
0 14 9 34.86 1.21
2 -14 9 19.4 0.63
-2 -14 -9 19.2 0.58
2 14 9 18.53 0.68
2 14 9 17.81 0.66
-2 14 -9 18.63 0.69
-4 -14 -9 15.17 0.49
4 -14 9 15.53 0.53
4 -14 9 15.46 0.56
4 14 9 14.86 0.6
4 14 9 15.7 0.56
6 -14 9 6.82 0.32
6 -14 9 6.23 0.3
-6 -14 -9 6.83 0.28
6 14 9 7.6 0.4
6 14 9 7.19 0.33
8 -14 9 1.33 0.17
8 14 9 1.08 0.22
9 -15 -9 2.87 0.27
-9 -15 9 2.63 0.25
9 15 -9 3.39 0.36
-9 15 9 3.54 0.3
7 -15 -9 4.98 0.27
-7 -15 9 4.55 0.27
-7 15 9 5.31 0.32
7 15 -9 5.22 0.38
5 -15 -9 12.42 0.44
-5 -15 9 13 0.47
-5 15 9 11.77 0.5
5 15 -9 13.66 0.55
3 -15 -9 2.56 0.18
-3 15 9 2.42 0.23
3 15 -9 2.71 0.23
3 15 -9 2.88 0.25
1 -15 -9 16.95 0.52
-1 15 9 16.51 0.58
1 15 -9 17.55 0.6
1 15 -9 15.86 0.49
-1 15 9 16.32 0.6
1 15 -9 15.62 0.63
-1 -15 -9 0.78 0.1
1 15 9 0.85 0.12
-1 15 -9 0.95 0.14
-1 15 -9 1.03 0.14
1 15 9 0.86 0.15
3 -15 9 8.52 0.34
-3 -15 -9 9.04 0.32
3 15 9 9.02 0.38
-3 15 -9 9.26 0.4
3 15 9 8.5 0.39
5 -15 9 8.6 0.33
5 -15 9 8.39 0.33
5 -15 9 8.94 0.38
-5 -15 -9 9.22 0.32
5 15 9 9.23 0.42
5 15 9 8.4 0.38
7 -15 9 0.59 0.14
7 15 9 0.54 0.19
9 -15 9 3.56 0.3
9 15 9 4.06 0.41
-10 -16 9 1.06 0.17
10 -16 -9 1.06 0.19
10 16 -9 1 0.26
8 -16 -9 11.76 0.44
-8 -16 9 10.5 0.45
8 16 -9 11.34 0.56
-8 16 9 12.22 0.49
6 -16 -9 1.27 0.14
-6 -16 9 1.28 0.16
6 16 -9 1.24 0.21
-6 16 9 1.46 0.19
4 -16 -9 18.59 0.59
4 16 -9 18.35 0.72
4 16 -9 18.58 0.68
-4 16 9 19.43 0.68
2 -16 -9 0.41 0.1
2 16 -9 0.19 0.14
2 16 -9 0.23 0.14
-2 16 9 0.38 0.14
0 -16 -9 0.15 0.08
0 16 -9 0.05 0.13
0 16 9 0.04 0.09
0 16 9 0.06 0.12
0 16 -9 0.04 0.13
-2 -16 -9 20.86 0.64
2 16 9 20.88 0.76
-2 16 -9 20.82 0.77
-2 16 -9 21.98 0.74
2 16 9 20.91 0.74
4 -16 9 4.55 0.23
4 -16 9 4.98 0.22
-4 -16 -9 4.61 0.22
4 -16 9 4.9 0.26
4 16 9 5.31 0.29
4 16 9 4.34 0.3
6 -16 9 1.66 0.2
6 -16 9 1.44 0.15
-6 -16 -9 1.73 0.17
6 16 9 1.7 0.22
6 16 9 1.69 0.18
8 -16 9 0.77 0.16
8 16 9 0.73 0.23
-9 -17 9 25.61 0.88
9 -17 -9 26.68 0.83
9 17 -9 25.21 1
-7 -17 9 29.52 0.98
7 -17 -9 28.5 0.92
7 17 -9 31.25 1.1
-7 17 9 29 1.01
5 -17 -9 14.82 0.49
-5 17 9 13.72 0.57
5 17 -9 15.14 0.61
3 -17 -9 37.04 1.09
3 17 -9 37 1.28
3 17 -9 36.35 1.22
-3 17 9 36.5 1.22
1 -17 -9 22.45 0.68
1 17 -9 21.66 0.78
1 17 -9 22.38 0.82
-1 17 9 22.73 0.78
-1 -17 -9 34.8 0.99
-1 17 -9 35.74 1.17
1 17 9 32.32 1.14
1 17 9 32.31 1.11
-1 17 -9 32.41 1.11
-3 -17 -9 0.86 0.1
3 17 9 0.47 0.14
-3 17 -9 0.87 0.15
3 17 9 0.75 0.15
-5 -17 -9 5.18 0.23
5 -17 9 4.9 0.24
5 -17 9 4.85 0.27
5 17 9 5.4 0.35
5 17 9 4.93 0.3
7 -17 9 18.3 0.62
7 17 9 18.81 0.75
9 -17 9 0.29 0.16
9 17 9 0.36 0.24
-8 -18 9 6.11 0.32
8 -18 -9 5.3 0.31
-8 18 9 5.99 0.35
8 18 -9 5.44 0.42
6 -18 -9 1.95 0.21
6 18 -9 1.81 0.23
-6 18 9 1.66 0.2
4 -18 -9 16.81 0.56
-4 18 9 17.55 0.66
4 18 -9 17.51 0.65
4 18 -9 17.44 0.69
2 -18 -9 5.04 0.23
2 18 -9 4.85 0.31
2 18 -9 4.97 0.32
-2 18 9 5.36 0.32
0 -18 -9 3.55 0.2
0 18 -9 4.03 0.28
0 18 9 3.41 0.27
0 18 9 4.23 0.23
0 18 -9 3.38 0.27
-2 -18 -9 13 0.44
-2 18 -9 13.49 0.54
2 18 9 13.41 0.53
-2 18 -9 13.62 0.53
2 18 9 13.5 0.53
4 -18 9 6.54 0.31
-4 -18 -9 7.12 0.27
4 -18 9 6.33 0.26
4 18 9 6.15 0.36
4 18 9 6.7 0.36
6 -18 9 2.94 0.22
6 18 9 2.82 0.33
6 18 9 3.12 0.27
8 -18 9 0.06 0.16
8 18 9 0.26 0.22
-9 -19 9 0.69 0.17
9 -19 -9 0.88 0.17
9 19 -9 1 0.25
7 -19 -9 2.92 0.26
-7 -19 9 2.53 0.24
7 19 -9 2.67 0.35
-7 19 9 3.13 0.29
5 -19 -9 0.5 0.13
5 19 -9 0.68 0.18
5 19 -9 1.06 0.2
-5 19 9 0.54 0.17
3 -19 -9 3.05 0.2
-3 19 9 3.12 0.28
3 19 -9 3.3 0.3
3 19 -9 2.97 0.28
1 -19 -9 1.25 0.12
-1 19 9 1.56 0.19
1 19 -9 1.05 0.17
1 19 -9 1.23 0.18
-1 -19 -9 5.79 0.24
1 19 9 6.15 0.3
-1 19 -9 6.28 0.33
-1 19 -9 5.73 0.33
1 19 9 5.25 0.32
-3 -19 -9 0.22 0.1
3 19 9 0.43 0.15
3 19 9 0.5 0.16
-3 19 -9 0.27 0.14
-3 19 -9 0.65 0.16
5 -19 9 2.35 0.19
5 19 9 2.08 0.26
5 19 9 2.26 0.29
7 -19 9 0.63 0.15
7 19 9 0.46 0.22
8 -20 -9 32.69 1.05
-8 -20 9 33.26 1.13
-8 20 9 34.99 1.16
8 20 -9 35.28 1.26
6 -20 -9 2.66 0.24
-6 20 9 2.19 0.28
6 20 -9 2.92 0.3
6 20 -9 2.38 0.33
4 -20 -9 32.13 0.96
4 20 -9 31.66 1.09
4 20 -9 30.35 1.14
-4 20 9 32.95 1.09
2 -20 -9 13 0.44
2 20 -9 13.8 0.55
-2 20 9 12.95 0.53
2 20 -9 13.23 0.55
0 -20 -9 10.63 0.36
0 20 -9 11.13 0.46
0 20 9 9.78 0.46
0 20 -9 10.31 0.46
-2 -20 -9 13.51 0.42
2 20 9 12.76 0.52
2 20 9 12.5 0.52
-2 20 -9 12.48 0.51
-2 20 -9 12.1 0.52
4 20 9 7.84 0.41
4 20 9 7.65 0.41
-4 20 -9 8.58 0.38
6 -20 9 9.13 0.36
6 20 9 8.45 0.48
6 20 9 9.52 0.43
7 -21 -9 8.73 0.38
7 21 -9 9.76 0.51
-7 21 9 8.37 0.45
5 -21 -9 3.23 0.24
5 21 -9 4 0.34
5 21 -9 3.02 0.32
-5 21 9 2.84 0.3
3 -21 -9 18.55 0.59
3 21 -9 19.29 0.7
-3 21 9 18.06 0.7
3 21 -9 17.88 0.73
1 -21 -9 0.18 0.1
-1 21 9 0.19 0.16
1 21 -9 0.41 0.17
1 21 -9 0.32 0.16
-1 -21 -9 27.43 0.86
-1 21 -9 29.52 0.99
1 21 9 28.31 1
-1 21 -9 29.93 1.03
-3 21 -9 3.13 0.28
3 21 9 2.72 0.29
3 21 9 3.21 0.28
5 21 9 1.06 0.2
5 21 9 0.61 0.19
7 21 9 2.82 0.35
-8 -22 9 0.23 0.17
8 -22 -9 0.32 0.16
8 22 -9 0.68 0.24
-8 22 9 0.47 0.2
6 -22 -9 6.06 0.29
6 22 -9 5.55 0.41
6 22 -9 5.93 0.39
-6 22 9 4.8 0.36
4 -22 -9 0.82 0.14
-4 22 9 0.87 0.2
4 22 -9 1.31 0.22
4 22 -9 1.03 0.2
2 -22 -9 0.17 0.1
2 22 -9 0.18 0.18
-2 22 9 0.52 0.18
2 22 -9 0.08 0.16
0 -22 -9 0.97 0.11
0 22 -9 0.92 0.19
0 22 9 1.16 0.2
0 22 -9 1.14 0.18
-2 22 -9 0.69 0.18
2 22 9 0.58 0.18
-4 22 -9 6.95 0.37
4 22 9 6.82 0.4
4 22 9 6.95 0.4
6 22 9 2.04 0.25
6 22 9 1.68 0.22
7 -23 -9 14.27 0.53
-7 23 9 15.05 0.63
7 23 -9 14.47 0.69
5 -23 -9 13.39 0.47
-5 23 9 13.04 0.58
5 23 -9 12.63 0.58
5 23 -9 13.71 0.62
3 -23 -9 9.55 0.36
3 23 -9 9.71 0.48
-3 23 9 8.92 0.48
3 23 -9 10.39 0.48
1 -23 -9 25.89 0.79
1 23 -9 27.39 0.95
1 23 -9 25.1 0.92
-1 23 9 25.12 0.93
-1 23 -9 1.96 0.22
-1 23 -9 2.05 0.26
1 23 9 2.14 0.24
3 23 9 5.12 0.37
-3 23 -9 4.53 0.34
5 23 9 2.51 0.31
5 23 9 2.59 0.33
6 -24 -9 4.65 0.29
6 24 -9 4.33 0.38
-6 24 9 5.02 0.39
6 24 -9 4.78 0.42
4 -24 -9 9.31 0.37
4 24 -9 9.71 0.5
-4 24 9 9.58 0.47
4 24 -9 8.68 0.49
2 24 -9 16.7 0.68
-2 24 9 17.77 0.7
2 24 -9 17.46 0.7
0 24 -9 0.7 0.2
0 24 9 1.09 0.21
0 24 -9 1.21 0.19
2 24 9 9.54 0.48
-2 24 -9 9.53 0.45
4 24 9 2.7 0.33
-4 24 -9 2.95 0.3
5 -25 -9 2.37 0.24
5 25 -9 2.72 0.35
-5 25 9 2.91 0.36
5 25 -9 2.16 0.27
3 25 -9 0.34 0.21
-3 25 9 0.82 0.21
3 25 -9 0.82 0.21
-1 25 9 2.09 0.25
1 25 -9 2.13 0.29
1 25 -9 1.79 0.24
-1 25 -9 4.6 0.37
1 25 9 4.63 0.36
-3 25 -9 0.14 0.18
3 25 9 0.08 0.19
4 26 -9 2.41 0.34
-4 26 9 2.4 0.27
4 26 -9 2.49 0.28
2 26 -9 11.1 0.52
-2 26 9 10.99 0.54
2 26 -9 10.4 0.52
0 26 9 21.9 0.81
0 26 -9 20.19 0.81
2 26 9 1.47 0.24
-2 26 -9 1.39 0.22
-3 27 9 8.13 0.48
3 27 -9 7.21 0.46
3 27 -9 8.13 0.49
-1 27 9 8.03 0.48
1 27 -9 7.86 0.47
1 27 9 1.31 0.24
-1 27 -9 1.22 0.23
12 0 -10 9.71 0.41
-10 0 10 15.56 0.59
10 0 -10 16.09 0.65
10 0 -10 16.35 0.55
8 0 -10 0.96 0.16
8 0 -10 0.87 0.13
-8 0 10 0.96 0.14
6 0 -10 13.26 0.45
6 0 -10 13.68 0.53
-6 0 10 13.83 0.49
4 0 -10 10.83 0.36
4 0 -10 11.38 0.44
-4 0 10 10.47 0.41
-2 0 10 6.1 0.27
2 0 -10 6.94 0.3
2 0 -10 6.32 0.24
0 0 -10 39.81 1.35
0 0 10 40.13 1.27
0 0 -10 39.87 1.16
2 0 10 17.53 0.57
2 0 10 16.43 0.61
-2 0 -10 16.88 0.53
-4 0 -10 154.91 4.36
4 0 10 161.5 5.02
4 0 10 146.91 4.73
6 0 10 0.8 0.15
-6 0 -10 1.27 0.13
8 0 10 19.88 0.77
10 0 10 9.15 0.48
10 0 10 8.64 0.4
11 -1 -10 -0.17 0.14
11 1 -10 0.21 0.15
11 1 -10 0.46 0.19
-9 -1 10 0.25 0.13
9 -1 -10 0.34 0.13
9 -1 -10 0.18 0.15
9 1 -10 0.36 0.16
9 1 -10 0.16 0.12
-9 1 10 0.35 0.13
-7 -1 10 9.87 0.4
7 -1 -10 9.62 0.43
7 -1 -10 10.18 0.36
7 1 -10 10.19 0.36
7 1 -10 9.87 0.44
-7 1 10 9.98 0.39
5 -1 -10 10.7 0.43
-5 -1 10 10.48 0.4
5 -1 -10 10.47 0.36
5 1 -10 10.31 0.43
5 1 -10 10.35 0.36
-5 1 10 10.57 0.4
3 -1 -10 1.56 0.13
-3 -1 10 1.72 0.16
3 -1 -10 1.9 0.18
3 1 -10 1.76 0.14
3 1 -10 1.42 0.18
-3 1 10 1.94 0.16
1 -1 -10 45.88 1.35
-1 -1 10 48.17 1.48
1 -1 -10 44.38 1.56
-1 1 10 47.91 1.48
1 1 -10 48.62 1.35
1 1 -10 45.77 1.57
1 -1 10 2.11 0.16
-1 -1 -10 1.81 0.14
-1 1 -10 2.12 0.2
1 1 10 1.98 0.15
-1 1 -10 2.14 0.14
3 -1 10 0.11 0.08
3 -1 10 0.15 0.1
-3 -1 -10 0.06 0.08
3 1 10 0.2 0.09
-3 1 -10 0.05 0.08
3 1 10 0.3 0.1
5 -1 10 6.8 0.33
-5 -1 -10 5.91 0.26
5 -1 10 6.17 0.26
5 1 10 6.1 0.32
5 1 10 6.01 0.26
-5 1 -10 6.41 0.26
7 -1 10 0.73 0.16
7 1 10 0.57 0.17
9 -1 10 24.41 0.91
9 1 10 23.75 0.92
12 -2 -10 0.69 0.17
12 2 -10 0.91 0.17
12 2 -10 0.39 0.21
10 -2 -10 0.9 0.16
-10 -2 10 0.72 0.15
10 -2 -10 0.87 0.17
10 2 -10 0.69 0.14
-10 2 10 0.7 0.15
10 2 -10 0.6 0.19
8 -2 -10 4.18 0.23
8 -2 -10 4.32 0.28
-8 -2 10 4.18 0.25
-8 2 10 4.32 0.26
8 2 -10 3.72 0.3
8 2 -10 4.17 0.23
6 -2 -10 0.33 0.1
6 -2 -10 0.29 0.12
-6 -2 10 0.49 0.12
6 2 -10 0.38 0.1
-6 2 10 0.38 0.12
6 2 -10 0.25 0.13
-4 -2 10 4.68 0.23
4 -2 -10 4.43 0.26
4 -2 -10 4.67 0.21
-4 2 10 4.93 0.24
4 2 -10 4.46 0.26
4 2 -10 4.42 0.2
2 -2 -10 16.29 0.5
-2 -2 10 15.99 0.55
2 -2 -10 15.79 0.59
2 2 -10 16.31 0.5
-2 2 10 15.7 0.55
2 2 -10 15.87 0.59
0 -2 10 6.03 0.27
0 -2 -10 7.35 0.31
0 -2 -10 6.45 0.24
0 2 -10 5.92 0.31
0 2 -10 6.79 0.24
0 2 10 6.7 0.27
2 -2 10 0.99 0.11
2 -2 10 1.13 0.15
-2 -2 -10 1.05 0.12
2 2 10 1.14 0.15
-2 2 -10 0.98 0.1
2 2 10 1.01 0.13
4 -2 10 3.09 0.17
4 -2 10 2.8 0.22
-4 -2 -10 2.78 0.18
4 2 10 2.79 0.22
4 2 10 2.76 0.18
-4 2 -10 2.77 0.18
6 -2 10 4.74 0.29
-6 -2 -10 4.34 0.23
6 2 10 4.39 0.3
8 -2 10 2.89 0.3
8 2 10 2.89 0.3
10 -2 10 2.73 0.34
10 -2 10 2.71 0.26
10 2 10 2.77 0.34
10 2 10 2.63 0.28
11 -3 -10 0.66 0.16
11 3 -10 0.75 0.21
11 3 -10 0.62 0.15
9 -3 -10 7.6 0.33
9 -3 -10 7.28 0.37
-9 -3 10 7.45 0.34
9 3 -10 6.74 0.3
-9 3 10 7.34 0.34
9 3 -10 7.83 0.41
7 -3 -10 7.86 0.32
7 -3 -10 7.99 0.36
-7 -3 10 7.65 0.34
-7 3 10 7.2 0.34
7 3 -10 7.24 0.29
7 3 -10 7.62 0.38
5 -3 -10 21.58 0.76
5 -3 -10 21.01 0.65
-5 -3 10 21.47 0.71
5 3 -10 21.02 0.64
-5 3 10 20.68 0.72
5 3 -10 21.12 0.77
-3 -3 10 12.28 0.45
3 -3 -10 12.31 0.41
3 -3 -10 12.58 0.48
3 3 -10 12.53 0.4
3 3 -10 13.15 0.49
-3 3 10 12.19 0.45
1 -3 -10 56.66 1.87
-1 -3 10 55.4 1.77
1 -3 -10 55.71 1.62
-1 3 10 55.02 1.77
1 3 -10 58.26 1.62
1 3 -10 57.3 1.88
1 -3 10 4.83 0.21
-1 -3 -10 4.33 0.19
1 3 10 4.5 0.23
-1 3 -10 4.39 0.25
-1 3 -10 4.43 0.19
1 3 10 4.44 0.23
3 -3 10 47.95 1.55
3 -3 10 50.65 1.65
-3 -3 -10 49.39 1.43
-3 3 -10 50.09 1.43
3 3 10 47.94 1.55
3 3 10 49.85 1.65
-5 -3 -10 37.54 1.12
5 -3 10 37.73 1.29
5 -3 10 37.07 1.19
5 3 10 37.96 1.2
-5 3 -10 37.05 1.12
5 3 10 39.68 1.3
7 -3 10 3.62 0.3
7 3 10 4.25 0.31
9 -3 10 13.44 0.59
9 -3 10 13.09 0.5
9 3 10 13.27 0.59
12 -4 -10 0.07 0.18
12 4 -10 0 0.2
-10 -4 10 3.45 0.25
10 -4 -10 3.28 0.25
10 4 -10 2.81 0.23
10 4 -10 2.31 0.25
-8 -4 10 0.22 0.13
8 -4 -10 0.12 0.12
8 -4 -10 0.08 0.13
8 4 -10 0.29 0.11
8 4 -10 0.17 0.15
-8 4 10 0.16 0.13
6 -4 -10 16.84 0.61
-6 -4 10 16.19 0.58
6 -4 -10 16.86 0.53
6 4 -10 15.76 0.52
6 4 -10 17.06 0.63
-6 4 10 15.57 0.58
4 -4 -10 0.12 0.08
4 -4 -10 0.05 0.11
-4 -4 10 0.02 0.09
4 4 -10 0.18 0.12
-4 4 10 0.2 0.1
4 4 -10 0.13 0.08
2 -4 -10 17.31 0.63
-2 -4 10 17.98 0.59
2 -4 -10 17.3 0.54
2 4 -10 16.6 0.64
2 4 -10 18.08 0.54
-2 4 10 17.79 0.6
0 -4 10 19.67 0.66
0 -4 -10 19.7 0.6
0 4 10 20.04 0.69
0 4 10 19.1 0.66
0 4 -10 21.16 0.72
0 4 -10 18.97 0.6
-2 -4 -10 0.59 0.09
2 -4 10 0.82 0.1
-2 4 -10 0.78 0.09
2 4 10 0.71 0.11
2 4 10 0.57 0.1
4 -4 10 31.22 1.01
-4 -4 -10 32.02 0.94
4 -4 10 32.47 1.09
4 4 10 31.41 1.1
-4 4 -10 32.66 0.95
4 4 10 31.14 1.02
-6 -4 -10 0.73 0.12
6 -4 10 0.83 0.16
6 4 10 0.81 0.15
8 -4 10 11.19 0.51
8 4 10 11.08 0.51
10 -4 10 3.53 0.36
10 -4 10 3.62 0.28
10 4 10 3.34 0.29
10 4 10 4.51 0.41
11 -5 -10 0.43 0.17
11 5 -10 0.5 0.14
11 5 -10 0.44 0.21
9 -5 -10 0.65 0.14
-9 -5 10 0.78 0.14
9 5 -10 0.52 0.12
9 5 -10 0.65 0.18
-9 5 10 1 0.15
-7 -5 10 2.95 0.21
7 -5 -10 2.37 0.22
7 -5 -10 2.72 0.2
-7 5 10 2.82 0.23
7 5 -10 2.18 0.26
7 5 -10 2.94 0.18
5 -5 -10 1.31 0.16
-5 -5 10 1.64 0.18
5 -5 -10 1.56 0.19
-5 5 10 1.62 0.18
5 5 -10 1.49 0.17
5 5 -10 1.43 0.14
-3 -5 10 12.4 0.46
3 -5 -10 13.23 0.49
3 -5 -10 13.37 0.42
3 5 -10 13.27 0.51
3 5 -10 13.48 0.41
-3 5 10 12.3 0.47
-1 -5 10 3.78 0.2
1 -5 -10 4.22 0.18
1 -5 -10 3.77 0.22
1 5 -10 3.88 0.17
-1 5 10 3.51 0.21
1 5 -10 3.51 0.24
-1 -5 -10 30.01 0.91
1 -5 10 31.19 0.99
1 5 10 30.25 1.05
-1 5 -10 31.01 0.91
1 5 10 30.3 1
-1 5 -10 31.81 1.06
3 -5 10 0.16 0.1
3 -5 10 0.32 0.08
-3 -5 -10 0.07 0.08
3 5 10 0.03 0.1
-3 5 -10 0.33 0.09
3 5 10 0.13 0.09
5 -5 10 0.27 0.12
-5 -5 -10 0.07 0.09
5 -5 10 0.21 0.08
5 5 10 0.17 0.13
-5 5 -10 0.24 0.1
5 5 10 0.05 0.09
7 -5 10 10.25 0.47
7 5 10 10.63 0.49
9 -5 10 0.11 0.17
9 -5 10 -0.09 0.14
9 5 10 0.09 0.19
-10 -6 10 1.27 0.16
10 -6 -10 0.94 0.16
10 6 -10 1.09 0.14
10 6 -10 1.18 0.22
8 -6 -10 15.85 0.54
-8 -6 10 16.45 0.58
8 6 -10 15.95 0.66
8 6 -10 16.44 0.52
-8 6 10 16.03 0.59
-6 -6 10 3.18 0.21
6 -6 -10 3.3 0.21
6 -6 -10 3.56 0.23
-6 6 10 3.01 0.22
6 6 -10 3.28 0.26
6 6 -10 3.4 0.18
-4 -6 10 16.28 0.57
4 -6 -10 15.97 0.52
4 -6 -10 16.72 0.61
4 6 -10 16.89 0.63
-4 6 10 16.83 0.58
4 6 -10 16.73 0.51
2 -6 -10 26.53 0.83
2 -6 -10 28.46 0.96
-2 -6 10 28.8 0.91
2 6 -10 27.1 0.82
-2 6 10 27.68 0.92
2 6 -10 29.1 0.98
0 -6 -10 21.67 0.65
0 -6 10 21.76 0.71
0 6 -10 21.76 0.65
0 6 -10 20.88 0.77
0 6 10 22.46 0.76
0 6 10 20.9 0.72
2 -6 10 51.87 1.62
-2 -6 -10 50.88 1.49
-2 6 -10 52.09 1.73
-2 6 -10 51.31 1.49
2 6 10 51.41 1.63
2 6 10 52.62 1.72
-4 -6 -10 4.87 0.22
4 -6 10 4.83 0.22
4 -6 10 4.97 0.27
4 6 10 4.64 0.24
-4 6 -10 4.78 0.22
4 6 10 5.52 0.28
-6 -6 -10 32.94 1.02
6 -6 10 34.66 1.18
6 6 10 34.58 1.19
8 -6 10 10.05 0.48
8 6 10 10.72 0.51
10 -6 10 8.57 0.4
10 -6 10 9.3 0.48
10 6 10 8.84 0.39
10 6 10 8.23 0.5
11 -7 -10 1.41 0.2
11 7 -10 1.29 0.24
9 -7 -10 1.5 0.17
-9 -7 10 1.48 0.17
-9 7 10 1.32 0.17
9 7 -10 1.44 0.22
9 7 -10 1.4 0.14
7 -7 -10 6.84 0.29
7 -7 -10 6.71 0.32
-7 -7 10 6.71 0.32
7 7 -10 6.55 0.26
7 7 -10 7.3 0.37
-7 7 10 6.45 0.33
-5 -7 10 2.37 0.19
5 -7 -10 2.38 0.18
5 -7 -10 2.35 0.2
5 7 -10 2.3 0.15
5 7 -10 2.51 0.24
-5 7 10 2.99 0.21
3 -7 -10 8.93 0.32
3 -7 -10 8.81 0.36
-3 -7 10 7.94 0.34
3 7 -10 8.88 0.3
3 7 -10 9.51 0.4
-3 7 10 9.31 0.36
1 -7 -10 7.24 0.27
-1 -7 10 7.1 0.29
1 7 -10 7.13 0.26
1 7 -10 7.79 0.34
-1 7 10 7.26 0.31
-1 7 10 7.31 0.31
1 -7 10 14.27 0.48
-1 -7 -10 13.34 0.44
1 7 10 14.06 0.5
-1 7 -10 13.64 0.44
1 7 10 14.21 0.52
-1 7 -10 13.33 0.53
-3 -7 -10 17.74 0.56
3 -7 10 18.32 0.6
3 -7 10 18.08 0.64
3 7 10 18.07 0.61
-3 7 -10 17.45 0.56
3 7 10 17.32 0.66
5 -7 10 11.35 0.41
5 -7 10 10.71 0.47
-5 -7 -10 11.9 0.4
5 7 10 11.49 0.48
5 7 10 12.09 0.43
7 -7 10 8.57 0.41
7 7 10 8.63 0.43
9 -7 10 3.42 0.27
9 -7 10 2.98 0.32
9 7 10 3.78 0.36
10 -8 -10 0.7 0.17
-10 -8 10 0.78 0.16
10 8 -10 0.59 0.21
8 -8 -10 15.17 0.52
-8 -8 10 15.64 0.55
8 8 -10 14.74 0.48
-8 8 10 14.61 0.56
8 8 -10 14.45 0.62
6 -8 -10 1.74 0.18
-6 -8 10 1.47 0.15
6 -8 -10 1.61 0.18
-6 8 10 1.5 0.2
6 8 -10 1.2 0.17
6 8 -10 1.53 0.14
-4 -8 10 1.44 0.14
4 -8 -10 1.11 0.12
4 -8 -10 1.15 0.13
-4 8 10 0.72 0.13
4 8 -10 1.19 0.16
4 8 -10 1.3 0.12
2 -8 -10 3.08 0.17
-2 -8 10 2.84 0.18
-2 8 10 3.27 0.18
-2 8 10 2.85 0.2
2 8 -10 2.5 0.22
2 8 -10 2.68 0.15
0 -8 10 1.32 0.15
0 -8 -10 1.4 0.14
0 8 -10 1.37 0.19
0 8 10 1.57 0.17
0 8 10 1.81 0.17
0 8 -10 1.5 0.12
-2 -8 -10 7.73 0.29
2 -8 10 7.82 0.31
2 8 10 8.01 0.35
2 8 10 8.16 0.33
-2 8 -10 7.76 0.37
-2 8 -10 8.11 0.29
4 -8 10 0.1 0.11
4 -8 10 0.11 0.08
-4 -8 -10 0.15 0.09
4 8 10 0.29 0.13
4 8 10 0.13 0.1
-4 8 -10 0.2 0.09
-6 -8 -10 17.38 0.55
6 -8 10 16.79 0.64
6 8 10 16.28 0.66
8 -8 10 0.07 0.16
8 -8 10 0.12 0.14
8 8 10 0.13 0.19
10 -8 10 0.22 0.17
10 -8 10 0.15 0.18
10 8 10 0.26 0.16
10 8 10 0.38 0.23
11 -9 -10 0.63 0.18
11 9 -10 0.41 0.23
-9 -9 10 0.93 0.16
9 -9 -10 1.42 0.17
9 9 -10 0.92 0.21
-9 9 10 0.75 0.16
7 -9 -10 4.81 0.26
-7 -9 10 4.37 0.26
7 9 -10 4.72 0.32
7 9 -10 4.33 0.2
-7 9 10 4.09 0.27
5 -9 -10 12.39 0.47
-5 -9 10 12.34 0.46
5 -9 -10 11.81 0.42
5 9 -10 12.31 0.4
-5 9 10 12.23 0.47
5 9 -10 13.11 0.52
3 -9 -10 128.58 3.55
-3 -9 10 120.71 3.86
3 9 -10 128.14 3.54
-3 9 10 128.97 3.87
3 9 -10 119.62 4.09
-1 -9 10 0.61 0.11
1 -9 -10 0.79 0.1
1 9 -10 0.57 0.13
-1 9 10 0.65 0.1
-1 9 10 0.54 0.11
1 9 -10 0.6 0.08
1 -9 10 19.16 0.65
-1 -9 -10 18.8 0.6
-1 9 -10 20.17 0.72
-1 9 -10 20.16 0.6
1 9 10 19.65 0.67
1 9 10 19.37 0.69
3 -9 10 20.39 0.67
-3 -9 -10 20.26 0.62
-3 9 -10 20.06 0.63
3 9 10 20.27 0.69
3 9 10 20.31 0.73
-5 -9 -10 8.29 0.31
5 -9 10 7.91 0.36
5 -9 10 7.55 0.3
5 9 10 8.02 0.39
5 9 10 7.75 0.33
7 -9 10 9.69 0.45
-7 -9 -10 9.9 0.37
7 9 10 10.43 0.49
9 -9 10 3.38 0.27
9 -9 10 3.08 0.31
9 9 10 3.28 0.37
10 -10 -10 0.54 0.16
-10 -10 10 0.7 0.16
10 10 -10 0.51 0.23
8 -10 -10 27.75 0.88
-8 -10 10 29.38 0.94
8 10 -10 28.62 1.04
-8 10 10 27.41 0.96
6 -10 -10 0.23 0.12
-6 -10 10 0.28 0.12
6 10 -10 0.49 0.09
6 10 -10 0.43 0.16
-6 10 10 0.44 0.14
-4 -10 10 0.69 0.12
4 -10 -10 0.66 0.11
4 10 -10 0.83 0.16
4 10 -10 0.66 0.08
-4 10 10 0.74 0.14
2 -10 -10 11.49 0.38
-2 -10 10 11.24 0.41
-2 10 10 10.98 0.44
2 10 -10 10.98 0.46
2 10 -10 10.91 0.36
-2 10 10 11.22 0.42
0 -10 -10 9.61 0.33
0 -10 10 9.39 0.36
0 10 -10 9.65 0.32
0 10 10 9.24 0.38
0 10 10 9.77 0.39
0 10 -10 8.54 0.41
2 -10 10 37.84 1.2
-2 -10 -10 36.52 1.1
-2 10 -10 37.39 1.1
2 10 10 37.03 1.21
2 10 10 38.44 1.27
-2 10 -10 38.11 1.29
4 -10 10 4.19 0.2
-4 -10 -10 3.98 0.21
4 -10 10 4.16 0.25
4 10 10 4.36 0.27
4 10 10 4.07 0.24
-6 -10 -10 44.6 1.32
6 -10 10 45.24 1.53
6 10 10 45.72 1.56
8 -10 10 0.87 0.16
8 -10 10 1.03 0.17
8 10 10 1.08 0.22
10 -10 10 0.76 0.19
10 10 10 0.81 0.26
10 10 10 0.72 0.17
11 -11 -10 1.3 0.2
11 11 -10 1.22 0.27
-9 -11 10 0.01 0.14
9 -11 -10 0.09 0.14
9 11 -10 -0.07 0.19
-9 11 10 0.01 0.15
-7 -11 10 1.64 0.21
7 -11 -10 1.79 0.17
-7 11 10 1.48 0.19
7 11 -10 1.6 0.21
5 -11 -10 0.99 0.13
-5 -11 10 0.77 0.13
-5 11 10 0.95 0.15
5 11 -10 0.89 0.16
5 11 -10 0.94 0.09
-3 -11 10 1.61 0.17
3 -11 -10 1.79 0.16
-3 11 10 1.7 0.15
3 11 -10 1.61 0.22
3 11 -10 1.82 0.13
-3 11 10 1.61 0.2
1 -11 -10 2.64 0.17
-1 -11 10 2.25 0.18
-1 11 10 2.47 0.21
1 11 -10 2.31 0.23
1 11 -10 2.25 0.14
-1 11 10 2.7 0.18
-1 -11 -10 0.02 0.08
1 -11 10 0.02 0.09
-1 11 -10 0 0.07
1 11 10 0.01 0.1
1 11 10 -0.08 0.11
-1 11 -10 0.15 0.13
-3 -11 -10 6.16 0.26
3 -11 10 6.51 0.27
-3 11 -10 6.88 0.26
3 11 10 5.77 0.3
3 11 10 6.56 0.33
5 -11 10 0.54 0.1
-5 -11 -10 0.6 0.11
5 -11 10 0.46 0.13
5 11 10 0.54 0.15
5 11 10 0.4 0.12
7 -11 10 0.39 0.13
-7 -11 -10 0.14 0.12
7 -11 10 0.32 0.15
7 11 10 0.02 0.18
9 -11 10 0.17 0.15
9 -11 10 0.32 0.16
9 11 10 0.02 0.21
-10 -12 10 1.35 0.18
10 -12 -10 1.64 0.2
10 12 -10 1.49 0.26
8 -12 -10 8.02 0.35
-8 -12 10 8.04 0.37
-8 12 10 7.48 0.39
8 12 -10 8.72 0.46
6 -12 -10 8.21 0.33
-6 -12 10 8.13 0.35
-6 12 10 7.91 0.38
6 12 -10 8.42 0.42
4 -12 -10 6.5 0.27
-4 -12 10 6.46 0.29
4 12 -10 5.94 0.34
4 12 -10 6.19 0.23
-4 12 10 5.96 0.32
-2 -12 10 27.17 0.89
2 -12 -10 27.73 0.82
2 12 -10 27.99 0.8
2 12 -10 26.63 0.97
-2 12 10 26.85 0.93
-2 12 10 26.5 0.91
0 -12 -10 14.81 0.47
0 -12 10 14.54 0.52
0 12 -10 14.77 0.46
0 12 -10 14.51 0.57
0 12 10 14.95 0.54
0 12 10 14.39 0.54
2 -12 10 25.13 0.82
-2 -12 -10 23.77 0.76
-2 12 -10 26.4 0.9
-2 12 -10 24.45 0.75
2 12 10 25 0.85
2 12 10 26.3 0.89
-4 -12 -10 6.81 0.28
4 -12 10 6.33 0.31
4 -12 10 7.12 0.28
4 12 10 6.53 0.34
4 12 10 6.58 0.32
-6 -12 -10 15.86 0.53
6 -12 10 16.1 0.62
6 12 10 17.19 0.67
8 -12 10 9.26 0.43
8 -12 10 8.59 0.37
8 12 10 7.97 0.5
-9 -13 10 2.34 0.26
9 -13 -10 2.25 0.27
9 13 -10 2.36 0.28
-9 13 10 2.35 0.28
-7 -13 10 3.51 0.25
7 -13 -10 2.67 0.23
-7 13 10 3.21 0.28
7 13 -10 3.04 0.32
-5 -13 10 6.07 0.3
5 -13 -10 5.54 0.27
-5 13 10 6.16 0.32
5 13 -10 6.22 0.36
-3 -13 10 14.98 0.54
3 -13 -10 15.59 0.49
3 13 -10 15.41 0.6
3 13 -10 14.33 0.46
-3 13 10 15.36 0.57
-3 13 10 15.12 0.54
1 -13 -10 2.42 0.18
-1 -13 10 2.69 0.2
1 13 -10 2.68 0.26
-1 13 10 2.71 0.18
1 13 -10 2.67 0.15
-1 13 10 2.29 0.22
-1 -13 -10 29.84 0.88
1 -13 10 29.85 0.96
-1 13 -10 28.77 1.04
-1 13 -10 30.23 0.88
1 13 10 29.99 1.02
1 13 10 29.41 0.99
-3 -13 -10 12.86 0.41
3 -13 10 11.84 0.44
3 13 10 11.99 0.5
3 13 10 11.68 0.48
-3 13 -10 12.36 0.5
-5 -13 -10 3.09 0.2
5 -13 10 2.95 0.23
5 13 10 3.27 0.24
5 13 10 2.98 0.27
7 -13 10 23.77 0.87
7 -13 10 23.95 0.77
7 13 10 23.95 0.91
9 -13 10 1.09 0.18
9 13 10 1.52 0.26
10 -14 -10 0.86 0.17
-10 -14 10 0.79 0.17
10 14 -10 1.19 0.26
8 -14 -10 0.39 0.15
-8 -14 10 0.35 0.14
-8 14 10 0.23 0.17
8 14 -10 0.44 0.21
6 -14 -10 2.89 0.22
-6 -14 10 2.74 0.24
-6 14 10 2.64 0.26
6 14 -10 2.5 0.32
-4 -14 10 1.85 0.19
4 -14 -10 1.85 0.18
4 14 -10 1.97 0.21
-4 14 10 1.7 0.19
2 -14 -10 0.9 0.11
-2 -14 10 1.04 0.13
-2 14 10 0.89 0.11
2 14 -10 0.95 0.17
2 14 -10 0.87 0.09
-2 14 10 0.81 0.15
0 -14 10 3.84 0.23
0 -14 -10 3.7 0.2
0 14 10 3.92 0.23
0 14 10 3.59 0.26
0 14 -10 3.59 0.27
0 14 -10 3.93 0.18
-2 -14 -10 3.93 0.21
2 -14 10 4.35 0.22
2 14 10 4.37 0.27
-2 14 -10 4.16 0.29
2 14 10 4.57 0.26
4 -14 10 6.44 0.32
-4 -14 -10 6.84 0.28
4 -14 10 6.65 0.29
4 14 10 6.28 0.35
4 14 10 6.97 0.34
-6 -14 -10 2.16 0.18
6 -14 10 1.79 0.22
6 -14 10 1.96 0.22
6 14 10 1.54 0.22
8 -14 10 1.38 0.18
8 14 10 1.18 0.24
9 -15 -10 1.61 0.19
-9 -15 10 1.52 0.18
-9 15 10 1.73 0.22
9 15 -10 1.64 0.26
-7 -15 10 10.31 0.42
7 -15 -10 10.71 0.41
7 15 -10 9.71 0.51
-7 15 10 9.92 0.47
5 -15 -10 9.14 0.35
-5 -15 10 9.17 0.37
-5 15 10 8.52 0.41
5 15 -10 8.87 0.45
-3 -15 10 6.4 0.3
3 -15 -10 6.99 0.29
-3 15 10 7.31 0.36
3 15 -10 6.8 0.38
-1 -15 10 32.38 1.04
1 -15 -10 31.14 0.95
1 15 -10 33.9 1.12
-1 15 10 31.66 1.08
-1 15 10 30.44 1.06
1 15 -10 31.67 0.93
1 -15 10 1.68 0.19
-1 -15 -10 2.17 0.16
-1 15 -10 2.19 0.15
1 15 10 2.1 0.23
-1 15 -10 2.21 0.23
1 15 10 2.19 0.21
3 -15 10 13.81 0.49
-3 -15 -10 13.85 0.46
-3 15 -10 14.08 0.56
3 15 10 13.62 0.54
3 15 10 13.69 0.53
5 -15 10 28.42 0.98
5 -15 10 28.01 0.85
-5 -15 -10 27.78 0.84
5 15 10 27.86 0.94
5 15 10 27.23 1.01
7 -15 10 0.29 0.14
7 15 10 0.23 0.21
-8 -16 10 4.78 0.29
8 -16 -10 5.39 0.29
8 16 -10 4.33 0.39
-8 16 10 4.31 0.34
6 -16 -10 0.85 0.14
-6 -16 10 1.01 0.16
6 16 -10 1.14 0.21
-6 16 10 1.04 0.19
4 -16 -10 9.36 0.37
-4 -16 10 9.73 0.39
4 16 -10 9.55 0.46
-4 16 10 9.62 0.43
-2 -16 10 17.41 0.61
2 -16 -10 16.65 0.55
-2 16 10 17.56 0.65
2 16 -10 17.84 0.68
0 -16 10 14.17 0.5
0 -16 -10 13.59 0.45
0 16 10 13.38 0.54
0 16 -10 13.27 0.56
0 16 10 14.37 0.52
-2 -16 -10 2.36 0.18
2 -16 10 2.33 0.2
2 16 10 2.5 0.25
2 16 10 2.55 0.23
-2 16 -10 2.33 0.24
4 -16 10 28.38 1
-4 -16 -10 29.56 0.87
4 -16 10 29.18 0.94
4 16 10 27.39 0.97
4 16 10 29.23 1.03
6 -16 10 3.85 0.26
6 -16 10 3.27 0.23
-6 -16 -10 3.56 0.22
6 16 10 3.36 0.33
8 -16 10 3.91 0.3
8 16 10 4.09 0.41
9 -17 -10 -0.05 0.15
-9 -17 10 0.15 0.16
-9 17 10 0 0.16
9 17 -10 0.09 0.24
7 -17 -10 -0.12 0.14
-7 -17 10 -0.08 0.14
7 17 -10 -0.23 0.19
-7 17 10 0.03 0.17
5 -17 -10 3.59 0.23
-5 -17 10 3.82 0.26
5 17 -10 3.38 0.33
-5 17 10 3.79 0.3
3 -17 -10 0.54 0.12
3 17 -10 0.83 0.18
-3 17 10 0.53 0.16
1 -17 -10 4.9 0.23
1 17 -10 5.11 0.33
-1 17 10 4.84 0.31
-1 -17 -10 2.46 0.18
1 17 10 2.32 0.26
1 17 10 2.3 0.22
-1 17 -10 2.27 0.26
3 -17 10 0.26 0.11
-3 -17 -10 0.23 0.1
3 17 10 0.22 0.15
3 17 10 0.33 0.14
-3 17 -10 0.32 0.14
-5 -17 -10 1.31 0.13
5 -17 10 1.26 0.16
5 -17 10 1.51 0.18
5 17 10 1.19 0.2
5 17 10 1.55 0.19
7 -17 10 0.01 0.14
7 17 10 0.09 0.21
-8 -18 10 -0.11 0.15
8 -18 -10 0.22 0.15
-8 18 10 0.06 0.16
8 18 -10 0.11 0.22
-6 -18 10 7.7 0.37
6 -18 -10 8.04 0.34
6 18 -10 8.18 0.47
-6 18 10 7.87 0.41
4 -18 -10 2.18 0.2
-4 18 10 1.92 0.22
4 18 -10 1.75 0.22
2 -18 -10 1.93 0.19
2 18 -10 2.46 0.29
-2 18 10 2.41 0.27
0 -18 -10 14.83 0.47
0 18 -10 14.44 0.59
0 18 10 13.86 0.56
2 -18 10 6.68 0.3
-2 -18 -10 6.68 0.27
2 18 10 6.74 0.36
-2 18 -10 6.49 0.35
2 18 10 6 0.33
-4 -18 -10 56.19 1.59
4 -18 10 55.73 1.73
4 -18 10 54.35 1.83
4 -18 10 53.02 1.59
4 18 10 54 1.77
4 18 10 56.16 1.87
6 -18 10 0.36 0.13
6 18 10 0.03 0.19
7 -19 -10 4.38 0.29
-7 -19 10 4.66 0.29
-7 19 10 4.56 0.33
7 19 -10 4.94 0.4
-5 -19 10 17.63 0.62
5 -19 -10 16.34 0.56
5 19 -10 16.91 0.7
-5 19 10 16.44 0.65
3 -19 -10 1.09 0.13
-3 19 10 1.11 0.19
3 19 -10 1.33 0.21
1 -19 -10 57.92 1.65
1 19 -10 57.43 1.83
-1 19 10 53.53 1.83
1 19 -10 58.36 1.92
-1 -19 -10 0.71 0.11
1 19 10 1 0.18
-1 19 -10 0.53 0.16
-3 -19 -10 5.4 0.25
3 -19 10 5.38 0.28
3 19 10 5.52 0.34
3 19 10 6.15 0.34
-3 19 -10 5.83 0.33
5 -19 10 4.89 0.25
5 19 10 4.51 0.36
5 19 10 4.51 0.33
7 -19 10 3.76 0.27
7 19 10 3.99 0.39
-8 -20 10 1.55 0.2
8 -20 -10 1.29 0.18
8 20 -10 1.33 0.26
-8 20 10 1.46 0.22
6 -20 -10 2.67 0.23
-6 -20 10 2.02 0.21
-6 20 10 2.67 0.3
6 20 -10 2.53 0.27
4 -20 -10 1.53 0.15
4 20 -10 1.46 0.22
-4 20 10 1.41 0.2
2 -20 -10 0.06 0.11
-2 20 10 0.3 0.17
2 20 -10 0.01 0.17
2 20 -10 0.09 0.17
0 -20 -10 0.1 0.1
0 20 -10 0.11 0.15
0 20 -10 -0.01 0.16
0 20 10 0.12 0.17
-2 -20 -10 0.54 0.11
-2 20 -10 0.56 0.16
2 20 10 0.58 0.18
4 -20 10 5.08 0.27
4 20 10 5.02 0.35
4 20 10 5.27 0.35
6 20 10 0.01 0.2
7 -21 -10 3.4 0.28
-7 -21 10 3.05 0.3
7 21 -10 3.39 0.39
-7 21 10 3.41 0.34
5 -21 -10 1.81 0.22
5 21 -10 2.59 0.33
-5 21 10 2.89 0.3
3 -21 -10 6.96 0.3
3 21 -10 6.82 0.4
3 21 -10 6.85 0.4
-3 21 10 7.41 0.4
1 -21 -10 9.22 0.34
-1 21 10 8.44 0.44
1 21 -10 8.93 0.46
1 21 -10 8.96 0.45
-1 -21 -10 3.38 0.21
-1 21 -10 3.45 0.3
-1 21 -10 2.97 0.29
1 21 10 3.85 0.33
3 21 10 6.15 0.37
3 21 10 5.75 0.36
5 21 10 14.41 0.62
5 21 10 13.7 0.58
6 -22 -10 7.49 0.35
-6 -22 10 7.79 0.38
-6 22 10 7.64 0.44
6 22 -10 7.26 0.47
4 -22 -10 3.21 0.24
4 22 -10 3.25 0.34
4 22 -10 4.13 0.34
-4 22 10 3.33 0.35
2 -22 -10 9.15 0.35
-2 22 10 8.72 0.45
2 22 -10 8.61 0.45
2 22 -10 8.84 0.46
0 -22 -10 10.19 0.37
0 22 -10 10.39 0.49
0 22 -10 9.6 0.47
0 22 10 9.95 0.49
2 22 10 3.25 0.32
-2 22 -10 3.49 0.3
4 -22 10 19.65 0.7
4 22 10 21.3 0.78
5 -23 -10 0.52 0.14
5 23 -10 0.39 0.21
-5 23 10 0.5 0.21
3 -23 -10 1.03 0.14
3 23 -10 1.11 0.21
-3 23 10 1.1 0.21
3 23 -10 0.69 0.22
1 -23 -10 10.84 0.39
1 23 -10 10.9 0.51
-1 23 10 10.14 0.5
1 23 -10 10.65 0.52
-1 23 -10 1.28 0.21
1 23 10 1.22 0.23
-1 23 -10 1.4 0.2
3 23 10 0.84 0.22
5 23 10 3.86 0.34
4 -24 -10 1.58 0.17
4 24 -10 1.51 0.25
4 24 -10 1.38 0.24
-4 24 10 0.97 0.23
2 24 -10 3.53 0.35
-2 24 10 3.87 0.38
2 24 -10 4.04 0.36
0 24 10 4.56 0.39
0 24 -10 4.07 0.34
0 24 -10 4.73 0.36
-2 24 -10 16.05 0.65
2 24 10 15.49 0.66
4 24 10 0.14 0.2
3 25 -10 15.55 0.69
-3 25 10 16.57 0.69
3 25 -10 17.49 0.71
1 25 -10 1.29 0.21
-1 25 10 1.55 0.25
1 25 -10 1.67 0.24
-1 25 -10 7.37 0.44
1 25 10 6.81 0.45
3 25 10 8.38 0.49
-3 25 -10 9.81 0.47
2 26 -10 0.11 0.2
-2 26 10 0.08 0.22
2 26 -10 0.2 0.22
0 26 -10 1.01 0.23
0 26 10 1.21 0.24
10 0 -11 0.12 0.18
-10 0 11 0 0.14
10 0 -11 0 0.14
8 0 -11 0.13 0.15
-8 0 11 -0.03 0.13
8 0 -11 0.06 0.11
-6 0 11 0.01 0.12
6 0 -11 0.04 0.13
6 0 -11 0.05 0.1
4 0 -11 -0.01 0.08
-4 0 11 -0.02 0.11
4 0 -11 -0.02 0.12
2 0 -11 0.04 0.12
-2 0 11 -0.08 0.09
2 0 -11 0.12 0.08
0 0 11 -0.11 0.09
0 0 -11 -0.01 0.08
0 0 -11 0 0.11
2 0 11 -0.08 0.09
2 0 11 -0.03 0.1
-2 0 -11 -0.02 0.08
4 0 11 -0.08 0.09
-4 0 -11 -0.01 0.09
4 0 11 0.01 0.12
6 0 11 -0.2 0.14
-6 0 -11 -0.21 0.11
8 0 11 0.01 0.18
10 0 11 0.27 0.22
10 0 11 -0.13 0.16
11 -1 -11 21.19 0.7
11 1 -11 21.09 0.82
11 1 -11 20.26 0.7
9 -1 -11 2.26 0.28
-9 -1 11 2.15 0.24
9 -1 -11 2.19 0.24
-9 1 11 2.56 0.25
9 1 -11 2.15 0.3
9 1 -11 2.41 0.23
-7 -1 11 11.53 0.46
7 -1 -11 12.05 0.49
7 -1 -11 11.2 0.41
7 1 -11 11.04 0.5
-7 1 11 11.24 0.46
7 1 -11 11.74 0.41
-5 -1 11 4.43 0.26
5 -1 -11 4.62 0.22
5 -1 -11 4.52 0.28
5 1 -11 4.34 0.22
-5 1 11 4.33 0.26
5 1 -11 4.15 0.29
-3 -1 11 7.56 0.32
3 -1 -11 7.82 0.36
3 -1 -11 7.97 0.29
3 1 -11 7.47 0.36
-3 1 11 7.47 0.32
3 1 -11 7.71 0.29
1 -1 -11 8.55 0.31
-1 -1 11 8.35 0.35
1 -1 -11 9.27 0.39
1 1 -11 8.55 0.38
1 1 -11 8.63 0.31
-1 1 11 8.57 0.35
1 -1 11 0.36 0.1
-1 -1 -11 0.5 0.09
1 1 11 0.47 0.11
-1 1 -11 0.36 0.09
1 1 11 0.43 0.11
3 -1 11 2.86 0.19
-3 -1 -11 2.9 0.18
3 -1 11 2.89 0.22
-3 1 -11 2.59 0.19
3 1 11 2.68 0.22
3 1 11 2.38 0.19
5 -1 11 11.1 0.4
-5 -1 -11 11.06 0.39
5 -1 11 10.95 0.47
-5 1 -11 11.25 0.39
5 1 11 10.44 0.46
5 1 11 10.28 0.4
7 -1 11 0.77 0.18
7 1 11 0.66 0.18
9 -1 11 0.33 0.2
9 1 11 0.27 0.2
-10 -2 11 3.99 0.29
10 -2 -11 3.89 0.29
10 2 -11 4.52 0.36
10 2 -11 4.75 0.28
-10 2 11 3.56 0.28
-8 -2 11 3.77 0.27
8 -2 -11 4.25 0.3
8 -2 -11 4.55 0.25
8 2 -11 3.87 0.31
8 2 -11 3.99 0.25
-8 2 11 4.18 0.28
6 -2 -11 44.57 1.46
6 -2 -11 43.25 1.26
-6 -2 11 42.5 1.38
6 2 -11 43.43 1.25
-6 2 11 41.01 1.38
6 2 -11 41.83 1.47
4 -2 -11 2.68 0.23
-4 -2 11 3 0.21
4 -2 -11 3.01 0.19
4 2 -11 3.62 0.25
-4 2 11 3.13 0.21
4 2 -11 3.02 0.19
2 -2 -11 8.46 0.38
2 -2 -11 8.2 0.3
-2 -2 11 8.32 0.34
2 2 -11 8.12 0.3
-2 2 11 8.4 0.34
2 2 -11 9.15 0.38
0 -2 11 13.15 0.47
0 -2 -11 12.61 0.51
0 -2 -11 12.73 0.42
0 2 -11 13.48 0.51
0 2 11 12.75 0.47
0 2 -11 13.12 0.42
-2 -2 -11 0.26 0.09
2 -2 11 0.3 0.11
2 -2 11 0.26 0.1
2 2 11 0.25 0.1
-2 2 -11 0.26 0.09
2 2 11 0.2 0.11
-4 -2 -11 0.88 0.12
4 -2 11 0.97 0.12
4 -2 11 0.74 0.14
4 2 11 0.93 0.15
-4 2 -11 0.99 0.12
4 2 11 0.93 0.12
-6 -2 -11 1.48 0.15
6 -2 11 1.34 0.18
-6 2 -11 1.14 0.14
6 2 11 1.52 0.19
8 -2 11 2.97 0.32
8 2 11 2.3 0.31
10 -2 11 1.53 0.24
10 -2 11 1.35 0.2
10 2 11 1.47 0.19
10 2 11 1.6 0.26
11 -3 -11 3.52 0.3
11 3 -11 3.2 0.37
11 3 -11 2.98 0.27
9 -3 -11 0.89 0.17
-9 -3 11 0.87 0.16
9 -3 -11 1.34 0.16
9 3 -11 1.23 0.2
9 3 -11 1.12 0.15
-9 3 11 1.34 0.17
7 -3 -11 1.33 0.17
7 -3 -11 1.38 0.15
-7 -3 11 1.28 0.16
-7 3 11 1.52 0.17
7 3 -11 1.64 0.19
7 3 -11 1.26 0.13
5 -3 -11 0.04 0.13
5 -3 -11 -0.03 0.1
-5 -3 11 -0.09 0.11
5 3 -11 0.08 0.09
-5 3 11 0.04 0.12
5 3 -11 0.02 0.13
3 -3 -11 1.93 0.16
-3 -3 11 1.93 0.18
3 -3 -11 2.09 0.22
-3 3 11 1.93 0.19
3 3 -11 2.03 0.15
3 3 -11 1.91 0.23
1 -3 -11 10.51 0.36
1 -3 -11 10.27 0.43
-1 -3 11 10.74 0.39
1 3 -11 9.78 0.44
-1 3 11 10.47 0.4
1 3 -11 10.42 0.35
-1 -3 -11 0.61 0.1
1 -3 11 0.62 0.11
1 3 11 0.51 0.11
1 3 11 0.56 0.12
-1 3 -11 0.63 0.13
-1 3 -11 0.54 0.09
3 -3 11 -0.01 0.11
3 -3 11 0.19 0.09
-3 -3 -11 0.16 0.09
-3 3 -11 0.04 0.09
3 3 11 -0.02 0.11
3 3 11 0.03 0.1
5 -3 11 2.03 0.23
-5 -3 -11 2.35 0.19
5 -3 11 2.72 0.17
-5 3 -11 2 0.19
5 3 11 2.25 0.25
5 3 11 2.07 0.19
7 -3 11 3.09 0.31
7 3 11 2.88 0.3
9 -3 11 2.19 0.25
9 3 11 1.66 0.25
-10 -4 11 3.11 0.27
10 -4 -11 3.44 0.28
10 4 -11 3.42 0.25
10 4 -11 2.92 0.33
-10 4 11 2.96 0.27
8 -4 -11 6.15 0.34
-8 -4 11 6.8 0.33
8 -4 -11 7.01 0.31
8 4 -11 6.15 0.29
-8 4 11 6.69 0.34
8 4 -11 6.55 0.38
-6 -4 11 5.42 0.28
6 -4 -11 5.37 0.3
6 -4 -11 6.3 0.26
-6 4 11 5.01 0.28
6 4 -11 5.11 0.32
6 4 -11 4.68 0.24
4 -4 -11 5.05 0.29
4 -4 -11 4.83 0.23
-4 -4 11 5.32 0.27
-4 4 11 5.4 0.27
4 4 -11 5.27 0.3
4 4 -11 5.13 0.22
-2 -4 11 3.77 0.22
2 -4 -11 4.2 0.2
2 -4 -11 4.07 0.25
2 4 -11 4.34 0.2
-2 4 11 4.19 0.24
2 4 -11 4.33 0.27
0 -4 -11 11.04 0.37
0 -4 11 11.42 0.41
0 4 11 11.08 0.42
0 4 11 11.88 0.44
0 4 -11 9.92 0.46
0 4 -11 11.28 0.37
2 -4 11 7.21 0.29
-2 -4 -11 6.63 0.27
2 4 11 7.2 0.32
2 4 11 6.63 0.3
-2 4 -11 6.64 0.27
4 -4 11 2.97 0.18
4 -4 11 2.79 0.23
-4 -4 -11 2.92 0.19
-4 4 -11 2.61 0.19
4 4 11 2.75 0.24
4 4 11 3.01 0.2
-6 -4 -11 1.55 0.15
6 -4 11 1.53 0.18
6 4 11 1.18 0.19
8 -4 11 0 0.18
8 4 11 -0.03 0.19
10 -4 11 0.12 0.16
10 -4 11 0.12 0.2
10 4 11 -0.04 0.22
10 4 11 -0.09 0.17
11 -5 -11 7.89 0.38
11 5 -11 8.1 0.48
9 -5 -11 8.79 0.38
-9 -5 11 9.17 0.4
-9 5 11 8.74 0.4
9 5 -11 8.93 0.35
9 5 -11 7.96 0.47
7 -5 -11 12.11 0.43
-7 -5 11 12.14 0.46
7 -5 -11 11.83 0.49
-7 5 11 11.85 0.48
7 5 -11 11.52 0.52
7 5 -11 12.33 0.41
-5 -5 11 23.07 0.79
5 -5 -11 23.53 0.72
5 -5 -11 23.89 0.83
5 5 -11 23.1 0.71
-5 5 11 23.63 0.8
5 5 -11 22.88 0.85
3 -5 -11 1.91 0.16
-3 -5 11 1.87 0.18
3 -5 -11 2.23 0.21
-3 5 11 1.81 0.19
3 5 -11 1.96 0.16
3 5 -11 2.22 0.22
-1 -5 11 13 0.48
1 -5 -11 13.51 0.44
1 5 -11 13.13 0.53
1 5 -11 13.47 0.43
-1 5 11 13.73 0.49
-1 -5 -11 0.33 0.09
1 -5 11 0.45 0.11
1 5 11 0.5 0.11
-1 5 -11 0.24 0.13
-1 5 -11 0.34 0.09
1 5 11 0.42 0.11
-3 -5 -11 3.03 0.18
3 -5 11 3.06 0.19
3 -5 11 2.62 0.22
3 5 11 2.72 0.23
-3 5 -11 2.91 0.19
3 5 11 3.15 0.21
5 -5 11 3.1 0.26
5 -5 11 3.01 0.18
-5 -5 -11 2.75 0.2
5 5 11 2.66 0.26
-5 5 -11 3.01 0.2
5 5 11 2.74 0.21
7 -5 11 1.14 0.2
7 5 11 1.41 0.21
9 -5 11 0.36 0.19
9 -5 11 0.8 0.18
9 5 11 0.45 0.21
-10 -6 11 2.84 0.26
10 -6 -11 3.43 0.29
10 6 -11 2.96 0.34
8 -6 -11 1.17 0.16
-8 -6 11 1.32 0.17
8 6 -11 1.09 0.21
-8 6 11 0.86 0.17
8 6 -11 1.1 0.13
-6 -6 11 4.65 0.26
6 -6 -11 4.62 0.27
6 -6 -11 4.64 0.25
-6 6 11 4.62 0.29
6 6 -11 4.98 0.22
6 6 -11 4.03 0.31
4 -6 -11 0.89 0.14
4 -6 -11 0.87 0.11
-4 -6 11 0.69 0.13
-4 6 11 0.95 0.14
4 6 -11 0.78 0.1
4 6 -11 0.96 0.16
2 -6 -11 1.55 0.18
-2 -6 11 1.46 0.17
2 -6 -11 1.48 0.15
2 6 -11 1.71 0.22
2 6 -11 1.39 0.14
-2 6 11 1.38 0.18
0 -6 11 2.29 0.18
0 -6 -11 2.15 0.16
0 6 11 2.17 0.2
0 6 -11 2.52 0.23
0 6 -11 2.34 0.15
0 6 11 2.38 0.2
2 -6 11 0 0.09
-2 -6 -11 -0.01 0.09
2 6 11 0.01 0.11
-2 6 -11 0 0.12
-2 6 -11 0.12 0.09
2 6 11 0.14 0.11
-4 -6 -11 5.02 0.24
4 -6 11 4.91 0.3
4 -6 11 5.9 0.25
-4 6 -11 5.3 0.25
4 6 11 5.38 0.27
4 6 11 5.16 0.31
6 -6 11 4.06 0.29
-6 -6 -11 3.68 0.23
6 6 11 4.37 0.31
8 -6 11 1.27 0.21
8 6 11 1.23 0.22
11 -7 -11 1.2 0.2
11 7 -11 1.46 0.25
9 -7 -11 10.69 0.41
-9 -7 11 10.22 0.43
-9 7 11 9.83 0.44
9 7 -11 9.28 0.51
9 7 -11 9.01 0.37
-7 -7 11 2.33 0.23
7 -7 -11 2.18 0.21
7 7 -11 2.25 0.28
7 7 -11 2.02 0.18
-7 7 11 2.05 0.25
-5 -7 11 2.56 0.22
5 -7 -11 3 0.2
5 -7 -11 3.43 0.23
-5 7 11 3.26 0.24
5 7 -11 2.83 0.18
5 7 -11 3.23 0.27
-3 -7 11 4.48 0.24
3 -7 -11 4.56 0.26
3 -7 -11 5.05 0.22
3 7 -11 4.73 0.21
-3 7 11 4.47 0.25
3 7 -11 4.51 0.29
1 -7 -11 0.91 0.11
-1 -7 11 0.7 0.11
1 7 -11 0.81 0.1
-1 7 11 0.86 0.14
1 7 -11 0.58 0.15
-1 7 11 0.81 0.11
-1 -7 -11 23.76 0.74
1 -7 11 23.4 0.8
1 7 11 24.15 0.85
-1 7 -11 25.45 0.88
1 7 11 24.83 0.82
-1 7 -11 24.42 0.74
3 -7 11 0.15 0.1
-3 -7 -11 0 0.09
3 -7 11 0.15 0.11
-3 7 -11 -0.03 0.09
3 7 11 0.1 0.11
3 7 11 -0.14 0.11
-5 -7 -11 0.14 0.11
5 -7 11 0.27 0.14
5 7 11 0.31 0.16
5 7 11 0.28 0.12
-7 -7 -11 4.94 0.28
7 -7 11 5.43 0.33
7 7 11 4.91 0.36
9 -7 11 2.47 0.27
9 -7 11 2.68 0.32
9 7 11 2.83 0.3
-10 -8 11 7.36 0.37
10 -8 -11 7.11 0.36
10 8 -11 7.05 0.47
-8 -8 11 11.73 0.47
8 -8 -11 12.14 0.45
8 8 -11 11.64 0.41
-8 8 11 11.37 0.49
8 8 -11 11.68 0.56
-6 -8 11 3.45 0.24
6 -8 -11 3.13 0.22
6 -8 -11 3.53 0.23
-6 8 11 3.5 0.26
6 8 -11 3.16 0.31
6 8 -11 3.49 0.19
4 -8 -11 36.38 1.28
4 -8 -11 38.93 1.12
-4 -8 11 37.84 1.22
4 8 -11 38.58 1.11
4 8 -11 38.62 1.32
-4 8 11 37.01 1.24
-2 -8 11 6.3 0.29
2 -8 -11 6.51 0.26
-2 8 11 6.62 0.29
2 8 -11 6.01 0.33
-2 8 11 6.16 0.3
2 8 -11 6.23 0.24
0 -8 11 6.06 0.26
0 -8 -11 5.58 0.25
0 8 -11 5.15 0.31
0 8 -11 5.41 0.23
0 8 11 5.75 0.28
0 8 11 5.79 0.28
2 -8 11 1.61 0.17
-2 -8 -11 1.81 0.16
2 8 11 1.16 0.15
2 8 11 1.96 0.2
-2 8 -11 1.56 0.18
-2 8 -11 1.43 0.15
4 -8 11 0.08 0.09
-4 -8 -11 -0.06 0.1
4 -8 11 -0.06 0.12
4 8 11 -0.04 0.13
-4 8 -11 0.05 0.1
4 8 11 -0.07 0.11
6 -8 11 1.4 0.18
-6 -8 -11 1.2 0.14
6 8 11 1.51 0.2
8 -8 11 0.78 0.19
8 8 11 0.71 0.21
-9 -9 11 1.91 0.25
9 -9 -11 2.21 0.26
-9 9 11 2.08 0.27
9 9 -11 2.62 0.36
-7 -9 11 3.38 0.26
7 -9 -11 3.35 0.24
-7 9 11 3.21 0.28
7 9 -11 3.08 0.19
7 9 -11 3.77 0.32
-5 -9 11 0.34 0.13
5 -9 -11 0.37 0.12
5 -9 -11 0.47 0.12
5 9 -11 0.62 0.17
-5 9 11 0.34 0.14
5 9 -11 0.46 0.09
3 -9 -11 0.84 0.11
-3 -9 11 0.66 0.13
-3 9 11 0.74 0.14
3 9 -11 0.55 0.09
-3 9 11 0.66 0.11
3 9 -11 0.66 0.15
-1 -9 11 0.17 0.11
1 -9 -11 0.08 0.09
-1 9 11 0.31 0.12
1 9 -11 0.1 0.13
1 9 -11 0.11 0.08
-1 9 11 0.1 0.1
-1 -9 -11 4.92 0.24
1 -9 11 5.67 0.27
1 9 11 5.4 0.28
-1 9 -11 5.12 0.31
-1 9 -11 6.05 0.24
1 9 11 6.33 0.29
3 -9 11 0.21 0.1
3 -9 11 0.27 0.12
-3 -9 -11 0.17 0.1
3 9 11 0.16 0.13
-3 9 -11 0.19 0.09
3 9 11 0.15 0.12
-5 -9 -11 0.56 0.12
5 -9 11 0.63 0.15
5 9 11 0.69 0.13
5 9 11 0.74 0.17
7 -9 11 0.33 0.17
-7 -9 -11 0.46 0.13
7 9 11 0.35 0.19
9 -9 11 0.28 0.17
9 -9 11 0.14 0.16
9 9 11 0.15 0.22
10 -10 -11 2.99 0.28
-10 -10 11 3.12 0.28
10 10 -11 2.87 0.39
-8 -10 11 4.41 0.29
8 -10 -11 4 0.27
8 10 -11 4.01 0.38
-8 10 11 4.38 0.31
6 -10 -11 2.86 0.23
-6 -10 11 3.29 0.24
6 10 -11 2.95 0.18
6 10 -11 3.51 0.3
-6 10 11 3.87 0.27
-4 -10 11 4.14 0.24
4 -10 -11 4.45 0.23
4 10 -11 4.17 0.19
-4 10 11 3.94 0.27
4 10 -11 4.27 0.3
2 -10 -11 1.69 0.17
-2 -10 11 1.7 0.19
2 10 -11 1.74 0.23
2 10 -11 1.61 0.14
-2 10 11 1.49 0.17
-2 10 11 1.52 0.17
0 -10 -11 3.15 0.2
0 -10 11 3.47 0.21
0 10 -11 3.26 0.18
0 10 11 3.52 0.22
0 10 -11 3.48 0.26
0 10 11 3.31 0.24
-2 -10 -11 0.19 0.1
2 -10 11 0.47 0.11
2 10 11 0.41 0.13
-2 10 -11 0.08 0.14
-2 10 -11 0.36 0.1
2 10 11 0.25 0.12
4 -10 11 0.13 0.09
-4 -10 -11 0 0.1
4 -10 11 0.12 0.12
4 10 11 -0.02 0.13
4 10 11 -0.03 0.12
6 -10 11 0.38 0.16
-6 -10 -11 0.31 0.13
6 10 11 0.63 0.18
8 -10 11 0.21 0.17
8 -10 11 0.04 0.15
8 10 11 0.13 0.2
-9 -11 11 15.96 0.6
9 -11 -11 15.81 0.57
-9 11 11 15.53 0.62
9 11 -11 16.59 0.71
7 -11 -11 2.24 0.24
-7 -11 11 1.75 0.22
-7 11 11 1.78 0.2
7 11 -11 1.23 0.23
5 -11 -11 16.32 0.54
-5 -11 11 16.71 0.58
5 11 -11 15.99 0.65
-5 11 11 15.7 0.61
5 11 -11 16.23 0.51
-3 -11 11 5.96 0.29
3 -11 -11 6.4 0.27
3 11 -11 5.98 0.35
-3 11 11 6.2 0.28
3 11 -11 5.7 0.24
-3 11 11 6.43 0.32
1 -11 -11 1.6 0.16
-1 -11 11 1.57 0.18
1 11 -11 1.71 0.19
1 11 -11 1.4 0.14
-1 11 11 1.5 0.18
-1 11 11 1.49 0.17
-1 -11 -11 14.8 0.49
1 -11 11 15.27 0.54
-1 11 -11 15.35 0.6
-1 11 -11 15.49 0.48
1 11 11 14.79 0.57
1 11 11 15.43 0.56
3 -11 11 3.17 0.2
-3 -11 -11 2.95 0.2
-3 11 -11 3.19 0.2
3 11 11 2.89 0.24
3 11 11 2.88 0.24
5 -11 11 0.19 0.13
-5 -11 -11 0.16 0.12
5 11 11 0.33 0.16
5 11 11 0.29 0.13
7 -11 11 6.57 0.37
-7 -11 -11 5.63 0.29
7 11 11 6.35 0.42
9 -11 11 3.14 0.29
9 -11 11 3.52 0.33
9 11 11 2.98 0.39
10 -12 -11 0.19 0.16
-10 -12 11 0.72 0.17
10 12 -11 0.11 0.24
-8 -12 11 8.45 0.39
8 -12 -11 8.1 0.38
8 12 -11 8.01 0.48
-8 12 11 7.72 0.41
-6 -12 11 1.14 0.16
6 -12 -11 0.87 0.15
6 12 -11 0.81 0.2
-6 12 11 1.2 0.18
-4 -12 11 7.2 0.33
4 -12 -11 7.31 0.3
4 12 -11 6.97 0.39
4 12 -11 7 0.26
-4 12 11 6.8 0.35
2 -12 -11 0.45 0.11
-2 -12 11 0.55 0.12
-2 12 11 0.5 0.11
2 12 -11 0.32 0.15
-2 12 11 0.3 0.14
2 12 -11 0.39 0.09
0 -12 -11 0.58 0.11
0 -12 11 0.59 0.12
0 12 11 0.61 0.15
0 12 11 0.54 0.12
0 12 -11 0.78 0.16
0 12 -11 0.64 0.1
2 -12 11 3.09 0.21
-2 -12 -11 3.17 0.19
-2 12 -11 2.85 0.26
2 12 11 3.26 0.24
2 12 11 2.74 0.23
-2 12 -11 2.82 0.19
-4 -12 -11 2.73 0.21
4 -12 11 3.13 0.24
4 -12 11 2.86 0.19
4 12 11 2.65 0.25
4 12 11 3.01 0.28
6 -12 11 8.77 0.43
-6 -12 -11 9.21 0.37
6 12 11 9.6 0.48
8 -12 11 0.49 0.18
8 -12 11 0.24 0.15
8 12 11 0.27 0.22
-9 -13 11 0.23 0.16
9 -13 -11 0.41 0.16
-9 13 11 0.18 0.17
9 13 -11 0.16 0.22
-7 -13 11 7.64 0.35
7 -13 -11 7.06 0.33
-7 13 11 6.35 0.37
7 13 -11 6.98 0.43
-5 -13 11 2.93 0.24
5 -13 -11 3.51 0.23
5 13 -11 2.78 0.3
-5 13 11 3.23 0.28
3 -13 -11 0.06 0.11
-3 -13 11 0.18 0.12
3 13 -11 0.15 0.15
-3 13 11 0.16 0.14
1 -13 -11 4.2 0.21
-1 -13 11 4.02 0.24
1 13 -11 4.2 0.29
-1 13 11 3.74 0.27
-1 13 11 3.94 0.23
1 13 -11 3.87 0.19
1 -13 11 0.18 0.11
-1 -13 -11 0.16 0.1
-1 13 -11 -0.06 0.14
-1 13 -11 0.16 0.09
1 13 11 0.21 0.14
1 13 11 -0.05 0.12
3 -13 11 0.18 0.1
-3 -13 -11 0.04 0.1
3 13 11 0.05 0.14
3 13 11 0.03 0.14
5 -13 11 4.39 0.29
-5 -13 -11 4.28 0.24
5 13 11 4.22 0.34
5 13 11 4.31 0.28
-7 -13 -11 -0.02 0.13
7 -13 11 0.15 0.16
7 -13 11 0.03 0.14
7 13 11 0.2 0.2
-8 -14 11 5.57 0.33
8 -14 -11 6.13 0.34
-8 14 11 6.23 0.38
8 14 -11 6.37 0.43
-6 -14 11 7.4 0.38
6 -14 -11 8.72 0.35
6 14 -11 8.19 0.45
-6 14 11 8.17 0.42
-4 -14 11 6.57 0.31
4 -14 -11 6.34 0.29
4 14 -11 6.53 0.38
-4 14 11 6.12 0.35
2 -14 -11 8.01 0.31
-2 -14 11 6.83 0.33
-2 14 11 7.53 0.33
2 14 -11 8.35 0.41
-2 14 11 7.56 0.37
0 -14 -11 8.79 0.33
0 -14 11 8.88 0.37
0 14 11 8.66 0.4
0 14 -11 8.26 0.31
0 14 11 8.61 0.38
0 14 -11 9.44 0.42
2 -14 11 3.03 0.22
-2 -14 -11 2.98 0.2
2 14 11 2.84 0.25
-2 14 -11 2.7 0.26
2 14 11 2.9 0.26
-4 -14 -11 0.03 0.1
4 -14 11 -0.09 0.12
4 -14 11 0.15 0.1
4 14 11 0.06 0.14
4 14 11 -0.03 0.15
-6 -14 -11 0.31 0.13
6 -14 11 0.49 0.15
6 -14 11 0.32 0.14
6 14 11 0.26 0.19
8 -14 11 0.34 0.16
8 14 11 0.52 0.24
9 -15 -11 4.79 0.31
-9 -15 11 4.32 0.32
-9 15 11 4.3 0.35
9 15 -11 5.08 0.43
7 -15 -11 5.25 0.31
-7 -15 11 5.11 0.31
-7 15 11 5.06 0.36
7 15 -11 4.67 0.41
5 -15 -11 2.68 0.23
-5 -15 11 2.66 0.24
5 15 -11 2.43 0.31
-5 15 11 2.78 0.3
-3 -15 11 7.13 0.34
3 -15 -11 7.21 0.31
-3 15 11 7.79 0.38
3 15 -11 8.06 0.41
1 -15 -11 0.24 0.11
-1 -15 11 0.07 0.12
-1 15 11 0.18 0.15
1 15 -11 0.23 0.16
-1 15 11 0.05 0.11
1 -15 11 6.83 0.32
-1 -15 -11 6.48 0.28
1 15 11 6.74 0.36
-1 15 -11 6.95 0.27
1 15 11 6.94 0.33
-1 15 -11 7.03 0.37
-3 -15 -11 -0.04 0.1
3 -15 11 0.01 0.11
3 15 11 0.16 0.14
3 15 11 -0.08 0.14
5 -15 11 0.41 0.14
-5 -15 -11 0.25 0.12
5 15 11 0.04 0.15
5 15 11 0.33 0.17
7 -15 11 1.95 0.23
7 15 11 2.08 0.27
8 -16 -11 0.05 0.15
-8 -16 11 0.02 0.16
8 16 -11 0.01 0.22
-8 16 11 -0.01 0.19
6 -16 -11 16.6 0.57
-6 -16 11 16.47 0.61
-6 16 11 16.09 0.65
6 16 -11 17.04 0.7
-4 -16 11 0.49 0.14
4 -16 -11 0.56 0.13
-4 16 11 0.54 0.18
4 16 -11 0.61 0.19
2 -16 -11 0.8 0.13
-2 -16 11 0.82 0.15
-2 16 11 0.88 0.18
2 16 -11 0.94 0.19
0 -16 11 4.52 0.27
0 -16 -11 4.45 0.23
0 16 -11 4.71 0.32
0 16 11 4.33 0.27
0 16 11 4.25 0.3
-2 -16 -11 0.35 0.11
2 -16 11 0.27 0.12
2 16 11 0.12 0.13
2 16 11 0.06 0.16
-2 16 -11 0.35 0.16
4 -16 11 0.35 0.12
4 -16 11 0.26 0.13
-4 -16 -11 0.46 0.12
4 16 11 0.31 0.16
4 16 11 0.4 0.16
-6 -16 -11 2.23 0.23
6 -16 11 2.25 0.24
6 -16 11 2.99 0.25
6 16 11 2.98 0.35
7 -17 -11 7.17 0.36
-7 -17 11 7.45 0.37
-7 17 11 7.44 0.43
7 17 -11 7.44 0.47
5 -17 -11 2.31 0.23
-5 -17 11 2.23 0.25
5 17 -11 2.58 0.32
-5 17 11 2.78 0.3
3 -17 -11 4.6 0.25
-3 -17 11 4.98 0.3
3 17 -11 4.98 0.35
-3 17 11 4.81 0.33
1 -17 -11 4.81 0.25
-1 -17 11 4.93 0.28
1 17 -11 4.53 0.33
-1 17 11 4.22 0.32
1 -17 11 0.14 0.12
-1 -17 -11 -0.04 0.1
1 17 11 -0.01 0.16
1 17 11 -0.12 0.12
-1 17 -11 -0.07 0.15
3 -17 11 5.59 0.29
-3 -17 -11 4.9 0.26
3 17 11 5.89 0.34
3 17 11 6.16 0.35
5 -17 11 10.82 0.46
5 -17 11 10.25 0.4
-5 -17 -11 11.26 0.4
5 17 11 10.16 0.48
5 17 11 11.11 0.51
7 -17 11 1.99 0.23
7 17 11 1.82 0.26
8 -18 -11 2.65 0.29
-8 -18 11 2.62 0.29
8 18 -11 2.65 0.31
-8 18 11 2.54 0.33
-6 -18 11 9.47 0.42
6 -18 -11 9.48 0.39
-6 18 11 8.71 0.46
6 18 -11 10.07 0.52
-4 -18 11 1.33 0.17
4 -18 -11 1.24 0.15
-4 18 11 1.03 0.21
4 18 -11 1 0.22
2 -18 -11 4.6 0.26
-2 -18 11 4.78 0.28
2 18 -11 4.78 0.36
-2 18 11 4.46 0.33
0 -18 -11 5.49 0.26
0 -18 11 5.59 0.29
0 18 -11 5.19 0.35
0 18 11 5.77 0.35
2 -18 11 0.18 0.13
-2 -18 -11 0.02 0.11
-2 18 -11 0.1 0.16
2 18 11 0.21 0.16
2 18 11 0.08 0.14
4 -18 11 0.12 0.13
4 -18 11 0.13 0.12
4 -18 11 0.09 0.11
-4 -18 -11 0.12 0.11
4 18 11 0.09 0.16
4 18 11 0.19 0.16
6 -18 11 0.28 0.14
6 18 11 -0.09 0.2
7 -19 -11 0.21 0.15
-7 -19 11 0.31 0.16
-7 19 11 -0.03 0.19
7 19 -11 0.13 0.22
-5 -19 11 -0.04 0.14
5 -19 -11 -0.08 0.13
5 19 -11 -0.04 0.19
-5 19 11 0.03 0.18
-3 -19 11 0.16 0.15
3 -19 -11 0.24 0.12
3 19 -11 0.08 0.18
-3 19 11 -0.29 0.17
-1 -19 11 1.76 0.18
1 -19 -11 1.8 0.2
1 19 -11 1.79 0.22
-1 19 11 1.8 0.22
1 -19 11 -0.01 0.13
-1 -19 -11 0.18 0.11
1 19 11 0.14 0.17
-1 19 -11 0.34 0.17
-3 -19 -11 -0.02 0.11
3 -19 11 -0.17 0.12
3 19 11 0.04 0.17
3 19 11 0.22 0.16
5 19 11 0.58 0.21
5 19 11 0.61 0.19
6 -20 -11 20.29 0.67
-6 -20 11 20.08 0.72
6 20 -11 19.05 0.81
-6 20 11 19.32 0.76
-4 -20 11 2.44 0.26
4 -20 -11 2.38 0.23
-4 20 11 2.03 0.25
4 20 -11 1.84 0.25
-2 -20 11 3.09 0.28
2 -20 -11 2.76 0.21
2 20 -11 2.8 0.33
-2 20 11 2.86 0.31
0 -20 -11 2.22 0.2
0 -20 11 2.42 0.24
0 20 -11 2.92 0.31
0 20 11 2.94 0.3
2 -20 11 0.46 0.14
-2 -20 -11 0.83 0.13
2 20 11 0.41 0.19
-2 20 -11 0.65 0.18
4 20 11 1.52 0.22
4 20 11 1.22 0.21
5 -21 -11 3.48 0.26
-5 -21 11 3.28 0.31
-5 21 11 3.68 0.36
5 21 -11 3.47 0.39
3 -21 -11 0.44 0.13
-3 -21 11 0.17 0.15
3 21 -11 0.51 0.2
-3 21 11 0.49 0.2
1 -21 -11 22.06 0.71
-1 -21 11 22.08 0.79
-1 21 11 22.19 0.84
1 21 -11 24.04 0.87
1 -21 11 0.14 0.14
-1 -21 -11 -0.08 0.11
1 21 11 0.32 0.19
-1 21 -11 -0.03 0.17
3 -21 11 0.67 0.15
3 21 11 0.41 0.21
5 21 11 0.3 0.21
5 21 11 0.2 0.2
4 -22 -11 0.42 0.14
-4 -22 11 0.4 0.17
-4 22 11 0.72 0.21
4 22 -11 0.48 0.21
2 -22 -11 0.25 0.13
2 22 -11 0.37 0.2
-2 22 11 0.12 0.2
0 -22 -11 1.72 0.2
0 22 -11 1.58 0.22
0 22 11 1.69 0.24
2 -22 11 1.18 0.17
2 22 11 1.12 0.23
4 22 11 7.6 0.44
5 -23 -11 4.74 0.3
-5 -23 11 4.51 0.36
5 23 -11 5.6 0.43
-5 23 11 5.15 0.39
3 -23 -11 1.92 0.22
3 23 -11 1.73 0.24
-3 23 11 2.01 0.26
1 -23 -11 0.43 0.13
-1 23 11 0.24 0.2
1 23 -11 0.35 0.2
-1 23 -11 2.54 0.32
1 23 11 2.45 0.27
3 -23 11 -0.31 0.14
3 23 11 -0.18 0.18
-2 24 11 0.99 0.24
2 24 -11 1.17 0.22
0 24 -11 4.87 0.36
0 24 11 4.24 0.38
2 -24 11 0.52 0.16
2 24 11 0.14 0.21
-1 25 11 0.9 0.24
1 25 -11 0.73 0.21
10 0 -12 0.4 0.16
-10 0 12 0.49 0.17
10 0 -12 0.31 0.19
8 0 -12 29.53 0.88
-8 0 12 27.49 0.96
8 0 -12 27.63 1.02
-6 0 12 14.16 0.55
6 0 -12 14.84 0.59
6 0 -12 14.62 0.49
4 0 -12 29.53 0.86
-4 0 12 29.22 0.95
4 0 -12 26.83 1.01
2 0 -12 21.5 0.64
2 0 -12 20.35 0.76
-2 0 12 19.71 0.7
0 0 -12 86.17 2.44
0 0 -12 86.25 2.83
0 0 12 84.26 2.67
2 0 12 30.43 1.02
2 0 12 31.75 1.08
-2 0 -12 30.98 0.93
4 0 12 3.84 0.29
-4 0 -12 4.13 0.23
4 0 12 4.04 0.23
6 0 12 41.51 1.43
-6 0 -12 40.85 1.23
8 0 12 5.2 0.38
9 -1 -12 12.35 0.46
9 -1 -12 13.14 0.55
-9 -1 12 12.08 0.5
-9 1 12 11.63 0.51
9 1 -12 12.46 0.56
9 1 -12 12.81 0.46
7 -1 -12 1.71 0.2
7 -1 -12 1.42 0.15
-7 -1 12 1.5 0.18
-7 1 12 1.77 0.19
7 1 -12 2.03 0.21
7 1 -12 1.81 0.21
5 -1 -12 4.28 0.24
-5 -1 12 3.86 0.27
5 -1 -12 4.32 0.3
5 1 -12 4.28 0.23
-5 1 12 3.93 0.26
5 1 -12 4.13 0.31
3 -1 -12 15.57 0.61
-3 -1 12 15 0.57
3 -1 -12 15.62 0.51
-3 1 12 15.75 0.57
3 1 -12 15.96 0.51
3 1 -12 16.15 0.61
-1 -1 12 0.16 0.11
1 -1 -12 0.02 0.09
1 -1 -12 -0.01 0.13
1 1 -12 0.25 0.14
1 1 -12 0.31 0.1
-1 1 12 0.09 0.12
1 -1 12 6.93 0.31
-1 -1 -12 7.41 0.29
-1 1 -12 6.85 0.28
1 1 12 7.73 0.34
1 1 12 7.17 0.32
-3 -1 -12 6.35 0.28
3 -1 12 6.66 0.34
3 -1 12 6.67 0.3
-3 1 -12 6.92 0.28
3 1 12 6.97 0.31
3 1 12 6.43 0.34
-5 -1 -12 19.09 0.59
5 -1 12 18.38 0.7
5 1 12 17.74 0.7
5 1 12 16.86 0.63
-5 1 -12 18.38 0.6
7 -1 12 7.93 0.43
7 1 12 6.24 0.42
9 -1 12 0.81 0.22
9 1 12 0.62 0.22
10 -2 -12 1.34 0.18
-10 -2 12 1.26 0.19
-10 2 12 1.48 0.19
10 2 -12 1.25 0.17
10 2 -12 1.29 0.23
8 -2 -12 2.71 0.28
-8 -2 12 1.75 0.19
8 -2 -12 2.21 0.24
8 2 -12 2.18 0.23
-8 2 12 2.42 0.27
8 2 -12 1.99 0.22
6 -2 -12 3.4 0.22
-6 -2 12 3.62 0.26
6 -2 -12 3.28 0.28
-6 2 12 3.28 0.27
6 2 -12 3.18 0.28
6 2 -12 3.25 0.22
-4 -2 12 7.09 0.33
4 -2 -12 7.4 0.3
4 -2 -12 8 0.37
4 2 -12 7.54 0.39
-4 2 12 7.24 0.34
4 2 -12 7.72 0.3
2 -2 -12 5.4 0.3
-2 -2 12 5.04 0.27
2 -2 -12 4.98 0.23
2 2 -12 4.94 0.23
2 2 -12 4.64 0.32
-2 2 12 4.77 0.28
0 -2 -12 2.15 0.17
0 -2 12 2.06 0.21
0 2 -12 2.06 0.23
0 2 12 2.24 0.21
0 2 -12 2.05 0.17
2 -2 12 3.44 0.24
2 -2 12 3.4 0.22
-2 -2 -12 3.41 0.19
2 2 12 2.97 0.21
-2 2 -12 3.31 0.2
2 2 12 2.61 0.24
4 -2 12 7.48 0.31
-4 -2 -12 7.03 0.3
4 -2 12 6.75 0.36
-4 2 -12 7.02 0.3
4 2 12 7.22 0.36
4 2 12 7.2 0.31
-6 -2 -12 3.67 0.24
6 -2 12 3.16 0.3
-6 2 -12 3.66 0.24
6 2 12 2.75 0.3
8 -2 12 1.28 0.22
8 2 12 1.3 0.24
-9 -3 12 9.45 0.44
9 -3 -12 10.15 0.41
9 3 -12 10.38 0.4
9 3 -12 10.73 0.52
-9 3 12 10.01 0.45
-7 -3 12 18.61 0.67
7 -3 -12 17.32 0.7
7 -3 -12 18.31 0.6
7 3 -12 18.66 0.73
7 3 -12 18.81 0.59
-7 3 12 18.07 0.66
5 -3 -12 13.59 0.55
5 -3 -12 12.85 0.46
-5 -3 12 14.05 0.51
-5 3 12 14.11 0.52
5 3 -12 13.13 0.45
5 3 -12 13.18 0.56
-3 -3 12 37.86 1.25
3 -3 -12 38.9 1.14
3 -3 -12 39.3 1.33
3 3 -12 37.61 1.34
3 3 -12 37.83 1.13
-3 3 12 40.1 1.26
1 -3 -12 8 0.31
1 -3 -12 8.35 0.38
-1 -3 12 8.42 0.35
1 3 -12 8.34 0.39
1 3 -12 8.28 0.31
-1 3 12 7.81 0.35
1 -3 12 51.92 1.68
-1 -3 -12 52.88 1.54
1 3 12 53.96 1.68
-1 3 -12 51.23 1.79
1 3 12 54.97 1.78
-1 3 -12 53 1.54
-3 -3 -12 17.14 0.56
3 -3 12 17.74 0.67
3 -3 12 16.95 0.61
-3 3 -12 17.25 0.56
3 3 12 18.32 0.66
3 3 12 17.97 0.62
-5 -3 -12 24.38 0.77
5 -3 12 24.09 0.89
5 3 12 25 0.9
-5 3 -12 24.34 0.77
5 3 12 24.72 0.82
7 -3 12 4.12 0.36
7 3 12 4.72 0.37
9 -3 12 5.6 0.4
9 3 12 5.51 0.42
10 -4 -12 1.14 0.17
-10 -4 12 1.16 0.19
10 4 -12 0.92 0.16
10 4 -12 0.99 0.23
-10 4 12 1.26 0.19
-8 -4 12 9.55 0.43
8 -4 -12 9.51 0.4
8 -4 -12 9.21 0.46
8 4 -12 10.99 0.51
8 4 -12 10.58 0.38
-8 4 12 9.82 0.44
6 -4 -12 0.48 0.16
-6 -4 12 0.59 0.14
6 -4 -12 0.44 0.13
6 4 -12 0.68 0.12
6 4 -12 0.99 0.19
-6 4 12 0.67 0.15
-4 -4 12 23.86 0.82
4 -4 -12 24.53 0.75
4 -4 -12 25.36 0.88
4 4 -12 24.15 0.89
4 4 -12 24.78 0.74
-4 4 12 23.6 0.83
-2 -4 12 4.85 0.26
2 -4 -12 4.95 0.3
2 -4 -12 5.2 0.24
2 4 -12 5.78 0.33
-2 4 12 4.9 0.29
2 4 -12 5.44 0.23
0 -4 12 9.26 0.38
0 -4 -12 9.57 0.35
0 4 -12 9.88 0.35
0 4 12 10.42 0.4
0 4 12 9.47 0.4
0 4 -12 9.73 0.44
-2 -4 -12 15.23 0.5
2 -4 12 15.61 0.55
2 -4 12 16.1 0.59
2 4 12 15.91 0.56
2 4 12 14.94 0.59
-2 4 -12 14.93 0.51
4 -4 12 0.97 0.16
-4 -4 -12 0.73 0.13
4 -4 12 1.36 0.17
-4 4 -12 0.88 0.13
4 4 12 0.86 0.14
4 4 12 0.85 0.16
-6 -4 -12 15.59 0.55
6 -4 12 16.68 0.66
6 4 12 16.48 0.66
8 -4 12 0.58 0.2
8 4 12 0.76 0.23
9 -5 -12 0.05 0.14
-9 -5 12 0.12 0.15
9 5 -12 -0.16 0.12
9 5 -12 0.26 0.19
-9 5 12 0.07 0.16
7 -5 -12 6.88 0.3
7 -5 -12 6.09 0.35
-7 -5 12 6.32 0.34
7 5 -12 6.28 0.38
-7 5 12 5.93 0.35
7 5 -12 6.43 0.28
5 -5 -12 3.49 0.22
-5 -5 12 3.31 0.25
5 -5 -12 3.39 0.27
5 5 -12 3.53 0.29
-5 5 12 3.16 0.25
5 5 -12 3.4 0.21
-3 -5 12 1.37 0.15
3 -5 -12 1.19 0.13
3 -5 -12 1.32 0.17
3 5 -12 1.66 0.19
-3 5 12 1.5 0.2
3 5 -12 1.53 0.16
1 -5 -12 24.7 0.74
-1 -5 12 24.32 0.8
-1 5 12 23.6 0.81
-1 5 12 23.81 0.84
1 5 -12 23.42 0.87
1 5 -12 23.18 0.72
1 -5 12 0.21 0.11
-1 -5 -12 0.28 0.1
-1 5 -12 0.14 0.14
-1 5 -12 0.35 0.1
1 5 12 0.42 0.13
1 5 12 0.32 0.12
3 -5 12 8.02 0.39
-3 -5 -12 8.73 0.32
3 -5 12 7.73 0.34
3 5 12 8.07 0.39
-3 5 -12 8.49 0.33
3 5 12 8.32 0.35
5 -5 12 3.27 0.29
-5 -5 -12 3.42 0.23
-5 5 -12 3.49 0.23
5 5 12 3.03 0.29
5 5 12 3.35 0.24
7 -5 12 0.15 0.18
7 5 12 0.38 0.19
9 -5 12 1.19 0.22
9 -5 12 1.1 0.19
9 5 12 1.4 0.25
10 -6 -12 8.07 0.38
-10 -6 12 8.26 0.4
10 6 -12 8.6 0.5
-8 -6 12 6.49 0.33
8 -6 -12 5.72 0.31
8 6 -12 5.87 0.41
8 6 -12 6.05 0.28
-8 6 12 5.67 0.34
6 -6 -12 34.27 1.05
6 -6 -12 33.5 1.2
-6 -6 12 35.12 1.14
6 6 -12 34.23 1.23
-6 6 12 35.32 1.16
6 6 -12 36.04 1.04
4 -6 -12 8.03 0.32
4 -6 -12 8.21 0.37
-4 -6 12 7.43 0.35
4 6 -12 7.9 0.3
-4 6 12 7.46 0.36
4 6 -12 8.51 0.4
-2 -6 12 49.7 1.56
2 -6 -12 49.65 1.43
2 6 -12 47.06 1.66
2 6 -12 48.8 1.42
-2 6 12 48.63 1.57
0 -6 12 30.66 1.03
0 -6 -12 31.92 0.95
0 6 12 31.19 1.09
0 6 -12 29.97 1.11
0 6 -12 33.09 0.94
0 6 12 32.74 1.05
2 -6 12 3.43 0.23
-2 -6 -12 3.17 0.21
2 6 12 3.44 0.23
-2 6 -12 3.41 0.2
2 6 12 3.47 0.25
-4 -6 -12 27.55 0.82
4 -6 12 26.16 0.88
4 -6 12 26.31 0.95
-4 6 -12 26.84 0.82
4 6 12 27.15 0.96
4 6 12 25.68 0.89
6 -6 12 10.34 0.48
-6 -6 -12 10.19 0.4
6 6 12 10.09 0.49
8 -6 12 13.59 0.6
8 6 12 13.07 0.61
9 -7 -12 2.83 0.26
-9 -7 12 2.85 0.28
-9 7 12 3.46 0.3
9 7 -12 2.92 0.37
7 -7 -12 6.56 0.31
-7 -7 12 6.54 0.33
7 7 -12 6.46 0.28
7 7 -12 6.44 0.4
-7 7 12 6.19 0.35
5 -7 -12 9.35 0.42
5 -7 -12 10.29 0.37
-5 -7 12 9.57 0.41
5 7 -12 9.58 0.35
-5 7 12 9.87 0.42
5 7 -12 9.63 0.46
-3 -7 12 4.66 0.26
3 -7 -12 4.86 0.25
3 -7 -12 4.82 0.29
3 7 -12 4.57 0.33
3 7 -12 4.92 0.22
-3 7 12 5.04 0.28
1 -7 -12 22.84 0.7
-1 -7 12 23.12 0.77
1 7 -12 22.56 0.69
1 7 -12 21.86 0.84
-1 7 12 22.64 0.8
-1 7 12 22.18 0.78
-1 -7 -12 10.77 0.38
1 -7 12 10.77 0.41
1 7 12 10.23 0.44
-1 7 -12 10.28 0.37
-1 7 -12 10.41 0.47
1 7 12 10.87 0.43
3 -7 12 11.35 0.48
3 -7 12 11.82 0.44
-3 -7 -12 12.13 0.41
3 7 12 11.31 0.49
3 7 12 11.99 0.46
-3 7 -12 11.23 0.41
5 -7 12 6.85 0.37
-5 -7 -12 6.74 0.3
5 7 12 6.14 0.37
5 7 12 6.1 0.32
7 -7 12 5.05 0.36
-7 -7 -12 4.38 0.27
7 7 12 4.29 0.37
10 -8 -12 3.81 0.3
-10 -8 12 4.23 0.31
10 8 -12 4.21 0.42
8 -8 -12 1.58 0.18
-8 -8 12 1.57 0.19
8 8 -12 1.76 0.24
-8 8 12 1.73 0.21
6 -8 -12 1.03 0.15
-6 -8 12 1.24 0.17
-6 8 12 0.9 0.18
6 8 -12 0.83 0.2
6 8 -12 0.95 0.12
-4 -8 12 2.14 0.22
4 -8 -12 2.09 0.22
4 -8 -12 2.06 0.19
4 8 -12 2.44 0.17
4 8 -12 1.99 0.21
-4 8 12 2.36 0.24
2 -8 -12 13.17 0.44
-2 -8 12 13.24 0.48
-2 8 12 12.75 0.49
-2 8 12 12.25 0.49
2 8 -12 12.43 0.42
2 8 -12 12.36 0.53
0 -8 -12 0.3 0.1
0 -8 12 0.52 0.12
0 8 -12 0.47 0.16
0 8 12 0.37 0.13
0 8 12 0.37 0.13
0 8 -12 0.3 0.1
2 -8 12 -0.02 0.11
-2 -8 -12 0.04 0.1
2 8 12 0.03 0.13
-2 8 -12 0.15 0.1
-2 8 -12 0.15 0.15
2 8 12 0.12 0.12
-4 -8 -12 9.31 0.34
4 -8 12 8.81 0.35
4 -8 12 8.15 0.41
4 8 12 7.96 0.41
-4 8 -12 8.85 0.34
4 8 12 8.31 0.38
6 -8 12 3.8 0.32
-6 -8 -12 3.09 0.24
6 8 12 2.75 0.32
8 -8 12 0.2 0.18
8 8 12 0.01 0.21
9 -9 -12 2.41 0.27
-9 -9 12 2.85 0.29
-9 9 12 3 0.3
9 9 -12 3.2 0.38
-7 -9 12 35.36 1.16
7 -9 -12 36.25 1.07
7 9 -12 33.48 1.26
-7 9 12 34.33 1.18
5 -9 -12 34.68 1.05
5 -9 -12 35.29 1.19
-5 -9 12 34.29 1.14
-5 9 12 35.33 1.16
5 9 -12 34 1.23
5 9 -12 34.5 1.02
3 -9 -12 2.51 0.21
-3 -9 12 2.7 0.22
-3 9 12 2.78 0.21
3 9 -12 2.78 0.28
-3 9 12 3.38 0.25
3 9 -12 2.75 0.18
-1 -9 12 48.77 1.55
1 -9 -12 47.04 1.42
1 9 -12 49.22 1.41
-1 9 12 47.82 1.63
-1 9 12 48.32 1.57
1 9 -12 50.75 1.67
-1 -9 -12 9.05 0.33
1 -9 12 8.35 0.35
1 9 12 8.62 0.38
1 9 12 8.04 0.38
-1 9 -12 8.64 0.32
-1 9 -12 8.53 0.42
3 -9 12 38.32 1.25
-3 -9 -12 39.18 1.15
3 -9 12 38.69 1.33
3 9 12 38.75 1.34
3 9 12 38.12 1.26
-3 9 -12 39.34 1.15
-5 -9 -12 10.42 0.38
5 -9 12 8.68 0.45
5 9 12 10.37 0.47
5 9 12 9.8 0.41
7 -9 12 15.31 0.63
-7 -9 -12 15.12 0.53
7 9 12 13.8 0.65
-8 -10 12 0.06 0.15
8 -10 -12 0.48 0.15
8 10 -12 0.22 0.2
-8 10 12 0.4 0.18
-6 -10 12 13.72 0.54
6 -10 -12 13.41 0.49
6 10 -12 14.31 0.61
-6 10 12 14.53 0.56
-4 -10 12 8.86 0.37
4 -10 -12 7.8 0.33
-4 10 12 7.08 0.39
-4 10 12 8.34 0.35
4 10 -12 7.91 0.43
4 10 -12 7.83 0.3
-2 -10 12 43.59 1.37
2 -10 -12 41.56 1.26
2 10 -12 41.71 1.24
-2 10 12 41.16 1.39
2 10 -12 45.87 1.48
-2 10 12 42.32 1.43
0 -10 -12 9.35 0.35
0 -10 12 9.18 0.38
0 10 -12 9.29 0.33
0 10 12 8.83 0.4
0 10 -12 10.15 0.45
0 10 12 9.11 0.4
-2 -10 -12 2.65 0.21
2 -10 12 2.71 0.2
-2 10 -12 2.38 0.18
2 10 12 2.33 0.23
-2 10 -12 3.02 0.27
2 10 12 2.69 0.24
4 -10 12 31.29 1.11
-4 -10 -12 31.3 0.95
4 -10 12 32.31 1.03
4 10 12 31.67 1.12
4 10 12 30.71 1.05
6 -10 12 0.69 0.18
-6 -10 -12 0.74 0.15
6 10 12 0.82 0.2
8 -10 12 4.27 0.35
8 -10 12 3.73 0.29
8 10 12 2.96 0.37
9 -11 -12 0.2 0.16
-9 -11 12 0.3 0.17
9 11 -12 0 0.22
-9 11 12 0.04 0.18
-7 -11 12 0.16 0.15
7 -11 -12 0.08 0.14
7 11 -12 0.19 0.2
-7 11 12 0.4 0.17
-5 -11 12 0.4 0.15
5 -11 -12 0.53 0.13
-5 11 12 0.37 0.17
5 11 -12 0.4 0.19
-3 -11 12 1.24 0.16
3 -11 -12 1.27 0.15
-3 11 12 1.22 0.19
3 11 -12 1.47 0.15
3 11 -12 1.46 0.19
-3 11 12 1.15 0.14
-1 -11 12 -0.13 0.12
1 -11 -12 0.03 0.11
-1 11 12 -0.06 0.14
1 11 -12 -0.03 0.15
-1 11 12 0.07 0.12
1 11 -12 0.1 0.09
-1 -11 -12 3.98 0.22
1 -11 12 3.79 0.24
-1 11 -12 4.14 0.3
1 11 12 3.74 0.25
-1 11 -12 3.71 0.21
1 11 12 3.98 0.27
3 -11 12 0.24 0.14
3 -11 12 0.14 0.11
-3 -11 -12 -0.14 0.11
-3 11 -12 0.05 0.1
3 11 12 -0.06 0.15
3 11 12 0.03 0.14
-5 -11 -12 0.28 0.14
5 -11 12 0.17 0.16
5 11 12 0.08 0.17
5 11 12 0.31 0.14
-7 -11 -12 -0.1 0.14
7 -11 12 -0.07 0.17
7 11 12 0.35 0.2
-8 -12 12 7.35 0.39
8 -12 -12 7.35 0.37
-8 12 12 7.49 0.4
8 12 -12 6.72 0.45
-6 -12 12 15.64 0.61
6 -12 -12 15.86 0.56
-6 12 12 16.68 0.64
6 12 -12 16.7 0.69
-4 -12 12 8.84 0.39
4 -12 -12 8.91 0.35
-4 12 12 8.09 0.42
4 12 -12 8.59 0.45
-2 -12 12 26.29 0.87
2 -12 -12 24.4 0.79
-2 12 12 25.41 0.9
-2 12 12 26.34 0.9
2 12 -12 26.07 0.95
2 12 -12 26.03 0.78
0 -12 -12 24.91 0.76
0 -12 12 24.12 0.83
0 12 -12 24.01 0.74
0 12 12 24.83 0.87
0 12 -12 23.58 0.9
0 12 12 24.93 0.85
2 -12 12 4.72 0.25
-2 -12 -12 4.68 0.24
-2 12 -12 4.35 0.23
2 12 12 4.21 0.3
2 12 12 4.83 0.31
-2 12 -12 4.99 0.34
4 -12 12 14.17 0.52
-4 -12 -12 14.1 0.49
4 -12 12 14.37 0.58
4 12 12 14.68 0.6
4 12 12 13.95 0.55
6 -12 12 10.7 0.5
-6 -12 -12 11.75 0.43
6 12 12 10.93 0.55
9 -13 -12 0.76 0.18
-9 -13 12 0.92 0.19
9 13 -12 0.49 0.24
-9 13 12 1.17 0.22
7 -13 -12 18.78 0.62
-7 -13 12 18.27 0.67
7 13 -12 17.71 0.75
-7 13 12 17.57 0.7
5 -13 -12 8.88 0.37
-5 -13 12 9.01 0.39
-5 13 12 8.36 0.44
5 13 -12 8.11 0.48
-3 -13 12 4.05 0.28
3 -13 -12 3.63 0.25
-3 13 12 4.38 0.31
3 13 -12 3.59 0.32
-1 -13 12 32.81 1.07
1 -13 -12 32.11 0.98
1 13 -12 31.08 1.16
-1 13 12 32.96 1.12
-1 13 12 32.6 1.1
1 13 -12 32.94 0.96
-1 -13 -12 6.39 0.28
1 -13 12 6.21 0.31
-1 13 -12 6.13 0.26
1 13 12 5.98 0.33
-1 13 -12 5.69 0.36
1 13 12 6.5 0.34
3 -13 12 6.97 0.37
-3 -13 -12 7.35 0.32
3 -13 12 7.69 0.33
3 13 12 7.53 0.39
3 13 12 7.74 0.38
5 -13 12 15.61 0.63
-5 -13 -12 15.78 0.53
5 13 12 15.23 0.65
5 13 12 15.56 0.59
7 -13 12 3.06 0.32
7 -13 12 3.05 0.27
-7 -13 -12 2.7 0.25
7 13 12 2.67 0.37
8 -14 -12 0.68 0.18
-8 -14 12 0.76 0.18
8 14 -12 0.74 0.24
-8 14 12 1.12 0.21
-6 -14 12 0.84 0.18
6 -14 -12 1 0.16
6 14 -12 1.64 0.25
-6 14 12 0.87 0.2
-4 -14 12 5.1 0.3
4 -14 -12 5.36 0.28
-4 14 12 4.36 0.35
4 14 -12 5.85 0.38
2 -14 -12 0.11 0.12
-2 -14 12 -0.15 0.13
2 14 -12 0.12 0.18
-2 14 12 -0.06 0.16
0 -14 -12 -0.02 0.11
0 -14 12 -0.07 0.13
0 14 -12 -0.09 0.09
0 14 12 -0.02 0.12
0 14 12 -0.28 0.15
0 14 -12 0.02 0.17
2 -14 12 0.6 0.13
-2 -14 -12 0.69 0.13
2 14 12 0.55 0.15
-2 14 -12 0.55 0.17
2 14 12 0.51 0.17
-2 14 -12 0.44 0.11
4 -14 12 3.79 0.29
4 -14 12 4.31 0.25
-4 -14 -12 4.02 0.26
4 14 12 4.42 0.33
4 14 12 3.71 0.29
-6 -14 -12 2.31 0.24
6 -14 12 2.72 0.29
6 14 12 2.09 0.25
7 -15 -12 4.1 0.3
-7 -15 12 3.95 0.32
-7 15 12 3.99 0.36
7 15 -12 3.54 0.38
5 -15 -12 7.6 0.35
-5 -15 12 7.73 0.38
-5 15 12 7.83 0.43
5 15 -12 7.47 0.45
3 -15 -12 17.18 0.57
-3 -15 12 16.82 0.63
-3 15 12 18.08 0.67
3 15 -12 16.49 0.71
-1 -15 12 2.53 0.24
1 -15 -12 2.73 0.22
1 15 -12 2.56 0.3
-1 15 12 2.71 0.28
-1 -15 -12 24.8 0.75
1 -15 12 23.19 0.81
1 15 12 22.91 0.86
-1 15 -12 24.62 0.73
1 15 12 24.37 0.86
-1 15 -12 23.67 0.89
-3 -15 -12 13.47 0.49
3 -15 12 13.93 0.52
3 15 12 14.41 0.57
3 15 12 14.12 0.58
5 -15 12 11.11 0.49
-5 -15 -12 11.8 0.42
5 15 12 11.77 0.54
5 15 12 10.01 0.49
-8 -16 12 6.13 0.37
8 -16 -12 5.58 0.34
8 16 -12 6.55 0.48
-8 16 12 6.62 0.41
-6 -16 12 10.15 0.45
6 -16 -12 9.02 0.41
-6 16 12 9.77 0.5
6 16 -12 11.57 0.54
-4 -16 12 17.86 0.65
4 -16 -12 17.61 0.59
-4 16 12 17.05 0.7
4 16 -12 18.28 0.73
-2 -16 12 8.32 0.38
2 -16 -12 8.43 0.35
-2 16 12 7.95 0.42
2 16 -12 7.74 0.44
0 -16 12 10.59 0.44
0 -16 -12 10.65 0.4
0 16 12 10.91 0.48
0 16 12 10.89 0.46
0 16 -12 10.56 0.5
2 -16 12 12.41 0.49
-2 -16 -12 12.23 0.45
2 16 12 12.72 0.53
2 16 12 12.84 0.53
-2 16 -12 12.11 0.56
4 -16 12 5.09 0.31
-4 -16 -12 4.86 0.27
4 16 12 4.98 0.36
4 16 12 4.81 0.34
-6 -16 -12 8.14 0.37
6 -16 12 8.99 0.42
6 -16 12 7.91 0.37
6 16 12 8.99 0.49
7 -17 -12 0.6 0.17
-7 -17 12 0.21 0.18
7 17 -12 0.16 0.22
-7 17 12 0.62 0.21
5 -17 -12 0.26 0.14
-5 -17 12 0.7 0.18
-5 17 12 0.7 0.21
5 17 -12 0.48 0.22
3 -17 -12 0.91 0.14
-3 -17 12 0.97 0.18
3 17 -12 1 0.22
-3 17 12 1 0.21
1 -17 -12 6.29 0.29
-1 -17 12 7.05 0.34
1 17 -12 6.24 0.41
-1 17 12 6.61 0.39
-1 -17 -12 0.02 0.12
1 -17 12 0.31 0.15
-1 17 -12 0.13 0.18
1 17 12 -0.16 0.16
1 17 12 0.13 0.14
3 -17 12 0.44 0.14
-3 -17 -12 0.51 0.13
3 17 12 0.51 0.18
3 17 12 0.52 0.18
5 -17 12 2.14 0.26
-5 -17 -12 1.46 0.16
5 -17 12 1.63 0.17
5 17 12 1.74 0.24
5 17 12 1.56 0.21
-6 -18 12 3.32 0.3
6 -18 -12 3.65 0.27
-6 18 12 3.03 0.36
6 18 -12 3.44 0.4
4 -18 -12 12.72 0.46
-4 -18 12 12.03 0.51
4 18 -12 12.87 0.59
-4 18 12 12.31 0.57
-2 -18 12 5.55 0.33
2 -18 -12 6.88 0.31
2 18 -12 6.16 0.4
-2 18 12 5.94 0.4
0 -18 -12 33.37 0.99
0 -18 12 32.95 1.09
0 18 12 33.36 1.13
0 18 -12 31.38 1.18
2 -18 12 11.05 0.45
-2 -18 -12 10.83 0.4
-2 18 -12 9.88 0.51
2 18 12 11.25 0.49
2 18 12 10.37 0.5
4 -18 12 3.7 0.28
-4 -18 -12 4.1 0.25
4 18 12 4.16 0.35
4 18 12 3.85 0.33
5 -19 -12 1.83 0.19
-5 -19 12 2.46 0.29
-5 19 12 2.37 0.26
5 19 -12 1.82 0.27
3 -19 -12 24.86 0.79
-3 -19 12 24.68 0.87
-3 19 12 25.75 0.91
3 19 -12 24.8 0.95
1 -19 -12 0.34 0.13
-1 -19 12 0.47 0.16
-1 19 12 0.53 0.19
1 19 -12 0.44 0.19
1 -19 12 20.52 0.72
-1 -19 -12 20.28 0.65
1 19 12 20.65 0.77
-1 19 -12 19.54 0.79
3 -19 12 2.67 0.25
-3 -19 -12 2.89 0.23
3 19 12 2.34 0.25
3 19 12 2.57 0.3
5 19 12 27.94 1.01
5 19 12 28.47 1.07
4 -20 -12 1.12 0.17
-4 -20 12 1.48 0.21
4 20 -12 1.43 0.25
-4 20 12 1.49 0.24
-2 -20 12 -0.1 0.16
2 -20 -12 0.01 0.13
2 20 -12 0.08 0.19
-2 20 12 -0.09 0.18
0 -20 -12 1.05 0.15
0 -20 12 1.48 0.19
0 20 -12 1.48 0.23
0 20 12 1.74 0.24
-2 -20 -12 1.31 0.15
2 -20 12 1.08 0.18
2 20 12 1.28 0.22
-2 20 -12 1.03 0.21
4 20 12 0.78 0.2
4 20 12 0.45 0.2
-5 -21 12 5.9 0.36
5 -21 -12 5.64 0.31
-5 21 12 4.89 0.39
5 21 -12 5.15 0.43
3 -21 -12 8.25 0.37
-3 -21 12 8.16 0.41
3 21 -12 8.84 0.48
-3 21 12 9.35 0.49
1 -21 -12 3.83 0.25
-1 -21 12 3.72 0.3
-1 21 12 3.94 0.35
1 21 -12 3.31 0.34
1 -21 12 4.24 0.31
-1 -21 -12 4.69 0.27
-1 21 -12 3.77 0.35
1 21 12 3.99 0.36
3 -21 12 9.32 0.41
3 21 12 9.12 0.49
4 -22 -12 8.88 0.39
-4 -22 12 8.75 0.45
-4 22 12 8.49 0.5
4 22 -12 9.8 0.53
-2 -22 12 6.58 0.36
2 -22 -12 5.64 0.3
2 22 -12 6.81 0.44
-2 22 12 5.65 0.43
0 -22 12 12.07 0.49
0 -22 -12 11.26 0.43
0 22 12 12.08 0.57
0 22 -12 11.31 0.56
2 -22 12 12.18 0.49
2 22 12 11.66 0.55
-1 -23 12 0.35 0.17
1 23 -12 0.52 0.22
-1 23 12 0.28 0.22
-8 0 13 0.33 0.17
8 0 -13 -0.38 0.18
8 0 -13 0.1 0.13
-6 0 13 0.06 0.15
6 0 -13 0.18 0.16
6 0 -13 -0.03 0.12
4 0 -13 0.13 0.11
-4 0 13 -0.03 0.13
4 0 -13 -0.1 0.15
2 0 -13 0 0.1
-2 0 13 -0.1 0.13
2 0 -13 0 0.14
0 0 13 0.12 0.13
0 0 -13 0.17 0.11
-2 0 -13 -0.03 0.11
2 0 13 -0.02 0.14
2 0 13 -0.09 0.12
-4 0 -13 0 0.12
4 0 13 -0.1 0.15
4 0 13 0.11 0.12
6 0 13 0.06 0.19
-6 0 -13 0.25 0.14
8 0 13 -0.08 0.2
9 -1 -13 0.42 0.2
-9 -1 13 0.58 0.17
9 -1 -13 0.21 0.16
9 1 -13 0.31 0.15
9 1 -13 0.61 0.2
-9 1 13 0.45 0.17
7 -1 -13 0.08 0.13
7 -1 -13 -0.13 0.17
-7 -1 13 -0.03 0.15
7 1 -13 -0.08 0.13
-7 1 13 0.2 0.15
7 1 -13 -0.07 0.18
-5 -1 13 4.33 0.28
5 -1 -13 3.8 0.24
5 -1 -13 4.62 0.33
-5 1 13 3.88 0.28
5 1 -13 4.33 0.32
5 1 -13 4.39 0.24
3 -1 -13 2.05 0.19
3 -1 -13 1.72 0.2
-3 -1 13 1.68 0.21
3 1 -13 1.38 0.14
-3 1 13 1.83 0.22
3 1 -13 1.73 0.21
1 -1 -13 1.13 0.17
-1 -1 13 1.17 0.16
1 -1 -13 1.17 0.13
1 1 -13 0.99 0.17
-1 1 13 1.33 0.16
1 1 -13 0.92 0.13
-1 -1 -13 0.14 0.11
1 -1 13 0.37 0.13
1 -1 13 0.1 0.13
1 1 13 0.32 0.13
-1 1 -13 0.12 0.1
1 1 13 0.17 0.13
3 -1 13 0.57 0.15
-3 -1 -13 0.75 0.14
3 -1 13 1.04 0.14
3 1 13 0.68 0.16
3 1 13 0.68 0.14
-3 1 -13 0.67 0.13
-5 -1 -13 8.2 0.34
5 -1 13 8.36 0.42
5 1 13 7.87 0.43
-5 1 -13 7.34 0.34
7 -1 13 0.03 0.18
7 1 13 0.21 0.2
8 -2 -13 2.43 0.3
8 -2 -13 1.97 0.23
-8 -2 13 2.53 0.28
8 2 -13 2.08 0.25
-8 2 13 2.44 0.27
8 2 -13 2.52 0.24
6 -2 -13 0.49 0.13
6 -2 -13 0.36 0.17
-6 -2 13 0.24 0.15
-6 2 13 0.36 0.16
6 2 -13 0.5 0.13
6 2 -13 0.5 0.18
-4 -2 13 0.52 0.14
4 -2 -13 0.33 0.17
4 -2 -13 0.69 0.13
-4 2 13 0.39 0.15
4 2 -13 0.72 0.12
4 2 -13 0.6 0.18
2 -2 -13 2.02 0.25
2 -2 -13 1.84 0.19
-2 -2 13 2.23 0.22
-2 2 13 1.82 0.22
2 2 -13 2.28 0.18
2 2 -13 2.14 0.26
0 -2 -13 0.43 0.11
0 -2 13 0.27 0.13
0 2 13 0.33 0.13
0 2 -13 0.42 0.16
0 2 13 0.21 0.14
0 2 -13 0.56 0.11
2 -2 13 3.56 0.26
2 -2 13 3.76 0.25
-2 -2 -13 3.54 0.22
-2 2 -13 3.09 0.21
2 2 13 3.2 0.25
2 2 13 3.3 0.26
4 -2 13 6.53 0.36
-4 -2 -13 6.43 0.31
4 -2 13 6.57 0.31
4 2 13 6.52 0.37
-4 2 -13 6.62 0.3
4 2 13 6.58 0.32
-6 -2 -13 2.3 0.26
6 -2 13 2.84 0.31
6 2 13 2.07 0.24
-6 2 -13 2.27 0.26
8 -2 13 2.27 0.27
8 2 13 2.65 0.35
-9 -3 13 1.53 0.2
9 -3 -13 1.54 0.18
9 3 -13 1.47 0.24
-9 3 13 1.49 0.21
9 3 -13 1.27 0.16
7 -3 -13 0.75 0.18
7 -3 -13 0.7 0.15
-7 -3 13 0.62 0.16
7 3 -13 0.79 0.2
7 3 -13 0.61 0.13
-7 3 13 0.83 0.18
5 -3 -13 0.21 0.12
5 -3 -13 0.34 0.17
-5 -3 13 0.38 0.15
-5 3 13 0.56 0.16
5 3 -13 0.3 0.12
5 3 -13 0.8 0.19
3 -3 -13 5.16 0.26
3 -3 -13 5.2 0.31
-3 -3 13 5.19 0.29
-3 3 13 4.93 0.3
3 3 -13 4.91 0.25
3 3 -13 5.53 0.34
1 -3 -13 1.17 0.13
-1 -3 13 1.1 0.15
1 3 -13 1.31 0.13
1 3 -13 1.1 0.18
-1 3 13 1 0.16
-1 -3 -13 0.42 0.12
1 -3 13 0.46 0.13
1 3 13 0.34 0.14
-1 3 -13 0.51 0.12
1 3 13 0.52 0.14
3 -3 13 1.68 0.19
3 -3 13 2.19 0.21
-3 -3 -13 1.83 0.2
3 3 13 1.8 0.24
3 3 13 1.95 0.21
-3 3 -13 1.7 0.2
5 -3 13 0.14 0.17
-5 -3 -13 0.2 0.14
-5 3 -13 0.56 0.15
5 3 13 0.47 0.17
7 -3 13 0.53 0.2
7 3 13 0.37 0.21
-8 -4 13 0.38 0.17
8 -4 -13 0.47 0.15
8 4 -13 0.25 0.13
-8 4 13 0.11 0.17
8 4 -13 0.27 0.2
6 -4 -13 1.36 0.16
-6 -4 13 1.39 0.19
6 -4 -13 1.17 0.19
6 4 -13 1.44 0.22
6 4 -13 1.23 0.14
-6 4 13 1.55 0.19
4 -4 -13 -0.08 0.15
-4 -4 13 0.01 0.13
4 -4 -13 0.1 0.11
4 4 -13 -0.04 0.11
4 4 -13 0.11 0.16
-4 4 13 0.02 0.14
2 -4 -13 0.96 0.13
-2 -4 13 0.74 0.14
2 -4 -13 0.97 0.17
2 4 -13 0.72 0.12
2 4 -13 0.83 0.18
-2 4 13 1.14 0.16
0 -4 13 0.32 0.13
0 -4 -13 0.31 0.11
0 4 -13 0.35 0.15
0 4 13 0.32 0.14
0 4 13 0.31 0.13
0 4 -13 0.44 0.11
-2 -4 -13 2.24 0.19
2 -4 13 2.03 0.21
2 -4 13 2.05 0.23
2 4 13 2.26 0.22
2 4 13 2.02 0.24
-2 4 -13 2.14 0.21
4 -4 13 0.58 0.13
-4 -4 -13 0.5 0.14
4 -4 13 0.44 0.17
-4 4 -13 0.52 0.13
4 4 13 0.48 0.14
4 4 13 0.47 0.16
-6 -4 -13 2.79 0.27
6 -4 13 2.52 0.33
6 4 13 3.06 0.32
8 -4 13 0.13 0.2
8 4 13 0.01 0.21
9 -5 -13 2.47 0.28
-9 -5 13 2.67 0.29
9 5 -13 1.75 0.18
9 5 -13 1.91 0.26
-9 5 13 2.33 0.3
7 -5 -13 0.39 0.17
-7 -5 13 0.44 0.16
7 -5 -13 0.32 0.14
7 5 -13 0.37 0.19
7 5 -13 0.39 0.13
-7 5 13 0.37 0.18
5 -5 -13 -0.24 0.12
-5 -5 13 -0.04 0.14
5 -5 -13 0.18 0.15
5 5 -13 -0.15 0.16
5 5 -13 0.12 0.1
-5 5 13 -0.01 0.15
3 -5 -13 1.3 0.18
-3 -5 13 1.04 0.16
3 -5 -13 1.44 0.15
3 5 -13 1.35 0.21
3 5 -13 1.36 0.13
-3 5 13 1.62 0.19
1 -5 -13 2.61 0.2
-1 -5 13 2.55 0.23
-1 5 13 2.51 0.23
-1 5 13 2.55 0.24
1 5 -13 2.77 0.19
1 5 -13 3 0.29
1 -5 13 1.09 0.15
-1 -5 -13 1.3 0.14
-1 5 -13 1.21 0.19
1 5 13 1.25 0.17
1 5 13 1.47 0.17
-1 5 -13 1.29 0.13
3 -5 13 0.38 0.16
3 -5 13 0.52 0.13
-3 -5 -13 0.44 0.13
3 5 13 0.49 0.16
3 5 13 0.5 0.14
-3 5 -13 0.29 0.12
-5 -5 -13 -0.13 0.13
5 -5 13 0.01 0.16
-5 5 -13 0 0.13
5 5 13 -0.03 0.17
7 -5 13 1.87 0.24
7 5 13 1.94 0.25
8 -6 -13 0.31 0.16
-8 -6 13 0.33 0.17
8 6 -13 0.17 0.2
8 6 -13 0.36 0.13
-8 6 13 0.46 0.18
6 -6 -13 0.16 0.13
-6 -6 13 0.08 0.15
6 -6 -13 0.12 0.15
-6 6 13 0.1 0.17
6 6 -13 0 0.11
6 6 -13 0.18 0.18
4 -6 -13 7.94 0.33
4 -6 -13 7.46 0.38
-4 -6 13 7.61 0.36
-4 6 13 7.38 0.37
4 6 -13 7.98 0.42
4 6 -13 7.48 0.31
2 -6 -13 0.23 0.11
-2 -6 13 0.21 0.14
-2 6 13 0.14 0.12
2 6 -13 0.18 0.1
2 6 -13 0.17 0.16
-2 6 13 -0.08 0.14
0 -6 -13 -0.05 0.1
0 -6 13 0.11 0.12
0 6 -13 0.12 0.16
0 6 -13 -0.09 0.1
0 6 13 -0.06 0.13
0 6 13 0.07 0.13
2 -6 13 0.3 0.14
-2 -6 -13 0.13 0.11
2 -6 13 0.46 0.13
2 6 13 0.09 0.14
2 6 13 0.13 0.13
-2 6 -13 0.22 0.11
4 -6 13 8.35 0.36
4 -6 13 8.51 0.42
-4 -6 -13 8.36 0.34
4 6 13 8.41 0.42
-4 6 -13 8.22 0.35
4 6 13 7.37 0.37
-6 -6 -13 1.99 0.24
6 -6 13 2.12 0.29
6 6 13 2.97 0.32
9 -7 -13 0.32 0.17
-9 -7 13 0.35 0.18
-9 7 13 0.26 0.18
9 7 -13 0.5 0.23
-7 -7 13 0.09 0.15
7 -7 -13 0.07 0.14
-7 7 13 -0.04 0.17
7 7 -13 0.11 0.19
7 7 -13 0.16 0.12
5 -7 -13 3.51 0.28
-5 -7 13 4.09 0.28
5 -7 -13 4 0.26
5 7 -13 4.05 0.23
-5 7 13 3.95 0.3
5 7 -13 4.01 0.34
-3 -7 13 0.25 0.14
3 -7 -13 0.34 0.13
3 7 -13 0.13 0.11
3 7 -13 0.11 0.18
-3 7 13 0.37 0.16
1 -7 -13 3.85 0.23
-1 -7 13 3.52 0.25
1 7 -13 4.42 0.33
1 7 -13 3.69 0.22
-1 7 13 3.89 0.26
-1 7 13 3.32 0.27
1 -7 13 9.73 0.4
-1 -7 -13 9.56 0.37
1 7 13 9.46 0.42
-1 7 -13 9.32 0.36
-1 7 -13 9.64 0.47
1 7 13 9.53 0.42
3 -7 13 0.09 0.15
3 -7 13 0.15 0.12
-3 -7 -13 0.07 0.12
-3 7 -13 -0.12 0.11
3 7 13 0.09 0.14
3 7 13 -0.01 0.15
5 -7 13 1.43 0.21
-5 -7 -13 1.43 0.17
5 7 13 1.45 0.21
7 -7 13 3.19 0.33
-7 -7 -13 3.24 0.28
7 7 13 3.32 0.36
-8 -8 13 1.68 0.2
8 -8 -13 1.32 0.19
-8 8 13 1.64 0.22
8 8 -13 1.63 0.25
-6 -8 13 3.68 0.28
6 -8 -13 3.73 0.26
-6 8 13 3.85 0.32
6 8 -13 3.29 0.22
6 8 -13 3.73 0.35
-4 -8 13 0.76 0.16
4 -8 -13 0.74 0.14
4 8 -13 0.69 0.12
-4 8 13 0.82 0.18
4 8 -13 0.79 0.19
2 -8 -13 2.77 0.21
-2 -8 13 2.61 0.23
2 8 -13 2.41 0.19
-2 8 13 2.26 0.25
2 8 -13 2.65 0.29
-2 8 13 2.54 0.23
0 -8 -13 0.44 0.12
0 -8 13 0.63 0.14
0 8 13 0.28 0.15
0 8 -13 0.4 0.11
0 8 -13 0.71 0.18
0 8 13 0.41 0.14
-2 -8 -13 -0.04 0.12
2 -8 13 0.12 0.12
-2 8 -13 0.11 0.11
2 8 13 0.04 0.14
2 8 13 0.14 0.14
4 -8 13 0.54 0.13
4 -8 13 0.16 0.16
-4 -8 -13 0.04 0.12
4 8 13 0.24 0.14
4 8 13 -0.03 0.16
-4 8 -13 0.18 0.13
-6 -8 -13 5.48 0.3
6 -8 13 6 0.39
6 8 13 5.91 0.4
-9 -9 13 0.59 0.19
9 -9 -13 0.8 0.18
9 9 -13 0.79 0.25
-9 9 13 0.75 0.21
-7 -9 13 0.01 0.15
7 -9 -13 0.14 0.15
-7 9 13 -0.02 0.18
7 9 -13 -0.16 0.2
5 -9 -13 0.56 0.14
-5 -9 13 0.7 0.16
-5 9 13 0.62 0.18
5 9 -13 0 0.19
5 9 -13 0.47 0.11
3 -9 -13 0.09 0.12
-3 -9 13 0.22 0.14
3 9 -13 0.33 0.11
-3 9 13 -0.01 0.15
-3 9 13 0.33 0.12
3 9 -13 0.14 0.17
-1 -9 13 1.56 0.17
1 -9 -13 1.42 0.15
-1 9 13 1.13 0.18
-1 9 13 1.69 0.22
1 9 -13 1.52 0.21
1 9 -13 1.28 0.13
1 -9 13 0.8 0.15
-1 -9 -13 1.11 0.14
-1 9 -13 0.76 0.18
1 9 13 0.81 0.16
1 9 13 1.26 0.18
-1 9 -13 1.13 0.13
3 -9 13 0.36 0.13
3 -9 13 0.36 0.16
-3 -9 -13 0.31 0.13
3 9 13 0.27 0.15
3 9 13 0.34 0.16
-3 9 -13 0.13 0.12
5 -9 13 0.18 0.17
-5 -9 -13 0.34 0.14
5 9 13 0.15 0.18
-7 -9 -13 0.43 0.15
7 -9 13 0.59 0.2
7 9 13 0.21 0.21
8 -10 -13 0.86 0.18
-8 -10 13 0.7 0.18
8 10 -13 1.01 0.25
-8 10 13 0.58 0.19
-6 -10 13 -0.02 0.16
6 -10 -13 -0.03 0.13
-6 10 13 -0.14 0.18
6 10 -13 -0.05 0.19
4 -10 -13 0.01 0.13
-4 -10 13 0.17 0.15
4 10 -13 0.15 0.18
-4 10 13 -0.11 0.16
-4 10 13 0.05 0.12
4 10 -13 -0.01 0.1
2 -10 -13 1.27 0.15
-2 -10 13 1.46 0.18
-2 10 13 1.37 0.2
-2 10 13 1.5 0.21
2 10 -13 1.55 0.22
2 10 -13 1.37 0.13
0 -10 -13 0.14 0.12
0 -10 13 -0.01 0.13
0 10 -13 0.12 0.1
0 10 13 0.14 0.13
0 10 -13 0.13 0.17
0 10 13 0.11 0.15
2 -10 13 0.04 0.13
-2 -10 -13 0.04 0.12
2 10 13 0.09 0.15
2 10 13 0.08 0.15
-2 10 -13 0.08 0.11
-4 -10 -13 -0.22 0.12
4 -10 13 0.12 0.16
4 -10 13 0.21 0.12
4 10 13 -0.11 0.16
4 10 13 0.06 0.14
6 -10 13 1.41 0.21
-6 -10 -13 2.11 0.25
6 10 13 1.39 0.24
-7 -11 13 1.59 0.2
7 -11 -13 1.36 0.18
7 11 -13 1.53 0.26
-7 11 13 2.09 0.24
5 -11 -13 2.73 0.25
-5 -11 13 2.13 0.25
-5 11 13 2.45 0.31
5 11 -13 1.92 0.25
3 -11 -13 0.7 0.14
-3 -11 13 0.89 0.16
3 11 -13 0.98 0.2
-3 11 13 0.88 0.19
3 11 -13 0.7 0.11
-3 11 13 0.62 0.14
1 -11 -13 0.67 0.13
-1 -11 13 0.77 0.15
1 11 -13 0.73 0.2
-1 11 13 0.74 0.14
1 11 -13 0.7 0.12
-1 11 13 0.83 0.18
-1 -11 -13 0.86 0.14
1 -11 13 1.21 0.16
1 11 13 1.08 0.17
1 11 13 1.21 0.19
-1 11 -13 1.12 0.2
-1 11 -13 1.21 0.13
3 -11 13 2.72 0.28
-3 -11 -13 2.84 0.23
3 -11 13 2.92 0.24
-3 11 -13 2.89 0.22
3 11 13 2.76 0.28
3 11 13 2.83 0.3
5 -11 13 0.53 0.18
-5 -11 -13 0.69 0.15
5 11 13 0.75 0.21
8 -12 -13 0.06 0.17
-8 -12 13 0.23 0.17
8 12 -13 0.37 0.23
-8 12 13 0.18 0.19
-6 -12 13 1.28 0.19
6 -12 -13 0.76 0.16
6 12 -13 0.73 0.23
-6 12 13 0.86 0.21
-4 -12 13 1.06 0.18
4 -12 -13 1.08 0.15
4 12 -13 1.25 0.23
-4 12 13 1.24 0.22
-2 -12 13 0.95 0.16
2 -12 -13 0.99 0.15
-2 12 13 0.91 0.2
2 12 -13 0.9 0.12
-2 12 13 1.05 0.15
2 12 -13 0.71 0.21
0 -12 -13 0.29 0.12
0 -12 13 -0.13 0.13
0 12 13 0.27 0.17
0 12 13 0.07 0.13
0 12 -13 -0.17 0.17
0 12 -13 0.08 0.11
-2 -12 -13 0.46 0.14
2 -12 13 0.22 0.13
2 12 13 0.34 0.17
2 12 13 0.56 0.16
-2 12 -13 0.35 0.12
-2 12 -13 0.4 0.19
4 -12 13 7.91 0.41
-4 -12 -13 8.39 0.35
4 12 13 7.87 0.42
4 12 13 7.96 0.4
6 -12 13 3.73 0.34
-6 -12 -13 3.5 0.27
6 12 13 3.04 0.37
-7 -13 13 1.56 0.21
7 -13 -13 1.53 0.19
-7 13 13 1.71 0.23
7 13 -13 1.94 0.27
5 -13 -13 0.06 0.14
-5 -13 13 -0.02 0.15
-5 13 13 -0.06 0.19
5 13 -13 -0.03 0.2
3 -13 -13 0.44 0.14
-3 -13 13 0.16 0.15
-3 13 13 0.45 0.19
3 13 -13 0.5 0.2
-1 -13 13 3.05 0.26
1 -13 -13 3 0.24
1 13 -13 3.43 0.2
-1 13 13 2.93 0.3
1 13 -13 3.17 0.33
-1 13 13 2.79 0.24
1 -13 13 0.06 0.14
-1 -13 -13 0.13 0.12
1 13 13 0.18 0.17
-1 13 -13 0.03 0.17
-1 13 -13 0.2 0.11
1 13 13 0.03 0.14
-3 -13 -13 -0.11 0.13
3 -13 13 -0.05 0.15
3 -13 13 0.03 0.13
3 13 13 -0.17 0.16
3 13 13 -0.03 0.16
-5 -13 -13 0.27 0.14
5 -13 13 0.18 0.17
5 13 13 -0.01 0.19
-6 -14 13 2.03 0.21
6 -14 -13 1.48 0.18
-6 14 13 1.62 0.24
6 14 -13 1.79 0.26
4 -14 -13 0.65 0.15
-4 -14 13 0.64 0.18
4 14 -13 0.63 0.22
-4 14 13 0.5 0.21
-2 -14 13 -0.23 0.14
2 -14 -13 0.04 0.13
2 14 -13 -0.26 0.18
-2 14 13 -0.16 0.18
0 -14 13 0.18 0.15
0 -14 -13 0.27 0.12
0 14 -13 0.15 0.18
0 14 -13 0.24 0.1
0 14 13 0.14 0.14
0 14 13 0.14 0.17
-2 -14 -13 0.43 0.13
2 -14 13 0.25 0.14
2 14 13 0.3 0.17
2 14 13 0.28 0.17
-2 14 -13 0.32 0.12
-2 14 -13 0.29 0.19
-4 -14 -13 2.1 0.24
4 -14 13 2.68 0.29
4 14 13 2.51 0.29
4 14 13 2.35 0.31
-6 -14 -13 1 0.17
6 -14 13 1.39 0.21
6 14 13 1.41 0.25
7 -15 -13 0.33 0.16
-7 -15 13 0.41 0.18
-7 15 13 0.68 0.22
7 15 -13 0.41 0.24
-5 -15 13 0.31 0.17
5 -15 -13 0.47 0.15
5 15 -13 0.65 0.23
-5 15 13 0.42 0.21
-3 -15 13 1.72 0.2
3 -15 -13 1.11 0.16
3 15 -13 1.21 0.23
-3 15 13 1.37 0.22
-1 -15 13 1.51 0.19
1 -15 -13 1.2 0.16
-1 15 13 1.49 0.22
1 15 -13 1.46 0.23
1 -15 13 0.11 0.15
-1 -15 -13 0.13 0.13
1 15 13 0.41 0.16
-1 15 -13 0.58 0.19
1 15 13 0.4 0.18
3 -15 13 1.52 0.19
3 -15 13 1.85 0.22
-3 -15 -13 1.38 0.16
3 15 13 1.15 0.2
3 15 13 1.34 0.21
5 -15 13 0.08 0.16
-5 -15 -13 0.25 0.14
5 15 13 0.01 0.2
6 -16 -13 3.16 0.28
-6 -16 13 2.62 0.31
6 16 -13 2.39 0.3
-6 16 13 2.67 0.34
-4 -16 13 0.11 0.16
4 -16 -13 -0.22 0.13
-4 16 13 0 0.19
4 16 -13 -0.07 0.21
-2 -16 13 1.86 0.21
2 -16 -13 2.23 0.24
-2 16 13 1.82 0.25
2 16 -13 2.27 0.25
0 -16 13 1.13 0.18
0 -16 -13 0.83 0.14
0 16 -13 0.88 0.21
0 16 13 0.96 0.2
-2 -16 -13 0.9 0.15
2 -16 13 0.9 0.17
-2 16 -13 1.46 0.22
2 16 13 0.65 0.2
2 16 13 0.95 0.18
4 -16 13 2.45 0.28
-4 -16 -13 1.94 0.24
4 16 13 1.68 0.24
4 16 13 2.42 0.3
-5 -17 13 4.87 0.33
5 -17 -13 4.24 0.28
5 17 -13 3.8 0.42
-5 17 13 4.28 0.38
-3 -17 13 0.61 0.18
3 -17 -13 0.42 0.15
3 17 -13 0.83 0.23
-3 17 13 0.37 0.21
-1 -17 13 0.66 0.17
1 -17 -13 0.69 0.15
-1 17 13 0.99 0.22
1 17 -13 0.61 0.21
1 -17 13 1.92 0.2
-1 -17 -13 2 0.22
1 17 13 2.08 0.24
-1 17 -13 2.37 0.33
3 -17 13 2.25 0.24
-3 -17 -13 2.09 0.23
3 -17 13 2.08 0.26
3 17 13 1.86 0.23
3 17 13 2.16 0.24
-4 -18 13 1.42 0.21
4 -18 -13 2.26 0.26
4 18 -13 1.52 0.26
-4 18 13 1.55 0.25
2 -18 -13 0.06 0.14
-2 -18 13 -0.03 0.17
-2 18 13 -0.05 0.2
2 18 -13 0.13 0.2
0 -18 13 0.51 0.17
0 -18 -13 0.62 0.14
0 18 -13 0.61 0.22
0 18 13 0.68 0.21
2 -18 13 0.01 0.15
-2 -18 -13 0.1 0.14
-2 18 -13 -0.08 0.19
2 18 13 0.01 0.18
4 -18 13 0.07 0.15
4 18 13 -0.09 0.19
4 18 13 0.1 0.19
-3 -19 13 0.87 0.19
3 -19 -13 0.81 0.16
-3 19 13 1.03 0.23
3 19 -13 0.73 0.23
1 -19 -13 1.72 0.17
-1 -19 13 1.57 0.2
-1 19 13 1.59 0.24
1 19 -13 1.68 0.24
1 -19 13 0.56 0.17
-1 -19 -13 0.69 0.14
-1 19 -13 0.83 0.21
1 19 13 0.68 0.21
3 -19 13 0.28 0.15
-3 -19 -13 0.04 0.14
3 -19 13 -0.09 0.15
3 19 13 0.08 0.19
-2 -20 13 1.21 0.2
2 -20 -13 1.12 0.17
2 20 -13 1.11 0.25
-2 20 13 1.18 0.24
0 -20 13 0.08 0.17
0 -20 -13 0.09 0.13
0 20 -13 0.21 0.2
0 20 13 0.04 0.21
-2 -20 -13 2.38 0.23
2 -20 13 2.35 0.28
-2 20 -13 2.42 0.34
2 20 13 2.07 0.25
1 -21 -13 1.62 0.17
-1 -21 13 1.65 0.22
1 21 -13 1.7 0.25
-1 21 13 1.43 0.24
8 0 -14 8.67 0.48
-8 0 14 7.82 0.43
8 0 -14 8.3 0.37
6 0 -14 14.51 0.63
-6 0 14 13.49 0.57
6 0 -14 15.39 0.51
4 0 -14 2.72 0.32
-4 0 14 2.38 0.27
4 0 -14 2.43 0.22
-2 0 14 59.37 1.88
2 0 -14 58.22 1.99
2 0 -14 58.76 1.71
0 0 14 2.69 0.25
0 0 -14 3.1 0.23
0 0 14 2.51 0.25
2 0 14 1.74 0.22
2 0 14 1.69 0.21
-2 0 -14 1.64 0.16
4 0 14 27.59 1.04
-4 0 -14 29.53 0.9
4 0 14 28.41 0.96
-6 0 -14 11.83 0.47
6 0 14 12.54 0.58
-7 -1 14 11.96 0.52
7 -1 -14 12.29 0.45
7 -1 -14 11.29 0.55
7 1 -14 12.31 0.57
7 1 -14 12.28 0.46
-7 1 14 11.83 0.52
5 -1 -14 5.52 0.3
-5 -1 14 5.97 0.34
5 -1 -14 5.24 0.39
-5 1 14 5.8 0.35
5 1 -14 5.9 0.29
5 1 -14 6.4 0.39
3 -1 -14 1.87 0.21
3 -1 -14 2.35 0.28
-3 -1 14 1.78 0.2
-3 1 14 1.82 0.2
3 1 -14 2.07 0.22
3 1 -14 1.99 0.23
1 -1 -14 6.44 0.29
-1 -1 14 6.17 0.34
1 1 -14 5.92 0.29
1 1 -14 6.38 0.38
-1 1 14 6.1 0.33
1 -1 14 5.16 0.3
1 -1 14 5.4 0.34
-1 -1 -14 5.33 0.27
-1 1 -14 5.24 0.27
1 1 14 4.75 0.3
1 1 14 5.66 0.34
-3 -1 -14 7.07 0.31
3 -1 14 6.92 0.34
3 -1 14 6.39 0.38
3 1 14 6.88 0.39
3 1 14 6.43 0.33
-3 1 -14 6.46 0.31
5 -1 14 0.11 0.17
-5 -1 -14 0.08 0.14
-5 1 -14 -0.04 0.15
5 1 14 -0.03 0.18
7 -1 14 0.24 0.21
7 1 14 0.1 0.2
-8 -2 14 1.12 0.2
8 -2 -14 1.12 0.22
8 -2 -14 1.05 0.17
8 2 -14 1.82 0.25
-8 2 14 1.65 0.22
8 2 -14 1.24 0.17
-6 -2 14 5.12 0.34
6 -2 -14 5.76 0.38
6 -2 -14 4.87 0.29
6 2 -14 5.6 0.28
6 2 -14 6.25 0.41
-6 2 14 4.75 0.34
4 -2 -14 2.52 0.31
-4 -2 14 2.55 0.27
4 -2 -14 2.42 0.22
-4 2 14 2.79 0.27
4 2 -14 2.95 0.22
4 2 -14 2.45 0.33
-2 -2 14 0.82 0.17
2 -2 -14 1.12 0.19
2 -2 -14 1.18 0.15
-2 2 14 0.69 0.16
2 2 -14 0.94 0.14
2 2 -14 0.95 0.2
0 -2 14 4.04 0.28
0 -2 -14 3.46 0.24
0 2 14 3.37 0.29
0 2 14 3.69 0.27
0 2 -14 3.64 0.23
2 -2 14 5 0.33
2 -2 14 4.8 0.3
-2 -2 -14 4.6 0.27
2 2 14 4.97 0.34
-2 2 -14 4.74 0.27
2 2 14 4.98 0.3
4 -2 14 0.03 0.13
4 -2 14 0.17 0.17
-4 -2 -14 0.34 0.15
4 2 14 0.36 0.18
-4 2 -14 0.06 0.14
4 2 14 0.1 0.14
-6 -2 -14 2.77 0.28
6 -2 14 1.64 0.24
6 2 14 1.79 0.25
-6 2 -14 2.57 0.26
7 -3 -14 12.47 0.47
-7 -3 14 11.96 0.52
7 -3 -14 12.04 0.55
-7 3 14 12.29 0.53
7 3 -14 11.73 0.56
7 3 -14 12.66 0.46
5 -3 -14 26.81 0.84
-5 -3 14 27.9 0.93
5 -3 -14 26.73 0.98
5 3 -14 25.9 0.83
5 3 -14 27.08 1.01
-5 3 14 26.01 0.93
3 -3 -14 8.3 0.43
-3 -3 14 8.13 0.38
3 -3 -14 7.26 0.33
3 3 -14 7.91 0.32
-3 3 14 6.86 0.38
3 3 -14 8.36 0.44
-1 -3 14 21.52 0.76
1 -3 -14 21.24 0.68
-1 3 14 22.47 0.77
1 3 -14 21.52 0.83
-1 3 14 21.09 0.79
1 3 -14 20.99 0.68
1 -3 14 13.47 0.53
-1 -3 -14 13.16 0.48
1 -3 14 13.56 0.56
1 3 14 13.22 0.54
-1 3 -14 14.34 0.48
1 3 14 13.59 0.56
-3 -3 -14 15.45 0.54
3 -3 14 15.89 0.63
3 -3 14 14.44 0.57
3 3 14 15.69 0.63
-3 3 -14 15.71 0.53
3 3 14 14.84 0.57
5 -3 14 0.22 0.18
-5 -3 -14 0.29 0.15
5 3 14 0.28 0.18
-5 3 -14 0.21 0.15
7 -3 14 6.48 0.46
7 3 14 7.24 0.45
8 -4 -14 1.16 0.17
-8 -4 14 1.63 0.21
8 4 -14 1.5 0.17
8 4 -14 1.65 0.25
-8 4 14 1.44 0.22
6 -4 -14 17.1 0.68
6 -4 -14 16.36 0.58
-6 -4 14 17.36 0.64
6 4 -14 17.08 0.56
6 4 -14 15.49 0.69
-6 4 14 16.15 0.64
-4 -4 14 0.36 0.17
4 -4 -14 0.64 0.14
4 -4 -14 0.45 0.17
-4 4 14 0.46 0.17
4 4 -14 0.56 0.13
4 4 -14 0.74 0.2
2 -4 -14 8.89 0.37
-2 -4 14 9 0.41
2 4 -14 9.48 0.47
2 4 -14 9.49 0.35
-2 4 14 9.68 0.42
0 -4 -14 6.82 0.32
0 -4 14 7.24 0.35
0 4 14 6.33 0.36
0 4 -14 7.34 0.42
0 4 14 6.6 0.37
0 4 -14 6.66 0.3
-2 -4 -14 1.51 0.16
2 -4 14 1.63 0.22
2 -4 14 1.95 0.26
-2 4 -14 2.32 0.21
2 4 14 1.7 0.2
2 4 14 1.92 0.25
4 -4 14 7.11 0.33
4 -4 14 6.69 0.39
-4 -4 -14 6.71 0.33
-4 4 -14 6.57 0.32
4 4 14 6.27 0.4
4 4 14 6.76 0.35
-6 -4 -14 0.36 0.17
6 -4 14 0.21 0.19
6 4 14 0.51 0.2
-7 -5 14 0.26 0.17
7 -5 -14 0.67 0.16
7 5 -14 0.44 0.21
7 5 -14 0.31 0.14
-7 5 14 0.49 0.19
-5 -5 14 1.15 0.19
5 -5 -14 1.03 0.19
5 -5 -14 1.17 0.16
-5 5 14 0.49 0.18
5 5 -14 0.91 0.22
5 5 -14 0.94 0.14
3 -5 -14 6.56 0.31
3 -5 -14 6.2 0.38
-3 -5 14 6.57 0.34
3 5 -14 6.18 0.29
3 5 -14 5.85 0.41
-3 5 14 5.84 0.35
-1 -5 14 -0.06 0.14
1 -5 -14 0.15 0.12
1 5 -14 0.01 0.11
-1 5 14 0.02 0.16
1 5 -14 0.05 0.18
-1 5 14 -0.03 0.14
1 -5 14 8.6 0.39
-1 -5 -14 9.14 0.36
1 5 14 9.12 0.44
1 5 14 9.25 0.42
-1 5 -14 9.08 0.36
3 -5 14 0.56 0.15
-3 -5 -14 0.51 0.15
3 -5 14 0.56 0.18
3 5 14 0.6 0.18
-3 5 -14 0.68 0.14
3 5 14 0.51 0.16
-5 -5 -14 1.6 0.18
5 -5 14 1.61 0.22
-5 5 -14 1.4 0.18
5 5 14 1.21 0.22
8 -6 -14 12.89 0.49
-8 -6 14 13.04 0.56
-8 6 14 13.8 0.57
8 6 -14 12.8 0.61
6 -6 -14 6.03 0.36
6 -6 -14 5.93 0.32
-6 -6 14 5.79 0.34
-6 6 14 5.76 0.38
6 6 -14 5.67 0.42
6 6 -14 5.36 0.29
4 -6 -14 28.43 0.89
4 -6 -14 29.02 1.04
-4 -6 14 27.78 0.98
4 6 -14 29.66 0.88
-4 6 14 30.04 1
4 6 -14 27.73 1.07
-2 -6 14 3.36 0.27
2 -6 -14 3.47 0.24
2 6 -14 3.82 0.34
-2 6 14 3.49 0.29
-2 6 14 3.77 0.27
2 6 -14 3.11 0.22
0 -6 -14 13.66 0.48
0 -6 14 13.99 0.53
0 6 -14 13.7 0.6
0 6 14 14.06 0.56
0 6 14 12.85 0.55
0 6 -14 13.46 0.47
2 -6 14 12.02 0.52
2 -6 14 11.47 0.46
-2 -6 -14 11.95 0.44
-2 6 -14 11.81 0.43
2 6 14 11.61 0.49
2 6 14 11.66 0.52
-4 -6 -14 6.4 0.33
4 -6 14 6.81 0.39
-4 6 -14 6.76 0.34
4 6 14 6.53 0.36
4 6 14 7.62 0.4
6 -6 14 13.25 0.61
-6 -6 -14 13.45 0.51
6 6 14 13.91 0.62
-7 -7 14 4.31 0.33
7 -7 -14 3.98 0.28
-7 7 14 4.59 0.34
7 7 -14 3.59 0.38
-5 -7 14 7.02 0.39
5 -7 -14 8.33 0.42
5 -7 -14 7.6 0.35
5 7 -14 8.02 0.33
-5 7 14 8.22 0.41
5 7 -14 8.12 0.46
-3 -7 14 8.63 0.4
3 -7 -14 8.29 0.35
-3 7 14 8.36 0.39
3 7 -14 8.38 0.33
-3 7 14 7.97 0.41
3 7 -14 8.54 0.46
-1 -7 14 8.96 0.4
1 -7 -14 8.71 0.36
-1 7 14 8.24 0.39
1 7 -14 8.59 0.34
1 7 -14 7.87 0.45
-1 7 14 8.43 0.41
-1 -7 -14 7.7 0.34
1 -7 14 8.51 0.39
-1 7 -14 7.95 0.33
-1 7 -14 8.63 0.45
1 7 14 8.44 0.41
1 7 14 7.73 0.4
3 -7 14 1.72 0.21
3 -7 14 2.16 0.23
-3 -7 -14 2.1 0.24
3 7 14 1.67 0.2
-3 7 -14 2.2 0.23
3 7 14 1.37 0.21
-5 -7 -14 3.2 0.28
5 -7 14 3.04 0.34
5 7 14 3.8 0.36
-8 -8 14 0.6 0.18
8 -8 -14 0.53 0.17
8 8 -14 0.27 0.23
-8 8 14 0.78 0.21
6 -8 -14 0.97 0.16
-6 -8 14 0.47 0.19
6 8 -14 0.64 0.22
-6 8 14 0.82 0.2
6 8 -14 0.93 0.14
4 -8 -14 5.5 0.29
-4 -8 14 5.08 0.32
4 8 -14 5.26 0.27
-4 8 14 5.04 0.3
4 8 -14 5.39 0.41
-4 8 14 5.45 0.35
-2 -8 14 2.73 0.26
2 -8 -14 3.01 0.24
-2 8 14 2.85 0.28
-2 8 14 2.84 0.26
2 8 -14 2.89 0.21
2 8 -14 2.5 0.33
0 -8 -14 2.85 0.23
0 -8 14 2.84 0.25
0 8 14 2.31 0.23
0 8 -14 2.38 0.21
0 8 -14 2.82 0.32
0 8 14 2.2 0.25
2 -8 14 3.34 0.31
-2 -8 -14 3.39 0.24
2 -8 14 3.53 0.27
2 8 14 3.19 0.3
-2 8 -14 3.28 0.24
2 8 14 3.37 0.3
-4 -8 -14 1.72 0.18
4 -8 14 1.41 0.21
4 8 14 1.57 0.22
-4 8 -14 1.76 0.17
4 8 14 1.76 0.2
-6 -8 -14 1.49 0.18
6 -8 14 1.44 0.22
6 8 14 1.22 0.24
-7 -9 14 3.06 0.32
7 -9 -14 2.36 0.26
-7 9 14 2.75 0.34
7 9 -14 2.1 0.28
5 -9 -14 10.51 0.43
-5 -9 14 11.83 0.48
5 9 -14 11.19 0.4
-5 9 14 10.58 0.5
5 9 -14 11.29 0.57
3 -9 -14 25.14 0.79
-3 -9 14 24.61 0.87
3 9 -14 24.67 0.95
-3 9 14 24.74 0.89
-3 9 14 25.2 0.89
3 9 -14 24.65 0.77
-1 -9 14 7.42 0.37
1 -9 -14 7.48 0.33
-1 9 14 7.4 0.4
1 9 -14 7.96 0.46
-1 9 14 7.76 0.38
1 9 -14 7.44 0.32
1 -9 14 24.95 0.85
-1 -9 -14 24.68 0.78
-1 9 -14 24.16 0.77
1 9 14 24.39 0.89
1 9 14 23.76 0.87
-1 9 -14 25.38 0.94
-3 -9 -14 0.35 0.15
3 -9 14 0.16 0.16
3 -9 14 0.39 0.14
3 9 14 0.47 0.17
-3 9 -14 0.32 0.14
3 9 14 0.37 0.17
-5 -9 -14 12.24 0.48
5 -9 14 12.22 0.57
5 9 14 12.74 0.59
-6 -10 14 5.94 0.37
6 -10 -14 5.74 0.32
-6 10 14 6.22 0.41
6 10 -14 6.15 0.43
4 -10 -14 20.81 0.68
-4 -10 14 19.94 0.74
4 10 -14 20.5 0.65
4 10 -14 21.58 0.83
-4 10 14 19.89 0.78
2 -10 -14 0.81 0.15
-2 -10 14 0.99 0.18
2 10 -14 1.09 0.13
-2 10 14 0.98 0.2
2 10 -14 0.96 0.22
-2 10 14 1 0.16
0 -10 -14 17.15 0.55
0 -10 14 15.41 0.61
0 10 14 16.34 0.64
0 10 -14 16.84 0.69
0 10 -14 16.09 0.54
0 10 14 14.96 0.63
2 -10 14 16.16 0.67
2 -10 14 16.08 0.61
-2 -10 -14 16.98 0.57
2 10 14 16.63 0.65
-2 10 -14 16.59 0.56
2 10 14 16.92 0.67
-4 -10 -14 0.31 0.15
4 -10 14 -0.14 0.17
4 10 14 0.33 0.19
4 10 14 0.12 0.16
-7 -11 14 0.41 0.18
7 -11 -14 0.4 0.16
7 11 -14 0.57 0.23
-7 11 14 0.23 0.2
5 -11 -14 -0.19 0.14
-5 -11 14 0.14 0.17
-5 11 14 0.13 0.2
5 11 -14 0.21 0.21
3 -11 -14 0.25 0.14
-3 -11 14 0.1 0.15
3 11 -14 0.14 0.21
-3 11 14 -0.13 0.18
3 11 -14 0.15 0.11
1 -11 -14 1.51 0.16
-1 -11 14 1.44 0.18
1 11 -14 1.85 0.24
-1 11 14 1.01 0.21
1 11 -14 1.33 0.15
-1 11 14 1.74 0.24
-1 -11 -14 -0.03 0.13
1 -11 14 0.04 0.15
-1 11 -14 0.08 0.19
1 11 14 0.18 0.17
1 11 14 0.09 0.15
-1 11 -14 0.15 0.12
3 -11 14 0.53 0.18
-3 -11 -14 1.14 0.16
3 -11 14 0.92 0.16
-3 11 -14 0.92 0.15
3 11 14 1 0.2
3 11 14 0.85 0.19
-5 -11 -14 0.01 0.15
5 -11 14 -0.22 0.17
5 11 14 0.12 0.2
-6 -12 14 6.12 0.37
6 -12 -14 6.47 0.33
-6 12 14 6.4 0.41
6 12 -14 5.73 0.46
4 -12 -14 16.7 0.59
-4 -12 14 17.34 0.66
-4 12 14 17.29 0.69
4 12 -14 18.04 0.75
2 -12 -14 4.56 0.28
-2 -12 14 5.07 0.33
-2 12 14 4.8 0.3
2 12 -14 4.96 0.39
-2 12 14 5.12 0.38
0 -12 -14 9.36 0.39
0 -12 14 9.86 0.43
0 12 -14 9.19 0.49
0 12 14 9.72 0.44
0 12 14 9.83 0.46
0 12 -14 9.36 0.36
-2 -12 -14 6.27 0.31
2 -12 14 6.12 0.34
2 12 14 6.05 0.38
-2 12 -14 5.77 0.3
2 12 14 6.44 0.37
4 -12 14 5.78 0.37
-4 -12 -14 5.62 0.3
4 12 14 5.74 0.4
4 12 14 5.4 0.36
-5 -13 14 8.4 0.43
5 -13 -14 8.11 0.38
5 13 -14 8.7 0.52
-5 13 14 8.55 0.46
3 -13 -14 9.61 0.4
-3 -13 14 9.37 0.44
3 13 -14 9.84 0.52
-3 13 14 9.8 0.48
-1 -13 14 6.09 0.35
1 -13 -14 5.72 0.3
1 13 -14 6.11 0.41
-1 13 14 5.31 0.33
-1 13 14 5.57 0.39
1 -13 14 10.46 0.45
-1 -13 -14 10.5 0.4
-1 13 -14 10 0.51
-1 13 -14 10.26 0.39
1 13 14 10.06 0.48
1 13 14 9.69 0.47
-3 -13 -14 2.59 0.24
3 -13 14 1.83 0.23
3 -13 14 2.81 0.26
3 13 14 2.52 0.31
3 13 14 3.23 0.31
6 -14 -14 1.38 0.19
-6 -14 14 0.99 0.21
-6 14 14 1.8 0.25
6 14 -14 1.56 0.27
4 -14 -14 3.07 0.28
-4 -14 14 2.79 0.3
4 14 -14 2.37 0.29
-4 14 14 2.99 0.34
-2 -14 14 0.52 0.17
2 -14 -14 0.39 0.15
2 14 -14 0.49 0.21
-2 14 14 0.43 0.2
0 -14 -14 0.43 0.14
0 -14 14 0.19 0.16
0 14 14 0.27 0.16
0 14 -14 -0.04 0.2
0 14 14 0.26 0.19
2 -14 14 0.71 0.16
-2 -14 -14 0.45 0.15
2 14 14 0.31 0.2
2 14 14 0.1 0.17
4 -14 14 1.61 0.22
-4 -14 -14 1.64 0.18
4 14 14 1.44 0.21
4 14 14 1.3 0.23
-5 -15 14 10.73 0.49
5 -15 -14 10.5 0.45
5 15 -14 11.32 0.57
-5 15 14 11.32 0.55
3 -15 -14 6.22 0.32
-3 -15 14 6.39 0.37
-3 15 14 6.41 0.43
3 15 -14 6.46 0.47
1 -15 -14 10.12 0.41
-1 -15 14 9.9 0.46
1 15 -14 10.34 0.53
-1 15 14 10.13 0.49
-1 -15 -14 9.19 0.37
1 -15 14 7.95 0.4
1 15 14 9.23 0.47
-1 15 -14 8.72 0.48
1 15 14 8.76 0.43
3 -15 14 5.48 0.31
3 -15 14 4.68 0.34
-3 -15 -14 4.99 0.3
3 15 14 4.66 0.37
3 15 14 5.21 0.36
4 -16 -14 2.81 0.28
-4 -16 14 3.13 0.31
4 16 -14 3.05 0.38
-4 16 14 2.92 0.35
-2 -16 14 6.87 0.38
2 -16 -14 7.02 0.34
2 16 -14 6.46 0.45
-2 16 14 6.4 0.44
0 -16 -14 4.96 0.29
0 -16 14 5.31 0.33
0 16 -14 5.17 0.4
0 16 14 5.98 0.39
2 -16 14 9.88 0.44
-2 -16 -14 10.16 0.41
2 16 14 9.76 0.48
2 16 14 9.41 0.49
3 -17 -14 3.01 0.28
-3 -17 14 2.38 0.32
-3 17 14 2.47 0.28
3 17 -14 2.53 0.3
-1 -17 14 0.46 0.18
1 -17 -14 0.36 0.15
-1 17 14 0.12 0.22
1 17 -14 0.05 0.22
-1 -17 -14 0.33 0.14
1 -17 14 0.42 0.17
1 17 14 0.46 0.21
-1 17 -14 0.27 0.21
-2 -18 14 24.16 0.85
2 -18 -14 22.91 0.76
2 18 -14 24.19 0.94
-2 18 14 23.1 0.89
0 -18 -14 0.57 0.16
0 -18 14 0.72 0.19
0 18 14 0.63 0.22
0 18 -14 0.44 0.22
6 0 -15 -0.14 0.14
6 0 -15 -0.02 0.2
-6 0 15 0.05 0.18
-4 0 15 0.02 0.18
4 0 -15 0.09 0.19
4 0 -15 -0.13 0.14
2 0 -15 0.06 0.19
2 0 -15 -0.03 0.14
-2 0 15 0.08 0.17
0 0 15 0.01 0.15
0 0 15 0 0.16
0 0 -15 -0.1 0.13
2 0 15 0.16 0.16
2 0 15 -0.15 0.16
-2 0 -15 -0.02 0.14
-4 0 -15 -0.03 0.15
4 0 15 0.12 0.18
7 -1 -15 0.2 0.16
7 -1 -15 0.34 0.21
-7 -1 15 0.06 0.19
7 1 -15 0.16 0.2
7 1 -15 0.56 0.15
-7 1 15 0.34 0.19
5 -1 -15 0.91 0.16
5 -1 -15 1.04 0.22
-5 -1 15 0.87 0.2
5 1 -15 0.95 0.22
-5 1 15 0.67 0.19
5 1 -15 0.67 0.15
3 -1 -15 3.37 0.25
3 -1 -15 3.31 0.35
-3 -1 15 3.13 0.3
-3 1 15 3.19 0.3
3 1 -15 3.47 0.36
3 1 -15 3.88 0.26
1 -1 -15 1.36 0.16
-1 -1 15 1.16 0.19
1 1 -15 1.53 0.23
1 1 -15 1.21 0.16
-1 1 15 1.16 0.18
-1 1 15 1.64 0.21
1 -1 15 13.89 0.54
-1 -1 -15 13.3 0.48
1 -1 15 13.6 0.58
1 1 15 13.97 0.54
1 1 15 12.71 0.57
-1 1 -15 12.67 0.49
-3 -1 -15 -0.02 0.14
3 -1 15 -0.03 0.15
3 -1 15 -0.24 0.17
3 1 15 0.3 0.16
3 1 15 0.22 0.17
-3 1 -15 0.2 0.15
5 -1 15 0.56 0.21
-5 -1 -15 0.46 0.16
5 1 15 0.37 0.21
-5 1 -15 0.22 0.17
6 -2 -15 -0.02 0.2
-6 -2 15 0.34 0.18
6 -2 -15 0.06 0.15
6 2 -15 0.1 0.21
6 2 -15 0.1 0.14
-6 2 15 -0.31 0.16
-4 -2 15 3.7 0.33
4 -2 -15 3.59 0.28
4 -2 -15 4.07 0.36
4 2 -15 4.07 0.36
-4 2 15 3.37 0.31
4 2 -15 3.31 0.26
2 -2 -15 0.13 0.14
-2 -2 15 0.35 0.17
-2 2 15 0.3 0.18
2 2 -15 0.27 0.19
2 2 -15 0.26 0.13
0 -2 -15 0.48 0.14
0 -2 15 0.68 0.18
0 -2 15 0.7 0.18
0 2 -15 0.45 0.13
0 2 15 0.52 0.18
0 2 15 0.36 0.17
2 -2 15 6.56 0.36
2 -2 15 6.8 0.41
-2 -2 -15 7.17 0.34
2 2 15 6.02 0.4
-2 2 -15 6.5 0.32
2 2 15 6.8 0.37
4 -2 15 0.94 0.2
-4 -2 -15 1 0.17
4 2 15 0.56 0.2
-4 2 -15 0.88 0.16
7 -3 -15 0.66 0.22
7 -3 -15 1.06 0.18
-7 -3 15 1.13 0.21
7 3 -15 1.18 0.25
7 3 -15 0.63 0.16
-7 3 15 0.99 0.21
-5 -3 15 -0.13 0.17
5 -3 -15 -0.16 0.14
5 -3 -15 0.21 0.19
-5 3 15 -0.29 0.17
5 3 -15 0.05 0.14
5 3 -15 0.02 0.21
-3 -3 15 0.56 0.18
3 -3 -15 0.81 0.2
3 -3 -15 0.57 0.15
3 3 -15 0.83 0.21
-3 3 15 0.55 0.18
3 3 -15 0.85 0.15
1 -3 -15 -0.05 0.13
-1 -3 15 -0.03 0.16
-1 3 15 0 0.15
-1 3 15 -0.09 0.16
1 3 -15 -0.14 0.18
1 3 -15 0.01 0.12
1 -3 15 2.59 0.27
1 -3 15 3.21 0.3
-1 -3 -15 2.87 0.24
1 3 15 3.24 0.31
-1 3 -15 3.43 0.26
1 3 15 2.44 0.27
3 -3 15 1.98 0.23
3 -3 15 2.25 0.26
-3 -3 -15 2 0.24
3 3 15 2.03 0.23
-3 3 -15 2.16 0.24
3 3 15 2.46 0.27
-5 -3 -15 0.11 0.16
5 -3 15 0.04 0.18
5 3 15 0.05 0.19
-5 3 -15 0.04 0.16
-6 -4 15 1.64 0.23
6 -4 -15 2.08 0.25
6 -4 -15 1.46 0.22
6 4 -15 1.39 0.17
6 4 -15 1.58 0.26
-6 4 15 1.9 0.23
-4 -4 15 -0.09 0.17
4 -4 -15 0.01 0.14
4 -4 -15 0.09 0.18
-4 4 15 0.06 0.17
4 4 -15 0.12 0.13
4 4 -15 0.07 0.2
-2 -4 15 4.19 0.32
2 -4 -15 4.73 0.29
-2 4 15 4.84 0.35
2 4 -15 4.73 0.26
2 4 -15 4.98 0.4
-2 4 15 5 0.32
0 -4 15 2.88 0.27
0 -4 -15 2.58 0.24
0 4 15 2.86 0.29
0 4 -15 2.68 0.24
0 4 15 3.37 0.29
2 -4 15 1.58 0.2
2 -4 15 1.8 0.22
-2 -4 -15 1.52 0.18
-2 4 -15 1.58 0.17
2 4 15 1.77 0.21
2 4 15 1.39 0.2
-4 -4 -15 2.8 0.28
4 -4 15 2.45 0.32
-4 4 -15 2.37 0.25
4 4 15 2.43 0.26
-7 -5 15 1.4 0.22
7 -5 -15 1.05 0.18
7 5 -15 1.55 0.17
7 5 -15 1.38 0.26
-7 5 15 1.59 0.23
-5 -5 15 0.3 0.18
5 -5 -15 0.53 0.16
5 -5 -15 0.27 0.19
5 5 -15 0.08 0.14
5 5 -15 0.28 0.22
-5 5 15 0.22 0.19
-3 -5 15 0.5 0.18
3 -5 -15 0.61 0.15
-3 5 15 0.49 0.19
3 5 -15 0.46 0.21
3 5 -15 0.57 0.13
1 -5 -15 0.73 0.16
-1 -5 15 1.16 0.19
-1 5 15 1.14 0.2
1 5 -15 0.98 0.22
1 5 -15 0.97 0.15
-1 5 15 1.04 0.18
1 -5 15 5.92 0.35
1 -5 15 6.3 0.37
-1 -5 -15 5.76 0.3
1 5 15 5.66 0.36
-1 5 -15 5.64 0.31
1 5 15 5.3 0.37
3 -5 15 0.41 0.16
3 -5 15 0.09 0.19
-3 -5 -15 0.25 0.15
-3 5 -15 0.03 0.15
3 5 15 0.45 0.19
3 5 15 0.42 0.17
5 -5 15 6.74 0.45
-5 -5 -15 6.83 0.36
-5 5 -15 7.9 0.38
5 5 15 7.76 0.46
6 -6 -15 2.21 0.21
-6 -6 15 2.09 0.24
-6 6 15 1.75 0.24
6 6 -15 2.22 0.27
6 6 -15 2.24 0.24
4 -6 -15 3.57 0.27
-4 -6 15 3.33 0.31
-4 6 15 4 0.33
4 6 -15 2.96 0.25
4 6 -15 4.33 0.4
-2 -6 15 -0.01 0.16
2 -6 -15 -0.04 0.14
-2 6 15 0.02 0.15
-2 6 15 0.04 0.17
2 6 -15 -0.03 0.12
2 6 -15 -0.06 0.2
0 -6 15 0.64 0.17
0 -6 -15 0.43 0.15
0 6 -15 0.57 0.14
0 6 -15 0.63 0.22
0 6 15 0.69 0.18
0 6 15 0.52 0.18
2 -6 15 0.67 0.2
-2 -6 -15 0.86 0.17
2 -6 15 0.88 0.17
-2 6 -15 0.95 0.16
2 6 15 0.77 0.19
2 6 15 1.18 0.19
-4 -6 -15 1.84 0.2
4 -6 15 2.25 0.31
4 6 15 2.15 0.25
-4 6 -15 2.03 0.2
5 -7 -15 1.31 0.18
-5 -7 15 1.39 0.21
5 7 -15 1.34 0.16
-5 7 15 0.96 0.22
5 7 -15 1.39 0.26
-3 -7 15 0.9 0.18
3 -7 -15 0.64 0.16
-3 7 15 0.54 0.16
3 7 -15 0.64 0.13
3 7 -15 0.44 0.22
-3 7 15 0.32 0.19
1 -7 -15 23.17 0.76
-1 -7 15 23.24 0.84
1 7 -15 23.1 0.75
-1 7 15 24.3 0.88
-1 7 15 24.55 0.86
1 7 -15 24.39 0.92
1 -7 15 0.62 0.17
-1 -7 -15 0.71 0.16
1 7 15 0.8 0.19
1 7 15 0.89 0.18
-1 7 -15 0.37 0.14
3 -7 15 3.57 0.35
3 -7 15 4.15 0.29
-3 -7 -15 3.86 0.3
3 7 15 4.1 0.34
-3 7 -15 3.61 0.28
3 7 15 4.03 0.32
-6 -8 15 8.39 0.42
6 -8 -15 7.72 0.38
-6 8 15 7.85 0.44
6 8 -15 7.6 0.51
4 -8 -15 0.03 0.14
-4 -8 15 0.11 0.16
4 8 -15 0.47 0.23
-4 8 15 0.16 0.15
-4 8 15 -0.05 0.18
4 8 -15 0.14 0.13
2 -8 -15 -0.08 0.14
-2 -8 15 0.12 0.17
2 8 -15 -0.05 0.2
2 8 -15 0.08 0.12
-2 8 15 0.27 0.18
-2 8 15 0.11 0.16
0 -8 -15 3.32 0.28
0 -8 15 3.49 0.3
0 8 -15 4.12 0.37
0 8 15 3.71 0.34
0 8 -15 3.09 0.25
0 8 15 3.55 0.3
2 -8 15 1.11 0.18
-2 -8 -15 1.11 0.17
2 -8 15 1.3 0.21
-2 8 -15 1.22 0.16
2 8 15 1.4 0.21
2 8 15 1.18 0.21
-4 -8 -15 13.75 0.52
4 -8 15 14.16 0.62
4 8 15 14.04 0.62
-4 8 -15 13.04 0.5
-5 -9 15 0.06 0.17
5 -9 -15 0.04 0.16
5 9 -15 0.11 0.22
-5 9 15 -0.04 0.2
-3 -9 15 -0.05 0.16
3 -9 -15 -0.06 0.14
3 9 -15 -0.15 0.11
-3 9 15 0.05 0.19
-3 9 15 0.18 0.15
3 9 -15 -0.02 0.21
1 -9 -15 2.22 0.26
-1 -9 15 2.31 0.28
-1 9 15 2.17 0.24
1 9 -15 1.98 0.2
-1 9 15 2.07 0.27
1 9 -15 2.47 0.34
1 -9 15 0.55 0.16
-1 -9 -15 0.39 0.15
-1 9 -15 0.21 0.13
1 9 15 0.12 0.19
1 9 15 0.64 0.17
-3 -9 -15 0.76 0.17
3 -9 15 0.83 0.21
3 -9 15 0.86 0.17
3 9 15 0.7 0.19
3 9 15 0.88 0.21
-3 9 -15 0.8 0.16
4 -10 -15 0.25 0.15
-4 -10 15 0.26 0.18
-4 10 15 0.3 0.21
4 10 -15 -0.04 0.22
2 -10 -15 -0.21 0.14
-2 -10 15 -0.02 0.17
2 10 -15 -0.04 0.12
-2 10 15 0.14 0.2
2 10 -15 0.11 0.21
-2 10 15 -0.01 0.15
0 -10 15 1.27 0.2
0 -10 -15 1.01 0.17
0 10 15 1.36 0.2
0 10 15 1.48 0.23
0 10 -15 1.27 0.24
0 10 -15 1.44 0.16
-2 -10 -15 0.45 0.15
2 -10 15 0.51 0.16
2 -10 15 0.38 0.19
2 10 15 0.57 0.18
2 10 15 0.48 0.19
-2 10 -15 0.26 0.13
-4 -10 -15 6.28 0.33
4 -10 15 6.25 0.42
4 10 15 6.1 0.43
5 -11 -15 1.02 0.18
-5 -11 15 0.89 0.2
-5 11 15 0.8 0.23
5 11 -15 1.52 0.27
3 -11 -15 0.6 0.17
-3 -11 15 1.26 0.2
3 11 -15 0.89 0.24
-3 11 15 0.83 0.22
1 -11 -15 13.25 0.49
-1 -11 15 13.59 0.54
1 11 -15 13.67 0.47
-1 11 15 12.62 0.55
-1 11 15 13.12 0.59
1 11 -15 13.81 0.63
-1 -11 -15 0.84 0.17
1 -11 15 1.27 0.19
-1 11 -15 1.19 0.23
-1 11 -15 1.01 0.15
1 11 15 0.97 0.19
1 11 15 1.17 0.22
-3 -11 -15 2.64 0.26
3 -11 15 2.98 0.34
3 -11 15 2.08 0.27
3 11 15 2.37 0.26
3 11 15 2.67 0.31
-3 11 -15 2.46 0.26
4 -12 -15 3.11 0.27
-4 -12 15 2.86 0.31
4 12 -15 3 0.41
-4 12 15 3.41 0.38
2 -12 -15 0.83 0.17
-2 -12 15 1.07 0.2
-2 12 15 1.45 0.24
2 12 -15 1.14 0.25
0 -12 -15 0.1 0.15
0 -12 15 0.04 0.16
0 12 -15 0.02 0.12
0 12 -15 -0.21 0.2
0 12 15 0.04 0.2
0 12 15 -0.02 0.16
-2 -12 -15 0.27 0.16
2 -12 15 0.57 0.17
2 -12 15 0.34 0.18
2 12 15 0.45 0.19
-2 12 -15 0.34 0.14
2 12 15 0.38 0.19
3 -13 -15 0.52 0.17
-3 -13 15 0.77 0.19
-3 13 15 0.3 0.22
3 13 -15 0.44 0.23
-1 -13 15 0.59 0.18
1 -13 -15 0.6 0.16
-1 13 15 0.42 0.2
1 13 -15 0.38 0.23
-1 -13 -15 1.67 0.19
1 -13 15 1.36 0.2
1 13 15 1.5 0.22
-1 13 -15 1.74 0.17
1 13 15 1.91 0.24
-1 13 -15 1.74 0.26
-2 -14 15 1.82 0.22
2 -14 -15 2.07 0.2
-2 14 15 1.95 0.26
2 14 -15 1.33 0.27
0 -14 15 4.64 0.32
0 -14 -15 4.42 0.29
0 14 -15 3.6 0.39
0 14 15 5.03 0.39
1 -15 -15 0.1 0.15
-1 -15 15 0.09 0.16
-1 15 15 0.25 0.21
1 15 -15 0 0.22
-4 0 16 38.11 1.3
4 0 -16 38.39 1.16
4 0 -16 37.8 1.37
2 0 -16 0.42 0.15
-2 0 16 0.41 0.19
0 0 16 2.91 0.3
0 0 -16 3.02 0.25
0 0 16 3.07 0.33
2 0 16 8.56 0.43
2 0 16 8.97 0.47
-2 0 -16 8.36 0.38
-5 -1 16 1.33 0.22
5 -1 -16 1.22 0.24
5 -1 -16 1.53 0.19
-5 1 16 0.99 0.21
5 1 -16 1.45 0.18
5 1 -16 1.43 0.25
3 -1 -16 0.23 0.21
-3 -1 16 0.36 0.19
3 -1 -16 0.31 0.15
-3 1 16 -0.01 0.18
3 1 -16 0.11 0.21
3 1 -16 -0.03 0.15
1 -1 -16 1.29 0.17
-1 -1 16 1.29 0.2
-1 -1 16 1.32 0.21
-1 1 16 1.44 0.21
1 1 -16 1.32 0.17
-1 1 16 1.06 0.2
1 -1 16 1.82 0.24
-1 -1 -16 2.07 0.25
1 -1 16 1.84 0.22
1 1 16 1.86 0.22
-1 1 -16 2.16 0.24
1 1 16 1.82 0.23
3 -1 16 0.61 0.18
3 -1 16 0.5 0.2
-3 -1 -16 0.2 0.16
3 1 16 0.44 0.2
3 1 16 0.43 0.17
-3 1 -16 0.32 0.16
-4 -2 16 0.23 0.2
4 -2 -16 0.34 0.16
4 -2 -16 0.04 0.21
-4 2 16 0.29 0.19
4 2 -16 0.04 0.22
4 2 -16 0.51 0.15
-2 -2 16 2.14 0.24
2 -2 -16 2.23 0.27
-2 2 16 2.53 0.3
2 2 -16 2.32 0.27
-2 2 16 1.9 0.23
2 2 -16 2.13 0.25
0 -2 16 1.25 0.21
0 -2 -16 1.01 0.16
0 -2 16 0.93 0.19
0 2 16 1.08 0.21
0 2 -16 0.56 0.15
0 2 16 0.87 0.2
2 -2 16 0.09 0.19
-2 -2 -16 0.11 0.16
2 -2 16 -0.14 0.16
-2 2 -16 0.15 0.15
2 2 16 0.39 0.19
2 2 16 0.29 0.18
5 -3 -16 6.73 0.44
5 -3 -16 6.19 0.36
-5 -3 16 6.33 0.4
-5 3 16 7.21 0.41
5 3 -16 7.6 0.48
5 3 -16 6.13 0.33
-3 -3 16 3.77 0.33
3 -3 -16 3.97 0.28
-3 3 16 4.35 0.36
3 3 -16 4.43 0.39
3 3 -16 3.56 0.28
1 -3 -16 2.32 0.26
-1 -3 16 2.72 0.3
-1 3 16 2.77 0.31
-1 3 16 2.34 0.3
1 3 -16 2.39 0.25
1 -3 16 7.88 0.41
1 -3 16 7.71 0.45
-1 -3 -16 7.25 0.36
1 3 16 7.61 0.4
1 3 16 8.3 0.44
-1 3 -16 8.13 0.36
3 -3 16 0.13 0.17
3 -3 16 0.33 0.2
-3 -3 -16 0.32 0.16
-3 3 -16 0.35 0.16
3 3 16 0.29 0.17
3 3 16 0.19 0.19
-4 -4 16 7.66 0.42
4 -4 -16 7.46 0.37
4 4 -16 7.78 0.49
-4 4 16 6.8 0.42
4 4 -16 7.4 0.36
-2 -4 16 1.24 0.21
2 -4 -16 1.23 0.18
-2 4 16 1.21 0.2
2 4 -16 1.21 0.16
-2 4 16 1.12 0.21
2 4 -16 1.42 0.25
0 -4 16 1.67 0.22
0 -4 16 1.49 0.22
0 -4 -16 1.45 0.18
0 4 -16 1.42 0.18
0 4 16 1.72 0.23
0 4 16 1.87 0.22
-2 -4 -16 2.61 0.28
2 -4 16 1.82 0.25
2 -4 16 1.79 0.21
2 4 16 1.93 0.23
2 4 16 1.62 0.21
-2 4 -16 1.96 0.2
5 -5 -16 0.52 0.2
5 -5 -16 0.33 0.16
-5 -5 16 0.44 0.2
5 5 -16 0.36 0.15
-5 5 16 0.5 0.21
5 5 -16 0.92 0.26
3 -5 -16 0.39 0.16
-3 -5 16 0.5 0.19
3 5 -16 0.51 0.23
3 5 -16 0.3 0.14
-3 5 16 0.43 0.2
-3 5 16 0.52 0.18
1 -5 -16 1.24 0.18
-1 -5 16 1.25 0.2
-1 5 16 0.78 0.2
1 5 -16 1.31 0.16
1 5 -16 0.91 0.23
-1 5 16 1.15 0.21
-1 -5 -16 1.86 0.19
1 -5 16 1.67 0.22
1 -5 16 1.35 0.22
1 5 16 1.66 0.22
1 5 16 1.47 0.22
-1 5 -16 1.5 0.18
3 -5 16 5.42 0.34
3 -5 16 6.12 0.4
-3 -5 -16 5.74 0.33
3 5 16 5.64 0.37
3 5 16 5.61 0.39
-3 5 -16 5.55 0.32
4 -6 -16 4.56 0.32
-4 -6 16 4.97 0.37
-4 6 16 4.09 0.36
4 6 -16 4.38 0.28
4 6 -16 4.71 0.42
-4 6 16 4.47 0.33
-2 -6 16 9.47 0.47
2 -6 -16 10.02 0.41
2 6 -16 9.37 0.39
2 6 -16 9.51 0.52
-2 6 16 9.19 0.47
-2 6 16 9.11 0.46
0 -6 -16 2.53 0.26
0 -6 16 3.06 0.29
0 6 16 2.07 0.23
0 6 -16 2.48 0.26
0 6 16 2.38 0.31
2 -6 16 4.83 0.34
2 -6 16 4.96 0.4
-2 -6 -16 4.78 0.32
2 6 16 5.66 0.39
-2 6 -16 4.54 0.29
2 6 16 4.7 0.36
3 -7 -16 4.81 0.32
-3 -7 16 5.5 0.37
-3 7 16 6.57 0.37
3 7 -16 5.61 0.44
3 7 -16 6.03 0.3
-3 7 16 5.92 0.39
-1 -7 16 0.49 0.18
1 -7 -16 0.44 0.17
1 7 -16 0.13 0.14
-1 7 16 0.21 0.19
-1 7 16 0.55 0.18
1 7 -16 -0.01 0.21
-1 -7 -16 1.43 0.19
1 -7 16 1.73 0.23
1 -7 16 1.39 0.2
1 7 16 1.56 0.23
-1 7 -16 1.23 0.17
1 7 16 1.24 0.21
-4 -8 16 0.17 0.19
4 -8 -16 -0.12 0.15
4 8 -16 -0.45 0.21
4 8 -16 0.11 0.13
-4 8 16 0.47 0.22
2 -8 -16 4.31 0.3
-2 -8 16 4.59 0.36
-2 8 16 4.37 0.37
2 8 -16 4.53 0.41
-2 8 16 4.67 0.34
2 8 -16 4.6 0.28
0 -8 16 -0.08 0.16
0 -8 -16 0.16 0.16
0 8 -16 0 0.21
0 8 16 0.23 0.17
0 8 -16 0.31 0.14
0 8 16 0.18 0.2
2 -8 16 1.54 0.2
2 -8 16 1.21 0.22
-2 -8 -16 1.29 0.19
2 8 16 1.24 0.22
-2 8 -16 1.17 0.18
2 8 16 1.85 0.23
3 -9 -16 1.92 0.2
-3 -9 16 2.09 0.24
3 9 -16 2.51 0.23
3 9 -16 2.32 0.29
-3 9 16 2.06 0.26
-1 -9 16 0.66 0.19
1 -9 -16 0.42 0.17
-1 9 16 0.6 0.22
1 9 -16 0.24 0.14
1 9 -16 0.69 0.23
-1 9 16 0.9 0.19
1 -9 16 3.26 0.34
1 -9 16 3.04 0.3
-1 -9 -16 2.37 0.27
1 9 16 3.04 0.35
1 9 16 2.78 0.33
-1 9 -16 2.56 0.26
-2 -10 16 14.17 0.6
2 -10 -16 14.57 0.54
2 10 -16 14.83 0.68
-2 10 16 15.79 0.65
-2 10 16 14.74 0.61
2 10 -16 14.5 0.52
0 -10 -16 2.57 0.29
0 -10 16 2.5 0.29
0 10 16 3.01 0.34
0 10 16 2.97 0.31
0 10 -16 2.69 0.26
0 10 -16 2.73 0.3
