#------------------------------------------------------------------------------
#$Date: 2016-03-26 13:42:56 +0200 (Sat, 26 Mar 2016) $
#$Revision: 180233 $
#$URL: svn://www.crystallography.net/cod/cif/7/11/19/7111931.cif $
#------------------------------------------------------------------------------
#
# This file is available in the Crystallography Open Database (COD),
# http://www.crystallography.net/
#
# All data on this site have been placed in the public domain by the
# contributors.
#
data_7111931
loop_
_publ_author_name
'Dinesh G. (Dan) Patel'
'Ian M. Walton'
'Jordan M. Cox'
'Cody J. Gleason'
'David R. Butzer'
'Jason B. Benedict'
_publ_section_title
;
 Photoresponsive porous materials: the design and synthesis of
 photochromic diarylethene-based linkers and a metal-organic framework
;
_journal_name_full               Chem.Commun.
_journal_page_first              2653
_journal_paper_doi               10.1039/c3cc49666j
_journal_volume                  50
_journal_year                    2014
_chemical_formula_moiety         'C26 H22 Br2 O2 S2'
_chemical_formula_sum            'C26 H22 Br2 O2 S2'
_chemical_formula_weight         590.37
_space_group_crystal_system      triclinic
_space_group_IT_number           2
_space_group_name_Hall           '-P 1'
_space_group_name_H-M_alt        'P -1'
_symmetry_space_group_name_Hall  '-P 1'
_symmetry_space_group_name_H-M   'P -1'
_atom_sites_solution_hydrogens   geom
_atom_sites_solution_primary     direct
_audit_creation_date             2013-11-27
_audit_creation_method
;
Olex2 1.2
(compiled 2013.11.15 svn.r2834 for OlexSys, GUI svn.r4707)
;
_cell_angle_alpha                107.302(3)
_cell_angle_beta                 92.630(3)
_cell_angle_gamma                104.290(3)
_cell_formula_units_Z            4
_cell_length_a                   9.2188(14)
_cell_length_b                   14.566(2)
_cell_length_c                   19.104(3)
_cell_measurement_reflns_used    9926
_cell_measurement_temperature    90
_cell_measurement_theta_max      28.846
_cell_measurement_theta_min      2.252
_cell_volume                     2353.6(6)
_computing_molecular_graphics    'Olex2 (Dolomanov et al., 2009)'
_computing_publication_material  'Olex2 (Dolomanov et al., 2009)'
_computing_structure_refinement  'XL (Sheldrick, 2008)'
_computing_structure_solution    'XS (Sheldrick, 2008)'
_diffrn_ambient_temperature      90
_diffrn_detector                 'Bruker APEX2 area detector'
_diffrn_detector_area_resol_mean 7.9
_diffrn_detector_type            'CCD area detector'
_diffrn_measured_fraction_theta_full 0.998
_diffrn_measured_fraction_theta_max 0.981
_diffrn_measurement_device       'three-circle diffractometer'
_diffrn_measurement_device_type  'Bruker SMART APEX2 area detector'
_diffrn_measurement_method       '\w and \f scans'
_diffrn_radiation_monochromator  'mirror optics'
_diffrn_radiation_probe          x-ray
_diffrn_radiation_type           'Mo K\a'
_diffrn_radiation_wavelength     0.71073
_diffrn_radiation_xray_symbol    K-L~3~
_diffrn_reflns_av_R_equivalents  0.0405
_diffrn_reflns_av_unetI/netI     0.0782
_diffrn_reflns_Laue_measured_fraction_full 0.998
_diffrn_reflns_Laue_measured_fraction_max 0.981
_diffrn_reflns_limit_h_max       12
_diffrn_reflns_limit_h_min       -12
_diffrn_reflns_limit_k_max       16
_diffrn_reflns_limit_k_min       -19
_diffrn_reflns_limit_l_max       25
_diffrn_reflns_limit_l_min       -22
_diffrn_reflns_number            22906
_diffrn_reflns_point_group_measured_fraction_full 0.998
_diffrn_reflns_point_group_measured_fraction_max 0.981
_diffrn_reflns_theta_full        26.000
_diffrn_reflns_theta_max         28.847
_diffrn_reflns_theta_min         2.163
_diffrn_source                   'microfocus rotating anode'
_diffrn_source_type              'Incoatec I\ms'
_exptl_absorpt_coefficient_mu    3.644
_exptl_absorpt_correction_T_max  0.7458
_exptl_absorpt_correction_T_min  0.4766
_exptl_absorpt_correction_type   multi-scan
_exptl_absorpt_process_details
'SADABS-2012/1 (Bruker,2012) was used for absorption correction. wR2(int) was 0.0829 before and 0.0435 after correction. The Ratio of minimum to maximum transmission is 0.6390. The \l/2 correction factor is 0.0015.'
_exptl_crystal_colour            'clear colourless'
_exptl_crystal_colour_lustre     clear
_exptl_crystal_colour_primary    colourless
_exptl_crystal_density_diffrn    1.666
_exptl_crystal_description       plate
_exptl_crystal_F_000             1184
_exptl_crystal_preparation
'Crystallized from ethyl acetate layered with methanol'
_exptl_crystal_recrystallization_method
'Crystallized from ethylacetate layered with methanol'
_exptl_crystal_size_max          0.2
_exptl_crystal_size_mid          0.2
_exptl_crystal_size_min          0.02
_refine_diff_density_max         1.198
_refine_diff_density_min         -1.079
_refine_diff_density_rms         0.122
_refine_ls_extinction_method     none
_refine_ls_goodness_of_fit_ref   1.008
_refine_ls_hydrogen_treatment    riding
_refine_ls_matrix_type           full
_refine_ls_number_parameters     589
_refine_ls_number_reflns         12122
_refine_ls_number_restraints     0
_refine_ls_restrained_S_all      1.008
_refine_ls_R_factor_all          0.0720
_refine_ls_R_factor_gt           0.0439
_refine_ls_shift/su_max          0.001
_refine_ls_shift/su_mean         0.000
_refine_ls_structure_factor_coef Fsqd
_refine_ls_weighting_details
'w=1/[\s^2^(Fo^2^)+(0.0482P)^2^] where P=(Fo^2^+2Fc^2^)/3'
_refine_ls_weighting_scheme      calc
_refine_ls_wR_factor_gt          0.1014
_refine_ls_wR_factor_ref         0.1113
_reflns_Friedel_coverage         0.000
_reflns_number_gt                8707
_reflns_number_total             12122
_reflns_threshold_expression     'I > 2\s(I)'
_iucr_refine_instructions_details
;
TITL
CELL 0.71073 9.2188 14.5657 19.1035 107.3023 92.6297 104.2903
ZERR 4 0.0014 0.0022 0.003 0.0032 0.0033 0.0031
LATT 1
 
SFAC C H Br O S
UNIT 104 88 8 8 8
 
L.S. 10 0 0
PLAN  20
TEMP 23
MORE -1
BOND $H
fmap 2
acta 52
CONF
REM <HKL>C:\Users\Jason%20Benedict\Dropbox\Org%20Lett%20(or%20JACS)%20-%20Phen
REM anthrene%20DAE\X-ray%20data\diol\CJG_081306_0m.hkl</HKL>
 
WGHT    0.048200
FVAR       0.06508
BR1   3   -0.017611    0.391693    0.151556    11.00000    0.01759    0.02505 =
         0.03861    0.01089   -0.00583   -0.00389
BR2   3    1.146026    0.622175    0.400908    11.00000    0.01627    0.03213 =
         0.03253    0.01425   -0.00095    0.00490
BR3   3    0.168641    0.829291    0.709341    11.00000    0.01303    0.02557 =
         0.02750    0.00719   -0.00061   -0.00042
BR4   3    1.325427    1.009581    0.961904    11.00000    0.01478    0.02070 =
         0.02247    0.01092    0.00013    0.00342
S1    5    0.678611    0.714004    0.077044    11.00000    0.02329    0.01734 =
         0.02119    0.00965    0.00687    0.00460
S2    5    0.482519    0.828476    0.516698    11.00000    0.02962    0.02203 =
         0.02055    0.00494    0.00566    0.00932
S3    5    0.908911    0.845066    0.545202    11.00000    0.02592    0.01940 =
         0.01833    0.00566    0.00687    0.00283
S4    5    0.831556    1.321536    0.910529    11.00000    0.02091    0.01183 =
         0.02296    0.00772    0.00701    0.00425
O1    4    0.412606    0.729741    0.268449    11.00000    0.01698    0.01245 =
         0.02014    0.00646    0.00380    0.00475
AFIX 147
H1    2    0.378962    0.733968    0.307940    11.00000   -1.50000
AFIX   0
O2    4    0.742469    0.792455    0.324697    11.00000    0.01588    0.01242 =
         0.02017    0.00690    0.00139   -0.00152
AFIX 147
H2    2    0.775257    0.782039    0.284724    11.00000   -1.50000
AFIX   0
 
O3    4    0.705904    1.059173    0.699913    11.00000    0.01574    0.01469 =
         0.02021    0.00722    0.00254    0.00427
AFIX 147
H3    2    0.683799    1.102034    0.733097    11.00000   -1.50000
AFIX   0
O4    4    1.025266    1.095101    0.760735    11.00000    0.01302    0.01457 =
         0.01837    0.00837    0.00540    0.00264
AFIX 147
H4A   2    1.042639    1.049109    0.728369    11.00000   -1.50000
AFIX   0
 
C1    1    0.414411    0.558874    0.249403    11.00000    0.01566    0.01126 =
         0.01836    0.00520    0.00291   -0.00042
C2    1    0.268504    0.528856    0.213978    11.00000    0.01966    0.01480 =
         0.02089    0.00713    0.00135    0.00187
AFIX  43
H2A   2    0.230283    0.572695    0.196790    11.00000   -1.20000
AFIX   0
C3    1    0.179352    0.433069    0.204177    11.00000    0.01269    0.01912 =
         0.01744    0.00288   -0.00217   -0.00136
C4    1    0.231617    0.367659    0.231573    11.00000    0.02002    0.01631 =
         0.02403    0.00902    0.00186   -0.00299
AFIX  43
H4    2    0.168432    0.305429    0.228051    11.00000   -1.20000
AFIX   0
C5    1    0.379780    0.396661    0.264321    11.00000    0.01914    0.01257 =
         0.02750    0.00861    0.00139    0.00124
AFIX  43
H5    2    0.416925    0.352247    0.281296    11.00000   -1.20000
AFIX   0
C6    1    0.475664    0.492040    0.272521    11.00000    0.01708    0.01289 =
         0.01520    0.00371    0.00347    0.00033
C7    1    0.716803    0.623625    0.326402    11.00000    0.01582    0.01629 =
         0.01537    0.00813    0.00296    0.00294
C8    1    0.867217    0.652123    0.356053    11.00000    0.01949    0.01468 =
         0.01675    0.00675    0.00514    0.00212
AFIX  43
H8    2    0.919739    0.719519    0.373128    11.00000   -1.20000
AFIX   0
C9    1    0.940008    0.581039    0.360473    11.00000    0.01433    0.02390 =
         0.02055    0.00873    0.00275    0.00512
C10   1    0.864922    0.479836    0.335279    11.00000    0.01948    0.02145 =
         0.02886    0.01007    0.00128    0.00858
AFIX  43
H10   2    0.914626    0.432279    0.337606    11.00000   -1.20000
AFIX   0
C11   1    0.713835    0.451549    0.306552    11.00000    0.02479    0.01265 =
         0.02430    0.00869    0.00363    0.00396
AFIX  43
H11   2    0.662349    0.383959    0.289783    11.00000   -1.20000
AFIX   0
C12   1    0.636023    0.521551    0.301943    11.00000    0.01723    0.01512 =
         0.01816    0.00744    0.00359    0.00473
C13   1    0.509550    0.664738    0.257849    11.00000    0.01382    0.00977 =
         0.02072    0.00555    0.00358    0.00290
C14   1    0.578057    0.666392    0.186988    11.00000    0.01501    0.01307 =
         0.01853    0.00607    0.00219    0.00084
C15   1    0.623261    0.582919    0.141505    11.00000    0.02218    0.01375 =
         0.02022    0.00659    0.00354    0.00289
AFIX  43
H15   2    0.614750    0.524264    0.153028    11.00000   -1.20000
AFIX   0
C16   1    0.679371    0.597631    0.080340    11.00000    0.02558    0.01286 =
         0.02185    0.00521    0.00466    0.00486
C17   1    0.736779    0.527045    0.019602    11.00000    0.03582    0.01933 =
         0.03273    0.00873    0.01479    0.00842
AFIX 137
H17A  2    0.655827    0.488882   -0.019530    11.00000   -1.50000
H17B  2    0.774180    0.482604    0.039249    11.00000   -1.50000
H17C  2    0.816679    0.564956    0.000628    11.00000   -1.50000
AFIX   0
C18   1    0.601324    0.744028    0.158563    11.00000    0.01642    0.01674 =
         0.02016    0.00688    0.00348    0.00347
C19   1    0.568122    0.844075    0.185130    11.00000    0.01997    0.01463 =
         0.02931    0.01062    0.00945    0.00506
AFIX 137
H19A  2    0.621855    0.880929    0.233590    11.00000   -1.50000
H19B  2    0.461691    0.834276    0.187032    11.00000   -1.50000
H19C  2    0.599662    0.880776    0.151698    11.00000   -1.50000
AFIX   0
C20   1    0.636123    0.703310    0.326312    11.00000    0.01673    0.01036 =
         0.01778    0.00443    0.00062   -0.00050
C21   1    0.569811    0.732246    0.398834    11.00000    0.01447    0.01412 =
         0.01989    0.00585   -0.00173    0.00235
C22   1    0.522650    0.664673    0.440349    11.00000    0.01672    0.01780 =
         0.02139    0.00788    0.00283    0.00319
AFIX  43
H22   2    0.526030    0.598469    0.424092    11.00000   -1.20000
AFIX   0
C23   1    0.473063    0.705093    0.504838    11.00000    0.01864    0.02158 =
         0.01977    0.00740    0.00170    0.00506
C24   1    0.417751    0.658077    0.561491    11.00000    0.02375    0.03004 =
         0.02062    0.00793    0.00526    0.00056
AFIX 137
H24A  2    0.476378    0.696354    0.608622    11.00000   -1.50000
H24B  2    0.427653    0.591142    0.547641    11.00000   -1.50000
H24C  2    0.313580    0.656439    0.564716    11.00000   -1.50000
AFIX   0
C25   1    0.552928    0.825101    0.434126    11.00000    0.02644    0.02117 =
         0.01629    0.00658    0.00285    0.00629
C26   1    0.587420    0.920982    0.414505    11.00000    0.04748    0.01422 =
         0.02430    0.00589    0.00423    0.01081
AFIX 137
H26A  2    0.526084    0.962079    0.438985    11.00000   -1.50000
H26B  2    0.565942    0.905392    0.361981    11.00000   -1.50000
H26C  2    0.692091    0.956232    0.430115    11.00000   -1.50000
AFIX   0
 
C27   1    0.633630    0.933725    0.760808    11.00000    0.01424    0.00906 =
         0.01833    0.00449    0.00374    0.00022
C28   1    0.487420    0.914066    0.729508    11.00000    0.01470    0.01427 =
         0.01938    0.00615    0.00324    0.00389
AFIX  43
H28   2    0.467111    0.940088    0.692369    11.00000   -1.20000
AFIX   0
C29   1    0.369627    0.855168    0.753399    11.00000    0.01405    0.01553 =
         0.01967    0.00155    0.00132    0.00071
C30   1    0.398012    0.815604    0.808092    11.00000    0.01502    0.01502 =
         0.02339    0.00769    0.00307   -0.00184
AFIX  43
H30   2    0.319021    0.776261    0.823793    11.00000   -1.20000
AFIX   0
C31   1    0.545506    0.835044    0.839471    11.00000    0.01735    0.01552 =
         0.01913    0.00851    0.00293    0.00238
AFIX  43
H31   2    0.564589    0.808344    0.876382    11.00000   -1.20000
AFIX   0
C32   1    0.666812    0.894261    0.816670    11.00000    0.01520    0.01148 =
         0.01763    0.00471    0.00233    0.00162
C33   1    0.935273    0.993179    0.837412    11.00000    0.01346    0.01355 =
         0.01768    0.00684    0.00399    0.00390
C34   1    0.824332    0.916039    0.849924    11.00000    0.01487    0.00912 =
         0.01624    0.00399    0.00113    0.00038
C35   1    0.869015    0.865614    0.895312    11.00000    0.01709    0.01208 =
         0.02420    0.00868    0.00515    0.00321
AFIX  43
H35   2    0.797416    0.813570    0.903316    11.00000   -1.20000
AFIX   0
C36   1    1.016889    0.890553    0.928946    11.00000    0.02210    0.01445 =
         0.01956    0.00708    0.00228    0.00399
AFIX  43
H36   2    1.044391    0.856208    0.959023    11.00000   -1.20000
AFIX   0
C37   1    1.122264    0.968633    0.916062    11.00000    0.01062    0.01427 =
         0.01978    0.00336    0.00208    0.00429
C38   1    1.081988    1.019424    0.871214    11.00000    0.01286    0.01439 =
         0.02107    0.00779    0.00409    0.00166
AFIX  43
H38   2    1.154005    1.071654    0.863673    11.00000   -1.20000
AFIX   0
C39   1    0.761099    0.994676    0.730317    11.00000    0.01634    0.01613 =
         0.01824    0.01110    0.00152    0.00107
C40   1    0.813673    0.923056    0.665768    11.00000    0.01405    0.01299 =
         0.01603    0.00402    0.00040    0.00027
C41   1    0.802006    0.820707    0.659831    11.00000    0.01369    0.01627 =
         0.01821    0.00862    0.00174   -0.00051
AFIX  43
H41   2    0.766104    0.792611    0.695624    11.00000   -1.20000
AFIX   0
C42   1    0.847790    0.768800    0.597652    11.00000    0.01376    0.01844 =
         0.01645    0.00592    0.00123   -0.00110
C43   1    0.845710    0.660214    0.571323    11.00000    0.03190    0.01899 =
         0.02189    0.00553    0.00310    0.00658
AFIX 137
H43A  2    0.778492    0.626611    0.526021    11.00000   -1.50000
H43B  2    0.811701    0.630026    0.608113    11.00000   -1.50000
H43C  2    0.945613    0.654754    0.563042    11.00000   -1.50000
AFIX   0
C44   1    0.871606    0.947629    0.606900    11.00000    0.01978    0.01823 =
         0.02031    0.00666    0.00410   -0.00005
C45   1    0.902766    1.043008    0.587412    11.00000    0.04245    0.01891 =
         0.02263    0.01145    0.01079    0.00172
AFIX 137
H45A  2    0.998252    1.054102    0.568711    11.00000   -1.50000
H45B  2    0.905475    1.097997    0.630760    11.00000   -1.50000
H45C  2    0.824418    1.037676    0.550353    11.00000   -1.50000
AFIX   0
C46   1    0.895627    1.056947    0.792738    11.00000    0.01263    0.01171 =
         0.01940    0.00772    0.00282   -0.00013
C47   1    0.856767    1.147494    0.844785    11.00000    0.01344    0.01224 =
         0.01954    0.00676    0.00002    0.00183
C48   1    0.776804    1.141220    0.906343    11.00000    0.01807    0.01103 =
         0.01842    0.00657    0.00236    0.00134
AFIX  43
H48   2    0.742898    1.081960    0.917194    11.00000   -1.20000
AFIX   0
C49   1    0.754560    1.228776    0.947531    11.00000    0.01964    0.01460 =
         0.01612    0.00656    0.00198    0.00405
C50   1    0.668957    1.246862    1.012406    11.00000    0.02436    0.01689 =
         0.01862    0.00750    0.00410    0.00423
AFIX 137
H50A  2    0.714912    1.312537    1.046410    11.00000   -1.50000
H50B  2    0.670440    1.197964    1.036618    11.00000   -1.50000
H50C  2    0.566440    1.241721    0.995929    11.00000   -1.50000
AFIX   0
C51   1    0.892675    1.241885    0.839387    11.00000    0.01521    0.01572 =
         0.02132    0.00902    0.00251    0.00200
C52   1    0.976808    1.285903    0.785973    11.00000    0.02404    0.01759 =
         0.02743    0.01301    0.01191    0.00714
AFIX 137
H52A  2    0.963873    1.351213    0.792488    11.00000   -1.50000
H52B  2    0.937958    1.243609    0.736258    11.00000   -1.50000
H52C  2    1.082198    1.290932    0.795139    11.00000   -1.50000
AFIX   0
HKLF 4
 
REM
REM R1 =  0.0439 for    8707 Fo > 4sig(Fo)  and  0.0720 for all   12122 data
REM    589 parameters refined using      0 restraints
 
END  
     
WGHT      0.0482      0.0000 

REM Highest difference peak  1.198,  deepest hole -1.079,  1-sigma level  0.122
Q1    1   1.1045  0.6136  0.4359  11.00000  0.05    1.20
Q2    1   0.1809  0.7757  0.7019  11.00000  0.05    1.11
Q3    1   1.3406  0.9461  0.9372  11.00000  0.05    0.92
Q4    1   1.1453  0.6812  0.4246  11.00000  0.05    0.81
Q5    1  -0.0501  0.4177  0.1975  11.00000  0.05    0.80
Q6    1  -0.0404  0.4621  0.1790  11.00000  0.05    0.75
Q7    1   0.1234  0.3751  0.1415  11.00000  0.05    0.73
Q8    1   1.4677  0.9961  0.9585  11.00000  0.05    0.70
Q9    1   1.2928  1.0865  0.9960  11.00000  0.05    0.66
Q10   1   1.2810  0.9957  0.9989  11.00000  0.05    0.65
Q11   1   0.8944  0.8972  0.5685  11.00000  0.05    0.65
Q12   1   0.1400  0.8684  0.6881  11.00000  0.05    0.64
Q13   1   0.3066  0.8116  0.7128  11.00000  0.05    0.63
Q14   1   0.0118  0.3219  0.1197  11.00000  0.05    0.63
Q15   1   1.1817  0.5487  0.3715  11.00000  0.05    0.62
Q16   1   1.3662  1.0159  0.9216  11.00000  0.05    0.60
Q17   1   1.0043  0.6350  0.4010  11.00000  0.05    0.60
Q18   1   0.7031  0.9638  0.7473  11.00000  0.05    0.59
Q19   1   0.2032  0.8468  0.6701  11.00000  0.05    0.59
Q20   1   0.0774  0.7973  0.7092  11.00000  0.05    0.58

REM The information below was added by Olex2.
REM
REM R1 = 0.0439 for 8707 Fo > 4sig(Fo) and 0.0720 for all 22906 data
REM n/a parameters refined using n/a restraints
REM Highest difference peak 1.20, deepest hole -1.08
REM Mean Shift 0, Max Shift 0.

REM +++ Tabular Listing of Refinement Information +++
REM R1_all = 0.0720
REM R1_gt = 0.0439
REM wR_ref = 0.1113
REM GOOF = 1.008
REM Shift_max = 0
REM Shift_mean = 0
REM Reflections_all = 22906
REM Reflections_gt = 8707
REM Parameters = n/a
REM Hole = -1.08
REM Peak = 1.20
REM Flack = n/a

;
_cod_data_source_file            c3cc49666j.txt
_cod_data_source_block           3a
_cod_original_cell_volume        2353.5(6)
_cod_database_code               7111931
#BEGIN Tags that were not found in dictionaries:
_shelxl_version_number           2013-3
_shelx_space_group_comment
;
The symmetry employed for this shelxl refinement is uniquely defined
by the following loop, which should always be used as a source of
symmetry information in preference to the above space-group names.
They are only intended as comments.
;
_olex2_refinement_description
;
1. Fixed Uiso
 At 1.2 times of:
  All C(H) groups
 At 1.5 times of:
  All C(H,H,H) groups, All O(H) groups
2.a Aromatic/amide H refined with riding coordinates:
 C2(H2a), C4(H4), C5(H5), C8(H8), C10(H10), C11(H11), C15(H15), C22(H22),
 C28(H28), C30(H30), C31(H31), C35(H35), C36(H36), C38(H38), C41(H41), C48(H48)
2.b Idealised Me refined as rotating group:
 C17(H17a,H17b,H17c), C19(H19a,H19b,H19c), C24(H24a,H24b,H24c), C26(H26a,H26b,
 H26c), C43(H43a,H43b,H43c), C45(H45a,H45b,H45c), C50(H50a,H50b,H50c), C52(H52a,
 H52b,H52c)
2.c Idealised tetrahedral OH refined as rotating group:
 O1(H1), O2(H2), O3(H3), O4(H4a)
;
#END Tags that were not found in dictionaries
loop_
_space_group_symop_operation_xyz
'x, y, z'
'-x, -y, -z'
loop_
_atom_site_label
_atom_site_type_symbol
_atom_site_fract_x
_atom_site_fract_y
_atom_site_fract_z
_atom_site_U_iso_or_equiv
_atom_site_adp_type
_atom_site_occupancy
_atom_site_site_symmetry_order
_atom_site_calc_flag
_atom_site_refinement_flags_posn
Br1 Br -0.01761(4) 0.39169(3) 0.15156(2) 0.02904(10) Uani 1 1 d .
Br2 Br 1.14603(4) 0.62218(3) 0.40091(2) 0.02654(10) Uani 1 1 d .
Br3 Br 0.16864(4) 0.82929(3) 0.70934(2) 0.02350(9) Uani 1 1 d .
Br4 Br 1.32543(4) 1.00958(2) 0.96190(2) 0.01874(9) Uani 1 1 d .
S1 S 0.67861(10) 0.71400(6) 0.07704(5) 0.01985(19) Uani 1 1 d .
S2 S 0.48252(11) 0.82848(7) 0.51670(5) 0.0240(2) Uani 1 1 d .
S3 S 0.90891(10) 0.84507(7) 0.54520(5) 0.0218(2) Uani 1 1 d .
S4 S 0.83156(10) 1.32154(6) 0.91053(5) 0.01798(18) Uani 1 1 d .
O1 O 0.4126(3) 0.72974(16) 0.26845(13) 0.0161(5) Uani 1 1 d .
H1 H 0.3790 0.7340 0.3079 0.024 Uiso 1 1 calc GR
O2 O 0.7425(3) 0.79246(16) 0.32470(13) 0.0168(5) Uani 1 1 d .
H2 H 0.7753 0.7820 0.2847 0.025 Uiso 1 1 calc GR
O3 O 0.7059(3) 1.05917(17) 0.69991(13) 0.0165(5) Uani 1 1 d .
H3 H 0.6838 1.1020 0.7331 0.025 Uiso 1 1 calc GR
O4 O 1.0253(2) 1.09510(16) 0.76074(13) 0.0147(5) Uani 1 1 d .
H4A H 1.0426 1.0491 0.7284 0.022 Uiso 1 1 calc GR
C1 C 0.4144(4) 0.5589(2) 0.24940(19) 0.0157(7) Uani 1 1 d .
C2 C 0.2685(4) 0.5289(2) 0.21398(19) 0.0187(7) Uani 1 1 d .
H2A H 0.2303 0.5727 0.1968 0.022 Uiso 1 1 calc R
C3 C 0.1794(4) 0.4331(2) 0.20418(19) 0.0183(7) Uani 1 1 d .
C4 C 0.2316(4) 0.3677(3) 0.2316(2) 0.0210(8) Uani 1 1 d .
H4 H 0.1684 0.3054 0.2281 0.025 Uiso 1 1 calc R
C5 C 0.3798(4) 0.3967(2) 0.2643(2) 0.0199(8) Uani 1 1 d .
H5 H 0.4169 0.3522 0.2813 0.024 Uiso 1 1 calc R
C6 C 0.4757(4) 0.4920(2) 0.27252(18) 0.0159(7) Uani 1 1 d .
C7 C 0.7168(4) 0.6236(2) 0.32640(18) 0.0154(7) Uani 1 1 d .
C8 C 0.8672(4) 0.6521(2) 0.35605(18) 0.0170(7) Uani 1 1 d .
H8 H 0.9197 0.7195 0.3731 0.020 Uiso 1 1 calc R
C9 C 0.9400(4) 0.5810(3) 0.36047(19) 0.0192(7) Uani 1 1 d .
C10 C 0.8649(4) 0.4798(3) 0.3353(2) 0.0223(8) Uani 1 1 d .
H10 H 0.9146 0.4323 0.3376 0.027 Uiso 1 1 calc R
C11 C 0.7138(4) 0.4515(2) 0.3066(2) 0.0201(8) Uani 1 1 d .
H11 H 0.6623 0.3840 0.2898 0.024 Uiso 1 1 calc R
C12 C 0.6360(4) 0.5216(2) 0.30194(19) 0.0162(7) Uani 1 1 d .
C13 C 0.5096(4) 0.6647(2) 0.25785(19) 0.0146(7) Uani 1 1 d .
C14 C 0.5781(4) 0.6664(2) 0.18699(19) 0.0159(7) Uani 1 1 d .
C15 C 0.6233(4) 0.5829(2) 0.14150(19) 0.0188(7) Uani 1 1 d .
H15 H 0.6148 0.5243 0.1530 0.023 Uiso 1 1 calc R
C16 C 0.6794(4) 0.5976(2) 0.0803(2) 0.0202(8) Uani 1 1 d .
C17 C 0.7368(4) 0.5270(3) 0.0196(2) 0.0287(9) Uani 1 1 d .
H17A H 0.6558 0.4889 -0.0195 0.043 Uiso 1 1 calc GR
H17B H 0.7742 0.4826 0.0392 0.043 Uiso 1 1 calc GR
H17C H 0.8167 0.5650 0.0006 0.043 Uiso 1 1 calc GR
C18 C 0.6013(4) 0.7440(2) 0.15856(19) 0.0177(7) Uani 1 1 d .
C19 C 0.5681(4) 0.8441(2) 0.1851(2) 0.0202(8) Uani 1 1 d .
H19A H 0.6219 0.8809 0.2336 0.030 Uiso 1 1 calc GR
H19B H 0.4617 0.8343 0.1870 0.030 Uiso 1 1 calc GR
H19C H 0.5997 0.8808 0.1517 0.030 Uiso 1 1 calc GR
C20 C 0.6361(4) 0.7033(2) 0.32631(19) 0.0158(7) Uani 1 1 d .
C21 C 0.5698(4) 0.7322(2) 0.39883(19) 0.0165(7) Uani 1 1 d .
C22 C 0.5227(4) 0.6647(3) 0.44035(19) 0.0185(7) Uani 1 1 d .
H22 H 0.5260 0.5985 0.4241 0.022 Uiso 1 1 calc R
C23 C 0.4731(4) 0.7051(3) 0.5048(2) 0.0199(7) Uani 1 1 d .
C24 C 0.4178(4) 0.6581(3) 0.5615(2) 0.0260(8) Uani 1 1 d .
H24A H 0.4764 0.6964 0.6086 0.039 Uiso 1 1 calc GR
H24B H 0.4277 0.5911 0.5476 0.039 Uiso 1 1 calc GR
H24C H 0.3136 0.6564 0.5647 0.039 Uiso 1 1 calc GR
C25 C 0.5529(4) 0.8251(3) 0.4341(2) 0.0212(8) Uani 1 1 d .
C26 C 0.5874(5) 0.9210(3) 0.4145(2) 0.0283(9) Uani 1 1 d .
H26A H 0.5261 0.9621 0.4390 0.042 Uiso 1 1 calc GR
H26B H 0.5659 0.9054 0.3620 0.042 Uiso 1 1 calc GR
H26C H 0.6921 0.9562 0.4301 0.042 Uiso 1 1 calc GR
C27 C 0.6336(4) 0.9337(2) 0.76081(19) 0.0143(7) Uani 1 1 d .
C28 C 0.4874(4) 0.9141(2) 0.72951(19) 0.0159(7) Uani 1 1 d .
H28 H 0.4671 0.9401 0.6924 0.019 Uiso 1 1 calc R
C29 C 0.3696(4) 0.8552(2) 0.75340(19) 0.0180(7) Uani 1 1 d .
C30 C 0.3980(4) 0.8156(2) 0.80809(19) 0.0185(7) Uani 1 1 d .
H30 H 0.3190 0.7763 0.8238 0.022 Uiso 1 1 calc R
C31 C 0.5455(4) 0.8350(2) 0.83947(19) 0.0170(7) Uani 1 1 d .
H31 H 0.5646 0.8083 0.8764 0.020 Uiso 1 1 calc R
C32 C 0.6668(4) 0.8943(2) 0.81667(19) 0.0151(7) Uani 1 1 d .
C33 C 0.9353(4) 0.9932(2) 0.83741(18) 0.0144(7) Uani 1 1 d .
C34 C 0.8243(4) 0.9160(2) 0.84992(18) 0.0140(7) Uani 1 1 d .
C35 C 0.8690(4) 0.8656(2) 0.89531(19) 0.0172(7) Uani 1 1 d .
H35 H 0.7974 0.8136 0.9033 0.021 Uiso 1 1 calc R
C36 C 1.0169(4) 0.8906(2) 0.92895(19) 0.0185(7) Uani 1 1 d .
H36 H 1.0444 0.8562 0.9590 0.022 Uiso 1 1 calc R
C37 C 1.1223(4) 0.9686(2) 0.91606(19) 0.0152(7) Uani 1 1 d .
C38 C 1.0820(4) 1.0194(2) 0.87121(19) 0.0159(7) Uani 1 1 d .
H38 H 1.1540 1.0717 0.8637 0.019 Uiso 1 1 calc R
C39 C 0.7611(4) 0.9947(2) 0.73032(19) 0.0163(7) Uani 1 1 d .
C40 C 0.8137(4) 0.9231(2) 0.66577(19) 0.0152(7) Uani 1 1 d .
C41 C 0.8020(4) 0.8207(2) 0.65983(19) 0.0162(7) Uani 1 1 d .
H41 H 0.7661 0.7926 0.6956 0.019 Uiso 1 1 calc R
C42 C 0.8478(4) 0.7688(2) 0.59765(19) 0.0172(7) Uani 1 1 d .
C43 C 0.8457(4) 0.6602(3) 0.5713(2) 0.0246(8) Uani 1 1 d .
H43A H 0.7785 0.6266 0.5260 0.037 Uiso 1 1 calc GR
H43B H 0.8117 0.6300 0.6081 0.037 Uiso 1 1 calc GR
H43C H 0.9456 0.6548 0.5630 0.037 Uiso 1 1 calc GR
C44 C 0.8716(4) 0.9476(3) 0.6069(2) 0.0202(8) Uani 1 1 d .
C45 C 0.9028(5) 1.0430(3) 0.5874(2) 0.0279(9) Uani 1 1 d .
H45A H 0.9983 1.0541 0.5687 0.042 Uiso 1 1 calc GR
H45B H 0.9055 1.0980 0.6308 0.042 Uiso 1 1 calc GR
H45C H 0.8244 1.0377 0.5504 0.042 Uiso 1 1 calc GR
C46 C 0.8956(4) 1.0569(2) 0.79274(19) 0.0146(7) Uani 1 1 d .
C47 C 0.8568(4) 1.1475(2) 0.84478(19) 0.0151(7) Uani 1 1 d .
C48 C 0.7768(4) 1.1412(2) 0.90634(18) 0.0159(7) Uani 1 1 d .
H48 H 0.7429 1.0820 0.9172 0.019 Uiso 1 1 calc R
C49 C 0.7546(4) 1.2288(2) 0.94753(19) 0.0165(7) Uani 1 1 d .
C50 C 0.6690(4) 1.2469(2) 1.01241(19) 0.0198(7) Uani 1 1 d .
H50A H 0.7149 1.3125 1.0464 0.030 Uiso 1 1 calc GR
H50B H 0.6704 1.1980 1.0366 0.030 Uiso 1 1 calc GR
H50C H 0.5664 1.2417 0.9959 0.030 Uiso 1 1 calc GR
C51 C 0.8927(4) 1.2419(2) 0.83939(19) 0.0171(7) Uani 1 1 d .
C52 C 0.9768(4) 1.2859(2) 0.7860(2) 0.0211(8) Uani 1 1 d .
H52A H 0.9639 1.3512 0.7925 0.032 Uiso 1 1 calc GR
H52B H 0.9380 1.2436 0.7363 0.032 Uiso 1 1 calc GR
H52C H 1.0822 1.2909 0.7951 0.032 Uiso 1 1 calc GR
loop_
_atom_site_aniso_label
_atom_site_aniso_U_11
_atom_site_aniso_U_22
_atom_site_aniso_U_33
_atom_site_aniso_U_23
_atom_site_aniso_U_13
_atom_site_aniso_U_12
Br1 0.0176(2) 0.0251(2) 0.0386(3) 0.01089(18) -0.00583(17) -0.00389(15)
Br2 0.01627(19) 0.0321(2) 0.0325(2) 0.01425(18) -0.00095(16) 0.00490(15)
Br3 0.01303(18) 0.02557(19) 0.0275(2) 0.00719(16) -0.00061(15) -0.00042(14)
Br4 0.01478(17) 0.02070(17) 0.02247(19) 0.01092(15) 0.00013(14) 0.00342(14)
S1 0.0233(5) 0.0173(4) 0.0212(5) 0.0097(4) 0.0069(4) 0.0046(4)
S2 0.0296(5) 0.0220(4) 0.0205(5) 0.0049(4) 0.0057(4) 0.0093(4)
S3 0.0259(5) 0.0194(4) 0.0183(5) 0.0057(4) 0.0069(4) 0.0028(4)
S4 0.0209(5) 0.0118(4) 0.0230(5) 0.0077(4) 0.0070(4) 0.0042(3)
O1 0.0170(13) 0.0125(11) 0.0201(14) 0.0065(10) 0.0038(10) 0.0047(9)
O2 0.0159(12) 0.0124(11) 0.0202(13) 0.0069(10) 0.0014(10) -0.0015(9)
O3 0.0157(12) 0.0147(11) 0.0202(13) 0.0072(10) 0.0025(10) 0.0043(10)
O4 0.0130(12) 0.0146(11) 0.0184(13) 0.0084(10) 0.0054(10) 0.0026(9)
C1 0.0157(17) 0.0113(15) 0.0184(18) 0.0052(14) 0.0029(14) -0.0004(13)
C2 0.0197(18) 0.0148(16) 0.0209(19) 0.0071(15) 0.0013(15) 0.0019(14)
C3 0.0127(17) 0.0191(17) 0.0174(19) 0.0029(14) -0.0022(14) -0.0014(14)
C4 0.0200(19) 0.0163(17) 0.024(2) 0.0090(15) 0.0019(15) -0.0030(14)
C5 0.0191(18) 0.0126(16) 0.027(2) 0.0086(15) 0.0014(15) 0.0012(14)
C6 0.0171(18) 0.0129(15) 0.0152(18) 0.0037(14) 0.0035(14) 0.0003(13)
C7 0.0158(17) 0.0163(16) 0.0154(18) 0.0081(14) 0.0030(14) 0.0029(13)
C8 0.0195(18) 0.0147(16) 0.0167(18) 0.0068(14) 0.0051(14) 0.0021(14)
C9 0.0143(18) 0.0239(18) 0.0206(19) 0.0087(15) 0.0028(14) 0.0051(14)
C10 0.0195(19) 0.0214(18) 0.029(2) 0.0101(16) 0.0013(16) 0.0086(15)
C11 0.025(2) 0.0127(15) 0.024(2) 0.0087(15) 0.0036(16) 0.0040(14)
C12 0.0172(17) 0.0151(16) 0.0182(18) 0.0074(14) 0.0036(14) 0.0047(13)
C13 0.0138(17) 0.0098(14) 0.0207(18) 0.0056(13) 0.0036(14) 0.0029(13)
C14 0.0150(17) 0.0131(15) 0.0185(18) 0.0061(14) 0.0022(14) 0.0008(13)
C15 0.0222(19) 0.0137(16) 0.0202(19) 0.0066(15) 0.0035(15) 0.0029(14)
C16 0.026(2) 0.0129(16) 0.022(2) 0.0052(15) 0.0047(16) 0.0049(14)
C17 0.036(2) 0.0193(18) 0.033(2) 0.0087(17) 0.0148(19) 0.0084(17)
C18 0.0164(18) 0.0167(16) 0.0202(19) 0.0069(15) 0.0035(14) 0.0035(14)
C19 0.0200(19) 0.0146(16) 0.029(2) 0.0106(15) 0.0095(16) 0.0051(14)
C20 0.0167(17) 0.0104(15) 0.0178(18) 0.0044(13) 0.0006(14) -0.0005(13)
C21 0.0145(17) 0.0141(16) 0.0199(19) 0.0059(14) -0.0017(14) 0.0024(13)
C22 0.0167(18) 0.0178(17) 0.0214(19) 0.0079(15) 0.0028(15) 0.0032(14)
C23 0.0186(18) 0.0216(17) 0.0198(19) 0.0074(15) 0.0017(15) 0.0051(15)
C24 0.024(2) 0.030(2) 0.021(2) 0.0079(17) 0.0053(16) 0.0006(16)
C25 0.026(2) 0.0212(18) 0.0163(19) 0.0066(15) 0.0028(15) 0.0063(15)
C26 0.047(3) 0.0142(17) 0.024(2) 0.0059(16) 0.0042(19) 0.0108(17)
C27 0.0142(17) 0.0091(14) 0.0183(18) 0.0045(13) 0.0037(14) 0.0002(13)
C28 0.0147(17) 0.0143(16) 0.0194(18) 0.0061(14) 0.0032(14) 0.0039(13)
C29 0.0140(17) 0.0155(16) 0.0197(19) 0.0016(14) 0.0013(14) 0.0007(13)
C30 0.0150(17) 0.0150(16) 0.023(2) 0.0077(15) 0.0031(15) -0.0018(13)
C31 0.0173(18) 0.0155(16) 0.0191(19) 0.0085(14) 0.0029(14) 0.0024(14)
C32 0.0152(17) 0.0115(15) 0.0176(18) 0.0047(14) 0.0023(14) 0.0016(13)
C33 0.0135(17) 0.0135(15) 0.0177(18) 0.0068(14) 0.0040(14) 0.0039(13)
C34 0.0149(17) 0.0091(14) 0.0162(18) 0.0040(13) 0.0011(13) 0.0004(13)
C35 0.0171(18) 0.0121(15) 0.024(2) 0.0087(14) 0.0051(15) 0.0032(13)
C36 0.0221(19) 0.0145(16) 0.0196(19) 0.0071(14) 0.0023(15) 0.0040(14)
C37 0.0106(16) 0.0143(15) 0.0198(18) 0.0034(14) 0.0021(13) 0.0043(13)
C38 0.0129(17) 0.0144(15) 0.0211(19) 0.0078(14) 0.0041(14) 0.0017(13)
C39 0.0163(17) 0.0161(16) 0.0182(18) 0.0111(14) 0.0015(14) 0.0011(13)
C40 0.0141(17) 0.0130(15) 0.0160(18) 0.0040(14) 0.0004(13) 0.0003(13)
C41 0.0137(17) 0.0163(16) 0.0182(18) 0.0086(14) 0.0017(14) -0.0005(13)
C42 0.0138(17) 0.0184(16) 0.0165(18) 0.0059(14) 0.0012(14) -0.0011(14)
C43 0.032(2) 0.0190(18) 0.022(2) 0.0055(16) 0.0031(17) 0.0066(16)
C44 0.0198(19) 0.0182(17) 0.0203(19) 0.0067(15) 0.0041(15) 0.0000(14)
C45 0.042(2) 0.0189(18) 0.023(2) 0.0114(16) 0.0108(18) 0.0017(17)
C46 0.0126(16) 0.0117(15) 0.0194(18) 0.0077(14) 0.0028(14) -0.0001(13)
C47 0.0134(17) 0.0122(15) 0.0195(18) 0.0068(14) 0.0000(14) 0.0018(13)
C48 0.0181(17) 0.0110(15) 0.0184(18) 0.0066(14) 0.0024(14) 0.0013(13)
C49 0.0196(18) 0.0146(16) 0.0161(18) 0.0066(14) 0.0020(14) 0.0041(14)
C50 0.0244(19) 0.0169(16) 0.0186(19) 0.0075(15) 0.0041(15) 0.0042(15)
C51 0.0152(17) 0.0157(16) 0.0213(19) 0.0090(14) 0.0025(14) 0.0020(13)
C52 0.024(2) 0.0176(17) 0.027(2) 0.0130(16) 0.0119(16) 0.0071(15)
loop_
_atom_type_symbol
_atom_type_description
_atom_type_scat_dispersion_real
_atom_type_scat_dispersion_imag
_atom_type_scat_source
C C 0.0033 0.0016 'International Tables Vol C Tables 4.2.6.8 and 6.1.1.4'
H H 0.0000 0.0000 'International Tables Vol C Tables 4.2.6.8 and 6.1.1.4'
Br Br -0.2901 2.4595 'International Tables Vol C Tables 4.2.6.8 and 6.1.1.4'
O O 0.0106 0.0060 'International Tables Vol C Tables 4.2.6.8 and 6.1.1.4'
S S 0.1246 0.1234 'International Tables Vol C Tables 4.2.6.8 and 6.1.1.4'
loop_
_geom_angle_atom_site_label_1
_geom_angle_atom_site_label_2
_geom_angle_atom_site_label_3
_geom_angle
C16 S1 C18 93.26(16)
C23 S2 C25 93.28(17)
C42 S3 C44 93.49(16)
C51 S4 C49 93.35(16)
C13 O1 H1 109.5
C20 O2 H2 109.5
C39 O3 H3 109.5
C46 O4 H4A 109.5
C2 C1 C6 120.7(3)
C2 C1 C13 117.8(3)
C6 C1 C13 121.3(3)
C1 C2 H2A 120.2
C1 C2 C3 119.7(3)
C3 C2 H2A 120.2
C2 C3 Br1 118.9(3)
C4 C3 Br1 119.9(3)
C4 C3 C2 121.3(3)
C3 C4 H4 120.7
C3 C4 C5 118.7(3)
C5 C4 H4 120.7
C4 C5 H5 119.3
C4 C5 C6 121.5(3)
C6 C5 H5 119.3
C1 C6 C5 117.9(3)
C1 C6 C12 119.8(3)
C5 C6 C12 122.3(3)
C8 C7 C12 119.8(3)
C8 C7 C20 119.7(3)
C12 C7 C20 120.3(3)
C7 C8 H8 119.7
C9 C8 C7 120.5(3)
C9 C8 H8 119.7
C8 C9 Br2 119.6(3)
C8 C9 C10 121.1(3)
C10 C9 Br2 119.2(3)
C9 C10 H10 120.9
C11 C10 C9 118.2(3)
C11 C10 H10 120.9
C10 C11 H11 118.9
C10 C11 C12 122.2(3)
C12 C11 H11 118.9
C7 C12 C6 119.6(3)
C11 C12 C6 122.4(3)
C11 C12 C7 118.1(3)
O1 C13 C1 108.7(3)
O1 C13 C14 107.0(3)
O1 C13 C20 109.5(3)
C1 C13 C20 110.5(3)
C14 C13 C1 110.0(3)
C14 C13 C20 111.0(3)
C15 C14 C13 122.2(3)
C18 C14 C13 125.4(3)
C18 C14 C15 112.4(3)
C14 C15 H15 123.2
C16 C15 C14 113.7(3)
C16 C15 H15 123.2
C15 C16 S1 110.5(3)
C15 C16 C17 128.8(3)
C17 C16 S1 120.7(3)
C16 C17 H17A 109.5
C16 C17 H17B 109.5
C16 C17 H17C 109.5
H17A C17 H17B 109.5
H17A C17 H17C 109.5
H17B C17 H17C 109.5
C14 C18 S1 110.2(2)
C14 C18 C19 131.5(3)
C19 C18 S1 118.3(2)
C18 C19 H19A 109.5
C18 C19 H19B 109.5
C18 C19 H19C 109.5
H19A C19 H19B 109.5
H19A C19 H19C 109.5
H19B C19 H19C 109.5
O2 C20 C7 110.0(3)
O2 C20 C13 109.9(3)
O2 C20 C21 105.8(3)
C7 C20 C13 110.8(3)
C7 C20 C21 109.1(3)
C21 C20 C13 111.1(3)
C22 C21 C20 123.2(3)
C25 C21 C20 125.2(3)
C25 C21 C22 111.5(3)
C21 C22 H22 122.7
C23 C22 C21 114.7(3)
C23 C22 H22 122.7
C22 C23 S2 109.8(3)
C22 C23 C24 129.2(3)
C24 C23 S2 121.0(3)
C23 C24 H24A 109.5
C23 C24 H24B 109.5
C23 C24 H24C 109.5
H24A C24 H24B 109.5
H24A C24 H24C 109.5
H24B C24 H24C 109.5
C21 C25 S2 110.7(3)
C21 C25 C26 132.1(3)
C26 C25 S2 117.2(3)
C25 C26 H26A 109.5
C25 C26 H26B 109.5
C25 C26 H26C 109.5
H26A C26 H26B 109.5
H26A C26 H26C 109.5
H26B C26 H26C 109.5
C28 C27 C32 120.8(3)
C28 C27 C39 118.4(3)
C32 C27 C39 120.6(3)
C27 C28 H28 120.0
C27 C28 C29 120.0(3)
C29 C28 H28 120.0
C28 C29 Br3 119.2(3)
C30 C29 Br3 120.1(3)
C30 C29 C28 120.7(3)
C29 C30 H30 120.3
C29 C30 C31 119.3(3)
C31 C30 H30 120.3
C30 C31 H31 119.3
C30 C31 C32 121.4(3)
C32 C31 H31 119.3
C27 C32 C34 120.3(3)
C31 C32 C27 117.7(3)
C31 C32 C34 122.0(3)
C34 C33 C46 121.6(3)
C38 C33 C34 120.3(3)
C38 C33 C46 117.8(3)
C33 C34 C32 118.9(3)
C35 C34 C32 123.3(3)
C35 C34 C33 117.8(3)
C34 C35 H35 118.8
C36 C35 C34 122.4(3)
C36 C35 H35 118.8
C35 C36 H36 121.1
C35 C36 C37 117.8(3)
C37 C36 H36 121.1
C36 C37 Br4 120.5(3)
C38 C37 Br4 118.3(2)
C38 C37 C36 121.2(3)
C33 C38 H38 119.8
C37 C38 C33 120.4(3)
C37 C38 H38 119.8
O3 C39 C27 110.0(3)
O3 C39 C40 106.0(3)
O3 C39 C46 110.0(3)
C27 C39 C40 109.2(3)
C27 C39 C46 110.5(3)
C40 C39 C46 110.8(3)
C41 C40 C39 123.0(3)
C44 C40 C39 124.7(3)
C44 C40 C41 112.3(3)
C40 C41 H41 122.9
C42 C41 C40 114.2(3)
C42 C41 H41 122.9
C41 C42 S3 110.0(2)
C41 C42 C43 129.1(3)
C43 C42 S3 120.9(3)
C42 C43 H43A 109.5
C42 C43 H43B 109.5
C42 C43 H43C 109.5
H43A C43 H43B 109.5
H43A C43 H43C 109.5
H43B C43 H43C 109.5
C40 C44 S3 110.1(3)
C40 C44 C45 132.3(3)
C45 C44 S3 117.6(3)
C44 C45 H45A 109.5
C44 C45 H45B 109.5
C44 C45 H45C 109.5
H45A C45 H45B 109.5
H45A C45 H45C 109.5
H45B C45 H45C 109.5
O4 C46 C33 109.3(3)
O4 C46 C39 109.7(3)
O4 C46 C47 106.8(2)
C33 C46 C39 111.1(3)
C33 C46 C47 109.3(3)
C47 C46 C39 110.6(3)
C48 C47 C46 122.1(3)
C51 C47 C46 125.7(3)
C51 C47 C48 112.2(3)
C47 C48 H48 122.8
C49 C48 C47 114.4(3)
C49 C48 H48 122.8
C48 C49 S4 109.7(2)
C48 C49 C50 128.0(3)
C50 C49 S4 122.2(2)
C49 C50 H50A 109.5
C49 C50 H50B 109.5
C49 C50 H50C 109.5
H50A C50 H50B 109.5
H50A C50 H50C 109.5
H50B C50 H50C 109.5
C47 C51 S4 110.4(3)
C47 C51 C52 132.2(3)
C52 C51 S4 117.4(2)
C51 C52 H52A 109.5
C51 C52 H52B 109.5
C51 C52 H52C 109.5
H52A C52 H52B 109.5
H52A C52 H52C 109.5
H52B C52 H52C 109.5
loop_
_geom_bond_atom_site_label_1
_geom_bond_atom_site_label_2
_geom_bond_distance
Br1 C3 1.898(3)
Br2 C9 1.895(3)
Br3 C29 1.899(3)
Br4 C37 1.902(3)
S1 C16 1.717(3)
S1 C18 1.725(3)
S2 C23 1.723(4)
S2 C25 1.725(4)
S3 C42 1.721(3)
S3 C44 1.727(4)
S4 C49 1.723(3)
S4 C51 1.722(3)
O1 H1 0.8200
O1 C13 1.434(4)
O2 H2 0.8200
O2 C20 1.430(4)
O3 H3 0.8200
O3 C39 1.419(4)
O4 H4A 0.8200
O4 C46 1.433(4)
C1 C2 1.381(5)
C1 C6 1.402(4)
C1 C13 1.531(4)
C2 H2A 0.9300
C2 C3 1.386(4)
C3 C4 1.383(5)
C4 H4 0.9300
C4 C5 1.384(5)
C5 H5 0.9300
C5 C6 1.410(4)
C6 C12 1.467(5)
C7 C8 1.386(5)
C7 C12 1.411(4)
C7 C20 1.526(4)
C8 H8 0.9300
C8 C9 1.385(4)
C9 C10 1.388(5)
C10 H10 0.9300
C10 C11 1.387(5)
C11 H11 0.9300
C11 C12 1.404(4)
C13 C14 1.524(4)
C13 C20 1.577(5)
C14 C15 1.436(4)
C14 C18 1.370(4)
C15 H15 0.9300
C15 C16 1.352(5)
C16 C17 1.516(5)
C17 H17A 0.9600
C17 H17B 0.9600
C17 H17C 0.9600
C18 C19 1.506(4)
C19 H19A 0.9600
C19 H19B 0.9600
C19 H19C 0.9600
C20 C21 1.526(5)
C21 C22 1.439(4)
C21 C25 1.371(5)
C22 H22 0.9300
C22 C23 1.351(5)
C23 C24 1.490(5)
C24 H24A 0.9600
C24 H24B 0.9600
C24 H24C 0.9600
C25 C26 1.515(5)
C26 H26A 0.9600
C26 H26B 0.9600
C26 H26C 0.9600
C27 C28 1.375(5)
C27 C32 1.409(4)
C27 C39 1.537(4)
C28 H28 0.9300
C28 C29 1.394(4)
C29 C30 1.378(5)
C30 H30 0.9300
C30 C31 1.387(5)
C31 H31 0.9300
C31 C32 1.406(4)
C32 C34 1.477(5)
C33 C34 1.407(4)
C33 C38 1.382(5)
C33 C46 1.528(4)
C34 C35 1.399(4)
C35 H35 0.9300
C35 C36 1.393(5)
C36 H36 0.9300
C36 C37 1.393(4)
C37 C38 1.379(4)
C38 H38 0.9300
C39 C40 1.544(5)
C39 C46 1.565(5)
C40 C41 1.437(4)
C40 C44 1.370(5)
C41 H41 0.9300
C41 C42 1.353(4)
C42 C43 1.505(5)
C43 H43A 0.9600
C43 H43B 0.9600
C43 H43C 0.9600
C44 C45 1.507(5)
C45 H45A 0.9600
C45 H45B 0.9600
C45 H45C 0.9600
C46 C47 1.530(4)
C47 C48 1.430(4)
C47 C51 1.369(4)
C48 H48 0.9300
C48 C49 1.354(4)
C49 C50 1.492(4)
C50 H50A 0.9600
C50 H50B 0.9600
C50 H50C 0.9600
C51 C52 1.507(4)
C52 H52A 0.9600
C52 H52B 0.9600
C52 H52C 0.9600
loop_
_geom_torsion_atom_site_label_1
_geom_torsion_atom_site_label_2
_geom_torsion_atom_site_label_3
_geom_torsion_atom_site_label_4
_geom_torsion
Br1 C3 C4 C5 174.7(3)
Br2 C9 C10 C11 179.4(3)
Br3 C29 C30 C31 179.8(2)
Br4 C37 C38 C33 -179.2(2)
O1 C13 C14 C15 -151.6(3)
O1 C13 C14 C18 27.2(5)
O1 C13 C20 O2 -72.2(3)
O1 C13 C20 C7 166.1(2)
O1 C13 C20 C21 44.6(3)
O2 C20 C21 C22 -147.3(3)
O2 C20 C21 C25 30.0(4)
O3 C39 C40 C41 -146.3(3)
O3 C39 C40 C44 31.6(4)
O3 C39 C46 O4 -71.1(3)
O3 C39 C46 C33 167.9(2)
O3 C39 C46 C47 46.4(3)
O4 C46 C47 C48 -154.9(3)
O4 C46 C47 C51 24.8(5)
C1 C2 C3 Br1 -177.3(2)
C1 C2 C3 C4 2.4(5)
C1 C6 C12 C7 17.9(5)
C1 C6 C12 C11 -161.7(3)
C1 C13 C14 C15 -33.7(4)
C1 C13 C14 C18 145.1(3)
C1 C13 C20 O2 168.1(3)
C1 C13 C20 C7 46.4(3)
C1 C13 C20 C21 -75.2(3)
C2 C1 C6 C5 -5.4(5)
C2 C1 C6 C12 172.7(3)
C2 C1 C13 O1 34.5(4)
C2 C1 C13 C14 -82.4(4)
C2 C1 C13 C20 154.7(3)
C2 C3 C4 C5 -4.9(5)
C3 C4 C5 C6 2.3(5)
C4 C5 C6 C1 2.8(5)
C4 C5 C6 C12 -175.3(3)
C5 C6 C12 C7 -164.0(3)
C5 C6 C12 C11 16.3(5)
C6 C1 C2 C3 3.0(5)
C6 C1 C13 O1 -149.5(3)
C6 C1 C13 C14 93.7(4)
C6 C1 C13 C20 -29.3(4)
C7 C8 C9 Br2 179.7(2)
C7 C8 C9 C10 0.2(5)
C7 C20 C21 C22 -29.0(4)
C7 C20 C21 C25 148.3(3)
C8 C7 C12 C6 178.3(3)
C8 C7 C12 C11 -2.0(5)
C8 C7 C20 O2 27.6(4)
C8 C7 C20 C13 149.3(3)
C8 C7 C20 C21 -88.0(4)
C8 C9 C10 C11 -1.1(5)
C9 C10 C11 C12 0.4(5)
C10 C11 C12 C6 -179.2(3)
C10 C11 C12 C7 1.2(5)
C12 C7 C8 C9 1.4(5)
C12 C7 C20 O2 -157.5(3)
C12 C7 C20 C13 -35.8(4)
C12 C7 C20 C21 86.9(4)
C13 C1 C2 C3 179.0(3)
C13 C1 C6 C5 178.6(3)
C13 C1 C6 C12 -3.2(5)
C13 C14 C15 C16 179.0(3)
C13 C14 C18 S1 -179.1(3)
C13 C14 C18 C19 -0.8(6)
C13 C20 C21 C22 93.5(4)
C13 C20 C21 C25 -89.2(4)
C14 C13 C20 O2 45.8(3)
C14 C13 C20 C7 -76.0(3)
C14 C13 C20 C21 162.5(3)
C14 C15 C16 S1 0.1(4)
C14 C15 C16 C17 -179.5(4)
C15 C14 C18 S1 -0.2(4)
C15 C14 C18 C19 178.1(4)
C16 S1 C18 C14 0.3(3)
C16 S1 C18 C19 -178.3(3)
C18 S1 C16 C15 -0.2(3)
C18 S1 C16 C17 179.4(3)
C18 C14 C15 C16 0.1(5)
C20 C7 C8 C9 176.3(3)
C20 C7 C12 C6 3.4(5)
C20 C7 C12 C11 -176.9(3)
C20 C13 C14 C15 89.0(4)
C20 C13 C14 C18 -92.2(4)
C20 C21 C22 C23 177.2(3)
C20 C21 C25 S2 -177.0(3)
C20 C21 C25 C26 1.5(7)
C21 C22 C23 S2 0.1(4)
C21 C22 C23 C24 -179.3(4)
C22 C21 C25 S2 0.6(4)
C22 C21 C25 C26 179.1(4)
C23 S2 C25 C21 -0.5(3)
C23 S2 C25 C26 -179.2(3)
C25 S2 C23 C22 0.2(3)
C25 S2 C23 C24 179.7(3)
C25 C21 C22 C23 -0.5(5)
C27 C28 C29 Br3 179.9(2)
C27 C28 C29 C30 -0.4(5)
C27 C32 C34 C33 13.9(5)
C27 C32 C34 C35 -168.0(3)
C27 C39 C40 C41 -27.7(4)
C27 C39 C40 C44 150.1(3)
C27 C39 C46 O4 167.1(2)
C27 C39 C46 C33 46.1(3)
C27 C39 C46 C47 -75.4(3)
C28 C27 C32 C31 -0.5(5)
C28 C27 C32 C34 -179.9(3)
C28 C27 C39 O3 27.7(4)
C28 C27 C39 C40 -88.4(3)
C28 C27 C39 C46 149.4(3)
C28 C29 C30 C31 0.1(5)
C29 C30 C31 C32 0.0(5)
C30 C31 C32 C27 0.2(5)
C30 C31 C32 C34 179.6(3)
C31 C32 C34 C33 -165.5(3)
C31 C32 C34 C35 12.6(5)
C32 C27 C28 C29 0.6(5)
C32 C27 C39 O3 -155.9(3)
C32 C27 C39 C40 88.1(4)
C32 C27 C39 C46 -34.1(4)
C32 C34 C35 C36 -176.9(3)
C33 C34 C35 C36 1.3(5)
C33 C46 C47 C48 -36.8(4)
C33 C46 C47 C51 142.9(3)
C34 C33 C38 C37 1.7(5)
C34 C33 C46 O4 -154.1(3)
C34 C33 C46 C39 -32.8(4)
C34 C33 C46 C47 89.4(4)
C34 C35 C36 C37 -0.1(5)
C35 C36 C37 Br4 178.4(2)
C35 C36 C37 C38 -0.3(5)
C36 C37 C38 C33 -0.5(5)
C38 C33 C34 C32 176.2(3)
C38 C33 C34 C35 -2.0(5)
C38 C33 C46 O4 31.8(4)
C38 C33 C46 C39 153.0(3)
C38 C33 C46 C47 -84.7(3)
C39 C27 C28 C29 177.0(3)
C39 C27 C32 C31 -176.9(3)
C39 C27 C32 C34 3.7(5)
C39 C40 C41 C42 177.2(3)
C39 C40 C44 S3 -177.5(3)
C39 C40 C44 C45 0.9(6)
C39 C46 C47 C48 85.8(4)
C39 C46 C47 C51 -94.5(4)
C40 C39 C46 O4 45.8(3)
C40 C39 C46 C33 -75.2(3)
C40 C39 C46 C47 163.3(3)
C40 C41 C42 S3 0.8(4)
C40 C41 C42 C43 -177.2(3)
C41 C40 C44 S3 0.6(4)
C41 C40 C44 C45 178.9(4)
C42 S3 C44 C40 -0.1(3)
C42 S3 C44 C45 -178.8(3)
C44 S3 C42 C41 -0.4(3)
C44 S3 C42 C43 177.7(3)
C44 C40 C41 C42 -0.9(5)
C46 C33 C34 C32 2.2(5)
C46 C33 C34 C35 -176.0(3)
C46 C33 C38 C37 175.9(3)
C46 C39 C40 C41 94.3(4)
C46 C39 C40 C44 -87.8(4)
C46 C47 C48 C49 178.7(3)
C46 C47 C51 S4 -178.5(3)
C46 C47 C51 C52 -0.8(6)
C47 C48 C49 S4 0.4(4)
C47 C48 C49 C50 176.4(3)
C48 C47 C51 S4 1.2(4)
C48 C47 C51 C52 178.9(4)
C49 S4 C51 C47 -0.9(3)
C49 S4 C51 C52 -178.9(3)
C51 S4 C49 C48 0.3(3)
C51 S4 C49 C50 -176.0(3)
C51 C47 C48 C49 -1.0(5)
loop_
_refln_index_h
_refln_index_k
_refln_index_l
_refln_F_squared_meas
_refln_F_squared_sigma
-1 0 0 4.97 0.25
1 0 0 4.67 0.28
1 0 0 4.85 0.25
-2 0 0 0.54 0.08
-2 0 0 0.4 0.09
2 0 0 0.45 0.09
2 0 0 0.38 0.1
-3 0 0 10.72 0.65
-3 0 0 11.58 0.58
3 0 0 10.44 0.66
3 0 0 11.43 0.59
-4 0 0 26.23 1.45
4 0 0 27.18 1.33
4 0 0 25.47 1.45
5 0 0 0.05 0.18
5 0 0 -0.13 0.17
6 0 0 85.98 4.61
6 0 0 86.98 4.22
7 0 0 23.94 1.3
7 0 0 24.09 1.45
8 0 0 0.13 0.34
8 0 0 0 0.35
9 0 0 0.67 0.43
9 0 0 -0.13 0.42
10 0 0 1.3 0.54
10 0 0 1.02 0.53
11 0 0 0.72 0.61
12 -1 0 2.1 0.72
-12 1 0 1.02 0.61
11 -1 0 -0.46 0.57
10 -1 0 2.91 0.58
10 -1 0 2.24 0.53
9 -1 0 0.43 0.42
9 -1 0 0.79 0.41
8 -1 0 63.34 3.51
8 -1 0 64.81 3.21
7 -1 0 44.78 2.47
7 -1 0 44.27 2.25
6 -1 0 0.04 0.22
6 -1 0 -0.2 0.21
5 -1 0 1.85 0.33
5 -1 0 2.21 0.29
4 -1 0 1.83 0.27
4 -1 0 2.38 0.25
3 -1 0 0.08 0.1
3 -1 0 -0.03 0.09
3 -1 0 0.08 0.06
-3 1 0 0.17 0.06
-3 1 0 0.08 0.08
2 -1 0 85.7 3.82
2 -1 0 78.19 4.43
2 -1 0 84.31 4.09
-2 1 0 87.42 3.82
-2 1 0 88.22 4.09
-2 1 0 86.39 4.43
1 -1 0 2.2 0.12
1 -1 0 2.39 0.13
-1 1 0 2.39 0.13
-1 1 0 2.25 0.12
-1 -1 0 -0.06 0.04
-1 -1 0 -0.1 0.05
1 1 0 -0.05 0.05
1 1 0 -0.01 0.06
-2 -1 0 23.21 1.26
-2 -1 0 24.08 1.15
2 1 0 23.29 1.15
2 1 0 22.98 1.27
4 1 0 36.49 2.05
4 1 0 39 1.87
5 1 0 43.97 2.15
5 1 0 42.52 2.36
6 1 0 0.51 0.23
6 1 0 0.36 0.26
7 1 0 0.43 0.33
7 1 0 0.38 0.3
8 1 0 1.16 0.43
8 1 0 0.66 0.38
9 1 0 17.32 1.15
9 1 0 17.94 1.33
10 1 0 -0.09 0.51
10 1 0 -0.28 0.52
11 1 0 0.14 0.6
11 1 0 0.91 0.6
12 -2 0 0.13 0.66
11 -2 0 0.44 0.55
10 -2 0 9.99 0.88
9 -2 0 17.52 1.19
9 -2 0 15.81 1.06
8 -2 0 5.65 0.68
8 -2 0 6.48 0.61
7 -2 0 0.3 0.26
7 -2 0 0.49 0.28
6 -2 0 -0.01 0.13
6 -2 0 -0.31 0.2
6 -2 0 0.12 0.2
5 -2 0 7.72 0.55
5 -2 0 8.31 0.43
5 -2 0 8.54 0.52
-5 2 0 8.04 0.54
-5 2 0 8.37 0.43
4 -2 0 0.78 0.15
4 -2 0 1.05 0.16
4 -2 0 1.33 0.15
-4 2 0 1.19 0.14
-4 2 0 1.02 0.19
3 -2 0 145.21 6.87
3 -2 0 145.3 6.42
-3 2 0 148.82 6.43
-3 2 0 144.87 6.87
-3 2 0 131.21 7.44
2 -2 0 4.48 0.24
2 -2 0 4.63 0.26
-2 2 0 4.41 0.26
-2 2 0 4.54 0.24
1 -2 0 11.67 0.56
1 -2 0 11.02 0.53
-1 2 0 11.48 0.53
0 -2 0 0.11 0.04
0 -2 0 0.09 0.05
0 2 0 0.08 0.06
-1 -2 0 12.1 0.66
-1 -2 0 11.53 0.59
1 2 0 11.67 0.59
1 2 0 11.97 0.67
-2 -2 0 36.98 1.78
-2 -2 0 36.37 1.96
2 2 0 36.6 1.96
2 2 0 36.68 1.79
-3 -2 0 11.46 0.59
-3 -2 0 11.03 0.68
3 2 0 10.96 0.7
3 2 0 11.51 0.61
4 2 0 0.57 0.18
4 2 0 0.35 0.21
5 2 0 17.35 0.94
5 2 0 16.87 1.06
6 2 0 0.3 0.28
6 2 0 0.34 0.26
7 2 0 2.16 0.43
7 2 0 2.88 0.41
8 2 0 4.25 0.62
8 2 0 4.61 0.74
9 2 0 0.71 0.46
9 2 0 -0.06 0.47
10 2 0 7.91 1.04
10 2 0 7.21 0.92
11 2 0 0.9 0.66
11 2 0 0.2 0.59
12 -3 0 0.95 0.64
-11 3 0 6.05 0.73
10 -3 0 5.27 0.75
9 -3 0 0.46 0.4
8 -3 0 10.95 0.77
7 -3 0 0.97 0.28
7 -3 0 1.19 0.28
7 -3 0 1.03 0.15
6 -3 0 26.74 1.56
6 -3 0 28.64 1.31
6 -3 0 28.88 1.45
5 -3 0 9.33 0.47
5 -3 0 9.01 0.55
-5 3 0 8.33 0.56
-5 3 0 9.38 0.47
4 -3 0 7.56 0.4
4 -3 0 7.54 0.45
-4 3 0 7.65 0.4
3 -3 0 52.72 2.59
3 -3 0 53.45 2.42
-3 3 0 51.91 2.59
-3 3 0 55.45 2.42
2 -3 0 10.51 0.51
2 -3 0 10.49 0.54
-2 3 0 10.82 0.51
1 -3 0 9.77 0.5
1 -3 0 9.7 0.48
-1 3 0 9.86 0.48
-1 3 0 10.32 0.5
0 -3 0 17.01 0.79
0 -3 0 17.3 0.93
0 3 0 17.18 0.93
-1 -3 0 0.88 0.17
-1 -3 0 1.33 0.1
-1 -3 0 1.1 0.11
1 3 0 1.11 0.21
1 3 0 1.23 0.13
-2 -3 0 7.69 0.48
-2 -3 0 7.23 0.4
2 3 0 7.41 0.41
2 3 0 7.33 0.49
-3 -3 0 40.15 1.97
3 3 0 40.31 1.98
3 3 0 40.69 2.19
4 3 0 0.93 0.24
4 3 0 1.32 0.21
5 3 0 2.89 0.38
5 3 0 3.26 0.47
6 3 0 1.95 0.31
6 3 0 1.97 0.37
7 3 0 3.44 0.51
7 3 0 4.12 0.54
8 3 0 5.06 0.8
8 3 0 5.33 0.67
9 3 0 23.35 1.43
9 3 0 23.46 1.63
10 3 0 3.47 0.69
10 3 0 3.46 0.64
11 3 0 4.15 0.76
11 3 0 6.58 1.12
12 -4 0 1.24 0.63
11 -4 0 2.66 0.6
10 -4 0 1.75 0.5
-10 4 0 0.43 0.29
-9 4 0 4.66 0.56
8 -4 0 1.66 0.36
8 -4 0 1.87 0.23
7 -4 0 0.21 0.26
7 -4 0 0.61 0.18
6 -4 0 9.33 0.48
6 -4 0 9.27 0.57
-6 4 0 7.51 0.55
5 -4 0 73.87 3.67
5 -4 0 77.04 3.42
4 -4 0 2.79 0.26
4 -4 0 2.92 0.23
-4 4 0 2.62 0.22
3 -4 0 52.39 2.61
3 -4 0 53.53 2.45
-3 4 0 54.15 2.45
-3 4 0 55.7 2.62
2 -4 0 46.33 2.22
2 -4 0 45.78 2.09
-2 4 0 45.61 2.09
1 -4 0 17.66 0.82
-1 4 0 17.35 0.82
0 -4 0 44.64 1.98
0 -4 0 44.9 2.3
0 4 0 42.5 1.99
0 4 0 42.66 2.31
-1 -4 0 128.82 6.39
-1 -4 0 133.58 5.98
-1 -4 0 136.41 6.95
1 4 0 134.03 6.95
1 4 0 132.96 6.39
-2 -4 0 22.25 1.24
-2 -4 0 22.11 1.11
2 4 0 22.26 1.12
2 4 0 22.71 1.26
-3 -4 0 30.64 1.56
3 4 0 32.42 1.57
3 4 0 31.79 1.76
4 4 0 0.12 0.18
4 4 0 0.06 0.22
5 4 0 4.02 0.43
5 4 0 3.74 0.53
6 4 0 15.99 0.94
6 4 0 15.55 1.09
7 4 0 44.6 2.3
7 4 0 44.65 2.57
8 4 0 20.59 1.25
8 4 0 20.84 1.46
9 4 0 1.43 0.57
9 4 0 0.67 0.49
10 4 0 -0.42 0.55
10 4 0 0.17 0.59
11 4 0 -0.87 0.65
11 4 0 0.59 0.68
12 -5 0 -0.55 0.59
11 -5 0 6.59 0.89
10 -5 0 3.85 0.71
9 -5 0 3.93 0.31
9 -5 0 6.85 0.65
-9 5 0 1.97 0.42
8 -5 0 9.85 0.7
8 -5 0 8.56 0.51
7 -5 0 39.69 1.83
7 -5 0 38.76 2
6 -5 0 28.36 1.49
6 -5 0 29.62 1.37
5 -5 0 40.78 1.87
5 -5 0 40.25 2.01
4 -5 0 15.48 0.76
4 -5 0 15.8 0.82
3 -5 0 0.15 0.1
3 -5 0 0.07 0.11
-3 5 0 0.16 0.12
2 -5 0 0.28 0.09
2 -5 0 0.2 0.09
-2 5 0 0.15 0.09
-2 5 0 0.17 0.1
1 -5 0 83.52 3.75
-1 5 0 82.71 3.76
0 -5 0 62.93 2.85
0 -5 0 63.37 3.31
0 5 0 62.67 3.32
-1 -5 0 1.41 0.13
-1 -5 0 1.42 0.14
-1 -5 0 1.41 0.21
1 5 0 1.53 0.26
-2 -5 0 11.13 0.58
2 5 0 10.95 0.72
2 5 0 11.55 0.61
3 5 0 1.78 0.27
3 5 0 2.16 0.3
4 5 0 9.61 0.74
4 5 0 10.29 0.61
5 5 0 29.25 1.53
5 5 0 29.8 1.74
6 5 0 1.26 0.38
6 5 0 1.89 0.35
7 5 0 5.6 0.77
7 5 0 4.03 0.59
8 5 0 7.19 0.77
8 5 0 7.83 0.93
9 5 0 0.68 0.57
9 5 0 1.25 0.52
10 5 0 1.21 0.59
10 5 0 0.43 0.62
12 -6 0 2.69 0.68
11 -6 0 0.58 0.56
10 -6 0 5.64 0.77
9 -6 0 4.57 0.37
9 -6 0 7.07 0.66
8 -6 0 17.88 1.07
8 -6 0 18.2 0.92
7 -6 0 5.71 0.41
7 -6 0 5.26 0.52
6 -6 0 17.79 0.98
6 -6 0 18.13 0.9
5 -6 0 0.82 0.2
5 -6 0 1.49 0.24
4 -6 0 9.76 0.55
4 -6 0 10 0.53
3 -6 0 129.82 6.15
3 -6 0 126.24 5.76
-3 6 0 127.3 6.15
2 -6 0 37.76 1.85
2 -6 0 38.97 1.76
-2 6 0 37.67 1.86
1 -6 0 13.05 0.64
-1 6 0 12.91 0.64
0 -6 0 38.88 1.81
0 -6 0 40.09 2.1
0 6 0 39.32 2.11
-1 -6 0 2.04 0.18
1 6 0 2.08 0.31
-2 -6 0 0.22 0.09
2 6 0 0.26 0.14
2 6 0 0.18 0.2
3 6 0 9.74 0.71
3 6 0 9.61 0.58
4 6 0 2.26 0.37
4 6 0 2.62 0.35
5 6 0 21.01 1.35
5 6 0 20.94 1.15
6 6 0 3.92 0.69
6 6 0 3.59 0.51
7 6 0 -0.01 0.35
7 6 0 -0.53 0.42
8 6 0 0.53 0.51
8 6 0 0.96 0.44
9 6 0 0.49 0.59
9 6 0 -0.05 0.52
10 6 0 0.19 0.64
10 6 0 -0.5 0.61
12 -7 0 3.25 0.72
11 -7 0 -0.17 0.57
10 -7 0 12.46 0.71
9 -7 0 15.44 0.96
9 -7 0 12.43 0.74
8 -7 0 24.69 1.41
8 -7 0 26.08 1.26
7 -7 0 7.67 0.51
7 -7 0 7.45 0.61
6 -7 0 1.43 0.26
6 -7 0 1.03 0.21
5 -7 0 0.78 0.2
5 -7 0 0.45 0.17
4 -7 0 3.89 0.3
4 -7 0 3.47 0.3
3 -7 0 49.37 2.38
3 -7 0 48.03 2.24
-3 7 0 48.97 2.38
2 -7 0 -0.03 0.1
2 -7 0 -0.02 0.12
1 -7 0 10.33 0.53
0 -7 0 9.5 0.59
0 -7 0 8.94 0.49
0 7 0 10.05 0.61
-1 -7 0 0.65 0.12
1 7 0 0.53 0.21
-2 -7 0 0.35 0.1
-2 -7 0 0.32 0.1
2 7 0 -0.08 0.22
2 7 0 0.31 0.16
3 7 0 6.18 0.46
3 7 0 6.17 0.6
4 7 0 23.49 1.44
4 7 0 23.21 1.23
5 7 0 9.02 0.84
5 7 0 8.98 0.65
6 7 0 0.75 0.33
6 7 0 0.36 0.41
7 7 0 3.43 0.61
7 7 0 4.04 0.79
8 7 0 3.22 0.53
8 7 0 3.43 0.66
9 7 0 0.23 0.61
9 7 0 -0.09 0.52
11 -8 0 17.84 1.31
10 -8 0 -0.04 0.49
10 -8 0 -0.14 0.19
9 -8 0 1.01 0.44
9 -8 0 0.73 0.29
8 -8 0 2.38 0.39
8 -8 0 2.6 0.41
7 -8 0 0.24 0.29
7 -8 0 -0.05 0.22
6 -8 0 0.02 0.23
6 -8 0 0.15 0.2
5 -8 0 2.53 0.33
5 -8 0 2.57 0.31
4 -8 0 13.92 0.75
4 -8 0 13.95 0.73
3 -8 0 28.87 1.35
3 -8 0 28.94 1.41
-3 8 0 27.51 1.42
2 -8 0 16.58 0.82
1 -8 0 6.11 0.42
1 -8 0 6.72 0.39
0 -8 0 6.04 0.35
0 8 0 5.29 0.46
-1 -8 0 8.22 0.44
1 8 0 7.96 0.62
-2 -8 0 14.49 0.71
2 8 0 14.6 0.95
3 8 0 25.86 1.53
3 8 0 25.28 1.32
4 8 0 13.91 0.83
4 8 0 15.6 1.06
5 8 0 1.22 0.42
5 8 0 0.74 0.24
6 8 0 4.08 0.75
6 8 0 3.56 0.49
7 8 0 7.03 0.93
7 8 0 7.42 0.67
8 8 0 16.39 1.14
8 8 0 19.88 1.47
9 8 0 31.46 2.04
9 8 0 26.69 1.68
12 -9 0 0.47 0.68
11 -9 0 2.12 0.63
11 -9 0 0.82 0.27
10 -9 0 -0.01 0.5
10 -9 0 0.18 0.26
9 -9 0 0.26 0.45
9 -9 0 0.32 0.3
8 -9 0 6.76 0.55
8 -9 0 7.44 0.69
7 -9 0 2.75 0.48
7 -9 0 2.42 0.39
6 -9 0 7.43 0.52
6 -9 0 7.84 0.57
5 -9 0 0.45 0.2
5 -9 0 0.44 0.2
4 -9 0 3.02 0.32
4 -9 0 2.97 0.32
3 -9 0 9.88 0.56
2 -9 0 16.33 0.83
1 -9 0 12.69 0.76
1 -9 0 13.47 0.68
0 -9 0 42.63 2.01
0 9 0 44.27 2.36
-1 -9 0 3.89 0.3
1 9 0 4.16 0.5
-2 -9 0 5.28 0.34
2 9 0 6.16 0.61
3 9 0 4.84 0.62
3 9 0 3.42 0.32
4 9 0 0.33 0.16
4 9 0 -0.1 0.35
5 9 0 6.32 0.5
5 9 0 7.58 0.84
6 9 0 3.1 0.43
6 9 0 4.21 0.63
7 9 0 7.73 0.65
7 9 0 9.49 1.03
8 9 0 0.4 0.57
11 -10 0 1.38 0.31
10 -10 0 0.44 0.33
9 -10 0 12.99 0.96
9 -10 0 12.23 0.79
8 -10 0 4.76 0.61
8 -10 0 3.64 0.5
7 -10 0 5.46 0.56
7 -10 0 5.19 0.49
6 -10 0 7.5 0.58
6 -10 0 7.74 0.55
5 -10 0 2.8 0.36
5 -10 0 2.58 0.37
4 -10 0 5.75 0.43
4 -10 0 5.27 0.41
3 -10 0 59.28 2.74
2 -10 0 9.83 0.57
1 -10 0 9.43 0.53
-1 10 0 8.65 0.62
0 -10 0 4.32 0.33
0 10 0 4.29 0.49
-1 -10 0 3.25 0.3
1 10 0 4.46 0.52
-2 -10 0 3.62 0.29
2 10 0 3.27 0.58
3 10 0 15.71 1.12
4 10 0 6.39 0.48
4 10 0 9.38 0.85
5 10 0 9.22 0.89
5 10 0 5.83 0.49
6 10 0 14.29 0.93
6 10 0 20.28 1.33
7 10 0 5.75 0.96
8 10 0 3.42 0.73
11 -11 0 4.19 0.59
10 -11 0 1.25 0.41
10 -11 0 2.2 0.59
9 -11 0 4.58 0.55
9 -11 0 5.12 0.78
8 -11 0 20.05 1.21
8 -11 0 18.36 1.06
7 -11 0 3.86 0.53
7 -11 0 3.62 0.47
6 -11 0 6.08 0.54
6 -11 0 5.4 0.5
5 -11 0 4.51 0.42
5 -11 0 4 0.43
4 -11 0 3.63 0.4
4 -11 0 3.93 0.38
3 -11 0 10.88 0.64
2 -11 0 29.42 1.42
1 -11 0 0.1 0.17
-1 11 0 0.15 0.16
0 -11 0 13.01 0.7
0 11 0 13.49 0.89
-1 -11 0 15.63 0.79
1 11 0 15.21 1.04
-2 -11 0 3.47 0.32
2 11 0 3.7 0.63
-3 -11 0 6.29 0.42
3 11 0 6.98 0.79
4 11 0 2.71 0.53
5 11 0 1.57 0.51
6 11 0 3 0.63
7 11 0 -0.02 0.57
11 -12 0 -0.23 0.37
10 -12 0 4.97 0.67
10 -12 0 7.39 0.94
9 -12 0 0.2 0.36
8 -12 0 8.59 0.78
8 -12 0 7.2 0.68
7 -12 0 0.81 0.35
7 -12 0 0.59 0.31
6 -12 0 2.9 0.46
6 -12 0 3.54 0.48
5 -12 0 0.06 0.24
5 -12 0 -0.04 0.24
4 -12 0 1.93 0.29
3 -12 0 12.65 0.73
2 -12 0 3.79 0.41
1 -12 0 0.11 0.19
-1 12 0 0.21 0.17
0 -12 0 12.36 0.64
0 12 0 9.71 0.77
-1 -12 0 18.81 0.98
1 12 0 20.61 1.27
-2 -12 0 -0.11 0.16
2 12 0 -0.14 0.35
-3 -12 0 1.39 0.2
3 12 0 1.18 0.45
4 12 0 4.86 0.83
5 12 0 0.04 0.49
6 12 0 1.23 0.58
7 12 0 10.26 1.22
10 -13 0 0.47 0.58
9 -13 0 0.69 0.38
8 -13 0 1.2 0.38
8 -13 0 2.18 0.47
7 -13 0 0.34 0.35
7 -13 0 0.06 0.32
6 -13 0 4.76 0.54
6 -13 0 5.41 0.54
5 -13 0 0.22 0.25
5 -13 0 0.36 0.28
4 -13 0 2.81 0.44
3 -13 0 1.27 0.28
2 -13 0 13.72 0.79
1 -13 0 4.55 0.41
-1 13 0 2.72 0.39
0 -13 0 25.51 1.11
0 13 0 17.9 1.29
-1 -13 0 6.02 0.45
1 13 0 5.18 0.66
-2 -13 0 2.3 0.34
2 13 0 2.1 0.48
3 13 0 0.22 0.44
4 13 0 1.27 0.52
5 13 0 0.45 0.52
6 13 0 5.71 1.04
10 -14 0 1.53 0.6
10 -14 0 1.07 0.47
9 -14 0 1.26 0.43
9 -14 0 1.03 0.55
8 -14 0 6.53 0.72
8 -14 0 8.5 0.82
7 -14 0 5.23 0.61
7 -14 0 5.99 0.64
6 -14 0 1.52 0.36
6 -14 0 1.35 0.35
5 -14 0 0.72 0.31
4 -14 0 3.47 0.47
3 -14 0 3.38 0.46
2 -14 0 15.5 0.88
1 -14 0 6.39 0.52
0 -14 0 2.63 0.38
0 14 0 1.03 0.28
-1 -14 0 2.4 0.29
1 14 0 1.71 0.37
-2 -14 0 0 0.21
2 14 0 0.28 0.41
3 14 0 3.25 0.58
4 14 0 9.66 1.06
5 14 0 7.63 1.08
9 -15 0 0.26 0.42
8 -15 0 0.38 0.4
7 -15 0 7.66 0.71
6 -15 0 3.34 0.57
5 -15 0 2.01 0.39
4 -15 0 3.33 0.51
3 -15 0 23.39 1.24
2 -15 0 0.56 0.28
1 -15 0 13.63 0.81
0 -15 0 0.2 0.24
0 15 0 0.07 0.24
-1 -15 0 20.9 0.96
1 15 0 13.5 1.13
2 15 0 0.51 0.38
3 15 0 2.49 0.59
4 15 0 -0.04 0.55
9 -16 0 1.29 0.51
8 -16 0 0.74 0.5
7 -16 0 1.17 0.44
6 -16 0 0.26 0.39
5 -16 0 0.35 0.35
4 -16 0 0.52 0.33
3 -16 0 0.46 0.33
2 -16 0 2.28 0.36
1 -16 0 1.05 0.31
0 -16 0 0.22 0.26
-1 -16 0 0.52 0.27
2 16 0 1.17 0.44
3 16 0 -0.04 0.54
7 -17 0 -0.06 0.45
6 -17 0 4.21 0.66
5 -17 0 1.54 0.41
4 -17 0 0.68 0.36
3 -17 0 0.85 0.34
2 -17 0 1.94 0.36
1 -17 0 0.41 0.3
0 -17 0 0.12 0.29
6 -18 0 2.47 0.48
5 -18 0 10.22 0.85
4 -18 0 0.8 0.4
3 -18 0 -0.08 0.35
2 -18 0 0.74 0.36
1 -18 0 3.64 0.55
0 -18 0 9.31 0.74
3 -19 1 0.99 0.4
4 -19 1 0.24 0.4
0 -18 1 1.25 0.34
1 -18 1 4.42 0.56
2 -18 1 0.06 0.34
3 -18 1 -0.09 0.35
4 -18 1 1.22 0.41
5 -18 1 3.85 0.67
6 -18 1 0.49 0.46
0 -17 1 0.47 0.31
1 -17 1 0.04 0.3
2 -17 1 1 0.34
3 -17 1 4.16 0.56
4 -17 1 1.23 0.38
5 -17 1 18.83 1.14
6 -17 1 2.43 0.47
7 -17 1 0.4 0.44
8 -17 1 -0.06 0.44
3 16 -1 9.67 1.05
1 16 -1 1.71 0.37
-1 -16 1 3.82 0.46
0 -16 1 0.21 0.27
1 -16 1 0.29 0.28
2 -16 1 0.04 0.29
3 -16 1 5.85 0.59
4 -16 1 8.05 0.68
5 -16 1 -0.13 0.35
6 -16 1 0.28 0.39
7 -16 1 7.13 0.74
8 -16 1 0.38 0.44
4 15 -1 6.81 0.99
3 15 -1 2.83 0.58
2 15 -1 4.39 0.68
1 15 -1 0.2 0.29
-1 -15 1 0.06 0.24
0 -15 1 2.47 0.42
1 -15 1 0.3 0.25
2 -15 1 11.13 0.73
3 -15 1 8.54 0.65
4 -15 1 1.01 0.33
5 -15 1 1.63 0.38
6 -15 1 2.21 0.42
6 -15 1 2.45 0.4
7 -15 1 4.68 0.64
7 -15 1 4.22 0.6
8 -15 1 2.91 0.52
8 -15 1 1.92 0.47
9 -15 1 2.91 0.59
9 -15 1 1.32 0.5
10 -15 1 4.04 0.61
5 14 -1 0.51 0.53
4 14 -1 0.25 0.49
3 14 -1 -0.07 0.42
2 14 -1 0 0.4
-2 -14 1 -0.14 0.2
1 14 -1 6.13 0.64
-1 -14 1 7.77 0.52
0 14 -1 1.47 0.29
0 -14 1 2.68 0.39
1 -14 1 1.83 0.29
2 -14 1 9.13 0.63
3 -14 1 1.47 0.3
4 -14 1 0.72 0.3
5 -14 1 16.5 0.95
5 -14 1 15.99 0.94
6 -14 1 0.99 0.34
6 -14 1 0.65 0.33
7 -14 1 0.61 0.39
7 -14 1 0.44 0.35
8 -14 1 8.5 0.81
8 -14 1 8.43 0.73
9 -14 1 0.16 0.51
9 -14 1 0.09 0.39
10 -14 1 0.47 0.47
6 13 -1 1.98 0.63
5 13 -1 0.13 0.5
4 13 -1 -0.15 0.44
3 13 -1 2.25 0.51
2 13 -1 4.61 0.69
-2 -13 1 4.38 0.4
1 13 -1 2.16 0.38
-1 -13 1 2.78 0.34
0 13 -1 8.53 0.71
0 -13 1 11.94 0.63
-1 13 -1 0.22 0.17
1 -13 1 0.22 0.2
2 -13 1 12.95 0.76
3 -13 1 0.09 0.24
4 -13 1 10.05 0.66
5 -13 1 5.44 0.53
5 -13 1 5.22 0.49
6 -13 1 10.42 0.74
6 -13 1 10.92 0.73
7 -13 1 4.76 0.57
7 -13 1 5.38 0.64
8 -13 1 6.35 0.74
8 -13 1 5.54 0.61
9 -13 1 0.86 0.38
9 -13 1 0.77 0.51
10 -13 1 1.3 0.59
10 -13 1 0.11 0.4
7 12 -1 1.86 0.65
6 12 -1 -0.52 0.49
5 12 -1 0.15 0.48
4 12 -1 4.72 0.78
3 12 -1 10.15 0.94
-3 -12 1 11.06 0.6
2 12 -1 35.35 2
-2 -12 1 32.75 1.6
1 12 -1 16.6 1.1
-1 -12 1 16.33 0.85
0 12 -1 0.03 0.2
0 -12 1 -0.06 0.17
1 -12 1 10.75 0.63
2 -12 1 18.05 0.95
3 -12 1 0.23 0.21
4 -12 1 9.41 0.61
4 -12 1 9.73 0.63
5 -12 1 14.2 0.81
5 -12 1 13.71 0.81
6 -12 1 1.19 0.32
6 -12 1 1.11 0.3
7 -12 1 9.54 0.76
7 -12 1 9.68 0.68
8 -12 1 0.23 0.4
8 -12 1 0.41 0.33
9 -12 1 0.73 0.36
9 -12 1 0.86 0.5
10 -12 1 1.55 0.41
10 -12 1 1.37 0.6
11 -12 1 2.2 0.44
11 -12 1 3.05 0.67
7 11 -1 3.12 0.69
6 11 -1 1.69 0.31
6 11 -1 3.24 0.62
5 11 -1 4.23 0.42
5 11 -1 6.97 0.85
4 11 -1 0.16 0.41
4 11 -1 0.1 0.16
3 11 -1 16.77 1.09
3 11 -1 23.22 1.38
-3 -11 1 22.86 1.01
2 11 -1 1.04 0.36
-2 -11 1 0.92 0.18
1 11 -1 29.03 1.63
-1 -11 1 26.51 1.32
0 11 -1 4.36 0.51
0 -11 1 4.43 0.37
1 -11 1 14.04 0.75
2 -11 1 22.43 1.12
3 -11 1 45.78 2.28
3 -11 1 47.19 2.18
4 -11 1 10.11 0.62
4 -11 1 10.26 0.63
5 -11 1 34.42 1.78
5 -11 1 36.25 1.71
6 -11 1 31.48 1.53
6 -11 1 30.66 1.62
7 -11 1 0.97 0.3
7 -11 1 1.4 0.36
8 -11 1 3.54 0.59
8 -11 1 2.4 0.37
9 -11 1 3.53 0.53
9 -11 1 4.08 0.76
10 -11 1 4.1 0.57
10 -11 1 5.81 0.87
11 -11 1 10.33 1.08
8 10 -1 0.48 0.6
7 10 -1 1.99 0.59
7 10 -1 0.69 0.27
6 10 -1 2.42 0.39
6 10 -1 2.11 0.54
5 10 -1 17.05 1.06
5 10 -1 23.77 1.41
4 10 -1 20.69 1.11
3 10 -1 11.92 0.86
3 10 -1 8.91 0.59
2 10 -1 8.47 0.58
2 10 -1 11.45 0.81
-2 -10 1 10.69 0.54
1 10 -1 1.18 0.29
-1 -10 1 1.08 0.17
0 10 -1 3.34 0.44
0 -10 1 3.4 0.3
1 -10 1 0.61 0.17
2 -10 1 10.9 0.61
3 -10 1 47.29 2.17
3 -10 1 45.76 2.28
4 -10 1 20.34 1
4 -10 1 19.34 1.04
5 -10 1 0.19 0.22
5 -10 1 0.53 0.22
6 -10 1 7.58 0.53
6 -10 1 6.87 0.56
7 -10 1 0.56 0.27
7 -10 1 0.71 0.32
8 -10 1 6.09 0.54
8 -10 1 6.68 0.68
9 -10 1 0.47 0.31
9 -10 1 1.36 0.48
10 -10 1 10.36 0.76
10 -10 1 10.64 1.01
11 -10 1 -0.05 0.59
9 9 -1 1.03 0.43
8 9 -1 0.76 0.37
8 9 -1 -0.4 0.54
7 9 -1 0.67 0.31
7 9 -1 0.05 0.5
6 9 -1 4.2 0.49
6 9 -1 4.57 0.79
5 9 -1 4.94 0.47
5 9 -1 5.95 0.76
4 9 -1 5.31 0.45
4 9 -1 7.57 0.73
3 9 -1 3.14 0.55
3 9 -1 2.33 0.31
2 9 -1 0.09 0.14
2 9 -1 -0.16 0.24
-2 -9 1 -0.02 0.11
1 9 -1 0.52 0.24
-1 -9 1 0.47 0.14
0 9 -1 10.51 0.7
0 -9 1 10.27 0.56
1 -9 1 0.13 0.14
2 -9 1 7.1 0.43
2 -9 1 7.26 0.44
3 -9 1 0.34 0.17
3 -9 1 0.41 0.15
4 -9 1 0.36 0.17
4 -9 1 0.18 0.18
5 -9 1 11.09 0.62
5 -9 1 10.36 0.64
6 -9 1 2.15 0.4
6 -9 1 2.18 0.35
7 -9 1 7.98 0.56
7 -9 1 7.7 0.63
8 -9 1 1.63 0.3
8 -9 1 1.85 0.4
9 -9 1 -0.39 0.43
9 -9 1 0.65 0.31
10 -9 1 0.14 0.52
10 -9 1 -0.22 0.21
11 -9 1 0.04 0.58
12 -9 1 0.24 0.66
9 8 -1 2.81 0.6
9 8 -1 2.5 0.72
8 8 -1 1.71 0.59
8 8 -1 1.94 0.51
7 8 -1 9.28 1.01
7 8 -1 10.2 0.81
6 8 -1 6.21 0.61
6 8 -1 5.94 0.81
5 8 -1 4.3 0.5
5 8 -1 3.6 0.65
4 8 -1 2.63 0.32
4 8 -1 1.94 0.4
3 8 -1 19.38 1.22
3 8 -1 19.37 1.04
2 8 -1 34.83 1.69
2 8 -1 33.56 1.89
-2 -8 1 32.47 1.55
1 8 -1 -0.24 0.19
1 8 -1 0.14 0.15
-1 -8 1 0.13 0.09
-1 -8 1 0.02 0.1
0 8 -1 37.95 2.05
0 -8 1 38.25 1.75
0 -8 1 37.14 2.03
1 -8 1 7.14 0.42
-2 8 -1 3.62 0.29
2 -8 1 3.38 0.28
2 -8 1 3.9 0.29
3 -8 1 6.43 0.39
3 -8 1 5.9 0.4
4 -8 1 45.64 2.12
4 -8 1 45.88 2.25
5 -8 1 0.98 0.2
5 -8 1 1.05 0.21
6 -8 1 4.62 0.4
6 -8 1 4.7 0.46
7 -8 1 5.35 0.45
7 -8 1 5.56 0.53
8 -8 1 1.48 0.28
8 -8 1 1.36 0.39
9 -8 1 -0.22 0.26
9 -8 1 0.28 0.42
10 -8 1 2.3 0.34
10 -8 1 4.08 0.59
11 -8 1 5.3 0.9
12 -8 1 1.08 0.66
9 7 -1 0.12 0.51
9 7 -1 0.37 0.57
8 7 -1 2.4 0.62
8 7 -1 2.19 0.49
7 7 -1 1.14 0.49
7 7 -1 0.75 0.4
6 7 -1 7.47 0.81
6 7 -1 7.07 0.64
5 7 -1 1.93 0.33
5 7 -1 2.06 0.42
4 7 -1 65.7 3.26
4 7 -1 66.71 3.6
3 7 -1 6.76 0.61
3 7 -1 6.94 0.48
2 7 -1 10.1 0.7
2 7 -1 10.15 0.58
-2 -7 1 9.75 0.54
-2 -7 1 9.81 0.5
1 7 -1 6.05 0.39
1 7 -1 6.12 0.47
-1 -7 1 5.37 0.33
-1 -7 1 5.48 0.33
0 7 -1 51.22 2.77
0 -7 1 52.61 2.38
0 -7 1 52.36 2.76
1 -7 1 4.79 0.33
1 -7 1 5.25 0.32
1 -7 1 5.6 0.32
-2 7 -1 88.41 4.42
2 -7 1 93.91 4.15
2 -7 1 92.4 4.41
3 -7 1 20.05 1.01
3 -7 1 19.67 0.96
4 -7 1 13 0.68
4 -7 1 13.67 0.73
5 -7 1 3.07 0.31
5 -7 1 2.98 0.33
6 -7 1 19.73 0.99
6 -7 1 20.28 1.08
7 -7 1 41.28 2.12
7 -7 1 41.97 1.95
8 -7 1 12.67 0.83
8 -7 1 11.39 0.68
9 -7 1 1.86 0.44
9 -7 1 1.29 0.22
10 -7 1 4.73 0.72
10 -7 1 2.31 0.32
11 -7 1 7.18 0.9
12 -7 1 0.51 0.64
10 6 -1 3.36 0.7
10 6 -1 2.59 0.72
9 6 -1 6.08 0.86
9 6 -1 7.06 1.03
8 6 -1 5.68 0.76
8 6 -1 6.74 0.91
7 6 -1 0.36 0.43
7 6 -1 0.63 0.38
6 6 -1 7.6 0.63
6 6 -1 7 0.78
5 6 -1 93.88 5.09
5 6 -1 95.69 4.63
4 6 -1 13.48 0.92
4 6 -1 13.47 0.77
3 6 -1 8.04 0.63
3 6 -1 8.45 0.52
2 6 -1 8 0.46
2 6 -1 7.39 0.57
-2 -6 1 7.48 0.42
-2 -6 1 7.43 0.39
1 6 -1 36.51 2.01
1 6 -1 38.59 1.82
-1 -6 1 36.78 1.7
-1 -6 1 36.78 2
-1 -6 1 36.32 1.81
0 6 -1 1.82 0.26
0 -6 1 2.18 0.18
0 -6 1 1.75 0.2
0 -6 1 1.66 0.2
0 -6 1 1.54 0.18
1 -6 1 14.97 0.73
1 -6 1 14.98 0.76
-2 6 -1 2.5 0.2
2 -6 1 2.32 0.2
2 -6 1 2.31 0.21
3 -6 1 58.55 2.66
3 -6 1 57.89 2.83
4 -6 1 23.18 1.17
4 -6 1 22.87 1.1
5 -6 1 10.84 0.58
5 -6 1 10.81 0.63
6 -6 1 1.33 0.2
6 -6 1 1.21 0.25
7 -6 1 1.44 0.22
7 -6 1 0.86 0.29
8 -6 1 2.02 0.38
8 -6 1 2.25 0.31
9 -6 1 -0.1 0.39
9 -6 1 0.05 0.16
10 -6 1 4.94 0.75
11 -6 1 13.24 1.1
12 -6 1 -0.6 0.59
10 5 -1 0.63 0.62
10 5 -1 0.51 0.58
9 5 -1 17.01 1.41
9 5 -1 18.28 1.24
8 5 -1 0.29 0.47
8 5 -1 0.26 0.42
7 5 -1 14.57 1.12
7 5 -1 14.52 0.95
6 5 -1 1.49 0.33
6 5 -1 1.57 0.39
5 5 -1 6.12 0.52
5 5 -1 6.86 0.64
4 5 -1 3.94 0.47
4 5 -1 3.59 0.37
3 5 -1 27.5 1.36
3 5 -1 26.45 1.53
2 5 -1 2.86 0.26
2 5 -1 2.85 0.34
-2 -5 1 2.55 0.2
1 5 -1 33.37 1.63
1 5 -1 32.83 1.79
-1 -5 1 33.35 1.79
-1 -5 1 33.52 1.52
-1 -5 1 32.67 1.62
0 5 -1 24.66 1.35
0 -5 1 25.29 1.35
0 -5 1 24.07 1.24
0 -5 1 25.7 1.23
0 -5 1 25.71 1.16
-1 5 -1 0.15 0.09
1 -5 1 0.13 0.08
1 -5 1 0.09 0.08
-2 5 -1 7.17 0.38
2 -5 1 7.37 0.39
2 -5 1 6.77 0.38
-3 5 -1 4.35 0.29
-3 5 -1 4.45 0.28
3 -5 1 4.25 0.3
3 -5 1 4.59 0.29
4 -5 1 34.14 1.55
4 -5 1 32.58 1.65
5 -5 1 1.73 0.23
5 -5 1 2.03 0.29
6 -5 1 10.19 0.55
6 -5 1 10.22 0.64
7 -5 1 5 0.37
7 -5 1 4.98 0.5
8 -5 1 0.71 0.33
8 -5 1 0.25 0.15
9 -5 1 0.73 0.17
9 -5 1 1.39 0.41
10 -5 1 0.5 0.46
11 -5 1 0.82 0.56
12 -5 1 0.83 0.62
11 4 -1 2.16 0.71
11 4 -1 0.65 0.7
10 4 -1 9.17 0.98
10 4 -1 9.18 1.14
9 4 -1 10.45 1.08
9 4 -1 10.41 0.92
8 4 -1 6.93 0.72
8 4 -1 6.65 0.88
7 4 -1 -0.16 0.32
7 4 -1 0.2 0.37
6 4 -1 0.19 0.27
6 4 -1 0.07 0.31
5 4 -1 17.85 0.98
5 4 -1 17.8 1.13
4 4 -1 49.31 2.45
4 4 -1 50.14 2.71
3 4 -1 3.95 0.32
3 4 -1 4.3 0.4
2 4 -1 8.25 0.47
2 4 -1 8.92 0.56
-2 -4 1 8.72 0.54
-2 -4 1 8.08 0.45
1 4 -1 51.75 2.46
1 4 -1 49.85 2.69
-1 -4 1 50.78 2.69
-1 -4 1 50.7 2.46
0 4 -1 1.07 0.18
0 -4 1 1.22 0.14
0 -4 1 1.19 0.16
0 -4 1 1.42 0.13
-1 4 -1 9.6 0.5
1 -4 1 9.36 0.49
1 -4 1 9.97 0.48
-2 4 -1 53.11 2.4
-2 4 -1 52.35 2.56
2 -4 1 53.76 2.55
2 -4 1 51.92 2.4
-3 4 -1 0.57 0.11
-3 4 -1 0.5 0.11
3 -4 1 0.61 0.12
3 -4 1 0.66 0.11
-4 4 -1 0.35 0.11
4 -4 1 0.35 0.11
4 -4 1 0.33 0.13
5 -4 1 105.69 5.14
5 -4 1 106.87 4.8
-6 4 -1 8.6 0.6
6 -4 1 9.96 0.61
6 -4 1 10.35 0.52
6 -4 1 10 0.64
7 -4 1 13.99 0.84
7 -4 1 14.62 0.9
7 -4 1 13.43 0.7
8 -4 1 11.53 0.77
8 -4 1 7.55 0.5
8 -4 1 11.79 0.72
9 -4 1 0.51 0.4
10 -4 1 -0.79 0.46
11 -4 1 16.05 1.19
12 -4 1 1.27 0.61
11 3 -1 0.22 0.63
10 3 -1 -0.39 0.52
10 3 -1 0.5 0.57
9 3 -1 7.76 0.94
9 3 -1 6.26 0.77
8 3 -1 0 0.42
8 3 -1 0.33 0.4
7 3 -1 1.93 0.39
7 3 -1 2.58 0.44
6 3 -1 45.13 2.55
6 3 -1 46.13 2.3
5 3 -1 0.08 0.21
5 3 -1 0.03 0.21
4 3 -1 0.43 0.18
4 3 -1 0.04 0.19
3 3 -1 45.1 2.47
3 3 -1 46.54 2.25
-3 -3 1 46.21 2.24
2 3 -1 29.06 1.45
2 3 -1 29.81 1.6
-2 -3 1 29.78 1.59
-2 -3 1 29.27 1.44
1 3 -1 0.34 0.12
1 3 -1 0.36 0.09
-1 -3 1 0.46 0.07
-1 -3 1 0.4 0.1
0 3 -1 91.99 5.03
0 -3 1 95.75 5.03
0 -3 1 101.45 4.64
1 -3 1 0.32 0.08
1 -3 1 0.29 0.07
-2 3 -1 1.16 0.14
-2 3 -1 1.47 0.14
2 -3 1 1.48 0.15
2 -3 1 1.14 0.13
-3 3 -1 39.21 1.76
-3 3 -1 38.11 1.88
3 -3 1 39.01 1.89
3 -3 1 38.07 1.76
-4 3 -1 29.7 1.34
4 -3 1 28.38 1.34
4 -3 1 29.21 1.45
-5 3 -1 0.32 0.11
-5 3 -1 0 0.12
5 -3 1 0.21 0.15
5 -3 1 0.21 0.11
5 -3 1 0.17 0.16
-6 3 -1 2.71 0.24
6 -3 1 2.15 0.36
6 -3 1 2.15 0.37
6 -3 1 2.83 0.24
7 -3 1 13.64 0.74
7 -3 1 9.22 0.56
7 -3 1 13.16 0.8
8 -3 1 24.69 1.43
8 -3 1 21.99 1.29
9 -3 1 4.3 0.64
9 -3 1 5.84 0.71
10 -3 1 19.06 1.23
11 -3 1 0.93 0.55
12 -3 1 2.74 0.68
11 2 -1 3.32 0.69
10 2 -1 5.54 0.97
10 2 -1 6.06 0.86
9 2 -1 9.69 0.99
9 2 -1 8.87 0.84
8 2 -1 3.94 0.71
8 2 -1 3.26 0.59
7 2 -1 11.54 0.9
7 2 -1 11.33 0.78
6 2 -1 7.05 0.55
6 2 -1 6.7 0.64
5 2 -1 22.67 1.17
5 2 -1 21.92 1.31
4 2 -1 69.61 3.77
4 2 -1 72.16 3.45
3 2 -1 50.14 2.69
3 2 -1 50.99 2.45
-3 -2 1 48.48 2.68
-3 -2 1 51.47 2.45
2 2 -1 11.15 0.58
2 2 -1 10.65 0.65
-2 -2 1 10.93 0.64
-2 -2 1 11.54 0.57
1 2 -1 4.58 0.31
1 2 -1 4.78 0.26
-1 -2 1 4.62 0.26
-1 -2 1 4.79 0.3
0 2 -1 169.65 9.26
0 -2 1 177.97 9.26
0 -2 1 188.24 8.55
-1 2 -1 132.99 6.18
1 -2 1 128.04 6.18
1 -2 1 124.99 5.78
-2 2 -1 4.82 0.25
-2 2 -1 4.88 0.27
2 -2 1 4.69 0.25
2 -2 1 5.01 0.28
-3 2 -1 47.13 2.55
-3 2 -1 50.31 2.19
-3 2 -1 49.54 2.36
3 -2 1 48.22 2.19
3 -2 1 45.66 2.55
3 -2 1 49.95 2.36
-4 2 -1 14.06 0.65
-4 2 -1 13.22 0.78
4 -2 1 13.24 0.79
4 -2 1 14.12 0.73
-5 2 -1 0.95 0.15
-5 2 -1 0.76 0.16
5 -2 1 0.91 0.19
5 -2 1 0.99 0.16
5 -2 1 0.59 0.18
6 -2 1 53.53 2.63
6 -2 1 52.4 2.85
7 -2 1 3.98 0.48
7 -2 1 5.35 0.54
8 -2 1 7.45 0.72
8 -2 1 7.08 0.64
9 -2 1 2.18 0.48
9 -2 1 1.98 0.45
10 -2 1 0.45 0.48
10 -2 1 0.86 0.49
11 -2 1 1.43 0.57
12 -2 1 8.73 1.06
11 1 -1 1.89 0.63
10 1 -1 -0.7 0.49
10 1 -1 -0.62 0.48
9 1 -1 -0.14 0.44
9 1 -1 0.35 0.46
8 1 -1 6.53 0.78
8 1 -1 6.99 0.66
7 1 -1 6.35 0.66
7 1 -1 6.48 0.58
6 1 -1 71.67 3.47
6 1 -1 69.25 3.79
5 1 -1 21.49 1.13
5 1 -1 21.81 1.26
4 1 -1 5.09 0.36
4 1 -1 4.87 0.42
3 1 -1 1.18 0.15
3 1 -1 1.29 0.23
-3 -1 1 1.12 0.15
-3 -1 1 1.24 0.19
2 1 -1 0.98 0.15
2 1 -1 0.79 0.12
-2 -1 1 0.67 0.12
-2 -1 1 0.7 0.11
1 1 -1 27.66 1.5
1 1 -1 28.37 1.38
-1 -1 1 28.66 1.5
-1 -1 1 28.5 1.38
-1 1 -1 0.99 0.08
1 -1 1 0.93 0.08
-2 1 -1 45.45 2.14
-2 1 -1 44.86 1.99
2 -1 1 45.07 2.14
2 -1 1 42.17 1.99
2 -1 1 43.03 2.32
-3 1 -1 1.67 0.16
3 -1 1 1.54 0.19
3 -1 1 1.41 0.22
-4 1 -1 84.74 4.36
4 -1 1 79.84 4.35
4 -1 1 83.25 4
5 -1 1 21.74 1.13
5 -1 1 21.75 1.24
6 -1 1 6.02 0.54
6 -1 1 6.1 0.48
7 -1 1 4.64 0.5
7 -1 1 4.42 0.57
8 -1 1 1.17 0.37
8 -1 1 0.88 0.37
9 -1 1 -0.04 0.41
9 -1 1 -0.08 0.41
10 -1 1 4.76 0.77
10 -1 1 6.14 0.89
11 -1 1 5.38 0.89
11 -1 1 6.97 1.04
12 -1 1 4.55 0.83
-12 0 1 -1.02 0.62
11 0 -1 1.28 0.62
10 0 -1 0.7 0.53
9 0 -1 10.51 0.96
9 0 -1 9.47 0.82
8 0 -1 19.17 1.22
8 0 -1 16.42 1.06
7 0 -1 18.41 1.18
7 0 -1 18.43 1.04
6 0 -1 0.37 0.23
6 0 -1 0.29 0.24
5 0 -1 0.13 0.18
5 0 -1 -0.16 0.17
4 0 -1 0.21 0.15
4 0 -1 0.39 0.15
-4 0 1 0.27 0.13
3 0 -1 136 7.23
3 0 -1 141.02 6.66
-3 0 1 137.69 7.23
-3 0 1 139.86 6.66
2 0 -1 1.81 0.13
2 0 -1 1.54 0.18
2 0 -1 1.59 0.16
-2 0 1 1.88 0.12
-2 0 1 1.69 0.18
-2 0 1 1.63 0.14
1 0 -1 3.27 0.18
1 0 -1 3.39 0.16
-1 0 1 3.18 0.18
-1 0 1 3.43 0.16
-1 0 1 3.27 0.21
-1 0 -1 0.05 0.05
-1 0 -1 0.08 0.04
1 0 1 0.05 0.04
1 0 1 -0.01 0.05
-2 0 -1 151.91 7.12
-2 0 -1 145.07 7.73
2 0 1 147.75 7.73
2 0 1 149.24 7.12
-3 0 -1 246.54 12.97
-3 0 -1 254.5 11.96
3 0 1 246.37 12.97
3 0 1 250.68 11.96
-4 0 -1 23.48 1.31
4 0 1 23.26 1.32
4 0 1 23.77 1.19
5 0 1 4.14 0.38
5 0 1 4.22 0.44
6 0 1 27.36 1.39
6 0 1 25.48 1.53
7 0 1 8.3 0.63
7 0 1 7.9 0.73
8 0 1 0.07 0.38
8 0 1 -0.21 0.35
9 0 1 16.71 1.25
9 0 1 16.01 1.08
10 0 1 1.57 0.55
10 0 1 0.74 0.53
11 0 1 0.4 0.61
11 0 1 -0.22 0.59
12 -1 -1 0.83 0.68
-12 1 1 -0.65 0.52
11 -1 -1 9.6 0.98
-11 1 1 6.2 1
10 -1 -1 1.32 0.51
9 -1 -1 5.96 0.67
8 -1 -1 1.47 0.39
8 -1 -1 2.75 0.49
7 -1 -1 2.85 0.51
7 -1 -1 3.01 0.45
6 -1 -1 7.35 0.58
6 -1 -1 6.81 0.52
5 -1 -1 41.64 1.99
5 -1 -1 38.22 2.16
4 -1 -1 1.96 0.27
4 -1 -1 2.75 0.26
-4 1 1 2.25 0.17
3 -1 -1 5.62 0.33
3 -1 -1 5.47 0.37
3 -1 -1 5.55 0.29
-3 1 1 5.89 0.29
-3 1 1 5.08 0.32
2 -1 -1 34.81 1.74
2 -1 -1 36.64 1.62
-2 1 1 34.59 1.74
-2 1 1 37.33 1.62
1 -1 -1 21.52 1.15
1 -1 -1 22.53 1
1 -1 -1 20.6 1.06
-1 1 1 23.57 1
-1 1 1 21.82 1.15
0 -1 -1 30.47 1.42
0 -1 -1 32.17 1.64
0 1 1 31.65 1.64
-1 -1 -1 18.44 0.89
-1 -1 -1 18.59 0.98
1 1 1 18.19 0.99
1 1 1 17.97 0.89
-2 -1 -1 3.57 0.27
-2 -1 -1 3.4 0.21
2 1 1 3.49 0.23
2 1 1 3.38 0.29
-3 -1 -1 5.18 0.31
-3 -1 -1 5.36 0.37
3 1 1 4.88 0.39
3 1 1 5.02 0.33
4 1 1 68.77 3.32
4 1 1 67.73 3.63
5 1 1 29.31 1.69
5 1 1 30.32 1.52
6 1 1 -0.02 0.25
6 1 1 0.04 0.24
7 1 1 0.01 0.32
7 1 1 -0.17 0.29
8 1 1 0.44 0.42
8 1 1 0.31 0.37
9 1 1 2.08 0.5
9 1 1 2.63 0.56
10 1 1 9.04 1.05
10 1 1 8.4 0.93
11 1 1 29.79 1.94
11 1 1 25.65 1.71
12 -2 -1 0.72 0.68
11 -2 -1 0 0.55
-11 2 1 -0.78 0.37
10 -2 -1 0.79 0.49
-10 2 1 -1.71 0.46
9 -2 -1 17.11 1.08
8 -2 -1 1.48 0.37
7 -2 -1 3.59 0.27
7 -2 -1 4.65 0.47
6 -2 -1 0.44 0.22
6 -2 -1 0.5 0.15
6 -2 -1 0.06 0.19
-6 2 1 0.36 0.12
5 -2 -1 0.25 0.12
5 -2 -1 0.09 0.15
5 -2 -1 0.23 0.17
-5 2 1 0.14 0.1
-5 2 1 0 0.13
4 -2 -1 28.25 1.38
4 -2 -1 28.07 1.27
-4 2 1 27.33 1.27
-4 2 1 26.93 1.5
3 -2 -1 43.94 1.96
3 -2 -1 43.19 2.11
-3 2 1 43.45 2.11
-3 2 1 44.31 1.97
-3 2 1 42.52 2.28
-3 2 1 42.1 2.28
2 -2 -1 6.95 0.34
2 -2 -1 6.54 0.36
-2 2 1 6.71 0.36
-2 2 1 6.98 0.34
1 -2 -1 2.22 0.14
-1 2 1 2.1 0.14
0 -2 -1 4.95 0.29
0 -2 -1 4.73 0.24
0 2 1 4.71 0.3
-1 -2 -1 0.39 0.06
-1 -2 -1 0.41 0.1
1 2 1 0.43 0.12
-2 -2 -1 40.52 2.17
-2 -2 -1 40.89 1.97
2 2 1 40.73 2.18
2 2 1 40.7 1.98
-3 -2 -1 116.35 5.75
-3 -2 -1 123.06 6.29
3 2 1 120.98 5.76
3 2 1 117.79 6.27
4 2 1 78.29 3.79
4 2 1 77.75 4.15
5 2 1 4.36 0.5
5 2 1 4.18 0.4
6 2 1 4.92 0.47
6 2 1 4.14 0.58
7 2 1 12.03 0.95
7 2 1 11.95 0.81
8 2 1 0 0.38
8 2 1 0.26 0.41
9 2 1 13.86 1.05
9 2 1 15.31 1.23
10 2 1 17.94 1.39
10 2 1 14.87 1.19
11 2 1 0.01 0.63
11 2 1 -1.13 0.61
12 -3 -1 0.69 0.64
-11 3 1 9.5 0.86
10 -3 -1 5.29 0.74
9 -3 -1 1.52 0.43
-9 3 1 0.04 0.32
8 -3 -1 0.68 0.15
8 -3 -1 1.15 0.35
7 -3 -1 2.9 0.28
7 -3 -1 2.84 0.44
6 -3 -1 1.54 0.23
6 -3 -1 2.04 0.34
5 -3 -1 149.92 6.68
5 -3 -1 151.45 7.16
-5 3 1 151.3 7.75
-5 3 1 142.04 7.75
-5 3 1 147.73 6.69
4 -3 -1 55.63 2.7
4 -3 -1 55.97 2.51
-4 3 1 55.15 2.92
-4 3 1 52.91 2.92
-4 3 1 57.13 2.52
3 -3 -1 0.69 0.1
3 -3 -1 0.56 0.11
-3 3 1 0.59 0.1
-3 3 1 0.54 0.1
2 -3 -1 9.37 0.48
2 -3 -1 9.23 0.46
-2 3 1 9.66 0.46
1 -3 -1 70.22 3.22
-1 3 1 72.52 3.22
0 -3 -1 0.06 0.08
0 -3 -1 0.09 0.06
0 3 1 0.04 0.09
-1 -3 -1 75.49 3.91
1 3 1 74.79 3.36
1 3 1 73.59 3.92
-2 -3 -1 66.9 3.44
-2 -3 -1 64.24 3.14
2 3 1 65.38 3.45
2 3 1 64.41 3.15
-3 -3 -1 5.51 0.34
3 3 1 5.81 0.38
3 3 1 5.91 0.46
4 3 1 12.66 0.83
4 3 1 12.25 0.7
5 3 1 2.74 0.47
5 3 1 2.25 0.37
6 3 1 10.71 0.86
6 3 1 11.07 0.72
7 3 1 2.84 0.43
7 3 1 3.5 0.66
8 3 1 43.65 2.3
8 3 1 44.34 2.58
9 3 1 -0.07 0.48
9 3 1 0 0.5
10 3 1 8.22 0.94
10 3 1 7.91 1.09
11 3 1 7.95 1.22
11 3 1 7.92 1.06
12 -4 -1 16.43 1.33
11 -4 -1 -0.59 0.52
10 -4 -1 1.5 0.5
-10 4 1 0.51 0.29
9 -4 -1 4.31 0.61
9 -4 -1 2.37 0.28
8 -4 -1 6.09 0.37
-8 4 1 4.54 0.51
7 -4 -1 4.66 0.48
7 -4 -1 5.11 0.36
-7 4 1 4.48 0.47
6 -4 -1 73.58 3.29
6 -4 -1 72.38 3.54
-6 4 1 71.23 3.83
5 -4 -1 6.03 0.43
5 -4 -1 6.27 0.37
4 -4 -1 0.52 0.12
4 -4 -1 0.44 0.14
3 -4 -1 0.1 0.09
3 -4 -1 0.03 0.09
-3 4 1 0.09 0.09
2 -4 -1 40.94 1.98
2 -4 -1 39.4 1.87
-2 4 1 42.9 1.98
-2 4 1 40.58 1.87
1 -4 -1 0.16 0.08
-1 4 1 0.21 0.08
0 -4 -1 248.24 11.43
0 -4 -1 261.27 13.24
0 4 1 255.72 13.25
-1 -4 -1 9.12 0.54
-1 -4 -1 8.56 0.43
1 4 1 8.91 0.57
1 4 1 9.23 0.44
-2 -4 -1 1.36 0.14
2 4 1 1.6 0.19
2 4 1 1.52 0.3
-3 -4 -1 9.15 0.5
3 4 1 9.63 0.65
3 4 1 9.14 0.53
4 4 1 79.79 3.84
4 4 1 78.04 4.22
5 4 1 70.27 3.46
5 4 1 70.88 3.82
6 4 1 7.02 0.74
6 4 1 7.33 0.6
7 4 1 -0.42 0.39
7 4 1 0.04 0.36
8 4 1 10.69 0.87
8 4 1 11.43 1.07
9 4 1 0.4 0.55
9 4 1 0.57 0.49
10 4 1 1.62 0.59
10 4 1 1.36 0.66
12 -5 -1 -0.15 0.63
11 -5 -1 1.81 0.58
10 -5 -1 6.42 0.79
9 -5 -1 1.03 0.19
9 -5 -1 2.27 0.45
-9 5 1 -0.28 0.26
8 -5 -1 21.1 1.06
8 -5 -1 21.97 1.22
7 -5 -1 15.09 0.79
7 -5 -1 15.95 0.91
6 -5 -1 0.37 0.16
6 -5 -1 0.19 0.21
5 -5 -1 5.07 0.39
5 -5 -1 5.19 0.34
4 -5 -1 9.17 0.47
4 -5 -1 8.32 0.5
3 -5 -1 99.25 4.5
3 -5 -1 97.61 4.8
-3 5 1 102.1 4.8
2 -5 -1 2.17 0.19
-2 5 1 2.27 0.2
1 -5 -1 10.02 0.56
1 -5 -1 9.77 0.49
0 -5 -1 25.64 1.37
0 -5 -1 24.9 1.17
0 5 1 25.17 1.38
-1 -5 -1 0.25 0.12
-1 -5 -1 0.32 0.08
1 5 1 0.28 0.16
-2 -5 -1 9.67 0.52
2 5 1 10.22 0.67
2 5 1 9.89 0.54
-3 -5 -1 67.52 3.34
3 5 1 69.68 3.69
3 5 1 69.43 3.35
4 5 1 1.71 0.32
4 5 1 1.74 0.33
5 5 1 1.49 0.28
5 5 1 0.8 0.34
6 5 1 0.29 0.29
6 5 1 0.34 0.36
7 5 1 0.37 0.36
7 5 1 1.19 0.46
8 5 1 2.63 0.6
8 5 1 2.51 0.49
9 5 1 11.87 1.04
9 5 1 12.34 1.21
10 5 1 1.86 0.7
10 5 1 2.57 0.64
12 -6 -1 1.62 0.65
11 -6 -1 2.18 0.61
10 -6 -1 1.34 0.52
10 -6 -1 0.56 0.2
9 -6 -1 2.95 0.47
9 -6 -1 1.88 0.3
8 -6 -1 9.05 0.69
8 -6 -1 8.48 0.55
7 -6 -1 0.7 0.29
7 -6 -1 0.75 0.21
6 -6 -1 0.37 0.18
6 -6 -1 0.07 0.22
5 -6 -1 10.18 0.54
5 -6 -1 9.61 0.59
4 -6 -1 2.22 0.24
4 -6 -1 2.06 0.25
3 -6 -1 0.35 0.12
3 -6 -1 0.2 0.11
-3 6 1 0.26 0.11
2 -6 -1 20.81 0.99
1 -6 -1 16.11 0.87
1 -6 -1 15.24 0.76
0 -6 -1 11.81 0.57
0 -6 -1 12.21 0.68
0 6 1 11.99 0.71
0 6 1 10.61 0.58
-1 -6 -1 3.88 0.25
1 6 1 3.93 0.4
2 6 1 59.31 3.19
3 6 1 2.41 0.44
3 6 1 2.05 0.29
4 6 1 25.1 1.31
4 6 1 25.38 1.52
5 6 1 38.32 2.24
5 6 1 39.31 1.98
6 6 1 0.65 0.32
6 6 1 0.58 0.4
7 6 1 1.15 0.5
7 6 1 1.25 0.4
8 6 1 2.25 0.49
8 6 1 0.87 0.54
9 6 1 1.31 0.53
9 6 1 0.79 0.61
10 6 1 4.54 0.73
10 6 1 3.39 0.79
11 -7 -1 0.93 0.59
10 -7 -1 3.85 0.58
10 -7 -1 1.88 0.27
9 -7 -1 11.81 0.89
9 -7 -1 9.84 0.64
8 -7 -1 0.82 0.25
8 -7 -1 0.96 0.36
7 -7 -1 0.65 0.22
7 -7 -1 0.74 0.29
6 -7 -1 28.22 1.48
6 -7 -1 29.26 1.38
5 -7 -1 23.87 1.16
5 -7 -1 23.92 1.23
4 -7 -1 7.06 0.44
4 -7 -1 6.98 0.43
3 -7 -1 42.61 1.99
3 -7 -1 43.5 2.1
-3 7 1 43 2.11
2 -7 -1 16.26 0.8
1 -7 -1 17.45 0.84
1 -7 -1 17.67 0.96
-1 7 1 16.76 0.98
0 -7 -1 21.76 1.06
0 -7 -1 22.62 1.25
0 7 1 23.14 1.27
-1 -7 -1 3.92 0.26
1 7 1 3.85 0.43
2 7 1 7.23 0.59
3 7 1 43.47 2.19
3 7 1 45.39 2.47
4 7 1 0.11 0.22
4 7 1 0.18 0.32
5 7 1 41.55 2.36
5 7 1 39.78 2.06
6 7 1 2.63 0.48
6 7 1 2.37 0.52
7 7 1 0.32 0.48
7 7 1 -0.07 0.37
8 7 1 -0.12 0.43
8 7 1 0.15 0.53
9 7 1 9.32 1.15
9 7 1 8.57 0.95
11 -8 -1 19.09 1.37
10 -8 -1 -0.41 0.5
10 -8 -1 -0.14 0.21
9 -8 -1 21.31 1.24
9 -8 -1 19.28 1.07
8 -8 -1 6.12 0.49
8 -8 -1 5.75 0.63
7 -8 -1 1.03 0.25
7 -8 -1 0.87 0.31
6 -8 -1 9.23 0.55
6 -8 -1 8.45 0.59
5 -8 -1 53.16 2.45
5 -8 -1 52.84 2.61
4 -8 -1 1.09 0.19
4 -8 -1 1.54 0.25
3 -8 -1 20.87 1.02
2 -8 -1 0.27 0.14
1 -8 -1 0.69 0.14
1 -8 -1 0.37 0.13
-1 8 1 0.34 0.18
0 -8 -1 2.27 0.23
0 8 1 1.89 0.36
-1 -8 -1 66.35 3.09
1 8 1 69.97 3.65
-2 -8 -1 0.13 0.11
2 8 1 0.07 0.26
3 8 1 30.2 1.56
3 8 1 22.61 1.3
4 8 1 11.13 0.86
4 8 1 8.78 0.58
5 8 1 0.38 0.2
5 8 1 -0.14 0.38
6 8 1 4.1 0.78
6 8 1 3.16 0.42
7 8 1 13.37 1.14
7 8 1 10.26 0.77
8 8 1 0.78 0.36
8 8 1 2.02 0.62
9 8 1 3.48 0.77
12 -9 -1 4.6 0.8
10 -9 -1 0.39 0.32
10 -9 -1 0.48 0.53
9 -9 -1 0.85 0.32
9 -9 -1 1.4 0.44
8 -9 -1 3.67 0.46
8 -9 -1 4.64 0.6
7 -9 -1 10.3 0.74
7 -9 -1 10.46 0.65
6 -9 -1 22.37 1.2
6 -9 -1 22.32 1.13
5 -9 -1 14.81 0.77
5 -9 -1 13.4 0.79
4 -9 -1 26.67 1.34
4 -9 -1 26.64 1.29
3 -9 -1 22.76 1.11
2 -9 -1 0.21 0.15
1 -9 -1 2.72 0.28
-1 9 1 2.66 0.37
0 -9 -1 42.28 1.99
0 9 1 43.87 2.35
-1 -9 -1 5.66 0.37
1 9 1 6.44 0.57
-2 -9 -1 10.35 0.55
2 9 1 10.8 0.82
3 9 1 12.83 0.97
4 9 1 3.54 0.68
4 9 1 2.68 0.3
5 9 1 0.16 0.18
5 9 1 0.13 0.43
6 9 1 0.23 0.48
6 9 1 0.42 0.22
7 9 1 4.89 0.51
7 9 1 6.39 0.94
8 9 1 15.24 1.37
11 -10 -1 0.87 0.62
11 -10 -1 0.3 0.3
10 -10 -1 2.2 0.41
9 -10 -1 6.38 0.76
9 -10 -1 4.81 0.54
8 -10 -1 15.57 1
8 -10 -1 14.79 0.87
7 -10 -1 4.71 0.48
7 -10 -1 4.77 0.55
6 -10 -1 37.36 1.9
6 -10 -1 37.73 1.8
5 -10 -1 1.93 0.27
5 -10 -1 2.11 0.36
4 -10 -1 1.34 0.23
3 -10 -1 0.44 0.2
2 -10 -1 8.5 0.51
1 -10 -1 0.84 0.18
-1 10 1 1.02 0.23
0 -10 -1 46.04 2.15
0 10 1 46.7 2.53
-1 -10 -1 21.63 1.05
1 10 1 22 1.33
-2 -10 -1 12.02 0.62
2 10 1 11.56 0.91
3 10 1 1.55 0.42
4 10 1 0.33 0.42
5 10 1 0.16 0.46
6 10 1 6.24 0.95
7 10 1 -0.16 0.55
8 10 1 -0.26 0.6
11 -11 -1 0.71 0.42
11 -11 -1 2.29 0.66
10 -11 -1 0.6 0.39
10 -11 -1 0.96 0.59
9 -11 -1 0.55 0.34
9 -11 -1 0.8 0.47
8 -11 -1 19.36 1.13
8 -11 -1 16.65 1.01
7 -11 -1 5.59 0.62
7 -11 -1 5.48 0.52
6 -11 -1 -0.03 0.26
6 -11 -1 0.37 0.27
5 -11 -1 14.94 0.83
5 -11 -1 15.05 0.85
4 -11 -1 -0.03 0.21
3 -11 -1 8.21 0.54
2 -11 -1 16.3 0.86
1 -11 -1 0.44 0.18
-1 11 1 0.42 0.19
0 -11 -1 0.19 0.17
0 11 1 0.31 0.27
-1 -11 -1 5.98 0.41
1 11 1 5.99 0.65
-2 -11 -1 14.51 0.75
2 11 1 14.81 1.07
3 11 1 0.83 0.43
4 11 1 14.02 1.16
5 11 1 2.36 0.58
6 11 1 2.18 0.62
7 11 1 1.41 0.65
11 -12 -1 0.66 0.41
10 -12 -1 0.7 0.39
9 -12 -1 0.37 0.39
9 -12 -1 0.5 0.49
8 -12 -1 4.6 0.68
8 -12 -1 3.11 0.43
7 -12 -1 3.73 0.6
7 -12 -1 3.72 0.51
6 -12 -1 5.75 0.55
6 -12 -1 5.59 0.53
5 -12 -1 3.35 0.44
5 -12 -1 3.41 0.42
4 -12 -1 3.52 0.42
3 -12 -1 4.71 0.45
2 -12 -1 0.4 0.22
1 -12 -1 2.93 0.36
-1 12 1 1.97 0.34
0 -12 -1 2.35 0.33
0 12 1 1.64 0.32
-1 -12 -1 0.17 0.18
1 12 1 0.69 0.35
-2 -12 -1 3.45 0.35
2 12 1 4.08 0.7
3 12 1 11.39 1.03
4 12 1 15.1 1.24
5 12 1 0.59 0.53
6 12 1 -0.64 0.53
10 -13 -1 -0.08 0.42
9 -13 -1 2.5 0.55
9 -13 -1 2.22 0.45
8 -13 -1 3.77 0.67
8 -13 -1 3.36 0.49
7 -13 -1 7.25 0.63
7 -13 -1 6.75 0.69
6 -13 -1 1.96 0.35
6 -13 -1 2.51 0.37
5 -13 -1 0.49 0.29
4 -13 -1 2.06 0.33
3 -13 -1 7.84 0.58
2 -13 -1 0.13 0.23
1 -13 -1 0.6 0.23
-1 13 1 0.91 0.22
0 -13 -1 2.81 0.37
0 13 1 1.72 0.32
-1 -13 -1 7.09 0.49
1 13 1 6.47 0.74
-2 -13 -1 0.02 0.18
2 13 1 -0.62 0.39
3 13 1 8.63 0.95
4 13 1 1.19 0.54
5 13 1 -0.64 0.51
6 13 1 0.44 0.59
10 -14 -1 0.31 0.44
9 -14 -1 7.03 0.79
9 -14 -1 7.51 0.9
8 -14 -1 1.28 0.44
7 -14 -1 8.28 0.7
6 -14 -1 1.31 0.36
5 -14 -1 6.88 0.61
4 -14 -1 6.92 0.59
3 -14 -1 1.7 0.31
2 -14 -1 0.49 0.27
1 -14 -1 -0.1 0.23
0 -14 -1 0.95 0.23
0 14 1 0.12 0.25
-1 -14 -1 10.01 0.6
1 14 1 7.88 0.79
-2 -14 -1 5.26 0.47
2 14 1 5.87 0.83
3 14 1 0.07 0.48
4 14 1 0.08 0.53
5 14 1 1.03 0.6
9 -15 -1 0.46 0.48
8 -15 -1 0.01 0.39
7 -15 -1 5.04 0.71
6 -15 -1 9.11 0.73
5 -15 -1 1.75 0.37
4 -15 -1 2.38 0.37
3 -15 -1 1.08 0.3
2 -15 -1 0.26 0.26
1 -15 -1 4.8 0.48
0 -15 -1 12.38 0.74
-1 -15 -1 0.91 0.27
1 15 1 0.34 0.33
2 15 1 1.24 0.45
3 15 1 5.93 0.94
4 15 1 0.48 0.58
8 -16 -1 4.51 0.69
7 -16 -1 0.26 0.44
6 -16 -1 0.06 0.37
5 -16 -1 2.76 0.43
4 -16 -1 0.21 0.33
3 -16 -1 3.94 0.52
2 -16 -1 0.47 0.29
1 -16 -1 0.79 0.29
0 -16 -1 0.98 0.3
3 16 1 7.32 1.02
6 -17 -1 -0.11 0.4
5 -17 -1 0.65 0.41
4 -17 -1 1.82 0.4
3 -17 -1 5.78 0.6
2 -17 -1 1.01 0.34
1 -17 -1 0.42 0.31
0 -17 -1 0.9 0.31
5 -18 -1 1.73 0.46
4 -18 -1 5.92 0.68
3 -18 -1 13.07 0.89
2 -18 -1 1.53 0.38
1 -18 -1 0.53 0.35
2 -19 2 0.96 0.4
3 -19 2 -0.54 0.36
4 -19 2 -0.11 0.39
0 -18 2 2.3 0.39
1 -18 2 3.18 0.55
2 -18 2 1.48 0.39
3 -18 2 0.36 0.36
4 -18 2 2.88 0.46
5 -18 2 1.54 0.47
6 -18 2 0.43 0.45
-1 -17 2 3.01 0.49
0 -17 2 0.33 0.3
1 -17 2 6.5 0.61
2 -17 2 8.24 0.68
3 -17 2 1.27 0.37
4 -17 2 1.61 0.4
5 -17 2 1.23 0.42
6 -17 2 -0.06 0.4
7 -17 2 0.47 0.43
8 -17 2 1.8 0.51
3 16 -2 -0.11 0.44
1 16 -2 0.1 0.27
-1 -16 2 0.82 0.27
0 -16 2 1.23 0.3
1 -16 2 2.1 0.33
2 -16 2 1.03 0.32
3 -16 2 0.33 0.31
4 -16 2 1.47 0.37
5 -16 2 1.71 0.4
6 -16 2 2.9 0.45
7 -16 2 5.98 0.69
8 -16 2 0.28 0.41
9 -16 2 1.33 0.48
5 15 -2 2.62 0.65
4 15 -2 7.01 0.97
3 15 -2 2.69 0.56
2 15 -2 0.02 0.3
-2 -15 2 0 0.22
1 15 -2 1.07 0.3
-1 -15 2 2.76 0.4
0 -15 2 5.5 0.5
1 -15 2 1.5 0.29
2 -15 2 16.04 0.92
3 -15 2 4.87 0.54
4 -15 2 1.79 0.36
5 -15 2 0.09 0.32
5 -15 2 0.16 0.29
6 -15 2 0.11 0.34
6 -15 2 0.65 0.34
7 -15 2 3.91 0.64
7 -15 2 3.39 0.47
8 -15 2 9.41 0.87
8 -15 2 8.6 0.77
9 -15 2 2.96 0.49
9 -15 2 3.43 0.59
10 -15 2 0.25 0.49
10 -15 2 0.21 0.6
5 14 -2 10.59 1.13
4 14 -2 1.67 0.51
3 14 -2 1.24 0.44
2 14 -2 0.4 0.37
-2 -14 2 0.51 0.21
1 14 -2 0.1 0.24
-1 -14 2 0.23 0.2
0 14 -2 0.56 0.21
0 -14 2 0.96 0.24
1 -14 2 6.06 0.5
2 -14 2 6.29 0.54
3 -14 2 0.33 0.26
4 -14 2 1.66 0.33
4 -14 2 1.36 0.28
5 -14 2 6.1 0.57
5 -14 2 5.87 0.55
6 -14 2 0.66 0.33
6 -14 2 0.72 0.33
7 -14 2 17.76 1.08
7 -14 2 15.8 1
8 -14 2 3.72 0.7
8 -14 2 4.3 0.6
9 -14 2 4.85 0.66
10 -14 2 3.59 0.68
6 13 -2 0.31 0.53
5 13 -2 0.41 0.47
4 13 -2 0.21 0.43
3 13 -2 6.82 0.8
-3 -13 2 6.12 0.45
2 13 -2 0.06 0.36
-2 -13 2 0.3 0.18
1 13 -2 7.15 0.67
-1 -13 2 7.62 0.51
0 13 -2 0.43 0.21
0 -13 2 0.85 0.22
1 -13 2 1.42 0.25
2 -13 2 14.79 0.83
3 -13 2 5.28 0.49
4 -13 2 2.72 0.44
4 -13 2 2.94 0.4
5 -13 2 8.44 0.64
5 -13 2 9.55 0.64
6 -13 2 2.09 0.35
6 -13 2 1.78 0.34
7 -13 2 0.81 0.35
7 -13 2 1.26 0.38
8 -13 2 0.01 0.42
8 -13 2 -0.26 0.34
9 -13 2 9.05 0.76
9 -13 2 10.48 0.96
10 -13 2 2.78 0.47
11 -13 2 6.39 0.79
11 -13 2 9.1 1.09
7 12 -2 0.05 0.56
6 12 -2 8.71 1.05
5 12 -2 3.6 0.61
4 12 -2 2.27 0.5
3 12 -2 1.79 0.29
3 12 -2 2.4 0.46
-3 -12 2 1.95 0.3
2 12 -2 16.41 1.13
-2 -12 2 16.23 0.84
1 12 -2 2.91 0.4
-1 -12 2 2.96 0.32
0 12 -2 0.49 0.2
0 -12 2 0.83 0.19
1 -12 2 6.09 0.46
2 -12 2 49.03 2.3
3 -12 2 1.8 0.31
3 -12 2 2.82 0.39
4 -12 2 0.46 0.22
4 -12 2 0.63 0.25
5 -12 2 5.99 0.51
5 -12 2 5.54 0.5
6 -12 2 0.81 0.3
6 -12 2 0.87 0.3
7 -12 2 4.57 0.57
7 -12 2 4.21 0.51
8 -12 2 4.26 0.55
8 -12 2 4.77 0.67
9 -12 2 1.1 0.5
9 -12 2 0.76 0.35
10 -12 2 0.35 0.37
10 -12 2 0.91 0.56
11 -12 2 1.24 0.64
11 -12 2 0.52 0.39
7 11 -2 0.41 0.26
7 11 -2 0.12 0.53
6 11 -2 3.4 0.59
6 11 -2 1.89 0.31
5 11 -2 1.18 0.47
5 11 -2 0.9 0.23
4 11 -2 4.04 0.69
4 11 -2 2.71 0.34
3 11 -2 6.56 0.52
3 11 -2 9.45 0.79
-3 -11 2 8.68 0.47
2 11 -2 20.97 1.29
-2 -11 2 19.99 1
1 11 -2 0.67 0.28
-1 -11 2 0.66 0.17
0 11 -2 15.39 0.96
0 -11 2 15.25 0.8
1 -11 2 3.98 0.36
2 -11 2 0.06 0.16
2 -11 2 0.32 0.19
3 -11 2 1.7 0.28
3 -11 2 1.57 0.25
4 -11 2 0.91 0.23
4 -11 2 0.93 0.22
5 -11 2 4.09 0.45
5 -11 2 4.94 0.45
6 -11 2 7.75 0.59
6 -11 2 7.17 0.56
7 -11 2 10.95 0.71
7 -11 2 11.23 0.79
8 -11 2 1.01 0.41
8 -11 2 1.53 0.35
9 -11 2 0.35 0.32
9 -11 2 0.81 0.48
10 -11 2 5.19 0.64
10 -11 2 5.46 0.85
11 -11 2 1.71 0.63
8 10 -2 1.46 0.61
7 10 -2 6.72 0.63
7 10 -2 8.94 1.03
6 10 -2 0.86 0.47
6 10 -2 1.13 0.28
5 10 -2 2.06 0.36
5 10 -2 1.98 0.5
4 10 -2 8.4 0.78
4 10 -2 6.1 0.49
3 10 -2 0.22 0.16
3 10 -2 0.27 0.31
-3 -10 2 0.31 0.13
2 10 -2 0.25 0.16
2 10 -2 0.01 0.26
-2 -10 2 0.35 0.13
1 10 -2 6.58 0.59
-1 -10 2 6.91 0.42
-1 -10 2 7.08 0.5
0 10 -2 5.01 0.47
0 -10 2 4.95 0.35
1 -10 2 9.72 0.55
2 -10 2 27.16 1.38
2 -10 2 28.15 1.33
3 -10 2 0.93 0.17
3 -10 2 0.74 0.19
4 -10 2 5.81 0.43
4 -10 2 5.54 0.44
5 -10 2 12.36 0.7
5 -10 2 12.29 0.74
6 -10 2 0.32 0.26
6 -10 2 0.49 0.24
7 -10 2 0.98 0.33
7 -10 2 0.33 0.27
8 -10 2 20.79 1.24
8 -10 2 21.67 1.14
9 -10 2 4.98 0.53
9 -10 2 4.45 0.73
10 -10 2 10.62 0.73
10 -10 2 14.35 1.04
11 -10 2 2.84 0.65
12 -10 2 1.01 0.7
9 9 -2 1.32 0.55
8 9 -2 0.99 0.46
8 9 -2 1.23 0.59
7 9 -2 3.95 0.64
7 9 -2 2.31 0.58
6 9 -2 20.96 1.22
6 9 -2 20.82 1.46
5 9 -2 6.34 0.78
5 9 -2 6.35 0.58
4 9 -2 6.62 0.72
4 9 -2 6.64 0.55
3 9 -2 0.14 0.2
3 9 -2 0.07 0.28
2 9 -2 0.11 0.23
2 9 -2 0.12 0.18
-2 -9 2 -0.01 0.11
1 9 -2 5.7 0.51
-1 -9 2 5.81 0.36
0 9 -2 10.24 0.69
0 -9 2 10.51 0.56
0 -9 2 10.84 0.59
0 -9 2 10.93 0.61
1 -9 2 0.22 0.13
1 -9 2 0.16 0.13
1 -9 2 0.09 0.12
2 -9 2 36.21 1.81
2 -9 2 37.56 1.73
3 -9 2 2.72 0.27
3 -9 2 2.53 0.29
4 -9 2 7.95 0.49
4 -9 2 7.38 0.49
5 -9 2 6.51 0.49
5 -9 2 6.64 0.46
6 -9 2 29.68 1.54
6 -9 2 29.6 1.44
7 -9 2 7.25 0.62
7 -9 2 7.9 0.55
8 -9 2 13.51 0.89
8 -9 2 12.79 0.77
9 -9 2 4.96 0.53
9 -9 2 6.01 0.72
10 -9 2 5.39 0.78
10 -9 2 3.08 0.4
11 -9 2 0.08 0.57
9 8 -2 0.39 0.61
9 8 -2 1.46 0.53
8 8 -2 10.54 0.94
8 8 -2 12.45 1.15
7 8 -2 4.32 0.84
7 8 -2 6 0.67
6 8 -2 0.82 0.42
6 8 -2 1.74 0.36
5 8 -2 25.61 1.38
5 8 -2 24.59 1.58
4 8 -2 1.21 0.26
4 8 -2 0.45 0.32
3 8 -2 2.23 0.34
3 8 -2 2.24 0.35
-3 -8 2 2.15 0.21
2 8 -2 9.82 0.59
2 8 -2 9.58 0.7
-2 -8 2 9.62 0.51
1 8 -2 19.6 1.17
1 8 -2 20.74 1.05
-1 -8 2 19.98 1.02
-1 -8 2 19.91 0.96
0 8 -2 9.52 0.64
0 -8 2 10.02 0.62
0 -8 2 9.99 0.53
0 -8 2 10.24 0.55
0 -8 2 10.05 0.56
1 -8 2 109.84 4.86
1 -8 2 102.41 5.19
1 -8 2 109.79 5.17
-2 8 -2 2.7 0.26
2 -8 2 2.66 0.25
2 -8 2 2.47 0.25
3 -8 2 10.72 0.58
3 -8 2 10.01 0.57
4 -8 2 2.55 0.3
4 -8 2 2.44 0.29
5 -8 2 10.09 0.56
5 -8 2 9.25 0.59
6 -8 2 7.91 0.57
6 -8 2 8.55 0.52
7 -8 2 72.93 3.67
7 -8 2 75.51 3.41
8 -8 2 6.57 0.64
8 -8 2 7.83 0.53
9 -8 2 0.26 0.42
9 -8 2 0.65 0.22
10 -8 2 0.98 0.5
10 -8 2 0.02 0.19
11 -8 2 6.26 0.89
12 -8 2 -0.19 0.64
10 7 -2 0.44 0.58
9 7 -2 16.38 1.43
9 7 -2 16.27 1.21
8 7 -2 -0.07 0.43
8 7 -2 0.66 0.51
7 7 -2 26.66 1.73
7 7 -2 26.51 1.5
6 7 -2 5.46 0.76
6 7 -2 6.01 0.59
5 7 -2 15.99 0.94
5 7 -2 16.21 1.12
4 7 -2 6.88 0.65
4 7 -2 6.09 0.51
3 7 -2 36.79 1.84
3 7 -2 36.18 2.04
2 7 -2 4.56 0.45
2 7 -2 4.49 0.35
-2 -7 2 4.36 0.29
1 7 -2 154.34 8.16
1 7 -2 161.39 7.52
-1 -7 2 153.58 7.5
-1 -7 2 154.7 7.02
0 7 -2 25.09 1.43
0 -7 2 26.32 1.3
0 -7 2 26.6 1.43
0 -7 2 26.19 1.31
0 -7 2 26.49 1.23
1 -7 2 9.6 0.53
1 -7 2 9.94 0.51
-2 7 -2 19.54 1.13
2 -7 2 23.7 1.12
2 -7 2 23.75 1.07
3 -7 2 7.03 0.42
3 -7 2 6.96 0.41
4 -7 2 35.04 1.64
4 -7 2 35.22 1.75
5 -7 2 88.18 4.02
5 -7 2 88.69 4.3
6 -7 2 10.34 0.67
6 -7 2 11.06 0.6
7 -7 2 28.87 1.55
7 -7 2 29.85 1.42
8 -7 2 2.85 0.36
8 -7 2 3.2 0.53
9 -7 2 0.79 0.41
9 -7 2 0.22 0.18
10 -7 2 7.81 0.82
12 -7 2 0.76 0.64
10 6 -2 -0.62 0.59
10 6 -2 0.07 0.58
9 6 -2 13.54 1.13
9 6 -2 16.06 1.33
8 6 -2 20.14 1.47
8 6 -2 20.06 1.27
7 6 -2 3.85 0.6
7 6 -2 3.92 0.72
6 6 -2 5.17 0.55
6 6 -2 5.14 0.69
5 6 -2 8.11 0.6
5 6 -2 8.34 0.75
4 6 -2 2.33 0.35
4 6 -2 2.48 0.36
3 6 -2 16.03 0.85
3 6 -2 15.24 0.97
2 6 -2 27.78 1.37
2 6 -2 27.28 1.52
-2 -6 2 26.48 1.35
1 6 -2 45.1 2.17
1 6 -2 42.57 2.37
-1 -6 2 43.95 2.36
-1 -6 2 45.05 2.16
0 6 -2 123.94 6.71
0 -6 2 129.6 6.71
0 -6 2 125.47 6.19
0 -6 2 130.11 5.79
0 -6 2 133.38 6.19
-1 6 -2 1.93 0.22
1 -6 2 2.01 0.19
1 -6 2 2 0.2
2 -6 2 0.29 0.12
2 -6 2 0.66 0.12
-3 6 -2 17 0.89
3 -6 2 17.66 0.84
3 -6 2 17.4 0.89
4 -6 2 23.36 1.12
4 -6 2 23.55 1.19
5 -6 2 6.21 0.39
5 -6 2 5.98 0.43
6 -6 2 11.95 0.73
6 -6 2 12.49 0.65
7 -6 2 9.14 0.54
7 -6 2 9.11 0.65
8 -6 2 2.79 0.3
8 -6 2 4.56 0.54
9 -6 2 0.93 0.42
9 -6 2 0.24 0.16
10 -6 2 3.98 0.71
11 -6 2 3.11 0.61
12 -6 2 0.52 0.63
10 5 -2 11.89 1.25
10 5 -2 11.57 1.13
9 5 -2 0.55 0.54
9 5 -2 1.23 0.51
8 5 -2 13.65 1.14
8 5 -2 13.04 0.97
7 5 -2 13.11 0.87
7 5 -2 11.68 1.01
6 5 -2 3.7 0.48
6 5 -2 3.21 0.6
5 5 -2 2.28 0.31
5 5 -2 1.73 0.34
4 5 -2 4.46 0.39
4 5 -2 4.1 0.48
3 5 -2 1.96 0.34
3 5 -2 1.93 0.28
2 5 -2 8.64 0.57
2 5 -2 8.28 0.48
-2 -5 2 8.21 0.46
1 5 -2 83.66 4.01
1 5 -2 80.48 4.35
-1 -5 2 83.78 4
-1 -5 2 83.2 4.35
0 5 -2 0.94 0.18
0 -5 2 0.97 0.15
0 -5 2 0.92 0.12
0 -5 2 0.96 0.14
1 -5 2 0.07 0.08
1 -5 2 -0.04 0.09
-2 5 -2 2.2 0.19
2 -5 2 2.37 0.2
2 -5 2 2.52 0.2
-3 5 -2 13.27 0.69
3 -5 2 12.67 0.65
3 -5 2 13.49 0.69
4 -5 2 0.22 0.12
4 -5 2 0.05 0.14
5 -5 2 10.36 0.62
5 -5 2 11.18 0.56
6 -5 2 3.12 0.29
6 -5 2 3.18 0.38
7 -5 2 2.64 0.29
7 -5 2 2.6 0.42
8 -5 2 0.69 0.33
8 -5 2 0.27 0.3
8 -5 2 0.52 0.15
9 -5 2 7.79 0.72
10 -5 2 18.82 1.23
11 -5 2 -0.03 0.54
12 -5 2 0.07 0.61
11 4 -2 -0.19 0.61
10 4 -2 0.82 0.57
10 4 -2 0.35 0.57
9 4 -2 9.01 1.03
9 4 -2 8.83 0.88
8 4 -2 12.35 1.06
8 4 -2 11.58 0.89
7 4 -2 1.24 0.36
7 4 -2 0.74 0.38
6 4 -2 29.69 1.56
6 4 -2 29.39 1.75
5 4 -2 2.02 0.35
5 4 -2 1.29 0.31
4 4 -2 13.53 0.76
4 4 -2 13.62 0.87
3 4 -2 43.93 2.11
3 4 -2 41.72 2.32
2 4 -2 10.49 0.67
2 4 -2 11.26 0.59
-2 -4 2 11.04 0.65
-2 -4 2 10.55 0.57
1 4 -2 0.96 0.13
1 4 -2 0.77 0.15
-1 -4 2 0.85 0.14
-1 -4 2 0.8 0.11
0 4 -2 14.95 0.84
0 -4 2 16.02 0.77
0 -4 2 14.96 0.83
1 -4 2 27.19 1.33
1 -4 2 27.15 1.26
-2 4 -2 198.41 9.41
2 -4 2 197.16 9.41
2 -4 2 193.05 8.81
-3 4 -2 1.6 0.18
3 -4 2 1.74 0.17
3 -4 2 1.73 0.2
4 -4 2 2.38 0.24
4 -4 2 2.56 0.22
5 -4 2 0.46 0.17
-6 4 -2 1.61 0.24
6 -4 2 1.42 0.22
6 -4 2 1.63 0.32
6 -4 2 1.38 0.25
7 -4 2 0.35 0.25
7 -4 2 0.64 0.28
7 -4 2 0.49 0.14
8 -4 2 51.01 2.62
8 -4 2 52.37 2.83
9 -4 2 6.02 0.7
9 -4 2 4.07 0.62
10 -4 2 -0.24 0.45
11 -4 2 1.29 0.56
12 -4 2 1.84 0.66
11 3 -2 0.21 0.65
10 3 -2 13.62 1.11
10 3 -2 14.6 1.3
9 3 -2 6.07 0.75
9 3 -2 5.95 0.9
8 3 -2 7.17 0.84
8 3 -2 6.43 0.67
7 3 -2 8.57 0.81
7 3 -2 9.32 0.69
6 3 -2 151.74 7.37
6 3 -2 152.43 8.03
5 3 -2 10.49 0.75
5 3 -2 10.69 0.65
4 3 -2 43.98 2.13
4 3 -2 42.03 2.34
3 3 -2 2.27 0.25
3 3 -2 1.82 0.3
-3 -3 2 2.29 0.2
2 3 -2 17.91 0.9
2 3 -2 17.75 1
-2 -3 2 17.58 0.89
-2 -3 2 17.64 0.99
1 3 -2 1.6 0.2
1 3 -2 1.86 0.16
-1 -3 2 1.8 0.19
-1 -3 2 1.66 0.14
0 3 -2 257.21 13.22
0 -3 2 248.32 13.22
0 -3 2 259.03 12.21
-1 3 -2 184.13 8.88
1 -3 2 186.56 8.88
-2 3 -2 8.54 0.46
2 -3 2 9.17 0.44
2 -3 2 8.67 0.46
-3 3 -2 5.93 0.35
3 -3 2 6.07 0.32
3 -3 2 5.86 0.36
4 -3 2 8.12 0.46
4 -3 2 7.96 0.41
4 -3 2 7.57 0.49
-5 3 -2 0.17 0.12
5 -3 2 0.07 0.15
5 -3 2 -0.09 0.1
5 -3 2 0.16 0.17
6 -3 2 36.37 1.68
6 -3 2 36.77 1.85
6 -3 2 36.84 2.01
7 -3 2 59.84 3.24
7 -3 2 60.34 2.99
8 -3 2 2.46 0.39
8 -3 2 2.01 0.38
9 -3 2 1.01 0.41
9 -3 2 0.78 0.4
10 -3 2 -0.05 0.46
10 -3 2 -0.17 0.45
11 -3 2 1.94 0.6
12 -3 2 0.6 0.62
11 2 -2 1.12 0.64
10 2 -2 4.72 0.8
9 2 -2 0.46 0.46
9 2 -2 0.26 0.45
8 2 -2 20.34 1.36
8 2 -2 19.52 1.19
7 2 -2 6.8 0.69
7 2 -2 5.41 0.58
6 2 -2 0.12 0.24
6 2 -2 -0.26 0.23
5 2 -2 18.11 0.98
5 2 -2 18.44 1.1
4 2 -2 -0.24 0.16
4 2 -2 -0.08 0.15
3 2 -2 11.92 0.64
3 2 -2 11.54 0.71
-3 -2 2 11.96 0.62
-3 -2 2 11.82 0.71
2 2 -2 109.28 5.29
2 2 -2 105.77 5.75
-2 -2 2 113.03 4.94
-2 -2 2 110.37 5.29
-2 -2 2 111.45 5.75
1 2 -2 276.24 14.43
1 2 -2 273.05 13.32
-1 -2 2 277.82 13.31
-1 -2 2 284.93 14.44
0 -2 2 67.35 3.56
0 -2 2 69.6 3.3
-1 2 -2 -0.03 0.06
1 -2 2 0.05 0.06
-2 2 -2 0.9 0.13
2 -2 2 1 0.14
2 -2 2 0.93 0.12
-3 2 -2 58.43 2.83
-3 2 -2 60.69 3.07
3 -2 2 56.79 2.64
3 -2 2 59.2 2.84
3 -2 2 57.56 3.07
-4 2 -2 48.33 2.57
4 -2 2 49.97 2.38
4 -2 2 47.14 2.58
5 -2 2 26.89 1.34
5 -2 2 25.57 1.46
6 -2 2 17.05 1.04
6 -2 2 17.04 0.95
7 -2 2 0.01 0.26
7 -2 2 0.58 0.28
8 -2 2 8.31 0.76
8 -2 2 7.72 0.68
9 -2 2 0.31 0.4
9 -2 2 0.28 0.41
10 -2 2 1.41 0.52
10 -2 2 0.57 0.51
11 -2 2 3.63 0.69
11 -2 2 4.94 0.83
12 -2 2 0.64 0.65
11 1 -2 0.57 0.59
-11 -1 2 -0.4 0.55
10 1 -2 0.66 0.51
9 1 -2 60.65 3.29
9 1 -2 55.7 2.98
8 1 -2 13.78 0.92
8 1 -2 14.37 1.06
7 1 -2 1.4 0.32
7 1 -2 1.58 0.35
6 1 -2 0.61 0.26
6 1 -2 0.74 0.25
5 1 -2 0.15 0.19
5 1 -2 -0.16 0.19
4 1 -2 0.72 0.19
4 1 -2 1.09 0.18
3 1 -2 48.46 2.35
3 1 -2 47.9 2.57
-3 -1 2 48.63 2.35
-3 -1 2 48.02 2.57
2 1 -2 25.64 1.14
2 1 -2 24.16 1.34
2 1 -2 24.94 1.23
-2 -1 2 24.28 1.14
-2 -1 2 25.25 1.35
-2 -1 2 25.23 1.23
1 1 -2 12.4 0.63
-1 -1 2 12.38 0.63
-1 -1 2 12.88 0.69
-1 -1 2 13.27 0.59
0 -1 2 4.28 0.24
0 -1 2 4.53 0.26
-1 1 -2 -0.13 0.05
1 -1 2 -0.1 0.05
1 -1 2 -0.06 0.05
-2 1 -2 68.82 3.34
2 -1 2 68.64 3.62
2 -1 2 70.28 3.34
-3 1 -2 70.38 3.38
3 -1 2 67.55 3.67
3 -1 2 71.57 3.38
-4 1 -2 40.59 2.24
4 -1 2 43.6 2.07
4 -1 2 41.44 2.25
5 -1 2 11.23 0.74
5 -1 2 11.43 0.66
6 -1 2 0.38 0.23
6 -1 2 0.28 0.24
7 -1 2 0.38 0.29
7 -1 2 0.96 0.32
8 -1 2 0.87 0.37
8 -1 2 0.4 0.38
9 -1 2 0.5 0.45
9 -1 2 0.83 0.43
10 -1 2 0 0.48
10 -1 2 1.08 0.53
11 -1 2 3.1 0.67
11 -1 2 4.57 0.72
-12 0 2 0.36 0.62
11 0 -2 12.64 1.08
-11 0 2 9.92 1.2
10 0 -2 16.65 1.18
9 0 -2 8 0.76
8 0 -2 7.07 0.73
8 0 -2 6.43 0.64
7 0 -2 6.17 0.62
7 0 -2 6.71 0.56
6 0 -2 1.13 0.26
6 0 -2 2.04 0.35
5 0 -2 26.9 1.37
5 0 -2 26.88 1.51
4 0 -2 35.81 2.05
4 0 -2 40.58 1.74
4 0 -2 37.27 1.88
-4 0 2 38.85 1.73
-4 0 2 37.62 2.06
3 0 -2 3.67 0.32
3 0 -2 4.48 0.25
3 0 -2 4.41 0.29
-3 0 2 4.66 0.24
-3 0 2 4.36 0.33
-3 0 2 4.33 0.27
2 0 -2 0.2 0.07
2 0 -2 0.12 0.08
-2 0 2 0.17 0.07
-2 0 2 0.21 0.09
-2 0 2 0.29 0.06
-2 0 2 0.24 0.09
1 0 -2 9.89 0.51
1 0 -2 10.14 0.56
1 0 -2 10.17 0.48
-1 0 2 10.29 0.51
-1 0 2 10.39 0.48
-1 0 2 10.15 0.56
0 0 -2 35.93 1.74
0 0 -2 38.94 2.03
0 0 2 38.26 1.86
0 0 2 39.63 2.03
0 0 2 40.98 1.75
-1 0 -2 0.49 0.11
-1 0 -2 0.46 0.08
1 0 2 0.4 0.08
1 0 2 0.45 0.07
-2 0 -2 1.62 0.14
-2 0 -2 1.55 0.19
2 0 2 1.45 0.21
2 0 2 1.57 0.16
-3 0 -2 14.99 0.74
-3 0 -2 14.48 0.83
3 0 2 14.64 0.76
3 0 2 14.19 0.85
4 0 2 18.03 0.95
4 0 2 18.56 1.06
5 0 2 91.12 4.92
5 0 2 94.55 4.51
6 0 2 1.48 0.29
6 0 2 1.89 0.33
7 0 2 0.02 0.3
7 0 2 -0.3 0.3
8 0 2 -0.1 0.36
8 0 2 -0.22 0.38
9 0 2 21.12 1.38
9 0 2 17.74 1.2
10 0 2 13.18 1.18
10 0 2 12.17 1.03
11 0 2 1.17 0.61
11 0 2 0.92 0.61
12 -1 -2 3.42 0.73
-12 1 2 2 0.58
11 -1 -2 1.34 0.59
-11 1 2 -1.4 0.55
10 -1 -2 5.15 0.77
-10 1 2 3.83 0.6
9 -1 -2 7.35 0.71
8 -1 -2 1.76 0.38
7 -1 -2 0.44 0.27
6 -1 -2 2.64 0.37
6 -1 -2 2.62 0.27
5 -1 -2 24.64 1.3
5 -1 -2 26.41 1.19
-5 1 2 25.1 1.18
4 -1 -2 16.27 0.86
-4 1 2 16.82 0.78
-4 1 2 16.18 0.94
3 -1 -2 24.35 1.09
3 -1 -2 23.25 1.18
-3 1 2 23.65 1.28
-3 1 2 22.77 1.17
-3 1 2 24.38 1.09
2 -1 -2 1.8 0.16
2 -1 -2 1.62 0.17
2 -1 -2 1.88 0.14
-2 1 2 1.51 0.14
-2 1 2 1.76 0.13
-2 1 2 1.51 0.17
1 -1 -2 9.98 0.47
1 -1 -2 10.28 0.55
-1 1 2 10.38 0.47
-1 1 2 9.2 0.5
-1 1 2 10.29 0.55
0 -1 -2 13.69 0.72
0 -1 -2 12.41 0.61
0 1 2 13.81 0.72
-1 -1 -2 13.31 0.74
-1 -1 -2 13.29 0.66
1 1 2 13.61 0.74
1 1 2 13.23 0.66
-2 -1 -2 49.96 2.61
-2 -1 -2 48.77 2.39
2 1 2 48.83 2.39
2 1 2 50.08 2.62
-3 -1 -2 1.34 0.16
-3 -1 -2 1.52 0.21
3 1 2 1.36 0.21
3 1 2 1.52 0.28
4 1 2 0.5 0.17
4 1 2 0.37 0.19
5 1 2 -0.06 0.22
5 1 2 0.22 0.21
6 1 2 -0.12 0.27
6 1 2 0.14 0.26
7 1 2 25.89 1.62
7 1 2 27.07 1.44
8 1 2 47.81 2.54
8 1 2 51.33 2.83
9 1 2 -0.17 0.43
9 1 2 -0.14 0.46
10 1 2 2.9 0.66
10 1 2 2.58 0.59
11 1 2 -0.5 0.61
11 1 2 -0.67 0.61
12 -2 -2 0.51 0.64
11 -2 -2 5.25 0.9
-11 2 2 3.51 0.64
10 -2 -2 8.49 0.82
-10 2 2 6.14 0.8
9 -2 -2 2.2 0.45
-9 2 2 1.2 0.42
8 -2 -2 2.07 0.37
8 -2 -2 1.78 0.25
-8 2 2 1.58 0.37
7 -2 -2 2.27 0.42
7 -2 -2 2.2 0.25
-7 2 2 2.4 0.34
6 -2 -2 20.57 0.99
6 -2 -2 20.73 1.1
-6 2 2 20.27 1.19
5 -2 -2 3.18 0.25
5 -2 -2 3.11 0.33
-5 2 2 3 0.33
-5 2 2 2.79 0.24
4 -2 -2 29.97 1.36
4 -2 -2 29.09 1.47
-4 2 2 29.5 1.6
-4 2 2 28.67 1.59
-4 2 2 30.11 1.36
3 -2 -2 -0.02 0.1
3 -2 -2 -0.02 0.08
-3 2 2 0.07 0.1
-3 2 2 0.01 0.08
-3 2 2 -0.03 0.08
-3 2 2 0.05 0.09
2 -2 -2 1.08 0.14
2 -2 -2 1.21 0.13
2 -2 -2 0.95 0.13
-2 2 2 1.01 0.14
-2 2 2 1.05 0.12
1 -2 -2 135.01 7.06
1 -2 -2 134.26 6.09
-1 2 2 137.2 6.09
-1 2 2 136.46 7.06
0 -2 -2 30.85 1.45
0 -2 -2 32.21 1.69
0 2 2 32.62 1.69
-1 -2 -2 70.26 3.66
1 2 2 69.2 3.66
-2 -2 -2 3.9 0.24
-2 -2 -2 4.02 0.31
2 2 2 4.12 0.34
2 2 2 3.9 0.26
-3 -2 -2 8.09 0.46
3 2 2 8.43 0.58
3 2 2 8.49 0.49
4 2 2 0.03 0.19
4 2 2 0.1 0.18
5 2 2 34.84 1.97
5 2 2 34.97 1.77
6 2 2 28.15 1.5
6 2 2 29.29 1.7
7 2 2 20.83 1.38
7 2 2 21.29 1.2
8 2 2 -0.06 0.4
8 2 2 0.12 0.43
9 2 2 4.53 0.73
9 2 2 4.79 0.88
10 2 2 1.89 0.61
10 2 2 3.19 0.67
11 2 2 1.07 0.66
11 2 2 -0.44 0.65
12 -3 -2 3.77 0.75
11 -3 -2 1.91 0.6
10 -3 -2 7.85 0.78
-10 3 2 4.11 0.63
9 -3 -2 5.09 0.63
-9 3 2 3.71 0.55
8 -3 -2 40.01 2
-8 3 2 36.83 2.16
7 -3 -2 13.59 0.68
7 -3 -2 12.52 0.8
-7 3 2 12.29 0.85
6 -3 -2 8.31 0.47
6 -3 -2 8.17 0.57
-6 3 2 8.68 0.59
5 -3 -2 18.83 0.95
5 -3 -2 19.01 0.86
-5 3 2 16.01 1.02
-5 3 2 17.42 1.02
4 -3 -2 15.14 0.8
4 -3 -2 15.23 0.74
-4 3 2 15.37 0.74
-4 3 2 15.34 0.87
-4 3 2 15.44 0.86
3 -3 -2 10.79 0.53
3 -3 -2 10.81 0.57
-3 3 2 10.67 0.58
-3 3 2 11.24 0.54
2 -3 -2 139.6 6.21
2 -3 -2 132.91 6.63
-2 3 2 141.21 6.22
-2 3 2 139.46 6.63
1 -3 -2 240.39 11.29
1 -3 -2 258.91 13.08
-1 3 2 266.79 13.08
-1 3 2 242.15 11.3
0 -3 -2 1.8 0.13
0 -3 -2 1.6 0.18
0 3 2 1.48 0.21
-1 -3 -2 1.47 0.19
1 3 2 1.39 0.12
1 3 2 1.51 0.23
-2 -3 -2 19.53 1.07
-2 -3 -2 18.52 0.94
2 3 2 18.53 0.95
2 3 2 19.5 1.09
-3 -3 -2 0.16 0.09
3 3 2 0.12 0.19
3 3 2 0.24 0.14
4 3 2 30.41 1.74
4 3 2 31.49 1.56
5 3 2 24.92 1.53
5 3 2 26.84 1.36
6 3 2 0.34 0.29
6 3 2 0.46 0.32
7 3 2 2.18 0.4
7 3 2 1.57 0.45
8 3 2 5.01 0.82
8 3 2 4.09 0.67
9 3 2 0.47 0.49
9 3 2 1.1 0.56
10 3 2 -0.23 0.57
10 3 2 -0.45 0.59
11 3 2 1.71 0.69
11 3 2 1.52 0.72
12 -4 -2 3.42 0.72
11 -4 -2 -0.1 0.55
10 -4 -2 2.51 0.52
-10 4 2 1.5 0.34
9 -4 -2 17.99 0.88
-9 4 2 16.37 1.1
8 -4 -2 3.2 0.51
8 -4 -2 2.31 0.28
-8 4 2 1.76 0.32
7 -4 -2 0.33 0.27
7 -4 -2 0.13 0.19
-7 4 2 0.3 0.22
6 -4 -2 23.08 1.09
6 -4 -2 23.38 1.2
-6 4 2 21.84 1.29
5 -4 -2 13.49 0.69
5 -4 -2 14.28 0.76
-5 4 2 13.95 0.81
4 -4 -2 14.14 0.74
4 -4 -2 14.28 0.69
-4 4 2 13.56 0.74
3 -4 -2 57.86 2.84
3 -4 -2 58.79 2.66
-3 4 2 59.2 2.67
2 -4 -2 1.79 0.17
-2 4 2 1.6 0.16
1 -4 -2 24.24 1.16
1 -4 -2 25.93 1.34
-1 4 2 25.85 1.34
-1 4 2 24.23 1.16
0 -4 -2 16.71 0.79
0 -4 -2 17.29 0.93
0 4 2 16.68 0.94
-1 -4 -2 9.5 0.47
-1 -4 -2 10.17 0.59
1 4 2 10.11 0.62
1 4 2 9.79 0.48
2 4 2 0.96 0.22
-3 -4 -2 28.44 1.43
3 4 2 29.14 1.45
3 4 2 29.61 1.64
4 4 2 0.16 0.24
4 4 2 0.27 0.19
5 4 2 3.84 0.42
5 4 2 3.77 0.57
6 4 2 21.87 1.43
6 4 2 23 1.24
7 4 2 2.3 0.51
7 4 2 1.83 0.4
8 4 2 4.52 0.7
8 4 2 5 0.86
9 4 2 -0.16 0.54
9 4 2 -0.12 0.48
10 4 2 4.01 0.66
10 4 2 3.13 0.75
12 -5 -2 2.99 0.71
11 -5 -2 6.44 0.89
10 -5 -2 1.01 0.5
9 -5 -2 0.71 0.44
9 -5 -2 0.12 0.17
-9 5 2 -0.1 0.23
8 -5 -2 0.8 0.23
8 -5 -2 0.45 0.34
-8 5 2 0.46 0.21
7 -5 -2 1.48 0.31
7 -5 -2 1.78 0.3
-7 5 2 1.06 0.2
6 -5 -2 0.13 0.16
6 -5 -2 0.06 0.21
5 -5 -2 0.3 0.14
5 -5 -2 0.21 0.17
4 -5 -2 0.68 0.15
4 -5 -2 1.01 0.15
3 -5 -2 0.11 0.11
3 -5 -2 0.1 0.1
-3 5 2 0.08 0.1
2 -5 -2 15.83 0.75
-2 5 2 15.25 0.76
1 -5 -2 41.96 2.2
1 -5 -2 41.02 1.9
-1 5 2 41.67 2.2
0 -5 -2 8.62 0.44
0 -5 -2 9.06 0.53
0 5 2 8.54 0.55
-1 -5 -2 0.57 0.1
1 5 2 0.43 0.19
1 5 2 0.86 0.13
2 5 2 42.12 2.3
-3 -5 -2 41.32 2.11
3 5 2 44.63 2.13
3 5 2 44.09 2.38
4 5 2 2.25 0.33
4 5 2 1.82 0.34
5 5 2 78.96 4.41
5 5 2 84.26 4
6 5 2 19.52 1.31
6 5 2 18.69 1.1
7 5 2 3.31 0.46
7 5 2 3.22 0.57
8 5 2 11.89 0.94
8 5 2 11.89 1.15
9 5 2 25.11 1.53
9 5 2 23.01 1.75
10 5 2 0.62 0.67
10 5 2 0.37 0.59
12 -6 -2 1.46 0.68
11 -6 -2 1.29 0.58
10 -6 -2 2.22 0.54
10 -6 -2 1.16 0.23
9 -6 -2 13.5 0.77
9 -6 -2 15.81 1.03
8 -6 -2 0.6 0.23
8 -6 -2 0.76 0.37
7 -6 -2 0.18 0.2
7 -6 -2 0.06 0.28
6 -6 -2 0.3 0.23
6 -6 -2 0.22 0.18
5 -6 -2 26.58 1.29
5 -6 -2 27.61 1.38
4 -6 -2 6.97 0.41
4 -6 -2 6.78 0.42
-4 6 2 6.49 0.43
3 -6 -2 22.3 1.11
3 -6 -2 22.26 1.06
2 -6 -2 17.9 0.86
1 -6 -2 25.63 1.4
1 -6 -2 26.09 1.21
0 -6 -2 7.19 0.38
0 -6 -2 6.97 0.46
0 6 2 6.95 0.5
-1 -6 -2 22.48 1.04
1 6 2 22.03 1.04
1 6 2 22.17 1.28
2 6 2 0 0.21
3 6 2 8.35 0.52
3 6 2 8.93 0.69
4 6 2 2.48 0.4
4 6 2 2.58 0.36
5 6 2 1.26 0.4
5 6 2 1.45 0.29
6 6 2 8.58 0.89
6 6 2 8.16 0.67
7 6 2 62.5 3.13
7 6 2 61.31 3.51
8 6 2 14.56 1.08
8 6 2 15.58 1.31
9 6 2 0.25 0.51
9 6 2 -0.45 0.57
10 6 2 2.76 0.69
12 -7 -2 2.71 0.73
10 -7 -2 0.59 0.22
10 -7 -2 0.41 0.51
9 -7 -2 6.45 0.72
9 -7 -2 5.66 0.5
8 -7 -2 7.92 0.55
8 -7 -2 7.62 0.69
7 -7 -2 8.66 0.55
7 -7 -2 8.81 0.64
6 -7 -2 35.58 1.69
6 -7 -2 36.21 1.82
5 -7 -2 36.65 1.84
5 -7 -2 37.14 1.73
4 -7 -2 2.33 0.27
4 -7 -2 2.44 0.27
3 -7 -2 0.94 0.16
2 -7 -2 34.86 1.62
1 -7 -2 58.11 2.61
1 -7 -2 57.26 3.02
-1 7 2 55.95 3.03
0 -7 -2 111.16 5
0 7 2 110.44 5.82
-1 -7 -2 -0.06 0.1
1 7 2 0.06 0.21
2 7 2 27.38 1.58
3 7 2 3.56 0.53
4 7 2 11.13 0.82
4 7 2 8.01 0.55
5 7 2 2.24 0.35
5 7 2 2.81 0.48
6 7 2 24.5 1.42
6 7 2 30.14 1.75
7 7 2 0.08 0.49
7 7 2 0.03 0.29
8 7 2 9.94 0.82
8 7 2 12.4 1.18
9 7 2 0.73 0.63
11 -8 -2 0.48 0.25
10 -8 -2 0.67 0.28
9 -8 -2 7.5 0.79
9 -8 -2 6.58 0.56
8 -8 -2 23.32 1.2
8 -8 -2 24.22 1.35
7 -8 -2 3.71 0.4
7 -8 -2 3.19 0.49
6 -8 -2 21.55 1.16
6 -8 -2 21.73 1.08
5 -8 -2 5.29 0.4
5 -8 -2 4.76 0.41
4 -8 -2 2.8 0.29
4 -8 -2 3.1 0.31
3 -8 -2 0.4 0.16
2 -8 -2 66.75 3.05
1 -8 -2 1.4 0.24
1 -8 -2 1.3 0.17
-1 8 2 1.18 0.22
0 -8 -2 11.57 0.6
0 8 2 11.79 0.78
-1 -8 -2 3.24 0.26
1 8 2 3.33 0.47
-2 -8 -2 17.94 0.87
2 8 2 18.8 1.16
3 8 2 0.75 0.33
4 8 2 22.33 1.16
5 8 2 4.04 0.38
5 8 2 4.76 0.74
6 8 2 0.86 0.26
6 8 2 1.38 0.52
7 8 2 -0.17 0.52
7 8 2 -0.15 0.27
8 8 2 0.95 0.62
8 8 2 1.05 0.36
11 -9 -2 3.31 0.67
11 -9 -2 1.68 0.32
10 -9 -2 -0.42 0.51
10 -9 -2 0.13 0.31
9 -9 -2 2.12 0.37
9 -9 -2 2.36 0.5
8 -9 -2 0.72 0.28
8 -9 -2 0.64 0.38
7 -9 -2 0.38 0.25
7 -9 -2 0.44 0.31
6 -9 -2 0.78 0.25
6 -9 -2 0.82 0.27
5 -9 -2 4.39 0.4
5 -9 -2 4.78 0.41
4 -9 -2 4.55 0.38
3 -9 -2 22.15 1.09
2 -9 -2 0.63 0.17
1 -9 -2 11.36 0.6
-1 9 2 11.06 0.74
0 -9 -2 8.96 0.51
0 9 2 9.37 0.69
-1 -9 -2 6.74 0.42
1 9 2 7.7 0.65
-2 -9 -2 7.95 0.45
2 9 2 7.92 0.72
3 9 2 3.91 0.65
4 9 2 4.9 0.73
5 9 2 5.65 0.82
5 9 2 3.7 0.39
6 9 2 1.01 0.53
6 9 2 0.94 0.24
7 9 2 0.1 0.56
8 9 2 2.84 0.71
11 -10 -2 1 0.39
10 -10 -2 4.38 0.59
9 -10 -2 0.49 0.47
9 -10 -2 0.3 0.32
8 -10 -2 13.83 0.89
8 -10 -2 16.47 1
7 -10 -2 1.92 0.35
7 -10 -2 1.57 0.31
6 -10 -2 4.34 0.46
6 -10 -2 3.78 0.43
5 -10 -2 0.46 0.23
5 -10 -2 0.12 0.21
4 -10 -2 5.62 0.45
3 -10 -2 0.71 0.2
2 -10 -2 13.8 0.74
1 -10 -2 19.29 0.97
-1 10 2 19.79 1.17
0 -10 -2 11.38 0.62
0 10 2 11.7 0.83
-1 -10 -2 1.26 0.18
1 10 2 1.37 0.33
-2 -10 -2 0.01 0.14
2 10 2 0.42 0.35
3 10 2 0.07 0.37
4 10 2 6.09 0.83
5 10 2 0.12 0.49
6 10 2 5.36 0.95
7 10 2 15.04 1.36
11 -11 -2 1.12 0.62
11 -11 -2 0.06 0.39
10 -11 -2 1.76 0.39
9 -11 -2 3.74 0.56
8 -11 -2 6.15 0.6
8 -11 -2 8.04 0.7
7 -11 -2 2.85 0.46
7 -11 -2 3.18 0.55
6 -11 -2 0.52 0.27
6 -11 -2 0.18 0.27
5 -11 -2 5.17 0.47
4 -11 -2 5.57 0.47
3 -11 -2 13.17 0.74
2 -11 -2 14.22 0.77
1 -11 -2 58.62 2.38
-1 11 2 43.39 2.75
0 -11 -2 18.01 0.92
0 11 2 18.71 1.16
-1 -11 -2 14.24 0.75
1 11 2 14.93 1.03
-2 -11 -2 6.31 0.42
2 11 2 5.9 0.76
3 11 2 11.41 1
4 11 2 0.8 0.5
5 11 2 28.92 1.92
6 11 2 0.06 0.58
7 11 2 8.74 1.16
11 -12 -2 2.65 0.48
10 -12 -2 1.25 0.6
10 -12 -2 1.22 0.4
9 -12 -2 4.57 0.59
9 -12 -2 4.62 0.82
8 -12 -2 3.6 0.55
7 -12 -2 4.38 0.54
7 -12 -2 4.41 0.57
6 -12 -2 0.11 0.28
6 -12 -2 0.14 0.29
5 -12 -2 20.06 1.07
4 -12 -2 -0.13 0.24
3 -12 -2 54.1 2.53
2 -12 -2 3.87 0.41
1 -12 -2 2.29 0.33
-1 12 2 1.65 0.27
0 -12 -2 0.47 0.19
0 12 2 0.52 0.27
-1 -12 -2 8.33 0.52
1 12 2 8.17 0.8
-2 -12 -2 -0.11 0.16
2 12 2 0.08 0.39
3 12 2 14.66 1.19
4 12 2 15.58 1.29
5 12 2 2.71 0.63
6 12 2 1.97 0.66
10 -13 -2 2.73 0.48
9 -13 -2 3.07 0.58
9 -13 -2 3.11 0.5
8 -13 -2 1.33 0.43
8 -13 -2 1.8 0.44
7 -13 -2 0.12 0.34
7 -13 -2 0.55 0.36
6 -13 -2 2.14 0.37
5 -13 -2 6.74 0.57
4 -13 -2 16.13 0.91
3 -13 -2 16.69 0.92
2 -13 -2 4.74 0.45
1 -13 -2 0.32 0.22
-1 13 2 0.15 0.2
0 -13 -2 6.5 0.47
0 13 2 5.6 0.58
-1 -13 -2 1.77 0.25
1 13 2 2.21 0.45
-2 -13 -2 6.46 0.47
2 13 2 6.41 0.85
3 13 2 0.19 0.49
4 13 2 2.17 0.61
5 13 2 -0.13 0.58
10 -14 -2 2.67 0.51
9 -14 -2 1.71 0.45
8 -14 -2 2.89 0.51
7 -14 -2 1.79 0.41
6 -14 -2 4.16 0.58
5 -14 -2 0.32 0.32
4 -14 -2 0.55 0.3
3 -14 -2 13.52 0.81
2 -14 -2 0.05 0.25
1 -14 -2 0.05 0.23
0 -14 -2 0.97 0.25
0 14 2 0.53 0.27
-1 -14 -2 0.12 0.22
1 14 2 0.28 0.33
2 14 2 1.07 0.51
3 14 2 0.49 0.51
4 14 2 0.42 0.6
5 14 2 1.76 0.65
9 -15 -2 2.39 0.48
8 -15 -2 4.44 0.67
7 -15 -2 1.96 0.46
6 -15 -2 1.29 0.4
5 -15 -2 2.76 0.41
4 -15 -2 -0.07 0.3
3 -15 -2 3.69 0.49
2 -15 -2 0.33 0.28
1 -15 -2 4.77 0.48
0 -15 -2 4.74 0.48
-1 -15 -2 0.29 0.25
1 15 2 0.11 0.33
2 15 2 1.77 0.5
3 15 2 0.27 0.57
8 -16 -2 10.41 0.91
7 -16 -2 -0.24 0.41
6 -16 -2 0.83 0.44
5 -16 -2 0.82 0.39
4 -16 -2 3.22 0.55
3 -16 -2 1.44 0.35
2 -16 -2 7.92 0.64
1 -16 -2 1.99 0.34
0 -16 -2 0.51 0.3
1 16 2 0.5 0.38
7 -17 -2 1.31 0.46
6 -17 -2 -0.2 0.4
5 -17 -2 -0.17 0.38
4 -17 -2 8.91 0.76
3 -17 -2 12.58 0.85
2 -17 -2 1.57 0.38
1 -17 -2 5.06 0.58
0 -17 -2 -0.1 0.31
5 -18 -2 5.61 0.76
4 -18 -2 0.09 0.41
3 -18 -2 -0.48 0.35
2 -18 -2 1.85 0.4
1 -19 3 0.64 0.39
2 -19 3 -0.08 0.37
3 -19 3 -0.1 0.38
4 -19 3 9.49 0.85
5 -19 3 1.37 0.48
0 -18 3 0.37 0.32
1 -18 3 2.13 0.39
2 -18 3 17.45 1.07
3 -18 3 4.62 0.62
4 -18 3 -0.04 0.37
5 -18 3 0.83 0.43
6 -18 3 0.58 0.46
-1 -17 3 3.47 0.52
0 -17 3 0.18 0.29
1 -17 3 15.33 0.93
2 -17 3 5.38 0.6
3 -17 3 -0.04 0.33
4 -17 3 0.3 0.36
5 -17 3 0.93 0.39
6 -17 3 0.16 0.4
7 -17 3 3.27 0.51
8 -17 3 4.21 0.69
4 16 -3 0.13 0.52
3 16 -3 0.33 0.44
2 16 -3 0.18 0.32
1 16 -3 -0.23 0.25
-1 -16 3 0.16 0.25
0 -16 3 0.23 0.26
1 -16 3 1.33 0.31
2 -16 3 0.26 0.3
3 -16 3 0.84 0.33
4 -16 3 3.78 0.56
5 -16 3 -0.29 0.33
5 -16 3 0.2 0.34
6 -16 3 2.35 0.42
6 -16 3 2.79 0.45
7 -16 3 4.52 0.65
7 -16 3 4.46 0.7
8 -16 3 1.42 0.48
8 -16 3 2.19 0.52
9 -16 3 1.29 0.55
9 -16 3 -0.01 0.45
5 15 -3 1 0.56
4 15 -3 2.94 0.61
3 15 -3 4.05 0.77
2 15 -3 0.31 0.31
-2 -15 3 0.43 0.23
1 15 -3 6.21 0.61
0 -15 3 0.12 0.23
1 -15 3 8.46 0.62
2 -15 3 3.02 0.48
3 -15 3 15.64 0.92
4 -15 3 0.01 0.3
4 -15 3 0.12 0.26
5 -15 3 13.03 0.83
5 -15 3 11.65 0.82
6 -15 3 1.23 0.38
6 -15 3 1.94 0.38
7 -15 3 3.54 0.64
7 -15 3 3.09 0.45
8 -15 3 1.33 0.42
8 -15 3 1.9 0.5
9 -15 3 1.39 0.54
9 -15 3 1.13 0.45
10 -15 3 0.05 0.44
10 -15 3 -0.28 0.59
6 14 -3 0.17 0.56
5 14 -3 5.28 0.93
4 14 -3 5.18 0.83
3 14 -3 17.63 1.29
2 14 -3 26.59 1.61
-2 -14 3 24.69 1.27
1 14 -3 5.8 0.6
-1 -14 3 7.02 0.51
-1 -14 3 7.1 0.54
0 14 -3 0.48 0.21
0 -14 3 0.59 0.23
1 -14 3 1.11 0.27
2 -14 3 1.3 0.29
2 -14 3 1.48 0.25
3 -14 3 9.97 0.68
3 -14 3 9.51 0.62
4 -14 3 14.08 0.85
4 -14 3 14.09 0.84
5 -14 3 7.9 0.62
5 -14 3 7.01 0.62
6 -14 3 2.26 0.39
6 -14 3 2.31 0.38
7 -14 3 2.51 0.43
7 -14 3 2.61 0.43
8 -14 3 0.43 0.45
8 -14 3 0.91 0.38
9 -14 3 0.85 0.51
9 -14 3 0.72 0.4
10 -14 3 8.79 1.01
10 -14 3 5.17 0.72
6 13 -3 1.05 0.57
5 13 -3 4.68 0.86
4 13 -3 12.75 1.11
3 13 -3 7.64 0.84
-3 -13 3 8.15 0.52
2 13 -3 1.16 0.38
-2 -13 3 1.58 0.3
-2 -13 3 1.6 0.24
1 13 -3 0.2 0.24
-1 -13 3 0.2 0.19
0 13 -3 1.27 0.25
0 -13 3 2.15 0.35
0 -13 3 3 0.37
1 -13 3 15.78 0.86
2 -13 3 35.21 1.83
2 -13 3 38.1 1.77
3 -13 3 0.51 0.25
3 -13 3 0.3 0.21
4 -13 3 10.43 0.69
4 -13 3 10.58 0.67
5 -13 3 0.39 0.28
5 -13 3 0.83 0.28
6 -13 3 1.35 0.34
6 -13 3 1.22 0.33
7 -13 3 0.44 0.36
7 -13 3 0.08 0.32
8 -13 3 0.97 0.43
8 -13 3 1.12 0.37
9 -13 3 0.64 0.37
9 -13 3 0.9 0.49
10 -13 3 1.29 0.59
10 -13 3 1.04 0.45
11 -13 3 1.04 0.66
11 -13 3 -0.13 0.44
7 12 -3 1.54 0.61
6 12 -3 16.63 1.26
6 12 -3 11.48 0.82
5 12 -3 9.96 0.95
5 12 -3 6.12 0.53
4 12 -3 0.09 0.39
4 12 -3 0.54 0.18
3 12 -3 0.33 0.16
3 12 -3 0.26 0.35
-3 -12 3 0.22 0.16
2 12 -3 2.86 0.56
-2 -12 3 2.66 0.31
1 12 -3 0.27 0.27
-1 -12 3 0.64 0.22
-1 -12 3 0.36 0.17
0 12 -3 0.43 0.19
0 -12 3 0.62 0.21
0 -12 3 0.48 0.19
1 -12 3 1.69 0.25
1 -12 3 2.15 0.31
2 -12 3 10.19 0.63
2 -12 3 10.1 0.61
3 -12 3 0.17 0.19
3 -12 3 0.07 0.21
4 -12 3 0.7 0.25
4 -12 3 0.69 0.23
5 -12 3 3.44 0.44
5 -12 3 3.24 0.45
6 -12 3 0.5 0.31
6 -12 3 0.58 0.29
7 -12 3 1.84 0.35
7 -12 3 1.78 0.38
8 -12 3 5.72 0.72
8 -12 3 4.85 0.56
9 -12 3 0.43 0.38
9 -12 3 0.5 0.46
10 -12 3 1.7 0.6
10 -12 3 1.06 0.43
11 -12 3 1.11 0.65
11 -12 3 0.6 0.34
8 11 -3 -0.3 0.59
8 11 -3 0.25 0.32
7 11 -3 0.44 0.54
6 11 -3 1.3 0.5
6 11 -3 0.9 0.26
5 11 -3 4.32 0.76
5 11 -3 3.43 0.42
4 11 -3 0.76 0.21
4 11 -3 1.24 0.4
3 11 -3 0.27 0.17
3 11 -3 0.19 0.33
-3 -11 3 0.08 0.14
2 11 -3 9.6 0.78
-2 -11 3 9.78 0.55
1 11 -3 5.65 0.56
-1 -11 3 6.12 0.47
-1 -11 3 5.25 0.39
0 11 -3 1.21 0.25
0 -11 3 1.46 0.23
0 -11 3 1.32 0.19
1 -11 3 47.94 2.38
1 -11 3 48.91 2.26
2 -11 3 24.52 1.2
2 -11 3 24.01 1.24
3 -11 3 0.11 0.17
3 -11 3 0.19 0.19
4 -11 3 5.88 0.47
4 -11 3 6.47 0.48
5 -11 3 24.88 1.33
5 -11 3 25.72 1.27
6 -11 3 7.75 0.6
6 -11 3 7.54 0.57
7 -11 3 9.94 0.69
7 -11 3 10.75 0.75
8 -11 3 0.76 0.32
8 -11 3 0.89 0.42
9 -11 3 2.27 0.4
9 -11 3 1.78 0.49
10 -11 3 2.92 0.45
10 -11 3 4.68 0.85
11 -11 3 1.63 0.63
8 10 -3 0.7 0.43
8 10 -3 0.16 0.54
7 10 -3 1.47 0.55
7 10 -3 1.48 0.39
6 10 -3 1.15 0.47
6 10 -3 1.5 0.35
5 10 -3 2.55 0.49
5 10 -3 2.03 0.34
4 10 -3 28.82 1.54
4 10 -3 29.56 1.77
3 10 -3 16.23 0.9
3 10 -3 15.34 1.07
-3 -10 3 15.25 0.79
2 10 -3 12.96 0.88
2 10 -3 12.65 0.76
-2 -10 3 11.89 0.65
1 10 -3 42.76 2.35
-1 -10 3 42.18 2.14
-1 -10 3 43.08 1.99
0 10 -3 7.49 0.55
0 -10 3 7.34 0.45
0 -10 3 7.03 0.48
1 -10 3 4.87 0.37
1 -10 3 4.76 0.35
2 -10 3 1.66 0.27
2 -10 3 2.04 0.28
3 -10 3 24.05 1.17
3 -10 3 23.64 1.22
4 -10 3 12.14 0.67
4 -10 3 11.62 0.69
5 -10 3 41.18 1.96
5 -10 3 41.62 2.08
6 -10 3 1.23 0.26
6 -10 3 1.08 0.29
7 -10 3 13.11 0.76
7 -10 3 12.1 0.83
8 -10 3 0.84 0.3
8 -10 3 1.14 0.41
9 -10 3 1.96 0.48
9 -10 3 1.2 0.32
10 -10 3 1.87 0.55
11 -10 3 15.05 1.2
9 9 -3 3.06 0.71
9 9 -3 3.74 0.61
8 9 -3 0.16 0.53
8 9 -3 0.95 0.45
7 9 -3 1.22 0.52
7 9 -3 1.01 0.41
6 9 -3 2.72 0.54
6 9 -3 2.74 0.42
5 9 -3 10.5 0.73
5 9 -3 9.79 0.91
4 9 -3 7.46 0.75
4 9 -3 8.31 0.6
3 9 -3 19.37 1.19
3 9 -3 18.76 1.03
-3 -9 3 18.25 0.91
2 9 -3 2.58 0.45
2 9 -3 2.65 0.35
-2 -9 3 2.48 0.25
1 9 -3 9.34 0.65
-1 -9 3 9.04 0.51
0 9 -3 7.48 0.52
0 -9 3 7.33 0.43
0 -9 3 6.71 0.46
1 -9 3 1.79 0.26
1 -9 3 2.1 0.27
2 -9 3 43.86 2.16
2 -9 3 43.92 2.04
3 -9 3 7.22 0.45
3 -9 3 7.5 0.46
4 -9 3 7.12 0.48
4 -9 3 7.04 0.46
5 -9 3 34.94 1.65
5 -9 3 34.31 1.75
6 -9 3 2.78 0.39
6 -9 3 2.5 0.37
7 -9 3 0.31 0.25
7 -9 3 0.64 0.32
8 -9 3 1.25 0.39
8 -9 3 1.62 0.3
9 -9 3 2.6 0.44
9 -9 3 3.13 0.51
10 -9 3 2.02 0.34
10 -9 3 4.4 0.75
11 -9 3 2.17 0.63
12 -9 3 0.34 0.65
9 8 -3 0.91 0.62
9 8 -3 1.8 0.53
8 8 -3 1.8 0.48
8 8 -3 2.11 0.59
7 8 -3 22.61 1.54
7 8 -3 22 1.31
6 8 -3 13.47 0.9
6 8 -3 13.33 1.08
5 8 -3 15.99 1.11
5 8 -3 14.98 0.93
4 8 -3 6.14 0.51
4 8 -3 6.3 0.65
3 8 -3 0.39 0.26
3 8 -3 0.32 0.21
-3 -8 3 0.31 0.12
2 8 -3 21.94 1.14
2 8 -3 21.41 1.28
-2 -8 3 21.86 1.04
1 8 -3 17.98 1.06
1 8 -3 18.04 0.96
-1 -8 3 17.95 0.88
0 8 -3 10.93 0.68
0 -8 3 10.84 0.58
0 -8 3 11.25 0.67
0 -8 3 11.49 0.61
0 -8 3 10.87 0.62
1 -8 3 15.8 0.84
1 -8 3 15.84 0.79
1 -8 3 15.91 0.83
2 -8 3 1.99 0.24
2 -8 3 1.39 0.24
3 -8 3 11.8 0.63
3 -8 3 11.94 0.65
4 -8 3 9.88 0.59
4 -8 3 10.21 0.56
5 -8 3 3.95 0.41
5 -8 3 4.97 0.38
6 -8 3 0.62 0.21
6 -8 3 0.37 0.23
7 -8 3 15.84 0.85
7 -8 3 16.09 0.95
8 -8 3 0.46 0.35
8 -8 3 0.35 0.25
9 -8 3 0.82 0.43
9 -8 3 0.29 0.2
10 -8 3 2.75 0.35
10 -8 3 5.25 0.76
11 -8 3 0.74 0.56
12 -8 3 0.75 0.63
10 7 -3 3.8 0.68
9 7 -3 2.31 0.57
9 7 -3 1.62 0.61
8 7 -3 3.72 0.64
8 7 -3 3.67 0.53
7 7 -3 1.44 0.48
7 7 -3 1.42 0.41
6 7 -3 1.45 0.37
6 7 -3 1.29 0.4
5 7 -3 2.11 0.39
5 7 -3 2.5 0.34
4 7 -3 11.36 0.71
4 7 -3 11.57 0.84
3 7 -3 10.58 0.63
3 7 -3 10.59 0.75
2 7 -3 13 0.72
2 7 -3 12.67 0.82
1 7 -3 54.33 2.6
1 7 -3 51.86 2.82
-1 -7 3 52.34 2.58
0 7 -3 8.24 0.55
0 -7 3 8.73 0.51
0 -7 3 9.34 0.5
0 -7 3 8.57 0.54
0 -7 3 8.48 0.47
1 -7 3 0.63 0.14
1 -7 3 0.88 0.15
-2 7 -3 36.6 1.98
2 -7 3 41.75 1.96
2 -7 3 41.42 1.85
3 -7 3 2.29 0.25
3 -7 3 2.11 0.23
4 -7 3 1.24 0.2
4 -7 3 1.88 0.25
5 -7 3 39.72 1.99
5 -7 3 39.8 1.86
6 -7 3 10.05 0.58
6 -7 3 10.03 0.64
7 -7 3 0.98 0.23
7 -7 3 0.92 0.3
8 -7 3 1.32 0.23
8 -7 3 1.66 0.38
9 -7 3 5.31 0.66
9 -7 3 3.15 0.32
10 -7 3 5.02 0.76
11 -7 3 13.21 1.09
12 -7 3 11.06 1.11
10 6 -3 4.17 0.68
9 6 -3 0.2 0.53
9 6 -3 -0.14 0.49
8 6 -3 0.8 0.48
8 6 -3 0.8 0.44
7 6 -3 0.36 0.37
7 6 -3 0.47 0.4
6 6 -3 31.49 1.65
6 6 -3 30.44 1.86
5 6 -3 0.83 0.32
5 6 -3 1.46 0.29
4 6 -3 12.34 0.83
4 6 -3 11.33 0.71
3 6 -3 32.12 1.62
3 6 -3 32.23 1.8
2 6 -3 2.7 0.28
2 6 -3 2.42 0.34
1 6 -3 15.24 0.91
1 6 -3 15.86 0.83
-1 -6 3 16.17 0.81
-1 -6 3 15.66 0.9
0 6 -3 3.03 0.26
0 -6 3 2.75 0.23
0 -6 3 2.26 0.23
0 -6 3 2.07 0.24
1 -6 3 0.08 0.11
1 -6 3 0.23 0.11
-2 6 -3 46.14 2.34
2 -6 3 49.77 2.34
2 -6 3 47.8 2.2
3 -6 3 7.39 0.41
3 -6 3 6.9 0.43
4 -6 3 41.31 2.03
4 -6 3 40.76 1.9
5 -6 3 31.93 1.61
5 -6 3 31.69 1.5
6 -6 3 12.72 0.78
6 -6 3 14.27 0.71
7 -6 3 0.6 0.19
7 -6 3 0.14 0.28
8 -6 3 13.65 0.8
8 -6 3 9.71 0.58
9 -6 3 3.13 0.3
9 -6 3 5.39 0.63
10 -6 3 21.96 1.36
11 -6 3 7.23 0.93
12 -6 3 -0.64 0.6
10 5 -3 11.41 1.08
9 5 -3 1.19 0.55
9 5 -3 1.66 0.53
8 5 -3 0.12 0.44
8 5 -3 0.24 0.43
7 5 -3 2.37 0.41
7 5 -3 1.6 0.44
6 5 -3 5.88 0.56
6 5 -3 5.76 0.67
5 5 -3 0.09 0.24
5 5 -3 0 0.22
4 5 -3 45.44 2.57
4 5 -3 48.64 2.34
3 5 -3 46.08 2.48
3 5 -3 45.31 2.25
2 5 -3 112.9 5.37
2 5 -3 109.33 5.84
-2 -5 3 111.49 5.36
1 5 -3 0.21 0.14
1 5 -3 0.26 0.12
-1 -5 3 0.34 0.09
-1 -5 3 0.3 0.12
0 5 -3 6.71 0.42
0 -5 3 6.63 0.42
0 -5 3 7.14 0.39
0 -5 3 6.35 0.4
-1 5 -3 5.55 0.34
1 -5 3 5.47 0.33
-2 5 -3 121.74 5.91
2 -5 3 124.64 5.9
2 -5 3 121.73 5.53
-3 5 -3 37.28 1.86
3 -5 3 38.11 1.75
3 -5 3 38.33 1.86
4 -5 3 13.74 0.74
4 -5 3 13.5 0.68
5 -5 3 0.52 0.15
5 -5 3 0.36 0.16
6 -5 3 24.92 1.17
6 -5 3 24.15 1.29
7 -5 3 16.26 0.83
7 -5 3 17.51 0.97
8 -5 3 23.23 1.3
8 -5 3 23.24 1.38
9 -5 3 12.83 0.93
9 -5 3 11.22 0.88
10 -5 3 6.59 0.77
11 -5 3 3.67 0.62
12 -5 3 4.08 0.72
11 4 -3 5.66 0.83
10 4 -3 -0.11 0.55
9 4 -3 7.77 0.97
9 4 -3 7.47 0.83
8 4 -3 -0.02 0.41
8 4 -3 0 0.39
7 4 -3 1.3 0.37
7 4 -3 1.47 0.41
6 4 -3 37.61 2.19
6 4 -3 39.09 1.97
5 4 -3 87.64 4.24
5 4 -3 85.8 4.63
4 4 -3 16.25 0.89
4 4 -3 16.41 1
3 4 -3 1.74 0.3
3 4 -3 1.97 0.25
2 4 -3 18.85 1.12
2 4 -3 19.97 1.01
-2 -4 3 20.16 1.01
-2 -4 3 21.05 1.13
1 4 -3 92.13 4.41
1 4 -3 90.51 4.79
-1 -4 3 90.52 4.41
-1 -4 3 92.46 4.79
0 -4 3 88.2 4.2
0 -4 3 87.97 4.54
0 -4 3 82.15 4.19
0 -4 3 89.41 4.54
-1 4 -3 104.62 5.1
1 -4 3 107.17 5.09
-2 4 -3 36.37 1.8
2 -4 3 37.55 1.81
-3 4 -3 57.7 2.82
3 -4 3 58.59 2.82
3 -4 3 58.03 2.64
4 -4 3 0.13 0.11
4 -4 3 0.05 0.14
5 -4 3 35.14 1.59
5 -4 3 33.27 1.85
5 -4 3 34.55 1.72
6 -4 3 0.56 0.2
6 -4 3 0.65 0.23
6 -4 3 0.56 0.15
7 -4 3 21.06 1.1
7 -4 3 14.66 0.84
7 -4 3 18.93 1.01
8 -4 3 2.17 0.37
8 -4 3 1.76 0.37
9 -4 3 1.17 0.4
9 -4 3 1.23 0.4
10 -4 3 -0.26 0.43
10 -4 3 -0.25 0.46
11 -4 3 10.11 0.99
12 -4 3 0.07 0.63
11 3 -3 2.97 0.68
-11 -3 3 1.44 0.72
10 3 -3 1.21 0.55
9 3 -3 19.16 1.23
8 3 -3 -0.37 0.37
8 3 -3 0.15 0.37
7 3 -3 7.95 0.65
7 3 -3 7.98 0.78
6 3 -3 13.53 0.96
6 3 -3 14.27 0.84
5 3 -3 28.51 1.62
5 3 -3 28.13 1.46
4 3 -3 14.31 0.76
4 3 -3 13.26 0.86
3 3 -3 17.03 0.98
3 3 -3 16.73 0.88
-3 -3 3 16.68 0.79
2 3 -3 26.76 1.44
2 3 -3 25.95 1.31
-2 -3 3 26.78 1.44
-2 -3 3 26.03 1.3
1 3 -3 82.11 4.03
-1 -3 3 81.65 4.03
-1 -3 3 86.89 4.37
0 -3 3 2.81 0.21
0 -3 3 2.9 0.2
0 -3 3 2.78 0.22
-1 3 -3 1.12 0.15
1 -3 3 1.15 0.14
-2 3 -3 9.86 0.52
2 -3 3 10.18 0.53
-3 3 -3 29.17 1.46
3 -3 3 29.36 1.36
3 -3 3 30 1.47
-4 3 -3 33.53 1.76
4 -3 3 33.43 1.64
4 -3 3 32.52 1.51
4 -3 3 32.35 1.77
-5 3 -3 13.48 0.79
5 -3 3 14.04 0.75
5 -3 3 13.42 0.65
5 -3 3 12.7 0.81
6 -3 3 9.01 0.64
6 -3 3 8.52 0.58
7 -3 3 2.4 0.43
7 -3 3 2.45 0.47
8 -3 3 3.71 0.6
8 -3 3 3.88 0.54
9 -3 3 3.52 0.51
9 -3 3 3.34 0.49
10 -3 3 17.41 1.28
10 -3 3 15.71 1.13
11 -3 3 0.27 0.55
11 -3 3 -0.37 0.52
12 -3 3 0.83 0.63
11 2 -3 1.75 0.63
-11 -2 3 0.56 0.63
10 2 -3 0.31 0.52
9 2 -3 5.44 0.71
8 2 -3 4.71 0.69
8 2 -3 4.31 0.59
7 2 -3 5.98 0.65
7 2 -3 6.74 0.6
6 2 -3 9.52 0.73
6 2 -3 10.59 0.67
5 2 -3 8.69 0.65
5 2 -3 8.96 0.57
4 2 -3 0.49 0.17
4 2 -3 0.17 0.18
3 2 -3 7.27 0.42
3 2 -3 6.37 0.46
-3 -2 3 6.55 0.35
-3 -2 3 7.12 0.4
-3 -2 3 7.13 0.47
2 2 -3 1.41 0.17
-2 -2 3 1.54 0.15
-2 -2 3 1.36 0.2
1 2 -3 16.4 0.83
-1 -2 3 17.29 0.91
-1 -2 3 16.47 0.83
0 -2 3 63.01 3.05
0 -2 3 64.06 3.3
0 -2 3 62.48 3.05
-1 2 -3 28.06 1.37
-1 2 -3 28.48 1.49
1 -2 3 28.74 1.38
1 -2 3 27.57 1.49
-2 2 -3 1.4 0.14
-2 2 -3 1.3 0.16
2 -2 3 1.29 0.16
2 -2 3 1.53 0.17
-3 2 -3 19.04 0.96
-3 2 -3 19.36 1.04
3 -2 3 18.97 1.05
3 -2 3 19.64 0.96
3 -2 3 18.24 0.88
-4 2 -3 32.23 1.79
4 -2 3 33.51 1.65
4 -2 3 33.56 1.79
5 -2 3 115.22 6.05
5 -2 3 114.94 5.57
6 -2 3 0.29 0.23
6 -2 3 -0.06 0.22
7 -2 3 0.09 0.28
7 -2 3 0.37 0.29
8 -2 3 1.61 0.4
8 -2 3 1.43 0.37
9 -2 3 0.95 0.44
9 -2 3 1.42 0.45
10 -2 3 1.28 0.53
10 -2 3 1.34 0.53
11 -2 3 17.01 1.36
11 -2 3 15.14 1.2
12 -2 3 10.47 1.25
11 1 -3 0.91 0.6
-11 -1 3 0.9 0.59
10 1 -3 0.71 0.5
-10 -1 3 0.05 0.51
8 1 -3 0.83 0.37
7 1 -3 0.41 0.29
6 1 -3 2.55 0.39
6 1 -3 2.28 0.4
5 1 -3 10.84 0.62
5 1 -3 9.72 0.68
4 1 -3 5.29 0.43
4 1 -3 6.04 0.4
-4 -1 3 6 0.31
3 1 -3 108.4 5.02
3 1 -3 112.43 5.37
-3 -1 3 112 5.37
-3 -1 3 113.9 5.01
-3 -1 3 110.75 5.84
2 1 -3 43.49 2.15
2 1 -3 44.45 2.01
-2 -1 3 43.51 2.15
-2 -1 3 42.29 2.01
-2 -1 3 45.58 2.35
-2 -1 3 46.86 2.35
1 1 -3 5.59 0.32
1 1 -3 6.22 0.35
1 1 -3 5.68 0.3
-1 -1 3 5.82 0.32
-1 -1 3 5.94 0.36
-1 -1 3 5.92 0.3
0 1 -3 24.88 1.27
0 -1 3 24.68 1.27
0 -1 3 22.43 1.17
-1 1 -3 3.2 0.19
1 -1 3 3.13 0.2
1 -1 3 3.26 0.23
-2 1 -3 18.74 0.92
2 -1 3 18.11 1.01
2 -1 3 18.83 0.93
-3 1 -3 47.46 2.51
-3 1 -3 46.12 2.3
3 -1 3 47.27 2.51
3 -1 3 48.38 2.31
-4 1 -3 126.73 6.67
4 -1 3 129.61 6.15
4 -1 3 126.12 6.68
5 -1 3 1.91 0.31
5 -1 3 2.12 0.36
6 -1 3 1.47 0.27
6 -1 3 1.41 0.3
7 -1 3 0.35 0.31
7 -1 3 0.17 0.29
8 -1 3 0.17 0.37
8 -1 3 0.54 0.38
9 -1 3 25.61 1.64
9 -1 3 24.3 1.45
10 -1 3 28.25 1.77
10 -1 3 24.67 1.58
11 -1 3 1.8 0.6
11 -1 3 1.59 0.62
-12 0 3 -0.28 0.6
11 0 -3 8.66 0.92
-11 0 3 4.92 0.97
10 0 -3 30.27 1.7
-10 0 3 27.96 1.85
9 0 -3 0.7 0.42
-9 0 3 1.08 0.44
8 0 -3 1.08 0.36
7 0 -3 1.26 0.31
6 0 -3 3.93 0.43
6 0 -3 4.16 0.34
-6 0 3 4.51 0.29
5 0 -3 68.19 3.08
5 0 -3 66.63 3.31
-5 0 3 68.33 3.07
4 0 -3 111.28 4.94
4 0 -3 107.81 5.29
-4 0 3 110.6 4.93
-4 0 3 108.4 5.74
-4 0 3 109.61 5.76
3 0 -3 0.08 0.1
3 0 -3 0.08 0.1
-3 0 3 0.05 0.07
-3 0 3 0.2 0.11
-3 0 3 0.06 0.08
-3 0 3 0.1 0.11
2 0 -3 5.71 0.34
2 0 -3 5.16 0.29
2 0 -3 4.86 0.3
-2 0 3 5.25 0.3
-2 0 3 5.18 0.34
-2 0 3 5.74 0.28
1 0 -3 0.61 0.09
1 0 -3 0.52 0.08
1 0 -3 0.69 0.11
-1 0 3 0.55 0.13
-1 0 3 0.71 0.11
0 0 -3 0.01 0.07
0 0 -3 0.05 0.05
0 0 3 0.08 0.08
0 0 3 0 0.06
0 0 3 0.04 0.05
-1 0 -3 9.29 0.51
-1 0 -3 8.79 0.45
1 0 3 8.39 0.42
1 0 3 9.22 0.51
1 0 3 8.81 0.45
-2 0 -3 967.53 46.62
-2 0 -3 949.43 50.5
2 0 3 1000 46.61
2 0 3 981.96 50.51
-3 0 -3 0.54 0.1
-3 0 -3 0.56 0.13
3 0 3 0.62 0.13
3 0 3 0.51 0.16
4 0 3 9.97 0.57
4 0 3 9.95 0.67
5 0 3 6.93 0.57
5 0 3 6.61 0.48
6 0 3 12.21 0.76
6 0 3 12.86 0.88
7 0 3 0.54 0.35
7 0 3 0.7 0.33
8 0 3 40.62 2.17
8 0 3 42.42 2.4
9 0 3 13.34 1.09
9 0 3 11.39 0.93
10 0 3 2.02 0.6
10 0 3 1.89 0.54
11 0 3 0.18 0.61
11 0 3 -0.12 0.59
12 -1 -3 11.6 1.16
-12 1 3 11.51 1.12
11 -1 -3 7 0.91
-11 1 3 5.87 0.92
10 -1 -3 1.9 0.54
-10 1 3 1.62 0.5
9 -1 -3 1.32 0.44
-9 1 3 0.37 0.42
8 -1 -3 7.42 0.65
-8 1 3 7.61 0.71
7 -1 -3 1.88 0.24
7 -1 -3 1.62 0.32
-7 1 3 1.25 0.31
6 -1 -3 126.78 5.47
6 -1 -3 117.37 5.87
-6 1 3 118.79 6.37
5 -1 -3 103.66 5.18
5 -1 -3 112.89 4.83
-5 1 3 105.57 4.82
-5 1 3 105.62 5.62
4 -1 -3 0.17 0.13
4 -1 -3 0.22 0.11
-4 1 3 0.17 0.13
-4 1 3 0.33 0.15
-4 1 3 0.16 0.1
3 -1 -3 0.15 0.09
3 -1 -3 0 0.1
-3 1 3 0.14 0.08
-3 1 3 0.11 0.1
-3 1 3 0.06 0.08
2 -1 -3 61.35 3.28
2 -1 -3 65.5 2.83
2 -1 -3 58.97 3.02
-2 1 3 65.69 2.83
-2 1 3 61.59 3.28
1 -1 -3 11.23 0.59
1 -1 -3 10.18 0.5
-1 1 3 9.8 0.52
-1 1 3 10.41 0.5
-1 1 3 10.9 0.59
0 -1 -3 50.48 2.44
0 -1 -3 56.12 2.84
0 1 3 55.87 2.84
-1 -1 -3 4.88 0.32
1 1 3 4.79 0.34
-2 -1 -3 68.13 3.63
-2 -1 -3 68.34 3.32
2 1 3 70.42 3.33
2 1 3 68.91 3.63
-3 -1 -3 0.06 0.12
-3 -1 -3 0.04 0.08
3 1 3 -0.19 0.12
3 1 3 0.02 0.16
4 1 3 1.94 0.36
4 1 3 1.93 0.29
5 1 3 7.18 0.61
5 1 3 7.63 0.52
6 1 3 22.19 1.16
6 1 3 19.88 1.3
7 1 3 9.45 0.84
7 1 3 8.58 0.7
8 1 3 4.49 0.63
8 1 3 4.37 0.75
9 1 3 2.45 0.58
9 1 3 2.47 0.5
10 1 3 0.22 0.55
10 1 3 0.22 0.54
11 1 3 11.32 1.17
11 1 3 13.4 1.34
12 -2 -3 1.03 0.64
11 -2 -3 -0.33 0.56
-11 2 3 -0.25 0.39
10 -2 -3 6.04 0.78
-10 2 3 2.4 0.58
9 -2 -3 0.68 0.42
-9 2 3 -0.22 0.37
8 -2 -3 7.8 0.51
8 -2 -3 9.9 0.71
-8 2 3 9.38 0.75
7 -2 -3 28.59 1.51
7 -2 -3 29.8 1.37
-7 2 3 27.87 1.64
6 -2 -3 3.18 0.28
6 -2 -3 2.51 0.36
-6 2 3 2.39 0.38
5 -2 -3 0.64 0.19
5 -2 -3 0.5 0.15
-5 2 3 0.48 0.18
4 -2 -3 0.37 0.14
4 -2 -3 0.59 0.12
-4 2 3 0.51 0.14
-4 2 3 0.56 0.11
3 -2 -3 7.08 0.37
3 -2 -3 6.72 0.4
3 -2 -3 7.11 0.43
-3 2 3 7.3 0.37
-3 2 3 7.22 0.43
-3 2 3 6.86 0.39
2 -2 -3 1.26 0.15
2 -2 -3 1.35 0.14
2 -2 -3 1.06 0.14
-2 2 3 1.24 0.17
-2 2 3 1.28 0.14
-2 2 3 1.2 0.13
1 -2 -3 355.85 18.83
1 -2 -3 358.44 16.25
-1 2 3 369.52 16.26
-1 2 3 368.12 18.83
0 -2 -3 0.17 0.09
0 -2 -3 0.14 0.06
0 2 3 0.1 0.1
-1 -2 -3 1.62 0.19
1 2 3 1.69 0.24
-2 -2 -3 32.11 1.59
-2 -2 -3 32.19 1.76
2 2 3 33.37 1.77
2 2 3 32.76 1.59
-3 -2 -3 16.03 0.83
3 2 3 16.62 0.98
3 2 3 16.8 0.85
4 2 3 15.04 0.96
4 2 3 15.61 0.83
5 2 3 1.52 0.31
5 2 3 1.82 0.29
6 2 3 2.44 0.35
6 2 3 2.38 0.41
7 2 3 3.02 0.52
7 2 3 4.09 0.68
8 2 3 -0.32 0.4
8 2 3 0.66 0.45
9 2 3 3.64 0.65
9 2 3 1.92 0.54
10 2 3 1.12 0.62
10 2 3 -0.02 0.57
11 2 3 0.1 0.68
11 2 3 0.99 0.68
12 -3 -3 -0.65 0.63
11 -3 -3 3.23 0.65
-11 3 3 -0.64 0.41
10 -3 -3 1 0.5
9 -3 -3 6.76 0.49
9 -3 -3 10.88 0.77
-9 3 3 8.15 0.71
8 -3 -3 11.72 0.73
8 -3 -3 8.73 0.55
-8 3 3 9.66 0.79
7 -3 -3 2.22 0.3
7 -3 -3 1.77 0.32
-7 3 3 1.92 0.3
6 -3 -3 1.66 0.26
6 -3 -3 1.59 0.21
-6 3 3 2.49 0.34
5 -3 -3 8.57 0.47
5 -3 -3 8.35 0.53
-5 3 3 8.58 0.56
-5 3 3 8.33 0.57
4 -3 -3 56.62 2.53
4 -3 -3 55.54 2.71
-4 3 3 53.34 2.71
-4 3 3 56.72 2.93
3 -3 -3 0.99 0.15
3 -3 -3 0.63 0.12
3 -3 -3 0.87 0.16
-3 3 3 1 0.15
-3 3 3 0.7 0.12
2 -3 -3 2.21 0.18
2 -3 -3 2.43 0.22
-2 3 3 2.38 0.19
-2 3 3 2.91 0.26
1 -3 -3 248.65 13.17
1 -3 -3 245.26 11.37
-1 3 3 268.45 13.17
-1 3 3 251.82 11.37
0 -3 -3 10.13 0.51
0 -3 -3 10.89 0.61
0 3 3 10.97 0.63
-1 -3 -3 1.13 0.19
-1 -3 -3 1.55 0.12
1 3 3 1.17 0.18
1 3 3 1.3 0.12
2 3 3 18.48 1.07
-3 -3 -3 2.02 0.19
3 3 3 1.97 0.26
3 3 3 2.04 0.37
4 3 3 8.17 0.52
4 3 3 7.66 0.64
5 3 3 45.45 2.59
5 3 3 48.1 2.34
6 3 3 -0.16 0.31
6 3 3 0.04 0.28
7 3 3 1.78 0.42
7 3 3 2.21 0.49
8 3 3 4.13 0.54
8 3 3 3.49 0.61
9 3 3 1.17 0.59
9 3 3 1.63 0.55
10 3 3 3.6 0.72
10 3 3 2.22 0.63
11 -4 -3 0.14 0.56
10 -4 -3 2.16 0.53
-10 4 3 0.83 0.29
9 -4 -3 7.6 0.49
-9 4 3 7.67 0.65
8 -4 -3 1.06 0.36
8 -4 -3 0.81 0.23
-8 4 3 0.49 0.24
7 -4 -3 5.63 0.52
7 -4 -3 5.52 0.41
-7 4 3 5.64 0.52
6 -4 -3 20.25 0.98
6 -4 -3 19.36 1.07
-6 4 3 20.34 1.15
5 -4 -3 1.43 0.22
5 -4 -3 1.09 0.2
-5 4 3 1.38 0.26
-5 4 3 0.93 0.18
4 -4 -3 1.3 0.23
4 -4 -3 1.7 0.2
4 -4 -3 1.15 0.21
3 -4 -3 39.63 2.12
3 -4 -3 39.73 1.95
3 -4 -3 40.83 1.84
-3 4 3 40.17 1.95
2 -4 -3 0.63 0.12
2 -4 -3 0.72 0.11
-2 4 3 0.65 0.11
-2 4 3 0.77 0.15
1 -4 -3 102.31 4.84
1 -4 -3 109.52 5.61
-1 4 3 101.47 4.84
-1 4 3 116.56 5.61
0 -4 -3 48.1 2.25
0 -4 -3 50.73 2.63
0 4 3 50.09 2.64
-1 -4 -3 5.45 0.28
-1 -4 -3 5.3 0.38
1 4 3 5.24 0.28
1 4 3 5.03 0.41
2 4 3 3.93 0.41
-3 -4 -3 55.08 2.74
3 4 3 56.65 2.75
3 4 3 57.71 3.05
4 4 3 14.45 0.96
4 4 3 14.42 0.8
5 4 3 4.1 0.44
5 4 3 4.02 0.58
6 4 3 -0.32 0.29
6 4 3 -0.02 0.36
7 4 3 -0.02 0.43
7 4 3 -0.03 0.36
8 4 3 0.77 0.44
8 4 3 0.83 0.53
9 4 3 26.52 1.62
9 4 3 28.24 1.89
10 4 3 3.42 0.68
10 4 3 3.85 0.77
11 -5 -3 11.48 1.06
10 -5 -3 0.02 0.49
10 -5 -3 -0.21 0.19
9 -5 -3 1.4 0.24
9 -5 -3 2.63 0.46
-9 5 3 1.77 0.3
8 -5 -3 3.21 0.51
8 -5 -3 2.62 0.35
-8 5 3 1.54 0.26
7 -5 -3 8.87 0.53
7 -5 -3 8.05 0.63
6 -5 -3 13.28 0.76
6 -5 -3 12.52 0.68
5 -5 -3 48.45 2.37
5 -5 -3 47.68 2.21
4 -5 -3 11.8 0.64
4 -5 -3 12.13 0.61
-4 5 3 11.57 0.64
3 -5 -3 22.03 1.11
3 -5 -3 22.55 1.06
-3 5 3 22.47 1.11
2 -5 -3 0.9 0.13
2 -5 -3 0.86 0.15
-2 5 3 1.35 0.23
1 -5 -3 2.38 0.24
1 -5 -3 2.37 0.2
-1 5 3 2.2 0.2
-1 5 3 2.24 0.27
0 -5 -3 3.26 0.22
0 -5 -3 3.4 0.29
0 5 3 3.38 0.34
-1 -5 -3 36.35 1.63
1 5 3 35.11 1.64
1 5 3 35.89 1.96
2 5 3 68.9 3.68
-3 -5 -3 1.06 0.18
3 5 3 0.71 0.27
4 5 3 6.49 0.47
4 5 3 5.58 0.63
5 5 3 2.81 0.43
5 5 3 3.46 0.6
6 5 3 1.71 0.36
6 5 3 1.81 0.46
7 5 3 4.46 0.82
7 5 3 4.81 0.63
8 5 3 14.7 1.28
8 5 3 15.67 1.06
9 5 3 0.91 0.64
9 5 3 1.58 0.57
10 5 3 1.12 0.67
10 5 3 1.37 0.69
11 -6 -3 -0.54 0.57
10 -6 -3 2.2 0.33
10 -6 -3 4.94 0.74
9 -6 -3 1.72 0.31
9 -6 -3 2.89 0.47
8 -6 -3 15.35 0.93
8 -6 -3 13.47 0.79
7 -6 -3 8.36 0.53
7 -6 -3 7.93 0.63
6 -6 -3 46.75 2.22
6 -6 -3 49.12 2.38
5 -6 -3 2.32 0.32
5 -6 -3 3.06 0.29
4 -6 -3 25.78 1.24
4 -6 -3 25.48 1.31
-4 6 3 27.13 1.31
3 -6 -3 18.49 0.9
2 -6 -3 1.68 0.21
1 -6 -3 65.89 3.08
1 -6 -3 68.16 3.57
-1 6 3 69.3 3.58
0 -6 -3 25.4 1.19
0 6 3 25.6 1.42
-1 -6 -3 0.44 0.1
1 6 3 0.21 0.2
1 6 3 0.17 0.1
2 6 3 20.61 1.24
3 6 3 2.91 0.5
4 6 3 3.4 0.36
4 6 3 3.77 0.57
5 6 3 6.85 0.74
5 6 3 6.3 0.51
6 6 3 3.82 0.72
6 6 3 2.61 0.44
7 6 3 0.95 0.52
7 6 3 0.22 0.34
8 6 3 2.91 0.51
8 6 3 3.77 0.7
9 6 3 0.54 0.63
9 6 3 0.54 0.48
11 -7 -3 3.44 0.65
11 -7 -3 1.39 0.28
10 -7 -3 1.54 0.28
10 -7 -3 2.69 0.56
9 -7 -3 0.39 0.27
9 -7 -3 0.85 0.46
8 -7 -3 45.03 2.34
8 -7 -3 45.31 2.14
7 -7 -3 13.56 0.76
7 -7 -3 14.45 0.86
6 -7 -3 23.84 1.23
6 -7 -3 22.75 1.14
5 -7 -3 14.99 0.79
5 -7 -3 13.58 0.74
4 -7 -3 0.32 0.15
4 -7 -3 0.56 0.16
-4 7 3 0.72 0.15
3 -7 -3 7.25 0.43
2 -7 -3 13.84 0.71
-2 7 3 14.19 0.83
1 -7 -3 1.92 0.23
1 -7 -3 2.11 0.26
-1 7 3 2.16 0.32
0 -7 -3 0.5 0.13
0 7 3 0.53 0.21
-1 -7 -3 10.02 0.52
1 7 3 10.65 0.73
2 7 3 0.36 0.28
3 7 3 18.51 1.2
4 7 3 1.51 0.26
4 7 3 2.15 0.41
5 7 3 5.3 0.72
5 7 3 3.64 0.38
6 7 3 11.9 1
6 7 3 8.89 0.65
7 7 3 6.68 0.6
7 7 3 8.43 0.99
8 7 3 -0.14 0.59
8 7 3 -0.18 0.32
9 7 3 -0.24 0.64
11 -8 -3 0.01 0.59
11 -8 -3 0.12 0.24
10 -8 -3 0.44 0.32
10 -8 -3 1.01 0.52
9 -8 -3 12.88 0.97
9 -8 -3 11.92 0.75
8 -8 -3 4.32 0.62
8 -8 -3 3.73 0.44
7 -8 -3 0.52 0.3
7 -8 -3 0.27 0.23
6 -8 -3 7.62 0.56
6 -8 -3 7.83 0.52
5 -8 -3 3.05 0.35
5 -8 -3 3.18 0.34
4 -8 -3 1.48 0.21
3 -8 -3 5.73 0.4
2 -8 -3 14.05 0.85
2 -8 -3 14.94 0.74
1 -8 -3 37.14 1.75
-1 8 3 38.2 2.06
0 -8 -3 8.67 0.47
0 8 3 8.4 0.65
-1 -8 -3 9.23 0.49
1 8 3 9.05 0.72
-2 -8 -3 4.96 0.32
2 8 3 4.84 0.6
3 8 3 0.49 0.33
4 8 3 14.17 1.08
5 8 3 4.87 0.75
5 8 3 3.32 0.36
6 8 3 6.93 0.88
6 8 3 3.03 0.41
7 8 3 -0.32 0.26
7 8 3 0.14 0.54
8 8 3 3.7 0.76
11 -9 -3 0.1 0.27
11 -9 -3 1 0.62
10 -9 -3 0.22 0.35
9 -9 -3 10.6 0.77
9 -9 -3 12.52 0.92
8 -9 -3 3.44 0.46
8 -9 -3 3.3 0.59
7 -9 -3 0.31 0.25
7 -9 -3 -0.34 0.29
6 -9 -3 1.14 0.28
6 -9 -3 1.17 0.25
5 -9 -3 0.02 0.2
5 -9 -3 0.11 0.2
4 -9 -3 30.94 1.48
3 -9 -3 6.22 0.43
2 -9 -3 0.22 0.16
1 -9 -3 0.99 0.18
-1 9 3 0.87 0.25
0 -9 -3 3.65 0.31
0 9 3 3.41 0.5
-1 -9 -3 4.06 0.31
1 9 3 3.86 0.56
-2 -9 -3 33.97 1.55
2 9 3 32.22 1.94
3 9 3 29.19 1.77
4 9 3 7.12 0.84
5 9 3 3.44 0.59
6 9 3 0.04 0.53
7 9 3 0.55 0.58
8 9 3 4.02 0.8
11 -10 -3 1.11 0.41
10 -10 -3 1.68 0.38
9 -10 -3 1.59 0.37
8 -10 -3 1.08 0.39
8 -10 -3 0.54 0.31
7 -10 -3 16.53 0.98
7 -10 -3 16.21 0.91
6 -10 -3 10.77 0.71
6 -10 -3 11.18 0.68
5 -10 -3 17.15 0.91
4 -10 -3 7.01 0.49
3 -10 -3 3.35 0.37
2 -10 -3 1.11 0.21
-2 10 3 0.87 0.19
1 -10 -3 12.32 0.67
-1 10 3 12.44 0.85
0 -10 -3 1.52 0.21
0 10 3 1.46 0.34
-1 -10 -3 3.79 0.32
1 10 3 4.01 0.6
-2 -10 -3 7.04 0.44
2 10 3 7.25 0.74
3 10 3 4.24 0.73
4 10 3 5.59 0.84
5 10 3 0.33 0.51
6 10 3 1.13 0.61
7 10 3 5.7 1.07
11 -11 -3 0.71 0.38
10 -11 -3 1.24 0.41
9 -11 -3 6.04 0.65
9 -11 -3 6.88 0.78
8 -11 -3 0.4 0.39
8 -11 -3 0.45 0.33
7 -11 -3 8.34 0.64
7 -11 -3 9.18 0.69
6 -11 -3 7.48 0.58
6 -11 -3 7.86 0.59
5 -11 -3 6.44 0.52
4 -11 -3 6.86 0.51
3 -11 -3 0.31 0.22
2 -11 -3 4.97 0.41
-2 11 3 3.9 0.41
1 -11 -3 1.88 0.24
-1 11 3 1.16 0.27
0 -11 -3 16.35 0.85
0 11 3 17.04 1.12
-1 -11 -3 0.35 0.17
1 11 3 0.55 0.34
-2 -11 -3 4.04 0.35
2 11 3 4.75 0.7
3 11 3 0.11 0.43
4 11 3 7.03 0.92
5 11 3 3.82 0.7
6 11 3 -0.05 0.57
7 11 3 0.92 0.69
11 -12 -3 0.04 0.42
10 -12 -3 -0.05 0.4
9 -12 -3 0.01 0.37
9 -12 -3 0.01 0.5
8 -12 -3 8.21 0.82
8 -12 -3 8.07 0.69
7 -12 -3 0.18 0.32
7 -12 -3 0.35 0.35
6 -12 -3 4.78 0.52
5 -12 -3 1.99 0.33
4 -12 -3 0.2 0.25
3 -12 -3 0.85 0.25
2 -12 -3 1.87 0.27
1 -12 -3 2.44 0.35
-1 12 3 2.12 0.4
0 -12 -3 0.85 0.21
0 12 3 0.91 0.31
-1 -12 -3 2.08 0.33
1 12 3 1.98 0.45
-2 -12 -3 1.11 0.21
2 12 3 1.34 0.45
3 12 3 6.65 0.89
4 12 3 0.57 0.54
5 12 3 -0.05 0.58
6 12 3 6.43 1.13
10 -13 -3 0.61 0.4
9 -13 -3 0.53 0.4
8 -13 -3 1.84 0.45
7 -13 -3 0.63 0.36
6 -13 -3 -0.25 0.3
5 -13 -3 0.43 0.3
4 -13 -3 6.36 0.54
3 -13 -3 0.03 0.24
2 -13 -3 4.85 0.46
1 -13 -3 0.88 0.24
-1 13 3 0.75 0.25
0 -13 -3 0.59 0.23
0 13 3 0.46 0.29
-1 -13 -3 9.49 0.59
1 13 3 9.29 0.9
-2 -13 -3 15.18 0.83
2 13 3 15.44 1.21
3 13 3 2.44 0.61
4 13 3 3.02 0.68
5 13 3 0.53 0.61
10 -14 -3 0.87 0.48
9 -14 -3 1.22 0.48
8 -14 -3 0.61 0.45
7 -14 -3 0.07 0.36
6 -14 -3 5.07 0.59
5 -14 -3 1.13 0.35
4 -14 -3 3.79 0.5
3 -14 -3 0.65 0.29
2 -14 -3 6.47 0.53
1 -14 -3 7.49 0.56
0 -14 -3 13.25 0.68
0 14 3 7.92 0.8
-1 -14 -3 4.73 0.44
1 14 3 4.8 0.66
2 14 3 3.6 0.63
3 14 3 1.32 0.59
4 14 3 0.7 0.6
8 -15 -3 1.71 0.47
7 -15 -3 2.91 0.49
6 -15 -3 0.23 0.35
5 -15 -3 12.7 0.85
4 -15 -3 2.36 0.39
3 -15 -3 1.47 0.34
2 -15 -3 1.62 0.32
1 -15 -3 14.81 0.86
0 -15 -3 0.29 0.26
0 15 3 0.52 0.29
1 15 3 5.73 0.71
2 15 3 0.22 0.52
3 15 3 12.26 1.25
7 -16 -3 2.66 0.51
6 -16 -3 0.53 0.41
5 -16 -3 8.33 0.75
4 -16 -3 -0.02 0.35
3 -16 -3 0.29 0.33
2 -16 -3 -0.17 0.3
1 -16 -3 0.76 0.3
0 -16 -3 2.46 0.35
2 16 3 1.25 0.46
6 -17 -3 1.41 0.49
5 -17 -3 1.16 0.45
4 -17 -3 1.86 0.43
3 -17 -3 0.44 0.35
2 -17 -3 0.41 0.33
1 -17 -3 1.07 0.34
4 -18 -3 2.23 0.45
3 -18 -3 4.24 0.6
1 -19 4 8.55 0.76
2 -19 4 0.27 0.37
3 -19 4 -0.26 0.38
4 -19 4 0.81 0.44
5 -19 4 0.7 0.45
-1 -18 4 0.1 0.34
0 -18 4 -0.15 0.31
1 -18 4 0.21 0.33
2 -18 4 6.18 0.66
3 -18 4 9.96 0.8
4 -18 4 0.44 0.4
5 -18 4 0.01 0.42
6 -18 4 0.38 0.42
7 -18 4 1.02 0.46
-1 -17 4 0.61 0.3
0 -17 4 5.17 0.56
1 -17 4 14.64 0.91
2 -17 4 0.4 0.32
3 -17 4 2.81 0.42
4 -17 4 0.22 0.36
5 -17 4 6.09 0.68
6 -17 4 0.74 0.41
7 -17 4 12.73 0.97
8 -17 4 0.81 0.47
4 16 -4 -0.16 0.48
3 16 -4 0.03 0.42
2 16 -4 -0.26 0.28
-2 -16 4 -0.3 0.24
-1 -16 4 16.84 0.95
0 -16 4 5.37 0.54
1 -16 4 4.19 0.52
2 -16 4 0.04 0.29
3 -16 4 2.32 0.43
3 -16 4 2.54 0.39
4 -16 4 0.18 0.32
4 -16 4 0.25 0.28
5 -16 4 4.52 0.59
5 -16 4 4.12 0.57
6 -16 4 4.64 0.62
6 -16 4 3.56 0.61
7 -16 4 1.82 0.45
7 -16 4 0.98 0.41
8 -16 4 -0.01 0.4
8 -16 4 0.79 0.49
9 -16 4 5.11 0.76
9 -16 4 5.1 0.86
5 15 -4 0.48 0.53
4 15 -4 2.69 0.58
3 15 -4 4.08 0.78
2 15 -4 8.17 0.83
-2 -15 4 12.36 0.69
1 15 -4 0.11 0.23
-1 -15 4 0.57 0.25
0 -15 4 10.87 0.69
0 -15 4 10.07 0.68
1 -15 4 9.67 0.65
1 -15 4 8.06 0.61
2 -15 4 10.21 0.69
2 -15 4 9.22 0.64
3 -15 4 3.41 0.5
3 -15 4 2.63 0.42
4 -15 4 8.29 0.66
4 -15 4 8.39 0.62
5 -15 4 4.04 0.55
5 -15 4 4.49 0.54
6 -15 4 5.34 0.61
6 -15 4 4.69 0.61
7 -15 4 0.8 0.41
7 -15 4 0.43 0.38
8 -15 4 4.02 0.66
8 -15 4 4.93 0.75
9 -15 4 2.02 0.48
9 -15 4 2.32 0.56
10 -15 4 2.24 0.63
10 -15 4 0.88 0.45
6 14 -4 0.17 0.52
5 14 -4 5.87 0.94
4 14 -4 6.48 0.89
3 14 -4 1.73 0.46
-3 -14 4 1.72 0.26
-3 -14 4 1.29 0.38
2 14 -4 0.83 0.36
-2 -14 4 0.8 0.29
-2 -14 4 0.46 0.22
1 14 -4 -0.11 0.22
-1 -14 4 0.04 0.21
-1 -14 4 -0.1 0.24
0 14 -4 1.36 0.26
0 -14 4 1.94 0.28
0 -14 4 2.02 0.28
1 -14 4 17.38 0.96
1 -14 4 17.6 0.97
2 -14 4 0.18 0.25
2 -14 4 -0.13 0.22
3 -14 4 0.76 0.28
3 -14 4 0.75 0.25
4 -14 4 5.7 0.55
4 -14 4 5.45 0.51
5 -14 4 1.28 0.33
5 -14 4 1.63 0.33
6 -14 4 0.99 0.35
6 -14 4 1.48 0.37
7 -14 4 11.88 0.83
7 -14 4 12.53 0.88
8 -14 4 1.17 0.47
8 -14 4 1.19 0.39
9 -14 4 0.36 0.39
9 -14 4 0.47 0.51
10 -14 4 6.58 0.96
10 -14 4 4.77 0.69
6 13 -4 -0.16 0.51
5 13 -4 0.02 0.45
5 13 -4 0.18 0.2
4 13 -4 4.09 0.44
4 13 -4 5.23 0.79
3 13 -4 1.79 0.44
-3 -13 4 1.93 0.32
2 13 -4 0.89 0.34
-2 -13 4 0.51 0.28
-2 -13 4 0.64 0.2
1 13 -4 14.9 1.08
-1 -13 4 18.59 0.99
-1 -13 4 17.96 0.91
0 13 -4 -0.07 0.17
0 -13 4 0.24 0.22
0 -13 4 0.15 0.19
1 -13 4 0.54 0.21
1 -13 4 0.22 0.21
2 -13 4 19.48 1.04
2 -13 4 19.16 1.03
3 -13 4 1.59 0.28
3 -13 4 1.6 0.25
4 -13 4 7.27 0.56
4 -13 4 6.9 0.53
5 -13 4 5.17 0.52
5 -13 4 4.9 0.52
6 -13 4 12.58 0.84
6 -13 4 12.61 0.8
7 -13 4 4.24 0.6
7 -13 4 3.39 0.53
8 -13 4 1.51 0.41
8 -13 4 1.78 0.46
9 -13 4 0.41 0.49
9 -13 4 0.32 0.38
10 -13 4 2.53 0.6
10 -13 4 1.93 0.48
11 -13 4 -0.33 0.35
11 -13 4 2.02 0.66
7 12 -4 -0.26 0.51
6 12 -4 7.82 0.96
6 12 -4 5.04 0.53
5 12 -4 1.91 0.3
5 12 -4 3.37 0.56
4 12 -4 0.75 0.22
4 12 -4 0.1 0.38
3 12 -4 0.9 0.36
3 12 -4 0.85 0.21
-3 -12 4 1.02 0.19
2 12 -4 1.59 0.36
-2 -12 4 1.41 0.21
1 12 -4 17.48 1.12
-1 -12 4 18.65 1
-1 -12 4 16.8 0.9
0 12 -4 17.57 1.22
0 -12 4 23.38 1.07
0 -12 4 22.85 1.14
1 -12 4 2.33 0.34
1 -12 4 2.57 0.34
2 -12 4 0.9 0.22
2 -12 4 0.95 0.22
3 -12 4 11.49 0.68
3 -12 4 11.18 0.68
4 -12 4 16.1 0.9
4 -12 4 16.18 0.89
5 -12 4 3.48 0.45
5 -12 4 3.63 0.46
6 -12 4 12.32 0.77
6 -12 4 12.24 0.81
7 -12 4 8.95 0.7
7 -12 4 8.06 0.65
8 -12 4 0.13 0.33
8 -12 4 0.64 0.42
9 -12 4 4.94 0.78
9 -12 4 3.61 0.56
10 -12 4 -0.25 0.54
10 -12 4 -0.22 0.38
11 -12 4 0.71 0.62
8 11 -4 1.73 0.63
8 11 -4 1.34 0.41
7 11 -4 15.51 1.29
7 11 -4 12.56 0.93
6 11 -4 -0.19 0.25
6 11 -4 0.02 0.45
5 11 -4 4.57 0.5
5 11 -4 7.07 0.82
4 11 -4 0.44 0.37
4 11 -4 0.28 0.22
-4 -11 4 0.26 0.15
3 11 -4 4.98 0.5
3 11 -4 5.64 0.67
-3 -11 4 5.92 0.39
2 11 -4 0.15 0.28
-2 -11 4 0.22 0.15
1 11 -4 19.96 1.19
-1 -11 4 19.49 1.07
-1 -11 4 18.87 0.97
0 11 -4 0.33 0.2
0 -11 4 0.43 0.18
0 -11 4 0.66 0.21
1 -11 4 82.97 3.74
1 -11 4 80.18 3.97
2 -11 4 3.67 0.36
2 -11 4 3.84 0.36
3 -11 4 11.9 0.69
3 -11 4 11.76 0.68
4 -11 4 0.42 0.22
4 -11 4 0.83 0.23
5 -11 4 21.75 1.2
5 -11 4 23.15 1.15
6 -11 4 1.34 0.32
6 -11 4 1.44 0.3
7 -11 4 35.18 1.83
7 -11 4 34.63 1.71
8 -11 4 21.2 1.27
8 -11 4 21.33 1.14
9 -11 4 1.18 0.37
9 -11 4 1.91 0.49
10 -11 4 2.06 0.57
10 -11 4 0.91 0.32
11 -11 4 3.81 0.69
8 10 -4 6.75 1.03
8 10 -4 7.76 0.85
7 10 -4 17.61 1.39
7 10 -4 17.94 1.16
6 10 -4 2.7 0.42
6 10 -4 3.6 0.58
5 10 -4 2.33 0.37
5 10 -4 2.54 0.49
4 10 -4 2.82 0.44
4 10 -4 2.34 0.33
-4 -10 4 1.83 0.26
3 10 -4 29.78 1.52
3 10 -4 28.02 1.71
-3 -10 4 28.66 1.37
2 10 -4 63.13 3.11
2 10 -4 62.66 3.4
-2 -10 4 62.05 2.88
1 10 -4 32.33 1.8
-1 -10 4 32.03 1.52
-1 -10 4 31.79 1.65
0 10 -4 23.85 1.36
0 -10 4 24.53 1.17
0 -10 4 23.28 1.24
1 -10 4 1.47 0.22
1 -10 4 0.82 0.19
2 -10 4 23.63 1.21
2 -10 4 23.54 1.16
3 -10 4 0.86 0.19
3 -10 4 0.48 0.17
4 -10 4 2.95 0.35
4 -10 4 2.98 0.35
5 -10 4 13.5 0.83
5 -10 4 14.99 0.79
6 -10 4 19.16 0.98
6 -10 4 17.69 1.04
7 -10 4 3.98 0.54
7 -10 4 4.42 0.47
8 -10 4 0.23 0.28
8 -10 4 0.61 0.41
9 -10 4 0.66 0.44
9 -10 4 0.24 0.3
10 -10 4 4.84 0.83
10 -10 4 2.24 0.34
11 -10 4 3.35 0.67
9 9 -4 2.52 0.58
8 9 -4 6.73 0.99
8 9 -4 5.99 0.8
7 9 -4 3.23 0.6
7 9 -4 3.76 0.65
6 9 -4 2.66 0.42
6 9 -4 2.73 0.53
5 9 -4 2.53 0.36
5 9 -4 1.45 0.41
4 9 -4 5.24 0.51
4 9 -4 4.62 0.64
3 9 -4 12.39 0.87
3 9 -4 11.79 0.74
2 9 -4 15.21 0.99
2 9 -4 15.76 0.89
1 9 -4 2.37 0.38
-1 -9 4 2.78 0.27
0 9 -4 8.96 0.61
0 -9 4 9.52 0.56
0 -9 4 9.36 0.53
1 -9 4 8.36 0.52
1 -9 4 8.52 0.49
2 -9 4 14.6 0.76
2 -9 4 14.98 0.8
3 -9 4 1.68 0.28
3 -9 4 1.39 0.21
4 -9 4 7.81 0.48
4 -9 4 6.98 0.49
5 -9 4 4.99 0.41
5 -9 4 4.44 0.44
6 -9 4 4.02 0.46
6 -9 4 3.96 0.41
7 -9 4 30.34 1.64
7 -9 4 31.87 1.52
8 -9 4 0.19 0.38
8 -9 4 0.39 0.27
9 -9 4 3.42 0.39
9 -9 4 4.11 0.69
10 -9 4 0.6 0.25
11 -9 4 0.67 0.58
9 8 -4 0.84 0.52
8 8 -4 1.73 0.49
8 8 -4 0.96 0.52
7 8 -4 3.67 0.51
7 8 -4 2.82 0.57
6 8 -4 0.05 0.37
6 8 -4 -0.03 0.31
5 8 -4 11.5 0.78
5 8 -4 12.32 0.95
4 8 -4 19.62 1.07
4 8 -4 18.92 1.23
3 8 -4 2.77 0.36
3 8 -4 2.3 0.45
2 8 -4 24.38 1.42
2 8 -4 24.72 1.28
1 8 -4 17.12 1.01
0 8 -4 17.41 0.97
0 -8 4 16.75 0.96
0 -8 4 16.66 0.9
1 -8 4 0.21 0.15
1 -8 4 -0.11 0.14
2 -8 4 39.07 1.92
2 -8 4 38.59 1.81
3 -8 4 8.67 0.51
3 -8 4 8.08 0.49
4 -8 4 2.23 0.27
4 -8 4 1.9 0.3
5 -8 4 0.93 0.23
5 -8 4 0.83 0.2
6 -8 4 16.79 0.86
6 -8 4 15.92 0.93
7 -8 4 1.4 0.26
7 -8 4 0.88 0.31
8 -8 4 3.58 0.57
8 -8 4 4.21 0.43
9 -8 4 0.18 0.19
9 -8 4 1.13 0.43
10 -8 4 1.72 0.52
11 -8 4 0.75 0.55
10 7 -4 0.86 0.58
9 7 -4 17.04 1.22
8 7 -4 5.07 0.85
8 7 -4 4.29 0.72
7 7 -4 0.88 0.43
7 7 -4 1.76 0.43
6 7 -4 7.63 0.8
6 7 -4 7.95 0.67
5 7 -4 10.55 0.74
5 7 -4 10.97 0.86
4 7 -4 14.89 0.98
4 7 -4 13.95 0.84
3 7 -4 -0.06 0.21
3 7 -4 -0.12 0.19
2 7 -4 22.24 1.3
2 7 -4 22.94 1.17
1 7 -4 1.54 0.22
1 7 -4 1.28 0.22
0 -7 4 16.08 0.9
0 -7 4 16.36 0.83
0 -7 4 14.79 0.83
1 -7 4 22.19 1.13
2 -7 4 76.19 3.48
2 -7 4 76.45 3.7
3 -7 4 10.87 0.61
3 -7 4 10.81 0.58
4 -7 4 30.31 1.52
4 -7 4 29.97 1.42
5 -7 4 0.82 0.23
5 -7 4 1.05 0.19
6 -7 4 6.29 0.44
6 -7 4 6.22 0.49
7 -7 4 25.53 1.22
7 -7 4 24.36 1.35
8 -7 4 19.95 1.07
8 -7 4 15.45 0.87
9 -7 4 15.74 0.82
10 -7 4 0.09 0.47
11 -7 4 0.61 0.54
12 -7 4 1.04 0.62
10 6 -4 3.94 0.68
9 6 -4 2.92 0.57
8 6 -4 8.87 0.97
8 6 -4 9.53 0.84
7 6 -4 12.72 1.02
7 6 -4 11.99 0.88
6 6 -4 8.13 0.78
6 6 -4 7.91 0.66
5 6 -4 2.8 0.43
5 6 -4 1.86 0.37
4 6 -4 38.9 2.16
4 6 -4 38.5 1.95
3 6 -4 37.15 1.84
3 6 -4 36.24 2.03
2 6 -4 1.02 0.19
2 6 -4 1.1 0.21
1 6 -4 42.81 2.34
1 6 -4 44.05 2.16
-1 -6 4 42.55 2.34
-1 -6 4 45.24 2.15
0 -6 4 32.52 1.56
0 -6 4 30.05 1.56
0 -6 4 31.64 1.69
0 -6 4 31.23 1.68
-1 6 -4 29.22 1.47
1 -6 4 29.57 1.46
-2 6 -4 1.01 0.15
3 -6 4 2.52 0.25
3 -6 4 2.56 0.25
4 -6 4 2.36 0.29
4 -6 4 2.36 0.26
5 -6 4 27.31 1.3
5 -6 4 27.57 1.41
6 -6 4 18.47 0.92
6 -6 4 18.23 1.01
7 -6 4 1.92 0.3
7 -6 4 1.83 0.33
8 -6 4 3.53 0.53
8 -6 4 2.27 0.26
9 -6 4 0.77 0.42
10 -6 4 2.79 0.54
11 -6 4 1.22 0.56
12 -6 4 0.79 0.63
10 5 -4 13.21 1.13
9 5 -4 5.69 0.8
8 5 -4 0.27 0.42
8 5 -4 -0.4 0.39
7 5 -4 30.26 1.84
7 5 -4 30.4 1.64
6 5 -4 0.83 0.33
6 5 -4 0.8 0.29
5 5 -4 2.37 0.39
5 5 -4 2.24 0.35
4 5 -4 -0.06 0.2
4 5 -4 0.23 0.19
3 5 -4 2.43 0.35
3 5 -4 2.86 0.32
2 5 -4 20.08 1.14
2 5 -4 20.18 1.04
1 5 -4 34.85 1.77
-1 -5 4 36.93 1.77
-1 -5 4 35.46 1.92
0 -5 4 11.55 0.63
0 -5 4 11.41 0.63
0 -5 4 12.04 0.67
0 -5 4 12.11 0.67
-1 5 -4 0.98 0.15
1 -5 4 0.88 0.14
-2 5 -4 0.51 0.12
2 -5 4 0.67 0.13
3 -5 4 5.73 0.36
3 -5 4 5.41 0.35
4 -5 4 7.19 0.42
4 -5 4 7.56 0.47
5 -5 4 42.23 2.08
5 -5 4 41.48 1.93
6 -5 4 33.33 1.57
6 -5 4 33.85 1.71
7 -5 4 0.92 0.3
7 -5 4 0.94 0.16
7 -5 4 1.12 0.27
8 -5 4 5.02 0.55
8 -5 4 4.63 0.54
8 -5 4 2.74 0.27
9 -5 4 -0.31 0.35
9 -5 4 0.19 0.39
10 -5 4 -0.03 0.45
10 -5 4 0.31 0.43
11 -5 4 2.15 0.59
12 -5 4 -0.07 0.62
11 4 -4 0.26 0.65
-11 -4 4 0.69 0.64
10 4 -4 0.4 0.57
-10 -4 4 0.1 0.57
9 4 -4 9.68 0.9
8 4 -4 16.53 1.07
7 4 -4 2.22 0.42
7 4 -4 2.96 0.52
6 4 -4 3.13 0.5
6 4 -4 3.04 0.46
5 4 -4 0.25 0.23
5 4 -4 0.25 0.21
4 4 -4 1.4 0.24
4 4 -4 1.6 0.23
-4 -4 4 1.33 0.18
3 4 -4 15.12 0.79
3 4 -4 14.12 0.87
-3 -4 4 14.51 0.7
2 4 -4 104.59 5.08
-2 -4 4 107.14 5.53
-2 -4 4 104.19 5.08
1 4 -4 -0.14 0.1
-1 -4 4 -0.02 0.1
-1 -4 4 0.03 0.1
-1 -4 4 0.06 0.08
0 -4 4 18.19 0.94
0 -4 4 18.76 1
0 -4 4 18.61 0.94
-1 4 -4 40.41 1.97
1 -4 4 40.03 1.97
-2 4 -4 1.24 0.16
2 -4 4 1.5 0.19
-3 4 -4 10.34 0.57
3 -4 4 10.3 0.53
3 -4 4 10.83 0.57
4 -4 4 40.31 1.89
4 -4 4 41.89 2.03
-5 4 -4 0.11 0.12
5 -4 4 0.18 0.16
5 -4 4 0.26 0.16
5 -4 4 0.12 0.12
6 -4 4 1.24 0.24
6 -4 4 1.22 0.25
6 -4 4 1.34 0.22
7 -4 4 28.11 1.56
7 -4 4 26.16 1.44
8 -4 4 3.32 0.53
8 -4 4 3.03 0.57
9 -4 4 6.93 0.71
9 -4 4 7.11 0.77
10 -4 4 1.26 0.48
10 -4 4 1.01 0.48
11 -4 4 2.8 0.61
11 -4 4 1.45 0.57
12 -4 4 0.15 0.63
11 3 -4 6.72 1
-11 -3 4 6.58 1.07
10 3 -4 27.58 1.66
-10 -3 4 27.03 1.87
9 3 -4 0.68 0.47
8 3 -4 0.75 0.39
7 3 -4 11.83 0.81
6 3 -4 4.07 0.46
6 3 -4 4.21 0.52
4 3 -4 20.55 1.24
4 3 -4 22.54 1.13
-4 -3 4 21.94 1.02
3 3 -4 1.36 0.23
-3 -3 4 1.15 0.15
2 3 -4 0.36 0.11
-2 -3 4 0.37 0.13
-2 -3 4 0.31 0.12
-2 -3 4 0.36 0.09
1 3 -4 86.1 4.32
-1 -3 4 90.37 4.32
-1 -3 4 92.08 4.68
0 -3 4 24.19 1.24
0 -3 4 24.62 1.24
0 -3 4 25.83 1.33
-1 3 -4 5.97 0.36
-1 3 -4 5.49 0.34
1 -3 4 5.84 0.34
1 -3 4 6.67 0.37
-2 3 -4 65.93 3.29
-2 3 -4 60.75 3.03
2 -3 4 61.19 3.04
2 -3 4 62.89 3.28
-3 3 -4 3.89 0.27
-3 3 -4 3.25 0.25
3 -3 4 3.56 0.28
3 -3 4 3.41 0.28
-4 3 -4 14.05 0.79
4 -3 4 13.86 0.81
4 -3 4 14.57 0.75
4 -3 4 13.05 0.67
-5 3 -4 12.22 0.76
5 -3 4 13.07 0.78
5 -3 4 12.53 0.71
6 -3 4 12.22 0.74
6 -3 4 12.59 0.82
7 -3 4 0.55 0.3
7 -3 4 0.49 0.28
8 -3 4 1.05 0.36
8 -3 4 0.6 0.35
9 -3 4 17.47 1.2
9 -3 4 15.98 1.07
10 -3 4 18.57 1.28
10 -3 4 20.58 1.41
11 -3 4 1.69 0.58
11 -3 4 2.31 0.61
11 2 -4 0.96 0.61
-11 -2 4 -0.43 0.56
10 2 -4 4.85 0.77
-10 -2 4 2.52 0.59
9 2 -4 14.09 1.03
-9 -2 4 15.09 1.18
8 2 -4 3.11 0.56
7 2 -4 22.2 1.23
6 2 -4 15.71 0.9
5 2 -4 1.68 0.24
-5 -2 4 1.59 0.18
4 2 -4 18.76 0.99
-4 -2 4 19.3 0.9
3 2 -4 2.1 0.23
-3 -2 4 1.88 0.19
-3 -2 4 1.76 0.24
-3 -2 4 1.77 0.17
-3 -2 4 1.81 0.26
2 2 -4 20.62 1.04
-2 -2 4 20 1.03
-2 -2 4 20.93 1.14
-2 -2 4 21.6 1.15
-2 -2 4 20.68 0.96
1 2 -4 9.26 0.52
1 2 -4 8.34 0.47
-1 -2 4 9.07 0.52
-1 -2 4 8.94 0.47
0 2 -4 45.25 2.36
0 -2 4 45.19 2.19
0 -2 4 43.23 2.19
0 -2 4 46.26 2.37
-1 2 -4 1.68 0.16
1 -2 4 1.73 0.17
1 -2 4 1.5 0.19
-2 2 -4 151.99 7.37
2 -2 4 156.41 7.37
2 -2 4 152.56 7.99
-3 2 -4 10.47 0.56
3 -2 4 10.65 0.58
3 -2 4 10.54 0.63
4 -2 4 42.73 2.1
4 -2 4 42.38 2.29
5 -2 4 36.35 1.84
5 -2 4 37.23 2.02
6 -2 4 15.37 0.88
6 -2 4 15.26 0.98
7 -2 4 1.32 0.33
7 -2 4 1.73 0.35
8 -2 4 42.16 2.34
8 -2 4 39.85 2.13
9 -2 4 6.56 0.82
9 -2 4 6.55 0.73
10 -2 4 3.05 0.58
10 -2 4 4.75 0.86
11 -2 4 0.7 0.58
11 -2 4 -0.11 0.57
11 1 -4 0.07 0.57
-11 -1 4 -0.14 0.51
10 1 -4 14.3 1.1
-10 -1 4 14.95 1.21
9 1 -4 2.47 0.48
-9 -1 4 2.32 0.49
8 1 -4 0.23 0.36
-8 -1 4 -0.03 0.36
7 1 -4 2.67 0.48
6 1 -4 19.8 1.05
-6 -1 4 18.56 0.91
5 1 -4 9.45 0.61
5 1 -4 10.31 0.54
-5 -1 4 10.1 0.51
-5 -1 4 10.24 0.68
4 1 -4 53.06 2.61
4 1 -4 51.66 2.43
-4 -1 4 54.07 2.85
-4 -1 4 54.73 2.43
3 1 -4 23.97 1.18
3 1 -4 25.5 1.27
-3 -1 4 25.36 1.17
-3 -1 4 25.11 1.4
-3 -1 4 26.7 1.39
-3 -1 4 25.69 1.26
2 1 -4 5.54 0.35
2 1 -4 5.39 0.32
2 1 -4 5.16 0.3
-2 -1 4 5.74 0.37
-2 -1 4 5.04 0.31
-2 -1 4 5.35 0.3
1 1 -4 49.08 2.59
1 1 -4 48.25 2.39
1 1 -4 48.87 2.24
-1 -1 4 50.77 2.6
-1 -1 4 48 2.39
-1 -1 4 51.41 2.24
0 1 -4 15.06 0.8
0 -1 4 13.71 0.73
0 -1 4 15.18 0.81
-1 1 -4 1.82 0.19
-1 1 -4 1.87 0.15
1 -1 4 1.82 0.21
1 -1 4 1.64 0.17
-2 1 -4 59.97 2.93
-2 1 -4 60.66 3.19
2 -1 4 62.23 2.93
2 -1 4 59.92 3.19
-3 1 -4 0.15 0.09
-3 1 -4 0.13 0.11
3 -1 4 0.14 0.12
3 -1 4 -0.1 0.12
4 -1 4 1.62 0.32
4 -1 4 1.9 0.26
5 -1 4 0.43 0.23
5 -1 4 0.42 0.2
6 -1 4 58.94 2.9
6 -1 4 57.88 3.17
7 -1 4 29.16 1.57
7 -1 4 29.84 1.74
8 -1 4 0.03 0.38
8 -1 4 -0.11 0.36
9 -1 4 -0.75 0.43
9 -1 4 0.25 0.44
10 -1 4 0.52 0.54
10 -1 4 0.57 0.51
11 -1 4 0.18 0.59
11 -1 4 0.53 0.56
-12 0 4 4.38 0.76
-11 0 4 3.55 0.77
10 0 -4 2.5 0.52
-10 0 4 -1.01 0.54
9 0 -4 -0.06 0.41
-9 0 4 -0.81 0.38
8 0 -4 1.03 0.36
-8 0 4 -0.3 0.35
7 0 -4 48.5 2.45
-7 0 4 48.59 2.67
6 0 -4 13.2 0.7
6 0 -4 13.34 0.79
-6 0 4 13.64 0.87
5 0 -4 40.59 1.85
5 0 -4 38.8 1.99
-5 0 4 39.72 2.17
-5 0 4 40.31 1.83
4 0 -4 4.96 0.32
4 0 -4 4.71 0.36
-4 0 4 5.36 0.29
-4 0 4 4.35 0.4
3 0 -4 12.8 0.69
3 0 -4 13.24 0.64
-3 0 4 13.57 0.63
-3 0 4 12.71 0.68
-3 0 4 13.25 0.76
2 0 -4 65.49 3.48
2 0 -4 65.92 3.2
2 0 -4 66.37 3
-2 0 4 66.98 3
-2 0 4 66.88 3.2
-2 0 4 66.34 3.48
1 0 -4 552.6 27.64
1 0 -4 562.31 25.87
1 0 -4 611.6 29.96
-1 0 4 566.31 25.88
-1 0 4 597.34 29.96
0 0 -4 1.12 0.17
0 0 -4 0.85 0.12
0 0 4 0.92 0.13
0 0 4 0.91 0.13
0 0 4 1.21 0.2
-1 0 -4 0.25 0.07
-1 0 -4 0.18 0.09
1 0 4 0.07 0.07
1 0 4 0.11 0.1
1 0 4 -0.02 0.06
-2 0 -4 39.19 2.07
-2 0 -4 38.27 1.89
2 0 4 40.31 1.9
2 0 4 37.97 2.08
-3 0 -4 2.79 0.27
-3 0 -4 2.89 0.23
3 0 4 3.44 0.33
3 0 4 2.84 0.26
4 0 4 74.35 3.57
4 0 4 72.09 3.89
5 0 4 112.67 5.98
5 0 4 113.79 5.49
6 0 4 17.84 1
6 0 4 17.33 1.13
7 0 4 2.94 0.46
7 0 4 3.31 0.42
8 0 4 7.6 0.82
8 0 4 6.02 0.68
9 0 4 0.1 0.48
9 0 4 0.55 0.45
10 0 4 1 0.58
10 0 4 -0.11 0.51
11 0 4 4.53 0.74
11 0 4 7.11 1.12
12 -1 -4 1.22 0.63
-12 1 4 0.46 0.52
11 -1 -4 0.27 0.56
-11 1 4 -1.94 0.52
10 -1 -4 0.14 0.49
-10 1 4 -0.11 0.45
9 -1 -4 14.63 0.97
-9 1 4 13.38 1.06
8 -1 -4 6.13 0.44
8 -1 -4 8.31 0.65
-8 1 4 8.46 0.72
7 -1 -4 11.62 0.69
7 -1 -4 13.59 0.81
-7 1 4 14.05 0.89
6 -1 -4 18.37 0.99
6 -1 -4 18.49 0.9
-6 1 4 16.8 1.08
5 -1 -4 1.69 0.3
5 -1 -4 1.55 0.24
-5 1 4 1.26 0.23
4 -1 -4 2.31 0.27
4 -1 -4 2.72 0.23
-4 1 4 2.24 0.28
-4 1 4 2.15 0.29
-4 1 4 2.6 0.2
3 -1 -4 17.04 0.93
3 -1 -4 17.51 0.79
3 -1 -4 16.61 0.85
-3 1 4 17.31 0.79
-3 1 4 16.33 0.92
-3 1 4 14.92 0.84
2 -1 -4 13.01 0.73
2 -1 -4 13.09 0.63
-2 1 4 13.44 0.63
-2 1 4 13.02 0.74
1 -1 -4 1.26 0.15
1 -1 -4 1.42 0.18
-1 1 4 1.19 0.13
-1 1 4 1.33 0.14
-1 1 4 1.48 0.21
0 -1 -4 61.66 2.89
0 -1 -4 67.21 3.37
0 1 4 64.06 3.37
0 1 4 63.33 2.89
-1 -1 -4 16.55 0.88
-1 -1 -4 14.61 0.74
1 1 4 16.75 0.89
1 1 4 15.84 0.73
-2 -1 -4 23.13 1.27
-2 -1 -4 22.87 1.14
2 1 4 23.89 1.15
2 1 4 22.39 1.28
-3 -1 -4 153.9 7.77
3 1 4 167.51 7.78
3 1 4 164.04 8.46
4 1 4 5.52 0.41
4 1 4 5.1 0.5
5 1 4 5.01 0.44
5 1 4 4.58 0.54
6 1 4 17.59 1
6 1 4 17.2 1.14
7 1 4 11.01 0.78
7 1 4 10.45 0.91
8 1 4 0.83 0.47
8 1 4 1.28 0.42
9 1 4 -0.07 0.46
9 1 4 0.12 0.5
10 1 4 -0.12 0.55
10 1 4 0.63 0.59
11 1 4 0.8 0.7
11 1 4 2.25 0.69
12 -2 -4 0.09 0.61
11 -2 -4 1.26 0.59
-11 2 4 1.06 0.41
10 -2 -4 1.45 0.52
-10 2 4 0.42 0.45
9 -2 -4 0.09 0.41
9 -2 -4 0.18 0.17
-9 2 4 -0.29 0.34
8 -2 -4 1 0.36
8 -2 -4 0.84 0.19
-8 2 4 1.01 0.34
7 -2 -4 17.86 0.89
7 -2 -4 16.59 0.99
-7 2 4 17.3 1.07
6 -2 -4 2.19 0.36
6 -2 -4 1.9 0.28
-6 2 4 2.5 0.37
5 -2 -4 7.87 0.43
5 -2 -4 7.02 0.49
-5 2 4 7.69 0.53
4 -2 -4 8.78 0.52
4 -2 -4 9.01 0.48
-4 2 4 9.59 0.57
3 -2 -4 0.37 0.11
3 -2 -4 0.48 0.11
3 -2 -4 0.43 0.11
-3 2 4 0.39 0.12
-3 2 4 0.48 0.1
2 -2 -4 49.24 2.6
2 -2 -4 46.95 2.38
2 -2 -4 50.17 2.24
-2 2 4 47.27 2.38
-2 2 4 51.1 2.24
-2 2 4 51.48 2.6
1 -2 -4 209.95 11.19
1 -2 -4 210.55 9.65
-1 2 4 221.28 11.19
-1 2 4 219.15 9.65
0 -2 -4 13.93 0.77
0 -2 -4 13.32 0.64
0 2 4 14.02 0.78
-1 -2 -4 0.37 0.08
-1 -2 -4 0.39 0.11
1 2 4 0.51 0.08
1 2 4 0.41 0.15
-2 -2 -4 9.3 0.56
-2 -2 -4 8.44 0.46
2 2 4 8.87 0.47
2 2 4 8.82 0.58
-3 -2 -4 21.02 1.09
3 2 4 22.07 1.26
3 2 4 22.42 1.11
4 2 4 21.24 1.25
4 2 4 20.65 1.09
5 2 4 55.17 2.65
5 2 4 51.3 2.92
6 2 4 14.79 1.08
6 2 4 16.5 0.94
7 2 4 2.33 0.46
7 2 4 1.88 0.41
8 2 4 4.63 0.81
8 2 4 3.74 0.65
9 2 4 10.35 1.11
9 2 4 11.31 0.95
10 2 4 -0.54 0.56
10 2 4 0.06 0.61
11 2 4 3.84 0.84
11 2 4 3.87 0.74
12 -3 -4 1.66 0.66
11 -3 -4 0.65 0.59
-11 3 4 -0.37 0.35
10 -3 -4 -0.01 0.49
-10 3 4 -0.14 0.29
9 -3 -4 23.01 1.31
9 -3 -4 31.52 1.55
-9 3 4 28.2 1.61
8 -3 -4 7.46 0.63
8 -3 -4 6.02 0.46
-8 3 4 7.37 0.65
7 -3 -4 1.4 0.31
7 -3 -4 1.4 0.23
-7 3 4 1.67 0.3
6 -3 -4 0.41 0.17
6 -3 -4 0.47 0.22
-6 3 4 0.5 0.22
5 -3 -4 2.18 0.3
5 -3 -4 2.29 0.25
-5 3 4 2.29 0.31
4 -3 -4 0.14 0.13
4 -3 -4 0.16 0.12
4 -3 -4 -0.06 0.12
-4 3 4 0.01 0.13
3 -3 -4 83.24 4.45
3 -3 -4 80.71 4.1
3 -3 -4 86.75 3.84
-3 3 4 83.57 4.1
-3 3 4 90.82 4.45
2 -3 -4 14.75 0.82
2 -3 -4 14.54 0.7
-2 3 4 14.28 0.7
-2 3 4 15 0.85
1 -3 -4 0.07 0.11
1 -3 -4 -0.01 0.08
-1 3 4 0.02 0.13
-1 3 4 -0.22 0.08
0 -3 -4 46.14 2.46
0 -3 -4 44.95 2.1
0 3 4 48.07 2.47
-1 -3 -4 35.35 1.62
-1 -3 -4 37.36 1.92
1 3 4 34.89 1.93
1 3 4 35.4 1.63
2 3 4 24.82 1.39
-3 -3 -4 26.88 1.37
3 3 4 27.44 1.57
3 3 4 28.59 1.39
4 3 4 47.34 2.33
4 3 4 47.02 2.6
5 3 4 0.56 0.32
5 3 4 0.66 0.26
6 3 4 9.87 0.87
6 3 4 10.65 0.72
7 3 4 13.45 1.09
7 3 4 13.84 0.92
8 3 4 33.84 2.19
8 3 4 37.06 1.94
9 3 4 0.77 0.57
9 3 4 1.32 0.54
10 3 4 5.54 1.09
10 3 4 5.64 0.92
12 -4 -4 0.78 0.65
11 -4 -4 10.36 1.06
10 -4 -4 39.56 1.9
-10 4 4 29.21 1.93
9 -4 -4 0.7 0.42
9 -4 -4 -0.14 0.18
-9 4 4 0.18 0.25
8 -4 -4 0.26 0.23
8 -4 -4 0.17 0.33
-8 4 4 0.56 0.25
7 -4 -4 19.68 1.14
7 -4 -4 20.86 1.04
-7 4 4 22.14 1.24
6 -4 -4 49.78 2.5
6 -4 -4 49.57 2.32
-6 4 4 51.96 2.71
5 -4 -4 0.32 0.18
5 -4 -4 0.44 0.15
-5 4 4 0.37 0.17
-5 4 4 0.45 0.17
4 -4 -4 77.2 3.5
4 -4 -4 74.2 4.04
4 -4 -4 75.3 3.73
-4 4 4 81.44 4.05
3 -4 -4 0.18 0.11
3 -4 -4 0.16 0.1
3 -4 -4 0.16 0.11
-3 4 4 0.41 0.1
-3 4 4 0.13 0.15
2 -4 -4 9.57 0.5
2 -4 -4 9.74 0.59
-2 4 4 9.87 0.61
1 -4 -4 3.54 0.29
1 -4 -4 3.43 0.23
-1 4 4 3.57 0.32
-1 4 4 3.61 0.24
0 -4 -4 66.03 3.01
0 -4 -4 66.28 3.52
0 4 4 67.77 3.53
-1 -4 -4 1.32 0.15
1 4 4 1 0.22
1 4 4 0.89 0.14
2 4 4 102.49 5.41
-3 -4 -4 0.21 0.11
3 4 4 0.15 0.16
3 4 4 0.05 0.22
4 4 4 9.4 0.59
4 4 4 9.53 0.75
5 4 4 8.33 0.6
5 4 4 8 0.76
6 4 4 53.83 2.63
6 4 4 50.16 2.93
7 4 4 22.16 1.53
7 4 4 23.19 1.31
8 4 4 9.69 0.86
8 4 4 9.52 1.06
9 4 4 0.18 0.59
9 4 4 -0.23 0.51
10 4 4 1.94 0.71
10 4 4 2.3 0.65
11 -5 -4 3.75 0.69
10 -5 -4 2.02 0.34
9 -5 -4 1.19 0.43
9 -5 -4 0.6 0.23
-9 5 4 0.63 0.26
8 -5 -4 37.39 1.81
8 -5 -4 38.87 1.98
7 -5 -4 0.99 0.31
7 -5 -4 0.95 0.23
-7 5 4 0.98 0.22
6 -5 -4 44.21 2.15
6 -5 -4 42.08 2
-6 5 4 42.74 2.33
5 -5 -4 8.63 0.5
5 -5 -4 8.93 0.55
4 -5 -4 2.21 0.25
4 -5 -4 2.35 0.24
-4 5 4 2.33 0.24
3 -5 -4 11.08 0.68
3 -5 -4 11.42 0.59
-3 5 4 12.41 0.71
2 -5 -4 135.4 6.26
2 -5 -4 133.63 7.26
-2 5 4 148.31 7.27
1 -5 -4 118.94 5.54
1 -5 -4 121.66 6.43
-1 5 4 128.69 6.44
0 -5 -4 1.06 0.16
0 5 4 0.66 0.21
-1 -5 -4 1.13 0.16
1 5 4 0.86 0.22
1 5 4 0.66 0.11
2 5 4 17.77 1.08
3 5 4 1.5 0.32
4 5 4 19.62 1.28
4 5 4 20.61 1.07
5 5 4 6.6 0.52
5 5 4 5.87 0.7
6 5 4 0.95 0.44
6 5 4 0.98 0.32
7 5 4 -0.33 0.37
7 5 4 -0.16 0.46
8 5 4 4.8 0.7
8 5 4 4.82 0.93
9 5 4 5.11 1.04
9 5 4 5.5 0.81
10 5 4 2.19 0.75
10 5 4 1.47 0.64
11 -6 -4 0.05 0.59
10 -6 -4 5.9 0.75
10 -6 -4 3.25 0.39
9 -6 -4 4.33 0.68
9 -6 -4 3.96 0.44
8 -6 -4 1.35 0.39
8 -6 -4 0.9 0.26
7 -6 -4 0.02 0.21
7 -6 -4 0.38 0.29
6 -6 -4 1.65 0.29
6 -6 -4 2.39 0.31
5 -6 -4 0.63 0.17
5 -6 -4 0.48 0.2
4 -6 -4 13.31 0.7
4 -6 -4 13.76 0.73
-4 6 4 14.3 0.73
3 -6 -4 35.57 1.65
2 -6 -4 0.61 0.13
2 -6 -4 0.49 0.16
-2 6 4 0.69 0.18
1 -6 -4 3.57 0.33
1 -6 -4 3.66 0.27
-1 6 4 4.02 0.38
0 -6 -4 24.98 1.16
0 6 4 24.8 1.41
-1 -6 -4 1.77 0.19
1 6 4 1.37 0.18
1 6 4 1.42 0.27
2 6 4 11.05 0.79
3 6 4 4.52 0.58
4 6 4 26.19 1.49
4 6 4 34.95 1.79
5 6 4 0.3 0.37
5 6 4 0.37 0.2
6 6 4 3.71 0.43
6 6 4 5.53 0.78
7 6 4 1.63 0.34
7 6 4 2.83 0.6
8 6 4 -0.37 0.33
8 6 4 0.73 0.59
9 6 4 1.58 0.72
11 -7 -4 5.79 0.89
11 -7 -4 2.07 0.32
10 -7 -4 1.03 0.3
10 -7 -4 1.8 0.52
9 -7 -4 -0.32 0.28
9 -7 -4 0.25 0.45
8 -7 -4 0.52 0.26
8 -7 -4 0.75 0.36
7 -7 -4 13.82 0.76
7 -7 -4 13.68 0.86
6 -7 -4 1.75 0.28
6 -7 -4 1.1 0.22
5 -7 -4 1 0.19
5 -7 -4 1.03 0.21
4 -7 -4 48.07 2.22
3 -7 -4 6.12 0.39
2 -7 -4 3.96 0.31
2 -7 -4 3.42 0.37
-2 7 4 4.62 0.4
1 -7 -4 20.05 0.97
-1 7 4 20.49 1.18
0 -7 -4 4.34 0.3
0 7 4 4.33 0.46
-1 -7 -4 4.71 0.3
1 7 4 4.06 0.51
2 7 4 0.27 0.29
3 7 4 -0.08 0.31
4 7 4 3.25 0.65
5 7 4 3.15 0.35
5 7 4 4.36 0.72
6 7 4 2.12 0.54
7 7 4 16.35 1.25
7 7 4 10.85 0.8
8 7 4 0.83 0.62
8 7 4 0.51 0.33
9 7 4 0.33 0.67
11 -8 -4 0.23 0.59
11 -8 -4 -0.07 0.24
10 -8 -4 6.11 0.6
9 -8 -4 12.53 0.8
9 -8 -4 14.44 0.99
8 -8 -4 3.36 0.57
8 -8 -4 2.57 0.42
7 -8 -4 28.05 1.44
7 -8 -4 30.66 1.55
6 -8 -4 0.81 0.26
6 -8 -4 0.84 0.23
5 -8 -4 1.59 0.24
5 -8 -4 1.48 0.23
4 -8 -4 4.7 0.37
3 -8 -4 40.45 1.89
2 -8 -4 2.35 0.28
-2 8 4 2.85 0.38
1 -8 -4 35.38 1.69
-1 8 4 37.11 2
0 -8 -4 1.74 0.24
0 8 4 1.2 0.28
-1 -8 -4 0.94 0.15
1 8 4 0.69 0.3
2 8 4 4.51 0.61
3 8 4 44.11 2.51
4 8 4 1.71 0.44
5 8 4 12.99 1.1
6 8 4 6.46 0.92
7 8 4 3.27 0.69
8 8 4 5.67 1.06
11 -9 -4 5.14 0.61
11 -9 -4 8.03 0.95
10 -9 -4 0.98 0.36
9 -9 -4 13.02 0.92
9 -9 -4 10 0.74
8 -9 -4 0.21 0.28
8 -9 -4 0.17 0.39
7 -9 -4 0.38 0.26
7 -9 -4 0.12 0.31
6 -9 -4 1.31 0.29
6 -9 -4 1.34 0.26
5 -9 -4 7.43 0.51
4 -9 -4 2.61 0.33
3 -9 -4 21.41 1.06
2 -9 -4 24.28 1.15
-2 9 4 22.99 1.35
1 -9 -4 16.75 0.85
-1 9 4 17.15 1.06
0 -9 -4 1 0.18
0 9 4 1.08 0.31
-1 -9 -4 5.8 0.37
1 9 4 5.08 0.65
-2 -9 -4 15.86 0.77
2 9 4 14.82 1.1
3 9 4 9.33 0.89
4 9 4 16.42 1.22
5 9 4 8.61 0.97
6 9 4 6.05 0.97
7 9 4 0.33 0.61
8 9 4 0.4 0.71
11 -10 -4 -0.37 0.35
10 -10 -4 17.73 1.08
9 -10 -4 3.13 0.51
9 -10 -4 2.86 0.4
8 -10 -4 2.78 0.38
8 -10 -4 2.79 0.45
7 -10 -4 3.5 0.46
7 -10 -4 3.56 0.52
6 -10 -4 6.27 0.52
6 -10 -4 6.21 0.53
5 -10 -4 0.77 0.25
4 -10 -4 30.35 1.47
3 -10 -4 14.1 0.77
2 -10 -4 0.58 0.2
-2 10 4 0.48 0.2
1 -10 -4 0.09 0.18
-1 10 4 -0.09 0.27
0 -10 -4 2.11 0.3
0 10 4 1.95 0.38
-1 -10 -4 0.04 0.15
1 10 4 0.23 0.35
-2 -10 -4 35.43 1.65
2 10 4 35.36 2.09
3 10 4 17.14 1.24
4 10 4 0.14 0.46
5 10 4 0.38 0.51
6 10 4 2.01 0.66
7 10 4 0.7 0.63
11 -11 -4 -0.13 0.4
10 -11 -4 0.99 0.4
9 -11 -4 5.32 0.7
9 -11 -4 3.19 0.55
8 -11 -4 0.68 0.39
8 -11 -4 0.4 0.33
7 -11 -4 2.85 0.46
7 -11 -4 2.17 0.39
6 -11 -4 12.46 0.74
6 -11 -4 11.29 0.75
5 -11 -4 3.38 0.42
4 -11 -4 -0.04 0.23
3 -11 -4 29.73 1.45
2 -11 -4 0.01 0.21
-2 11 4 0.1 0.19
1 -11 -4 2.79 0.35
-1 11 4 2.39 0.45
0 -11 -4 24.71 1.19
0 11 4 23.74 1.5
-1 -11 -4 0.18 0.17
1 11 4 -0.26 0.37
-2 -11 -4 1 0.19
2 11 4 1.12 0.42
3 11 4 0.17 0.45
4 11 4 4.28 0.86
5 11 4 0.68 0.57
6 11 4 4.31 0.81
10 -12 -4 0.04 0.41
9 -12 -4 1.6 0.43
9 -12 -4 2.84 0.54
8 -12 -4 0.17 0.39
8 -12 -4 0.22 0.34
7 -12 -4 1.84 0.36
7 -12 -4 1.35 0.36
6 -12 -4 3.28 0.49
5 -12 -4 6.28 0.54
4 -12 -4 2.52 0.43
3 -12 -4 4.36 0.45
2 -12 -4 8.64 0.54
-2 12 4 6.01 0.57
1 -12 -4 5 0.43
-1 12 4 4 0.5
0 -12 -4 5.17 0.42
0 12 4 4.85 0.65
-1 -12 -4 1.46 0.23
1 12 4 1.16 0.43
-2 -12 -4 1.47 0.23
2 12 4 1.69 0.49
3 12 4 0.58 0.5
4 12 4 2.89 0.63
5 12 4 8.01 1.14
6 12 4 9 1.23
10 -13 -4 2.93 0.53
9 -13 -4 2.89 0.51
8 -13 -4 0.4 0.4
7 -13 -4 3.18 0.55
6 -13 -4 1.02 0.35
5 -13 -4 0.44 0.31
4 -13 -4 0.74 0.29
3 -13 -4 2.26 0.33
2 -13 -4 0.33 0.25
1 -13 -4 5.97 0.46
-1 13 4 4.21 0.53
0 -13 -4 0.49 0.22
0 13 4 0.24 0.29
-1 -13 -4 0.08 0.21
1 13 4 -0.49 0.4
2 13 4 -0.29 0.46
3 13 4 6.45 0.96
4 13 4 3.81 0.73
5 13 4 5.76 0.88
9 -14 -4 5.79 0.68
7 -14 -4 5.95 0.66
6 -14 -4 1.17 0.38
5 -14 -4 3.07 0.41
4 -14 -4 0.09 0.29
3 -14 -4 6.62 0.56
2 -14 -4 6.67 0.54
1 -14 -4 0.58 0.26
0 -14 -4 1.36 0.28
0 14 4 0.8 0.33
-1 -14 -4 -0.38 0.22
1 14 4 0.53 0.38
2 14 4 0.39 0.52
3 14 4 7.26 1.06
4 14 4 0.58 0.65
7 -15 -4 0.2 0.41
6 -15 -4 0.06 0.37
5 -15 -4 8.29 0.72
4 -15 -4 13.36 0.86
3 -15 -4 3.2 0.48
2 -15 -4 4.4 0.49
1 -15 -4 -0.1 0.26
0 -15 -4 0.67 0.29
0 15 4 0.94 0.34
2 15 4 5.99 0.99
3 15 4 0.02 0.62
7 -16 -4 2.53 0.5
6 -16 -4 1.81 0.44
5 -16 -4 0.75 0.38
4 -16 -4 -0.25 0.33
3 -16 -4 1 0.34
2 -16 -4 -0.17 0.3
1 -16 -4 7.41 0.61
0 -16 -4 1.34 0.33
5 -17 -4 0.07 0.4
4 -17 -4 0.23 0.38
3 -17 -4 3.47 0.58
2 -17 -4 1.44 0.39
1 -17 -4 -0.43 0.31
1 -19 5 0.31 0.36
2 -19 5 0.24 0.37
3 -19 5 0.24 0.39
4 -19 5 0.15 0.44
5 -19 5 1.23 0.46
-1 -18 5 -0.02 0.31
0 -18 5 4.24 0.58
1 -18 5 1.33 0.37
2 -18 5 0.96 0.37
3 -18 5 3.85 0.62
4 -18 5 0.9 0.41
5 -18 5 -0.11 0.42
6 -18 5 6.9 0.77
7 -18 5 1.05 0.48
-1 -17 5 0.1 0.29
0 -17 5 0.41 0.31
1 -17 5 1.59 0.36
2 -17 5 -0.29 0.31
3 -17 5 1.31 0.38
4 -17 5 19.37 1.14
5 -17 5 2.22 0.44
5 -17 5 2.29 0.41
6 -17 5 2.16 0.44
6 -17 5 1.95 0.46
7 -17 5 0.72 0.43
7 -17 5 1.32 0.46
8 -17 5 0.3 0.51
8 -17 5 -1.1 0.43
-2 -16 5 -0.34 0.25
-1 -16 5 0.37 0.28
0 -16 5 1.84 0.33
1 -16 5 0.1 0.28
1 -16 5 -0.14 0.27
2 -16 5 8 0.61
2 -16 5 7.94 0.66
3 -16 5 0.58 0.29
3 -16 5 0.83 0.33
4 -16 5 0.14 0.3
4 -16 5 -0.12 0.33
5 -16 5 1.75 0.38
5 -16 5 1.07 0.38
6 -16 5 1.08 0.4
6 -16 5 1.07 0.41
7 -16 5 1.86 0.45
7 -16 5 1.62 0.44
8 -16 5 0.22 0.48
8 -16 5 -0.18 0.41
9 -16 5 1.51 0.52
9 -16 5 3.31 0.61
-2 -15 5 9.48 0.63
-2 -15 5 8.63 0.72
-1 -15 5 1.16 0.28
-1 -15 5 1.22 0.31
0 -15 5 1.37 0.29
0 -15 5 1.59 0.29
1 -15 5 1.06 0.27
1 -15 5 1.38 0.3
2 -15 5 5.35 0.55
2 -15 5 5.49 0.51
3 -15 5 1.45 0.29
3 -15 5 1.28 0.32
4 -15 5 3.04 0.47
4 -15 5 3.38 0.52
5 -15 5 0.26 0.33
5 -15 5 0.4 0.32
6 -15 5 4.07 0.62
6 -15 5 3.67 0.58
7 -15 5 2.39 0.45
7 -15 5 2.13 0.44
8 -15 5 0.1 0.39
8 -15 5 0.18 0.45
9 -15 5 2.05 0.5
9 -15 5 3.09 0.61
10 -15 5 1.9 0.64
10 -15 5 2.33 0.49
4 14 -5 3.25 0.56
3 14 -5 10.76 0.98
-3 -14 5 10.35 0.85
-3 -14 5 11.59 0.67
-2 -14 5 6.5 0.6
-2 -14 5 5.87 0.49
-1 -14 5 0.29 0.26
-1 -14 5 0.34 0.22
0 -14 5 0.09 0.24
0 -14 5 0.25 0.22
1 -14 5 6.75 0.53
1 -14 5 6.55 0.54
2 -14 5 1.09 0.26
2 -14 5 1.32 0.29
3 -14 5 20.55 1.1
3 -14 5 20.19 1.11
4 -14 5 1.94 0.31
4 -14 5 2.82 0.45
5 -14 5 0.23 0.3
5 -14 5 0.57 0.31
6 -14 5 4.24 0.56
6 -14 5 4.42 0.6
7 -14 5 7.26 0.67
7 -14 5 7.41 0.71
8 -14 5 -0.25 0.37
8 -14 5 0.41 0.44
9 -14 5 8.88 0.96
9 -14 5 7.07 0.74
10 -14 5 1.4 0.61
10 -14 5 0.81 0.42
5 13 -5 6.94 0.88
5 13 -5 5.18 0.51
4 13 -5 0.15 0.19
4 13 -5 0.03 0.39
3 13 -5 5.32 0.71
-3 -13 5 4.92 0.42
2 13 -5 0.57 0.32
-2 -13 5 0.52 0.28
-2 -13 5 0.85 0.21
-1 -13 5 14.46 0.79
-1 -13 5 14.12 0.87
0 -13 5 0.91 0.22
0 -13 5 1.12 0.27
1 -13 5 13.21 0.76
1 -13 5 13.54 0.79
2 -13 5 1.28 0.26
2 -13 5 2.09 0.37
3 -13 5 0.9 0.26
3 -13 5 0.87 0.25
4 -13 5 19.12 1
4 -13 5 17.67 1.02
5 -13 5 27.8 1.42
5 -13 5 28.33 1.49
6 -13 5 9.26 0.73
6 -13 5 9.98 0.7
7 -13 5 18.25 1.05
7 -13 5 18.07 1.12
8 -13 5 4.05 0.69
8 -13 5 3.93 0.58
9 -13 5 0.44 0.37
9 -13 5 0.53 0.5
10 -13 5 0.31 0.54
10 -13 5 0.2 0.42
11 -13 5 12.29 1.22
7 12 -5 1.64 0.38
6 12 -5 0.77 0.48
6 12 -5 0.96 0.3
5 12 -5 1.65 0.49
5 12 -5 1.43 0.29
4 12 -5 8.46 0.66
4 12 -5 10.5 0.91
-4 -12 5 9.74 0.56
3 12 -5 10.95 0.79
3 12 -5 13.21 0.99
-3 -12 5 14.33 0.71
2 12 -5 5.49 0.63
-2 -12 5 6.17 0.44
-1 -12 5 6.03 0.51
-1 -12 5 5.25 0.42
0 -12 5 6.27 0.46
0 -12 5 5.67 0.5
1 -12 5 8.66 0.56
1 -12 5 8.07 0.56
2 -12 5 0.76 0.22
2 -12 5 0.6 0.2
3 -12 5 25.06 1.3
3 -12 5 24.48 1.24
4 -12 5 21.34 1.11
4 -12 5 21.29 1.14
5 -12 5 0.27 0.26
5 -12 5 0.42 0.28
6 -12 5 10.62 0.71
6 -12 5 10.44 0.76
7 -12 5 12.79 0.91
7 -12 5 13.7 0.83
8 -12 5 0.43 0.43
8 -12 5 0.13 0.33
9 -12 5 7.21 0.88
9 -12 5 7.83 0.66
10 -12 5 3.3 0.6
10 -12 5 2.22 0.41
11 -12 5 0.06 0.62
8 11 -5 6.71 0.82
7 11 -5 3.78 0.68
6 11 -5 10.23 0.8
6 11 -5 9.77 1.01
5 11 -5 0.23 0.29
5 11 -5 -0.06 0.37
4 11 -5 12.99 1
4 11 -5 12.83 0.82
-4 -11 5 12.52 0.69
3 11 -5 3.01 0.57
3 11 -5 3.39 0.46
-3 -11 5 3.49 0.33
2 11 -5 0.25 0.26
-2 -11 5 0.15 0.16
-1 -11 5 1 0.25
-1 -11 5 1.13 0.21
0 -11 5 16.67 0.96
0 -11 5 17.65 0.89
1 -11 5 12.09 0.72
1 -11 5 12.01 0.68
2 -11 5 13.97 0.76
2 -11 5 13.42 0.77
3 -11 5 8.37 0.54
3 -11 5 8.81 0.57
4 -11 5 18.14 0.95
4 -11 5 17.94 0.99
5 -11 5 3.57 0.45
5 -11 5 4.25 0.45
6 -11 5 0.78 0.32
6 -11 5 1.12 0.29
7 -11 5 5.28 0.54
7 -11 5 6.35 0.62
8 -11 5 10.48 0.81
8 -11 5 8.65 0.69
9 -11 5 3.68 0.56
9 -11 5 3.78 0.54
10 -11 5 0.47 0.28
10 -11 5 0.82 0.52
11 -11 5 0.9 0.61
8 10 -5 0.93 0.44
7 10 -5 0.95 0.5
7 10 -5 1.2 0.42
6 10 -5 2.95 0.53
6 10 -5 2.45 0.41
5 10 -5 29.08 1.57
5 10 -5 28.72 1.79
4 10 -5 4.56 0.63
4 10 -5 4.65 0.5
-4 -10 5 4.71 0.36
3 10 -5 2.03 0.31
3 10 -5 2.31 0.37
2 10 -5 1.33 0.29
2 10 -5 1.55 0.28
-1 -10 5 0.2 0.22
-1 -10 5 0.02 0.15
0 -10 5 -0.02 0.16
0 -10 5 0.21 0.19
1 -10 5 47.64 2.37
1 -10 5 48.16 2.24
2 -10 5 1.27 0.21
2 -10 5 1.26 0.21
3 -10 5 3.03 0.35
3 -10 5 3.17 0.36
4 -10 5 14.38 0.83
4 -10 5 15.38 0.8
5 -10 5 5.41 0.49
5 -10 5 5.48 0.46
6 -10 5 4.34 0.44
6 -10 5 3.92 0.5
7 -10 5 9.9 0.73
7 -10 5 10.4 0.67
8 -10 5 0.77 0.31
8 -10 5 0.85 0.41
9 -10 5 2.12 0.51
9 -10 5 2.13 0.34
10 -10 5 7.87 0.85
10 -10 5 4.73 0.46
11 -10 5 2.69 0.63
9 9 -5 0.75 0.5
8 9 -5 1.69 0.48
7 9 -5 1.31 0.41
7 9 -5 1.07 0.48
6 9 -5 -0.01 0.31
6 9 -5 -0.12 0.36
5 9 -5 2.79 0.5
5 9 -5 2.77 0.46
4 9 -5 25.3 1.38
4 9 -5 25.81 1.55
3 9 -5 2.07 0.33
3 9 -5 1.69 0.28
2 9 -5 14.58 0.86
2 9 -5 15.42 0.95
0 -9 5 12.24 0.7
1 -9 5 0.88 0.2
1 -9 5 0.72 0.18
2 -9 5 25.42 1.3
2 -9 5 25.44 1.24
3 -9 5 1.23 0.21
3 -9 5 1.19 0.2
4 -9 5 37.09 1.78
4 -9 5 38.29 1.89
5 -9 5 7.05 0.52
5 -9 5 6.56 0.47
6 -9 5 21.96 1.1
6 -9 5 21.38 1.19
7 -9 5 1.22 0.33
7 -9 5 0.82 0.27
8 -9 5 13.82 0.96
8 -9 5 14.86 0.83
9 -9 5 0.92 0.23
9 -9 5 1.71 0.47
10 -9 5 25.79 1.56
11 -9 5 6.85 0.93
9 8 -5 6.52 0.91
8 8 -5 0.53 0.46
7 8 -5 1.06 0.41
7 8 -5 0.65 0.43
6 8 -5 10.34 0.89
6 8 -5 9.73 0.77
5 8 -5 0.9 0.34
5 8 -5 1.49 0.31
4 8 -5 13.18 0.91
4 8 -5 12.79 0.8
3 8 -5 39.97 2.21
3 8 -5 39.6 2.01
2 8 -5 2.4 0.33
2 8 -5 2.54 0.36
0 -8 5 30.64 1.64
0 -8 5 31 1.63
0 -8 5 28.41 1.52
1 -8 5 6.52 0.45
2 -8 5 40.12 1.96
2 -8 5 38.99 1.85
3 -8 5 56.97 2.65
3 -8 5 57.84 2.81
4 -8 5 8.91 0.55
4 -8 5 9.72 0.58
5 -8 5 18.21 0.98
5 -8 5 17.55 0.91
6 -8 5 7.21 0.57
6 -8 5 7.37 0.5
7 -8 5 1.64 0.34
7 -8 5 2.02 0.28
8 -8 5 3.6 0.57
8 -8 5 2.8 0.38
9 -8 5 22.07 1.11
10 -8 5 6.07 0.82
11 -8 5 1.91 0.6
10 7 -5 1.15 0.58
-10 -7 5 -0.64 0.62
9 7 -5 1.22 0.53
8 7 -5 3.45 0.55
7 7 -5 24.53 1.41
6 7 -5 17.21 1.19
6 7 -5 17.28 1.06
5 7 -5 71.26 3.56
5 7 -5 72.53 3.91
4 7 -5 28.35 1.64
4 7 -5 28.19 1.47
3 7 -5 37.03 1.86
3 7 -5 36.38 2.04
2 7 -5 1.49 0.28
1 7 -5 35.49 1.79
0 -7 5 5 0.37
0 -7 5 5.35 0.38
0 -7 5 4.63 0.36
1 -7 5 140.57 6.78
2 -7 5 40.68 2.01
3 -7 5 3.91 0.32
3 -7 5 3.77 0.33
4 -7 5 17.69 0.89
4 -7 5 18.07 0.95
5 -7 5 25.98 1.26
5 -7 5 26.71 1.37
6 -7 5 21.96 1.2
6 -7 5 22.82 1.1
7 -7 5 40.6 2.12
7 -7 5 42.34 1.95
8 -7 5 2.78 0.31
8 -7 5 4.45 0.58
9 -7 5 7.52 0.7
9 -7 5 4.7 0.38
10 -7 5 1.74 0.53
11 -7 5 0.7 0.56
10 6 -5 0.88 0.57
-10 -6 5 -0.75 0.59
9 6 -5 0.3 0.49
8 6 -5 0.06 0.42
7 6 -5 10.73 0.81
6 6 -5 39.64 2.02
6 6 -5 38.11 2.24
5 6 -5 5.13 0.57
5 6 -5 5.77 0.52
4 6 -5 7.8 0.55
4 6 -5 8.37 0.63
3 6 -5 16.68 1.01
3 6 -5 16.83 0.9
2 6 -5 25.3 1.29
1 6 -5 44.39 2.21
-1 -6 5 44.29 2.39
-1 -6 5 44.97 2.38
0 -6 5 41.19 2.19
0 -6 5 41.22 2.19
0 -6 5 40.65 2.03
0 -6 5 41.32 2.03
-1 6 -5 38.88 1.93
1 -6 5 38.98 1.93
2 -6 5 142.67 6.87
3 -6 5 21.07 1.06
3 -6 5 20.32 1
4 -6 5 16.98 0.84
4 -6 5 17.09 0.91
5 -6 5 7.81 0.46
5 -6 5 7.77 0.53
6 -6 5 11.56 0.63
7 -6 5 10.32 0.58
7 -6 5 10.97 0.73
8 -6 5 5.54 0.58
8 -6 5 3.52 0.31
9 -6 5 0.45 0.35
9 -6 5 0.58 0.41
10 -6 5 2.37 0.52
11 -6 5 0.47 0.54
10 5 -5 2.99 0.66
-10 -5 5 1.63 0.65
9 5 -5 2.83 0.56
-9 -5 5 2.53 0.61
8 5 -5 3.69 0.65
7 5 -5 1.76 0.39
6 5 -5 44.68 2.28
5 5 -5 16.32 0.94
4 5 -5 2.21 0.33
-4 -5 5 2.25 0.21
3 5 -5 0.44 0.16
2 5 -5 22.95 1.17
-2 -5 5 22.83 1.28
1 5 -5 1.31 0.18
-1 -5 5 1.15 0.22
-1 -5 5 1.18 0.21
-1 -5 5 1.05 0.19
0 -5 5 5.09 0.34
0 -5 5 5.29 0.35
0 -5 5 5.21 0.35
-2 5 -5 0.39 0.12
2 -5 5 0.26 0.13
3 -5 5 0.52 0.14
4 -5 5 0.11 0.13
4 -5 5 0.18 0.16
5 -5 5 23.25 1.12
5 -5 5 24.03 1.23
6 -5 5 2.54 0.38
6 -5 5 2.57 0.28
6 -5 5 2.43 0.37
7 -5 5 0.26 0.25
7 -5 5 0.15 0.13
7 -5 5 0.26 0.28
8 -5 5 -0.05 0.33
8 -5 5 -0.23 0.3
8 -5 5 -0.16 0.12
9 -5 5 0.27 0.37
9 -5 5 0.72 0.41
10 -5 5 0.35 0.48
10 -5 5 0.46 0.44
11 -5 5 4.67 0.67
11 4 -5 -0.44 0.61
-11 -4 5 -0.46 0.57
10 4 -5 5.56 0.87
-10 -4 5 4.58 0.91
9 4 -5 1.77 0.51
-9 -4 5 0.89 0.51
8 4 -5 0.4 0.41
7 4 -5 0.08 0.33
6 4 -5 1.23 0.32
5 4 -5 3.9 0.42
-5 -4 5 3.88 0.29
4 4 -5 14.3 0.79
-4 -4 5 14.06 0.7
3 4 -5 4.87 0.38
-3 -4 5 5.2 0.3
-3 -4 5 4.98 0.42
2 4 -5 10.62 0.6
-2 -4 5 11 0.68
-2 -4 5 11.22 0.67
1 4 -5 9.84 0.56
-1 -4 5 10.12 0.56
-1 -4 5 10.51 0.62
-1 -4 5 10.48 0.61
0 -4 5 12.81 0.72
0 -4 5 14.23 0.73
0 -4 5 14.16 0.77
-1 4 -5 3.74 0.26
-1 4 -5 4.09 0.28
1 -4 5 3.94 0.29
1 -4 5 3.99 0.27
-2 4 -5 10.24 0.55
2 -4 5 10.36 0.56
3 -4 5 15.67 0.82
-4 4 -5 124.9 6.33
4 -4 5 118.7 6.33
4 -4 5 122.01 5.85
4 -4 5 118.96 5.46
-5 4 -5 2.16 0.25
5 -4 5 1.67 0.33
5 -4 5 1.8 0.22
5 -4 5 1.51 0.24
6 -4 5 0.96 0.25
6 -4 5 0.97 0.25
6 -4 5 1.25 0.2
7 -4 5 0.06 0.27
7 -4 5 0.08 0.28
8 -4 5 1.3 0.37
8 -4 5 1.23 0.37
9 -4 5 0.79 0.42
9 -4 5 0.69 0.41
10 -4 5 25.08 1.55
10 -4 5 27.23 1.69
11 -4 5 5.35 0.92
11 -4 5 3.49 0.66
11 3 -5 2.3 0.66
-11 -3 5 0.06 0.6
10 3 -5 12.79 1.06
-10 -3 5 10.55 1.13
9 3 -5 2.21 0.5
-9 -3 5 1.24 0.5
8 3 -5 16.67 1.06
-8 -3 5 16.37 1.19
7 3 -5 3.66 0.53
6 3 -5 4.87 0.49
5 3 -5 7.37 0.53
-5 -3 5 7.52 0.41
4 3 -5 150.05 7.21
-4 -3 5 154.27 7.83
-4 -3 5 143.93 6.73
3 3 -5 14.39 0.78
-3 -3 5 14.96 0.87
-3 -3 5 14.69 0.71
2 3 -5 35.66 1.81
-2 -3 5 37.35 1.81
-2 -3 5 34.26 1.68
-2 -3 5 39.13 1.98
-2 -3 5 37.55 1.99
1 3 -5 2.04 0.2
1 3 -5 2.19 0.21
-1 -3 5 2.23 0.21
-1 -3 5 1.84 0.23
0 3 -5 21.1 1.13
0 -3 5 21.42 1.06
0 -3 5 19.45 1.05
0 -3 5 21.88 1.14
-1 3 -5 0.05 0.08
-1 3 -5 0.07 0.1
1 -3 5 0.03 0.11
1 -3 5 0.01 0.11
-2 3 -5 123.61 6.54
-2 3 -5 121.41 6.03
2 -3 5 128.64 6.04
2 -3 5 127.66 6.53
-3 3 -5 118.7 6.14
3 -3 5 118.37 5.67
3 -3 5 115.75 6.14
-4 3 -5 17.59 0.97
4 -3 5 17.05 0.83
4 -3 5 17.88 0.91
4 -3 5 16.64 0.99
5 -3 5 0.56 0.21
5 -3 5 0.48 0.18
6 -3 5 0.44 0.24
6 -3 5 0.19 0.24
7 -3 5 0.21 0.29
7 -3 5 0.06 0.28
8 -3 5 22.79 1.4
8 -3 5 21.44 1.27
9 -3 5 28.19 1.69
9 -3 5 33.15 1.88
10 -3 5 0 0.48
10 -3 5 0.22 0.48
11 -3 5 0.63 0.58
11 -3 5 0.73 0.57
11 2 -5 9.24 1.06
-11 -2 5 7.32 1.11
10 2 -5 0.95 0.54
-10 -2 5 -0.15 0.47
9 2 -5 1.74 0.48
-9 -2 5 1.28 0.47
8 2 -5 1.74 0.4
-8 -2 5 1.79 0.43
7 2 -5 7.57 0.63
-7 -2 5 7.29 0.69
6 2 -5 45.91 2.32
-6 -2 5 46.34 2.54
5 2 -5 15.9 0.86
-5 -2 5 15.46 0.75
-5 -2 5 15.18 0.95
4 2 -5 1.02 0.19
-4 -2 5 1.09 0.14
-4 -2 5 0.86 0.2
3 2 -5 0.21 0.12
-3 -2 5 0.12 0.1
-3 -2 5 0.25 0.14
2 2 -5 9.53 0.55
2 2 -5 10.02 0.6
-2 -2 5 10.59 0.61
-2 -2 5 10.4 0.55
-2 -2 5 10.41 0.51
1 2 -5 9.44 0.51
1 2 -5 9.13 0.55
-1 -2 5 10.18 0.52
-1 -2 5 9.78 0.56
-1 -2 5 9.33 0.47
0 2 -5 67.16 3.43
0 -2 5 70.86 3.43
0 -2 5 60.85 3.17
0 -2 5 63.1 3.17
-1 2 -5 152.4 7.87
-1 2 -5 148.49 7.25
1 -2 5 152.76 7.86
1 -2 5 150.12 7.25
-2 2 -5 0.96 0.15
2 -2 5 1.2 0.2
2 -2 5 0.9 0.17
-3 2 -5 0.31 0.1
3 -2 5 0.47 0.14
3 -2 5 0.21 0.14
4 -2 5 9.93 0.56
4 -2 5 9.2 0.63
5 -2 5 29.47 1.66
5 -2 5 29.67 1.51
6 -2 5 13.45 0.79
6 -2 5 12.57 0.88
7 -2 5 16.26 0.98
7 -2 5 16.67 1.1
8 -2 5 6.14 0.73
8 -2 5 5.44 0.64
9 -2 5 0.26 0.43
9 -2 5 0.17 0.43
10 -2 5 2.54 0.6
10 -2 5 2.67 0.56
11 -2 5 0.62 0.59
11 -2 5 1.79 0.63
11 1 -5 0 0.59
-11 -1 5 0.91 0.57
10 1 -5 1.64 0.53
-10 -1 5 0.06 0.51
9 1 -5 0.16 0.42
-9 -1 5 -0.08 0.38
8 1 -5 7.04 0.64
-8 -1 5 6.05 0.7
7 1 -5 108.46 5.34
-7 -1 5 110.27 5.81
6 1 -5 22.65 1.06
6 1 -5 20.62 1.16
-6 -1 5 21.45 1.28
5 1 -5 5.07 0.36
5 1 -5 5.32 0.42
-5 -1 5 5.28 0.47
4 1 -5 1.81 0.26
4 1 -5 1.45 0.17
-4 -1 5 0.99 0.21
-4 -1 5 1.7 0.18
3 1 -5 0.52 0.13
3 1 -5 0.75 0.14
-3 -1 5 0.53 0.12
-3 -1 5 0.74 0.11
-3 -1 5 0.61 0.15
2 1 -5 0.05 0.09
2 1 -5 0.15 0.09
2 1 -5 -0.01 0.09
-2 -1 5 0.15 0.11
-2 -1 5 0.06 0.08
-2 -1 5 0.01 0.08
1 1 -5 173.21 8.07
1 1 -5 180.21 9.35
1 1 -5 176.79 8.62
-1 -1 5 184.81 9.36
-1 -1 5 179.1 8.63
-1 -1 5 184.86 8.08
0 1 -5 5.92 0.38
0 -1 5 5.91 0.32
0 -1 5 5.44 0.35
0 -1 5 6.32 0.41
-1 1 -5 10.08 0.53
-1 1 -5 10.52 0.61
1 -1 5 9.86 0.54
1 -1 5 11 0.62
-2 1 -5 0.28 0.09
-2 1 -5 0.41 0.11
2 -1 5 0.34 0.13
2 -1 5 0.35 0.11
-3 1 -5 49.36 2.65
-3 1 -5 48.39 2.43
3 -1 5 50.03 2.67
3 -1 5 51.81 2.44
4 -1 5 79.49 4.31
4 -1 5 83.52 3.96
5 -1 5 13.5 0.9
5 -1 5 14.18 0.79
6 -1 5 3.38 0.43
6 -1 5 3.02 0.52
7 -1 5 14.14 0.91
7 -1 5 14.67 1.03
8 -1 5 4.02 0.68
8 -1 5 3.14 0.58
9 -1 5 0.4 0.46
9 -1 5 1.36 0.5
10 -1 5 -0.64 0.51
10 -1 5 0.92 0.56
11 -1 5 -0.3 0.58
11 -1 5 0.06 0.6
-12 0 5 0.64 0.61
11 0 -5 0.84 0.57
10 0 -5 3.19 0.56
-10 0 5 1.28 0.56
9 0 -5 16.96 1.09
-9 0 5 16.73 1.2
8 0 -5 15.14 0.86
8 0 -5 9.78 0.65
-8 0 5 14.29 0.96
7 0 -5 7.59 0.5
7 0 -5 9.35 0.65
-7 0 5 8.15 0.7
6 0 -5 0.3 0.19
6 0 -5 0.15 0.24
-6 0 5 0.44 0.23
5 0 -5 16.83 0.9
5 0 -5 16.48 0.83
-5 0 5 16.32 0.99
4 0 -5 18.63 0.87
4 0 -5 17.79 0.93
-4 0 5 17.45 0.85
-4 0 5 17.75 1.03
3 0 -5 26.22 1.24
3 0 -5 26.42 1.32
3 0 -5 25.69 1.44
-3 0 5 27.18 1.44
-3 0 5 26.39 1.23
-3 0 5 26.57 1.32
2 0 -5 46.83 2.11
2 0 -5 45.82 2.45
2 0 -5 45.25 2.25
-2 0 5 47.71 2.45
-2 0 5 45.45 2.25
-2 0 5 46.45 2.11
1 0 -5 1.84 0.16
1 0 -5 2.13 0.21
1 0 -5 1.81 0.17
-1 0 5 1.86 0.17
-1 0 5 2.34 0.21
0 0 -5 0.54 0.09
0 0 -5 0.69 0.12
0 0 5 0.81 0.14
0 0 5 0.58 0.1
0 0 5 0.71 0.1
-1 0 -5 8.33 0.45
-1 0 -5 9.17 0.53
1 0 5 8.69 0.43
1 0 5 8.64 0.54
1 0 5 8.45 0.46
-2 0 -5 0.33 0.12
-2 0 -5 0.47 0.09
2 0 5 0.57 0.15
2 0 5 0.35 0.11
-3 0 -5 0.27 0.1
3 0 5 0.18 0.12
3 0 5 0.29 0.17
4 0 5 9.71 0.57
4 0 5 8.86 0.65
5 0 5 20.8 1.06
5 0 5 18.3 1.19
6 0 5 25.64 1.35
6 0 5 24.64 1.51
7 0 5 47.69 2.43
7 0 5 47.65 2.68
8 0 5 2.72 0.48
8 0 5 3.09 0.54
9 0 5 0.63 0.51
9 0 5 -0.1 0.46
10 0 5 0.83 0.56
10 0 5 1.57 0.62
11 0 5 9.6 1.09
11 0 5 11.36 1.25
12 -1 -5 0.88 0.64
-12 1 5 -0.68 0.52
11 -1 -5 2.95 0.62
-11 1 5 1.86 0.59
10 -1 -5 8.68 0.85
-10 1 5 7.55 0.86
9 -1 -5 2.4 0.46
-9 1 5 1.04 0.42
8 -1 -5 5.31 0.4
8 -1 -5 6.25 0.62
-8 1 5 6.29 0.66
7 -1 -5 6.82 0.49
7 -1 -5 6.62 0.57
-7 1 5 6.81 0.61
6 -1 -5 0.83 0.24
6 -1 -5 1.01 0.21
-6 1 5 0.65 0.24
5 -1 -5 10.72 0.64
5 -1 -5 10.84 0.59
-5 1 5 10.81 0.7
4 -1 -5 17.39 0.95
4 -1 -5 18.62 0.89
-4 1 5 18.79 1.04
3 -1 -5 49.37 2.5
3 -1 -5 50.87 2.72
3 -1 -5 53.73 2.35
-3 1 5 51.97 2.73
-3 1 5 52.93 2.35
-3 1 5 49.79 2.5
2 -1 -5 33.03 1.78
2 -1 -5 33.8 1.53
-2 1 5 33.38 1.53
-2 1 5 32.86 1.78
1 -1 -5 81.38 4.22
1 -1 -5 87.59 3.96
1 -1 -5 90.43 4.6
-1 1 5 94.03 4.61
-1 1 5 86.03 3.96
0 -1 -5 11.36 0.64
0 -1 -5 10.03 0.52
0 1 5 10.72 0.52
-1 -1 -5 1.17 0.14
-1 -1 -5 1.93 0.21
1 1 5 1.54 0.14
1 1 5 1.63 0.24
-2 -1 -5 0.92 0.14
-2 -1 -5 1.12 0.2
2 1 5 1.07 0.18
2 1 5 1 0.19
-3 -1 -5 101.91 5.05
3 1 5 103.36 5.52
3 1 5 109.14 5.06
4 1 5 98.23 4.7
4 1 5 95.66 5.14
5 1 5 2.07 0.37
5 1 5 1.72 0.34
6 1 5 2.33 0.41
6 1 5 2.74 0.45
7 1 5 1.2 0.43
7 1 5 1.59 0.4
8 1 5 0.27 0.44
8 1 5 0.82 0.47
9 1 5 27.24 1.62
9 1 5 28.58 1.87
10 1 5 26.76 1.66
10 1 5 26.68 1.88
11 1 5 0.72 0.68
11 1 5 0.16 0.62
12 -2 -5 1.35 0.65
11 -2 -5 -0.2 0.55
-11 2 5 0.87 0.39
10 -2 -5 6.26 0.82
-10 2 5 6.57 0.8
9 -2 -5 4.12 0.38
9 -2 -5 4.31 0.64
-9 2 5 4.55 0.66
8 -2 -5 0.33 0.34
8 -2 -5 0.71 0.2
-8 2 5 0.61 0.33
7 -2 -5 0.89 0.31
7 -2 -5 1.25 0.26
-7 2 5 1.35 0.3
6 -2 -5 2.98 0.4
6 -2 -5 3.07 0.32
-6 2 5 3.69 0.43
5 -2 -5 4.32 0.4
5 -2 -5 5.53 0.35
-5 2 5 5.2 0.43
4 -2 -5 36.04 1.82
4 -2 -5 38.14 1.7
4 -2 -5 36.1 1.97
-4 2 5 36.68 1.98
3 -2 -5 0.4 0.11
3 -2 -5 0.31 0.12
3 -2 -5 0.36 0.12
-3 2 5 0.36 0.14
2 -2 -5 29.23 1.62
2 -2 -5 30.15 1.38
-2 2 5 30.1 1.39
-2 2 5 29.03 1.47
-2 2 5 31.78 1.62
1 -2 -5 0.5 0.13
1 -2 -5 0.44 0.09
-1 2 5 0.3 0.09
-1 2 5 0.32 0.14
0 -2 -5 -0.02 0.08
0 -2 -5 -0.01 0.1
0 2 5 0.06 0.12
0 2 5 0.16 0.08
-1 -2 -5 25.7 1.25
-1 -2 -5 27.18 1.49
1 2 5 27.91 1.5
1 2 5 28.47 1.25
2 2 5 101.29 4.78
2 2 5 96.95 5.22
-3 -2 -5 19.62 1
3 2 5 19.81 1.16
3 2 5 20.14 1.02
4 2 5 1.4 0.29
4 2 5 1.34 0.23
5 2 5 2.46 0.39
5 2 5 1.89 0.36
6 2 5 3.33 0.6
6 2 5 3.59 0.5
7 2 5 11.2 0.98
7 2 5 11.58 0.84
8 2 5 26.75 1.53
8 2 5 26.79 1.75
9 2 5 14.32 1.1
9 2 5 14.96 1.3
10 2 5 -0.29 0.62
10 2 5 0.17 0.56
12 -3 -5 10.89 1.14
11 -3 -5 0.67 0.59
-11 3 5 1.13 0.38
10 -3 -5 1 0.51
-10 3 5 1.21 0.34
9 -3 -5 2.19 0.31
9 -3 -5 2.55 0.46
-9 3 5 1.7 0.38
8 -3 -5 4.92 0.57
8 -3 -5 4.49 0.44
-8 3 5 5.57 0.62
7 -3 -5 10.75 0.74
7 -3 -5 10.97 0.64
-7 3 5 12.33 0.8
6 -3 -5 76.61 3.84
6 -3 -5 78.75 3.58
-6 3 5 80.39 4.17
5 -3 -5 16.67 0.84
5 -3 -5 16.56 0.9
-5 3 5 17.54 0.99
4 -3 -5 1.51 0.25
4 -3 -5 1.51 0.22
4 -3 -5 2.16 0.26
-4 3 5 1.84 0.28
3 -3 -5 29.54 1.34
3 -3 -5 27.78 1.55
-3 3 5 29.96 1.56
-3 3 5 27.81 1.42
2 -3 -5 2.02 0.19
2 -3 -5 2.07 0.24
-2 3 5 2.52 0.2
-2 3 5 2 0.31
1 -3 -5 41.63 2.22
1 -3 -5 40.72 1.89
-1 3 5 42.78 1.89
-1 3 5 40.28 2.22
0 -3 -5 81.69 4.32
0 -3 -5 79.64 3.7
0 3 5 85.12 4.33
-1 -3 -5 47.36 2.19
1 3 5 49.27 2.2
1 3 5 48.46 2.59
2 3 5 3 0.37
-3 -3 -5 0.33 0.11
3 3 5 0.24 0.22
3 3 5 0.52 0.17
4 3 5 2.05 0.35
4 3 5 2.56 0.35
5 3 5 -0.01 0.27
5 3 5 0.48 0.32
6 3 5 6.26 0.74
6 3 5 7.05 0.6
7 3 5 7.86 0.69
7 3 5 6.38 0.83
8 3 5 0.55 0.51
8 3 5 0.59 0.45
9 3 5 0.56 0.53
9 3 5 1.19 0.61
10 3 5 0.34 0.59
10 3 5 0.43 0.67
11 -4 -5 1.95 0.62
-11 4 5 1.07 0.38
10 -4 -5 1.36 0.51
-10 4 5 0.16 0.3
9 -4 -5 -0.01 0.41
9 -4 -5 -0.41 0.2
-9 4 5 -0.18 0.24
8 -4 -5 2.41 0.39
8 -4 -5 3.93 0.54
-8 4 5 2.77 0.44
7 -4 -5 50.22 2.39
7 -4 -5 50.24 2.58
-7 4 5 53.86 2.8
6 -4 -5 3.93 0.42
6 -4 -5 3.55 0.34
-6 4 5 3.61 0.43
5 -4 -5 0.22 0.19
5 -4 -5 0.3 0.15
-5 4 5 0.14 0.19
4 -4 -5 16.29 0.95
4 -4 -5 17.05 0.82
4 -4 -5 16.68 0.87
-4 4 5 16.52 0.87
-4 4 5 17.23 0.96
3 -4 -5 0.6 0.14
3 -4 -5 0.84 0.14
3 -4 -5 0.46 0.12
-3 4 5 0.57 0.19
2 -4 -5 18.27 0.88
2 -4 -5 17.85 1.04
-2 4 5 19.57 1.06
1 -4 -5 5.68 0.41
1 -4 -5 5.49 0.32
-1 4 5 5.29 0.33
-1 4 5 6.17 0.44
0 -4 -5 4.31 0.27
0 4 5 4.48 0.4
-1 -4 -5 3.52 0.23
1 4 5 3.21 0.23
1 4 5 3.82 0.4
2 4 5 0.1 0.2
3 4 5 0.05 0.24
4 4 5 15.39 0.86
4 4 5 15.58 1.05
5 4 5 13.56 0.79
5 4 5 11.81 0.97
6 4 5 3.95 0.53
6 4 5 3.47 0.69
7 4 5 2 0.43
7 4 5 2.43 0.54
8 4 5 8.25 0.85
8 4 5 9.88 1.06
9 4 5 2.91 0.61
9 4 5 4.59 0.77
10 4 5 4.35 0.75
10 4 5 5.75 1.14
11 -5 -5 -0.7 0.58
10 -5 -5 0.16 0.22
10 -5 -5 1.04 0.53
9 -5 -5 8 0.58
9 -5 -5 8.67 0.73
-9 5 5 6.17 0.62
8 -5 -5 4.5 0.44
8 -5 -5 4.98 0.58
-8 5 5 3.5 0.45
7 -5 -5 2.84 0.35
7 -5 -5 2.16 0.35
-7 5 5 2.35 0.37
6 -5 -5 7.15 0.52
6 -5 -5 7.25 0.46
-6 5 5 7.15 0.57
5 -5 -5 1.31 0.19
5 -5 -5 1.41 0.22
-5 5 5 1.51 0.23
4 -5 -5 4.63 0.34
4 -5 -5 4.6 0.37
4 -5 -5 4.75 0.33
-4 5 5 4.83 0.33
-4 5 5 5.3 0.44
3 -5 -5 0.12 0.14
3 -5 -5 0.07 0.12
-3 5 5 0.15 0.18
2 -5 -5 0.61 0.13
2 -5 -5 0.79 0.17
-2 5 5 0.23 0.19
1 -5 -5 0.17 0.14
1 -5 -5 0.25 0.11
-1 5 5 0.26 0.18
0 -5 -5 36.87 1.69
0 5 5 36.76 2.01
-1 -5 -5 4.11 0.26
1 5 5 4.22 0.45
1 5 5 3.99 0.26
2 5 5 12.91 0.86
3 5 5 1.85 0.34
4 5 5 28.12 1.58
4 5 5 24.04 1.31
5 5 5 20.35 1.25
5 5 5 16.49 0.98
6 5 5 0 0.25
6 5 5 0.55 0.43
7 5 5 9.92 0.75
7 5 5 11.78 1.07
8 5 5 11.95 1.2
8 5 5 10.87 0.85
9 5 5 2.93 0.72
9 5 5 2.45 0.48
11 -6 -5 -0.14 0.21
10 -6 -5 0.37 0.25
9 -6 -5 3.56 0.52
9 -6 -5 2.62 0.36
8 -6 -5 2.85 0.43
8 -6 -5 2.33 0.39
-8 6 5 2.32 0.4
7 -6 -5 4.61 0.49
7 -6 -5 4.37 0.4
-7 6 5 3.18 0.4
6 -6 -5 1.61 0.27
6 -6 -5 1.71 0.24
5 -6 -5 -0.06 0.18
5 -6 -5 0.05 0.17
4 -6 -5 15.99 0.86
-4 6 5 18.94 1.03
3 -6 -5 33.93 1.58
3 -6 -5 31.93 1.84
-3 6 5 35.96 1.87
2 -6 -5 23.62 1.38
2 -6 -5 23.99 1.17
-2 6 5 26.69 1.39
1 -6 -5 21.5 1.06
-1 6 5 23.66 1.29
0 -6 -5 8.45 0.46
0 6 5 8.56 0.63
-1 -6 -5 11.35 0.56
1 6 5 10.31 0.76
2 6 5 2.91 0.49
3 6 5 63.58 3.47
4 6 5 1.38 0.4
5 6 5 0.75 0.42
5 6 5 0.44 0.18
6 6 5 0.38 0.23
6 6 5 0.35 0.46
7 6 5 2.1 0.36
7 6 5 3.94 0.66
8 6 5 5.89 1.04
8 6 5 3.89 0.57
9 6 5 14.31 1.41
11 -7 -5 1.36 0.61
10 -7 -5 3.99 0.51
9 -7 -5 0.61 0.44
9 -7 -5 0.2 0.29
8 -7 -5 1.22 0.29
8 -7 -5 1.03 0.37
7 -7 -5 1.61 0.33
7 -7 -5 1.77 0.28
6 -7 -5 9.45 0.62
6 -7 -5 9.31 0.57
5 -7 -5 11.2 0.62
5 -7 -5 10.83 0.64
4 -7 -5 18.18 0.91
3 -7 -5 15.62 0.76
3 -7 -5 12.59 0.88
-3 7 5 17.14 0.92
2 -7 -5 18.41 0.93
-2 7 5 19.93 1.12
1 -7 -5 8.96 0.5
-1 7 5 9.74 0.67
0 -7 -5 21.57 1.02
0 7 5 20.97 1.26
-1 -7 -5 47.82 2.18
1 7 5 47.38 2.62
2 7 5 54.93 3.02
3 7 5 0.05 0.34
4 7 5 24.35 1.56
5 7 5 0.49 0.42
6 7 5 0.78 0.5
7 7 5 10.09 1.11
8 7 5 17.59 1.52
11 -8 -5 0.41 0.29
10 -8 -5 8.09 0.65
9 -8 -5 4.15 0.7
9 -8 -5 2.73 0.4
8 -8 -5 0.06 0.27
8 -8 -5 0.6 0.37
7 -8 -5 15.35 0.92
7 -8 -5 15.1 0.84
6 -8 -5 39.16 1.91
6 -8 -5 41.18 2.02
5 -8 -5 8.49 0.54
5 -8 -5 8.64 0.54
4 -8 -5 25.4 1.23
3 -8 -5 0.01 0.16
2 -8 -5 0.31 0.16
-2 8 5 0.16 0.23
1 -8 -5 0.16 0.15
-1 8 5 0.15 0.26
0 -8 -5 27.77 1.32
0 8 5 28.32 1.62
-1 -8 -5 1.58 0.25
1 8 5 1.75 0.36
2 8 5 12.19 0.94
3 8 5 0.46 0.39
4 8 5 17.27 1.26
5 8 5 3.86 0.78
6 8 5 18.97 1.44
7 8 5 4.28 0.76
8 8 5 4.5 0.83
11 -9 -5 0.72 0.37
10 -9 -5 -0.31 0.34
9 -9 -5 2.84 0.39
9 -9 -5 3.94 0.67
8 -9 -5 4.84 0.63
8 -9 -5 5.45 0.53
7 -9 -5 14.32 0.85
7 -9 -5 12.49 0.78
6 -9 -5 7.37 0.55
6 -9 -5 7.08 0.53
5 -9 -5 1.08 0.24
4 -9 -5 2.24 0.34
3 -9 -5 2.1 0.33
2 -9 -5 7.67 0.48
-2 9 5 6.84 0.61
1 -9 -5 28.33 1.38
-1 9 5 29.49 1.66
0 -9 -5 1.13 0.19
0 9 5 0.74 0.33
-1 -9 -5 6.05 0.39
1 9 5 5.65 0.68
-2 -9 -5 0.36 0.16
2 9 5 0.46 0.4
3 9 5 14.01 1.11
4 9 5 8.26 0.92
5 9 5 1.79 0.56
6 9 5 7.93 1.04
7 9 5 0.27 0.65
11 -10 -5 -0.43 0.36
10 -10 -5 0.44 0.38
9 -10 -5 4.12 0.75
9 -10 -5 3.07 0.52
8 -10 -5 2.26 0.36
8 -10 -5 2.04 0.45
7 -10 -5 2.39 0.38
7 -10 -5 3.06 0.44
6 -10 -5 5.8 0.51
6 -10 -5 5.84 0.5
5 -10 -5 8.73 0.58
4 -10 -5 0.75 0.23
3 -10 -5 0.3 0.21
2 -10 -5 0.32 0.2
-2 10 5 0.26 0.21
1 -10 -5 1.99 0.32
-1 10 5 2.36 0.38
0 -10 -5 0.55 0.19
0 10 5 0.46 0.35
-1 -10 -5 0.55 0.18
1 10 5 0.54 0.4
-2 -10 -5 8.84 0.51
2 10 5 7.71 0.88
3 10 5 0.34 0.45
4 10 5 0.26 0.48
5 10 5 0.84 0.56
6 10 5 0.65 0.6
7 10 5 0.01 0.65
11 -11 -5 -0.32 0.39
10 -11 -5 0.71 0.37
9 -11 -5 1.21 0.47
9 -11 -5 0.72 0.37
8 -11 -5 2.15 0.44
8 -11 -5 2.69 0.39
7 -11 -5 6.38 0.6
7 -11 -5 7.11 0.61
6 -11 -5 6.62 0.55
5 -11 -5 2.57 0.43
4 -11 -5 0.52 0.25
3 -11 -5 5.2 0.46
2 -11 -5 0.94 0.23
-2 11 5 0.94 0.24
1 -11 -5 9.99 0.58
-1 11 5 8.61 0.75
0 -11 -5 20.55 1.01
0 11 5 19.4 1.33
-1 -11 -5 45.66 2.1
1 11 5 44.01 2.59
-2 -11 -5 2.47 0.31
2 11 5 1.64 0.51
3 11 5 13.19 1.14
4 11 5 4.03 0.67
5 11 5 1.62 0.63
6 11 5 1.21 0.7
10 -12 -5 0.65 0.39
9 -12 -5 6.95 0.68
8 -12 -5 4.85 0.58
7 -12 -5 12.74 0.83
6 -12 -5 6.52 0.59
5 -12 -5 7.92 0.61
4 -12 -5 0.9 0.28
3 -12 -5 41.38 1.98
2 -12 -5 -0.01 0.23
-2 12 5 0.14 0.22
1 -12 -5 25.41 1.13
-1 12 5 18.77 1.35
0 -12 -5 1.91 0.26
0 12 5 1.7 0.44
-1 -12 -5 12.85 0.72
1 12 5 12.7 1.09
2 12 5 1.13 0.48
3 12 5 8.65 1.03
4 12 5 3.32 0.69
5 12 5 1.78 0.69
10 -13 -5 1.11 0.47
9 -13 -5 4.74 0.64
8 -13 -5 2.86 0.5
7 -13 -5 6.05 0.63
6 -13 -5 1.09 0.35
5 -13 -5 0.44 0.31
4 -13 -5 0.99 0.31
3 -13 -5 5.99 0.52
2 -13 -5 5.37 0.48
1 -13 -5 5.38 0.46
-1 13 5 3.9 0.55
0 -13 -5 2.33 0.37
0 13 5 1.54 0.39
-1 -13 -5 1.24 0.25
1 13 5 0.7 0.48
2 13 5 7.84 0.99
3 13 5 1.55 0.6
4 13 5 1.07 0.63
9 -14 -5 0.16 0.46
8 -14 -5 7.58 0.72
7 -14 -5 0.67 0.43
6 -14 -5 5.07 0.61
5 -14 -5 9.78 0.73
4 -14 -5 3.01 0.49
3 -14 -5 0.11 0.28
2 -14 -5 -0.09 0.27
1 -14 -5 0.11 0.26
-1 14 5 -0.14 0.3
0 -14 -5 1.32 0.29
0 14 5 0.5 0.32
1 14 5 -0.18 0.41
2 14 5 0.03 0.55
3 14 5 0.78 0.59
7 -15 -5 1.02 0.42
6 -15 -5 1.97 0.43
5 -15 -5 0.9 0.37
4 -15 -5 0.69 0.35
3 -15 -5 2.34 0.37
2 -15 -5 -0.26 0.28
1 -15 -5 5.23 0.52
0 -15 -5 0.15 0.27
1 15 5 1.18 0.46
2 15 5 2.56 0.66
7 -16 -5 0.72 0.46
6 -16 -5 10.64 0.91
5 -16 -5 0.02 0.38
4 -16 -5 0.61 0.36
3 -16 -5 -0.22 0.32
2 -16 -5 3.15 0.42
1 -16 -5 0.26 0.31
5 -17 -5 0.46 0.44
4 -17 -5 0.33 0.38
3 -17 -5 0.42 0.39
2 -17 -5 1.87 0.38
0 -19 6 3.13 0.44
1 -19 6 1.08 0.39
2 -19 6 1.31 0.41
3 -19 6 0.77 0.41
4 -19 6 0.52 0.43
5 -19 6 1.26 0.48
-1 -18 6 9.75 0.75
0 -18 6 4.87 0.63
1 -18 6 1.45 0.39
2 -18 6 0.48 0.37
3 -18 6 0.88 0.4
4 -18 6 8.44 0.79
5 -18 6 1.02 0.45
6 -18 6 0.54 0.45
7 -18 6 1.2 0.5
-3 -17 6 1.02 0.52
-2 -17 6 2.35 0.49
-2 -17 6 3.15 0.53
-1 -17 6 0.07 0.29
0 -17 6 8.65 0.7
1 -17 6 2.24 0.38
2 -17 6 0.35 0.32
2 -17 6 0.75 0.34
3 -17 6 15.87 0.97
3 -17 6 14.57 0.95
4 -17 6 1.74 0.37
4 -17 6 1.9 0.42
5 -17 6 0.77 0.38
5 -17 6 0.15 0.38
6 -17 6 -0.24 0.4
6 -17 6 -0.16 0.41
7 -17 6 4 0.72
7 -17 6 3.08 0.52
8 -17 6 1.81 0.55
8 -17 6 1.36 0.5
-4 -16 6 0.6 0.5
-3 -16 6 -0.01 0.42
-2 -16 6 0.98 0.45
-2 -16 6 1.77 0.32
-1 -16 6 2.28 0.39
-1 -16 6 1.8 0.42
-1 -16 6 2.02 0.33
0 -16 6 0.81 0.3
0 -16 6 0.72 0.29
1 -16 6 1.04 0.3
1 -16 6 0.76 0.31
2 -16 6 1.32 0.35
2 -16 6 1.14 0.31
3 -16 6 6.19 0.61
3 -16 6 5.21 0.56
4 -16 6 0.06 0.3
4 -16 6 0.29 0.34
5 -16 6 1.91 0.41
5 -16 6 2.29 0.4
6 -16 6 1.6 0.43
6 -16 6 2.21 0.44
7 -16 6 0.32 0.44
7 -16 6 0.39 0.4
8 -16 6 1.49 0.48
8 -16 6 2.38 0.55
9 -16 6 3.05 0.55
9 -16 6 5.95 0.87
-3 -15 6 0.01 0.33
-3 -15 6 0.44 0.24
-2 -15 6 3.19 0.56
-2 -15 6 2.44 0.42
-1 -15 6 3.36 0.43
-1 -15 6 2.99 0.53
-1 -15 6 2.42 0.45
0 -15 6 1.04 0.26
0 -15 6 0.9 0.31
0 -15 6 0.83 0.29
1 -15 6 30.72 1.62
1 -15 6 31 1.55
2 -15 6 0.33 0.28
2 -15 6 -0.12 0.26
3 -15 6 0.73 0.31
3 -15 6 1.12 0.3
4 -15 6 0.25 0.31
4 -15 6 0.24 0.29
5 -15 6 4.41 0.56
5 -15 6 4.24 0.57
6 -15 6 0.95 0.39
6 -15 6 0.89 0.38
7 -15 6 10.6 0.83
7 -15 6 11.4 0.9
8 -15 6 1.8 0.45
8 -15 6 2.19 0.52
9 -15 6 0.9 0.43
9 -15 6 2.23 0.59
10 -15 6 1.34 0.6
5 14 -6 3.41 0.44
-3 -14 6 9.3 0.6
-3 -14 6 8.53 0.81
-2 -14 6 2.03 0.29
-2 -14 6 2.61 0.39
-1 -14 6 7.37 0.54
-1 -14 6 6.94 0.63
0 -14 6 26.58 1.43
0 -14 6 27.94 1.34
0 -14 6 24.6 1.53
1 -14 6 25.54 1.33
1 -14 6 24.36 1.28
2 -14 6 1.62 0.29
2 -14 6 1.36 0.28
3 -14 6 2.86 0.46
3 -14 6 3.38 0.46
4 -14 6 0.21 0.27
4 -14 6 0.25 0.29
5 -14 6 6.61 0.6
5 -14 6 5.55 0.58
6 -14 6 21.9 1.23
6 -14 6 22.99 1.29
7 -14 6 8.74 0.73
7 -14 6 9.27 0.81
8 -14 6 0.33 0.45
8 -14 6 0.01 0.37
9 -14 6 -0.04 0.39
9 -14 6 0.8 0.54
10 -14 6 0.06 0.56
10 -14 6 0.4 0.41
7 13 -6 0.06 0.28
-7 -13 6 -0.41 0.57
6 13 -6 0.7 0.27
5 13 -6 1.17 0.28
4 13 -6 0.19 0.21
-4 -13 6 -0.12 0.19
-3 -13 6 6.99 0.5
-2 -13 6 22.34 1.3
-2 -13 6 23.35 1.16
-1 -13 6 0.27 0.26
-1 -13 6 0.42 0.21
0 -13 6 3.53 0.5
0 -13 6 4.86 0.49
0 -13 6 5.11 0.45
1 -13 6 2.66 0.41
1 -13 6 2.41 0.4
2 -13 6 2.91 0.42
2 -13 6 3.14 0.43
3 -13 6 0.59 0.25
3 -13 6 0.47 0.24
4 -13 6 13.08 0.82
4 -13 6 14.09 0.81
5 -13 6 4.72 0.54
5 -13 6 5.09 0.53
6 -13 6 4.21 0.54
6 -13 6 5.37 0.6
7 -13 6 1.21 0.42
7 -13 6 1.21 0.36
8 -13 6 3.73 0.59
8 -13 6 4.04 0.69
9 -13 6 3.46 0.58
9 -13 6 3.16 0.46
10 -13 6 1.6 0.46
10 -13 6 1.96 0.61
7 12 -6 0.06 0.38
6 12 -6 0.89 0.37
5 12 -6 0.7 0.31
4 12 -6 25.65 1.44
-4 -12 6 25.73 1.27
3 12 -6 9.11 0.7
-3 -12 6 9.65 0.58
-2 -12 6 4.1 0.4
-1 -12 6 0.24 0.2
-1 -12 6 0.48 0.24
0 -12 6 2.51 0.37
0 -12 6 2.47 0.41
0 -12 6 3.3 0.44
1 -12 6 16.74 0.94
1 -12 6 16.11 0.89
2 -12 6 1.56 0.25
2 -12 6 1.48 0.26
3 -12 6 0.78 0.25
3 -12 6 0.72 0.25
4 -12 6 7.97 0.59
4 -12 6 8.17 0.57
5 -12 6 0.01 0.28
5 -12 6 -0.09 0.26
6 -12 6 4.85 0.51
6 -12 6 4.79 0.57
7 -12 6 0.99 0.33
7 -12 6 0.3 0.37
8 -12 6 1.31 0.36
8 -12 6 1.3 0.45
9 -12 6 1.14 0.38
9 -12 6 1.71 0.52
10 -12 6 15.14 1.13
10 -12 6 10.88 0.81
11 -12 6 -0.35 0.61
8 11 -6 0.46 0.45
-8 -11 6 -0.74 0.58
7 11 -6 0.98 0.41
6 11 -6 -0.08 0.32
5 11 -6 0.28 0.31
4 11 -6 17.07 1.03
-4 -11 6 17.69 0.9
3 11 -6 18.85 1.1
-1 -11 6 0.56 0.2
-1 -11 6 0.79 0.25
0 -11 6 0.1 0.21
0 -11 6 0.99 0.22
0 -11 6 0.45 0.23
1 -11 6 0.23 0.21
1 -11 6 -0.08 0.19
2 -11 6 8.05 0.53
2 -11 6 7.85 0.54
3 -11 6 29.54 1.46
3 -11 6 30.19 1.54
4 -11 6 2.41 0.39
4 -11 6 2.25 0.35
5 -11 6 4.49 0.47
5 -11 6 3.45 0.43
6 -11 6 10.11 0.74
6 -11 6 10.29 0.67
7 -11 6 18.75 1.14
7 -11 6 19.47 1.05
8 -11 6 9.13 0.69
8 -11 6 9.85 0.81
9 -11 6 2.66 0.4
9 -11 6 2.25 0.54
10 -11 6 5.41 0.81
10 -11 6 1.96 0.34
11 -11 6 2.18 0.65
8 10 -6 3.76 0.56
-8 -10 6 4.08 0.73
7 10 -6 1.14 0.4
6 10 -6 4.13 0.61
5 10 -6 5.54 0.58
4 10 -6 0.54 0.27
3 10 -6 6.25 0.54
2 10 -6 35.83 1.85
-1 -10 6 6.35 0.53
-1 -10 6 6.65 0.54
0 -10 6 26.86 1.42
0 -10 6 27.85 1.53
1 -10 6 43.78 2.03
1 -10 6 42.75 2.16
2 -10 6 4.22 0.39
2 -10 6 4.83 0.41
3 -10 6 21.67 1.11
3 -10 6 22.66 1.17
4 -10 6 6.69 0.49
4 -10 6 6.72 0.5
5 -10 6 5.88 0.51
5 -10 6 5.73 0.46
6 -10 6 12.06 0.8
6 -10 6 12.02 0.73
7 -10 6 15.21 0.94
7 -10 6 14.77 0.86
8 -10 6 0.01 0.29
8 -10 6 0.04 0.38
9 -10 6 8.74 0.62
9 -10 6 10.98 0.9
10 -10 6 -0.01 0.22
10 -10 6 0.61 0.51
11 -10 6 3.44 0.67
9 9 -6 2.85 0.58
-9 -9 6 2.84 0.69
8 9 -6 8.13 0.86
7 9 -6 18.7 1.2
6 9 -6 1.39 0.36
5 9 -6 3 0.51
4 9 -6 9.1 0.66
3 9 -6 4.38 0.44
2 9 -6 6.77 0.52
-1 -9 6 23.38 1.33
0 -9 6 6.38 0.49
0 -9 6 7.92 0.52
1 -9 6 14.83 0.83
2 -9 6 2.22 0.32
2 -9 6 2.09 0.29
3 -9 6 3.36 0.37
3 -9 6 3.5 0.35
4 -9 6 8.79 0.57
4 -9 6 9.1 0.55
5 -9 6 23.59 1.16
5 -9 6 23.05 1.24
6 -9 6 4.12 0.43
6 -9 6 4.43 0.51
7 -9 6 9.27 0.63
7 -9 6 9.92 0.72
8 -9 6 1.57 0.41
8 -9 6 1.58 0.31
9 -9 6 2.12 0.34
9 -9 6 3.78 0.54
10 -9 6 1.77 0.52
11 -9 6 1.37 0.58
9 8 -6 1.3 0.53
-9 -8 6 2.51 0.63
8 8 -6 5.86 0.79
-8 -8 6 5.53 0.91
7 8 -6 0.48 0.39
6 8 -6 3.69 0.57
5 8 -6 7.37 0.61
4 8 -6 3.28 0.45
3 8 -6 5.89 0.48
2 8 -6 2.18 0.34
-1 -8 6 6.3 0.48
0 -8 6 25.77 1.4
0 -8 6 26.44 1.41
0 -8 6 23.99 1.31
1 -8 6 0.29 0.18
2 -8 6 0.35 0.17
3 -8 6 23.91 1.23
3 -8 6 23.68 1.16
4 -8 6 0.3 0.19
4 -8 6 0.22 0.18
5 -8 6 2.02 0.37
5 -8 6 1.88 0.33
6 -8 6 13.83 0.86
6 -8 6 14.87 0.78
7 -8 6 0.5 0.24
7 -8 6 0.5 0.3
8 -8 6 4.32 0.4
8 -8 6 6.32 0.64
9 -8 6 0.87 0.21
9 -8 6 2.09 0.47
10 -8 6 0.61 0.5
11 -8 6 0.12 0.54
10 7 -6 16.82 1.27
-10 -7 6 15.15 1.42
9 7 -6 1.18 0.51
-9 -7 6 -0.83 0.53
8 7 -6 15.86 1.11
-8 -7 6 15.83 1.28
7 7 -6 0.56 0.4
6 7 -6 0.96 0.33
5 7 -6 0.71 0.28
4 7 -6 11.15 0.69
3 7 -6 4.7 0.41
2 7 -6 41.18 2.08
-2 -7 6 42.1 2.26
1 7 -6 7.07 0.47
-1 -7 6 6.44 0.48
0 -7 6 0.44 0.14
0 -7 6 0.61 0.17
0 -7 6 0.59 0.15
1 -7 6 45.27 2.24
2 -7 6 26.93 1.37
3 -7 6 0.54 0.18
4 -7 6 29.88 1.49
4 -7 6 28.57 1.4
5 -7 6 1.07 0.21
5 -7 6 1.19 0.24
6 -7 6 4.04 0.37
6 -7 6 3.58 0.45
7 -7 6 3.33 0.49
7 -7 6 3.77 0.38
8 -7 6 3.41 0.57
8 -7 6 1.88 0.28
9 -7 6 1.28 0.44
10 -7 6 4.36 0.76
11 -7 6 2.51 0.61
10 6 -6 5.05 0.9
-10 -6 6 3.85 0.75
9 6 -6 0.46 0.5
-9 -6 6 -0.83 0.48
8 6 -6 2.37 0.49
-8 -6 6 1.99 0.53
7 6 -6 0.36 0.37
6 6 -6 0.49 0.31
5 6 -6 0.39 0.28
4 6 -6 12.36 0.74
3 6 -6 1.9 0.3
-3 -6 6 1.48 0.25
2 6 -6 -0.01 0.15
-2 -6 6 -0.02 0.16
1 6 -6 65.35 3.17
-1 -6 6 64.08 3.42
0 -6 6 5.76 0.41
0 -6 6 5.34 0.4
0 -6 6 6.57 0.41
-1 6 -6 0.78 0.13
1 -6 6 0.74 0.18
1 -6 6 0.63 0.14
2 -6 6 6.89 0.44
3 -6 6 0.68 0.18
4 -6 6 31.74 1.5
4 -6 6 32 1.61
5 -6 6 37.84 1.9
5 -6 6 37.56 1.76
6 -6 6 88.23 3.95
6 -6 6 85.32 4.25
7 -6 6 2.78 0.47
7 -6 6 2.74 0.28
8 -6 6 4.25 0.34
8 -6 6 6.61 0.62
9 -6 6 0.52 0.36
9 -6 6 0.38 0.41
10 -6 6 12.46 0.99
11 -6 6 1.31 0.55
10 5 -6 0.66 0.56
-10 -5 6 -0.94 0.53
9 5 -6 -0.8 0.45
-9 -5 6 -0.08 0.47
8 5 -6 11.86 0.9
-8 -5 6 11.21 1.01
7 5 -6 8.6 0.74
-7 -5 6 8.91 0.82
6 5 -6 3.88 0.51
-6 -5 6 3.81 0.57
5 5 -6 0.06 0.23
-5 -5 6 -0.44 0.23
4 5 -6 17.32 0.96
-4 -5 6 18.25 1.08
3 5 -6 0.94 0.18
-3 -5 6 1 0.21
2 5 -6 126.93 6.18
-2 -5 6 128.86 6.7
1 5 -6 63.79 3.13
-1 -5 6 64.42 3.38
-1 -5 6 63.84 3.39
0 -5 6 112.63 5.72
0 -5 6 103.36 5.3
0 -5 6 112.76 5.3
-1 5 -6 0.03 0.08
-1 5 -6 -0.03 0.13
1 -5 6 0.18 0.15
1 -5 6 0.11 0.1
2 -5 6 2.49 0.26
3 -5 6 0.13 0.14
4 -5 6 44.83 2.22
5 -5 6 24.08 1.15
5 -5 6 23.99 1.26
6 -5 6 19.22 1.14
6 -5 6 18.7 1.06
6 -5 6 20.2 0.96
7 -5 6 -0.07 0.26
7 -5 6 -0.07 0.29
7 -5 6 0 0.12
8 -5 6 28.2 1.61
8 -5 6 26.09 1.5
9 -5 6 8.96 0.85
9 -5 6 8.85 0.81
10 -5 6 5.44 0.78
10 -5 6 5.75 0.83
11 -5 6 4.02 0.64
11 4 -6 0.22 0.64
-11 -4 6 0.24 0.62
10 4 -6 8.31 0.98
-10 -4 6 8.11 1.05
9 4 -6 16.6 1.15
-9 -4 6 17.3 1.29
8 4 -6 1.53 0.43
-8 -4 6 0.88 0.42
7 4 -6 22.54 1.29
-7 -4 6 22.72 1.43
6 4 -6 6.22 0.54
-6 -4 6 5.01 0.6
5 4 -6 5.63 0.49
-5 -4 6 6.14 0.54
4 4 -6 6.01 0.45
-4 -4 6 6.04 0.51
3 4 -6 39.06 1.95
-3 -4 6 39.16 2.13
-3 -4 6 39.17 1.8
2 4 -6 14.65 0.79
-2 -4 6 15.15 0.87
1 4 -6 5.39 0.38
1 4 -6 5.48 0.37
-1 -4 6 5.76 0.36
-1 -4 6 5.68 0.4
0 4 -6 48.53 2.53
0 -4 6 43.27 2.34
0 -4 6 50.12 2.53
0 -4 6 49.27 2.34
-1 4 -6 50.36 2.49
-1 4 -6 51.01 2.68
1 -4 6 47.57 2.48
1 -4 6 54.46 2.69
-2 4 -6 8.75 0.5
-2 4 -6 9.19 0.54
2 -4 6 8.74 0.51
2 -4 6 8.78 0.55
-3 4 -6 25.82 1.39
3 -4 6 25.18 1.28
3 -4 6 25.35 1.38
-4 4 -6 16.56 0.96
4 -4 6 17.88 0.91
4 -4 6 16.68 0.97
5 -4 6 35.2 1.7
5 -4 6 33.25 1.84
5 -4 6 32.08 1.55
6 -4 6 0.72 0.24
6 -4 6 0.52 0.25
6 -4 6 0.45 0.12
7 -4 6 35.36 1.87
7 -4 6 36.77 2.03
8 -4 6 3.92 0.6
8 -4 6 3.09 0.56
9 -4 6 6.87 0.79
9 -4 6 5.97 0.72
10 -4 6 0.61 0.48
10 -4 6 0.17 0.47
11 -4 6 0.24 0.56
11 3 -6 22.93 1.51
-11 -3 6 20.13 1.64
10 3 -6 3.3 0.61
-10 -3 6 0.73 0.6
9 3 -6 8.5 0.86
-9 -3 6 9.07 0.91
8 3 -6 0.65 0.4
-8 -3 6 -0.63 0.36
7 3 -6 53.24 2.69
-7 -3 6 52.86 2.94
6 3 -6 0.63 0.28
-6 -3 6 0.29 0.27
5 3 -6 69.05 3.36
-5 -3 6 67.65 3.66
4 3 -6 19.55 0.99
-4 -3 6 17.31 1.09
3 3 -6 89.46 4.38
-3 -3 6 90.82 4.76
-3 -3 6 90.42 4.09
2 3 -6 4.08 0.3
-2 -3 6 4 0.34
-2 -3 6 4.19 0.28
-2 -3 6 4.17 0.26
1 3 -6 75.79 3.69
1 3 -6 74.05 3.99
-1 -3 6 76.5 3.99
-1 -3 6 77.96 3.69
0 3 -6 120.88 6.36
0 -3 6 119.68 5.87
0 -3 6 125.03 6.36
-1 3 -6 55.3 2.7
1 -3 6 53.59 2.7
1 -3 6 57.6 2.94
-2 3 -6 0.85 0.16
2 -3 6 0.88 0.15
2 -3 6 0.69 0.15
-3 3 -6 4.07 0.33
3 -3 6 4.57 0.36
3 -3 6 4.65 0.33
-4 3 -6 0.84 0.16
4 -3 6 0.98 0.2
4 -3 6 0.94 0.19
5 -3 6 33 1.69
5 -3 6 34.05 1.85
6 -3 6 38.64 2.13
6 -3 6 38.03 1.95
7 -3 6 5.3 0.56
7 -3 6 5.85 0.62
8 -3 6 4.24 0.65
8 -3 6 3.42 0.58
9 -3 6 1.41 0.46
9 -3 6 1.87 0.5
10 -3 6 -0.13 0.49
10 -3 6 0.09 0.48
11 -3 6 2.53 0.64
11 -3 6 2.84 0.64
11 2 -6 6.46 0.98
-11 -2 6 4.02 0.73
10 2 -6 5.12 0.82
-10 -2 6 5.46 0.87
9 2 -6 1.76 0.5
-9 -2 6 1.36 0.49
8 2 -6 3.83 0.6
-8 -2 6 3.69 0.63
7 2 -6 3.69 0.52
-7 -2 6 3.62 0.55
6 2 -6 1.15 0.27
-6 -2 6 0.84 0.28
5 2 -6 0 0.2
-5 -2 6 -0.03 0.21
4 2 -6 8.11 0.51
-4 -2 6 8.3 0.58
3 2 -6 147.75 7.25
-3 -2 6 152.95 7.88
-3 -2 6 151.09 6.79
2 2 -6 7.55 0.48
2 2 -6 7.3 0.43
-2 -2 6 7.81 0.41
-2 -2 6 7.61 0.43
-2 -2 6 7.83 0.49
1 2 -6 5.49 0.34
1 2 -6 4.98 0.35
-1 -2 6 5.78 0.34
-1 -2 6 5.43 0.38
-1 -2 6 5.28 0.3
0 2 -6 0.2 0.1
0 -2 6 0.15 0.09
0 -2 6 0.23 0.12
0 -2 6 0.39 0.12
-1 2 -6 31.13 1.56
-1 2 -6 31.78 1.71
1 -2 6 31.46 1.56
1 -2 6 32.4 1.71
-2 2 -6 21.82 1.22
-2 2 -6 21.38 1.11
2 -2 6 22.4 1.12
2 -2 6 23.31 1.23
-3 2 -6 0.15 0.12
3 -2 6 0.24 0.14
3 -2 6 0.27 0.15
4 -2 6 16.36 0.99
4 -2 6 17.26 0.9
5 -2 6 9.18 0.59
5 -2 6 9.65 0.69
6 -2 6 14.43 0.94
6 -2 6 13.31 0.83
7 -2 6 75.41 4.01
7 -2 6 73.11 3.68
8 -2 6 4.35 0.69
8 -2 6 4.38 0.61
9 -2 6 0.14 0.43
9 -2 6 0.97 0.48
10 -2 6 0.57 0.56
10 -2 6 0.53 0.53
11 -2 6 0.38 0.61
11 -2 6 0.9 0.62
11 1 -6 0.13 0.58
-11 -1 6 0.02 0.52
10 1 -6 3.08 0.59
-10 -1 6 2.73 0.58
9 1 -6 0.24 0.42
-9 -1 6 0.09 0.4
8 1 -6 9.16 0.6
8 1 -6 12.63 0.82
-8 -1 6 12.48 0.89
7 1 -6 3.07 0.31
7 1 -6 3.2 0.48
-7 -1 6 2.63 0.4
6 1 -6 1.87 0.31
6 1 -6 1.73 0.29
-6 -1 6 2.19 0.42
5 1 -6 0.88 0.19
5 1 -6 0.68 0.2
-5 -1 6 0.39 0.2
4 1 -6 4.04 0.35
4 1 -6 4.22 0.31
-4 -1 6 4.23 0.39
3 1 -6 -0.02 0.12
3 1 -6 0.09 0.13
-3 -1 6 0.06 0.1
-3 -1 6 0.24 0.14
2 1 -6 7.11 0.42
2 1 -6 7.13 0.47
2 1 -6 7.2 0.4
-2 -1 6 7.84 0.4
-2 -1 6 7.9 0.48
1 1 -6 254.45 13.33
1 1 -6 242.63 11.51
1 1 -6 251.46 12.3
-1 -1 6 263.96 11.51
-1 -1 6 260.39 12.3
-1 -1 6 266.56 13.33
0 1 -6 66.15 3.39
0 -1 6 63.07 3.11
0 -1 6 58.21 3.12
0 -1 6 64.16 2.91
0 -1 6 70.47 3.41
-1 1 -6 0.77 0.14
-1 1 -6 0.88 0.16
1 -1 6 1 0.17
1 -1 6 0.97 0.18
-2 1 -6 36.55 2.02
-2 1 -6 37.63 1.84
2 -1 6 38.24 1.85
2 -1 6 38.67 2.03
-3 1 -6 12.41 0.67
3 -1 6 13.01 0.69
3 -1 6 12.54 0.78
4 -1 6 1 0.23
4 -1 6 1.53 0.27
5 -1 6 26.86 1.56
5 -1 6 27.21 1.4
6 -1 6 3.43 0.55
6 -1 6 2.91 0.45
7 -1 6 4.47 0.64
7 -1 6 4.02 0.56
8 -1 6 0.32 0.4
8 -1 6 -0.16 0.4
9 -1 6 0.25 0.46
9 -1 6 0.73 0.51
10 -1 6 0.29 0.56
10 -1 6 1.38 0.6
11 -1 6 8.79 1.18
11 -1 6 6.23 0.99
-12 0 6 -0.17 0.6
11 0 -6 5.08 0.92
-11 0 6 2.86 0.66
10 0 -6 1.88 0.53
-10 0 6 1.2 0.49
9 0 -6 17.45 1.12
-9 0 6 16.59 1.2
8 0 -6 10.13 0.66
8 0 -6 14.98 0.87
-8 0 6 13.68 0.94
7 0 -6 -0.09 0.21
7 0 -6 -0.03 0.27
-7 0 6 0.07 0.28
6 0 -6 0.07 0.22
6 0 -6 0.01 0.19
-6 0 6 -0.01 0.22
5 0 -6 0.41 0.19
5 0 -6 0.59 0.18
-5 0 6 0.34 0.21
4 0 -6 1.49 0.24
4 0 -6 1.82 0.26
-4 0 6 1.84 0.31
3 0 -6 18.27 0.94
3 0 -6 18.2 0.88
3 0 -6 18.29 1.03
-3 0 6 18.97 1.04
-3 0 6 18.14 0.87
-3 0 6 18.06 0.94
2 0 -6 69.1 3.5
2 0 -6 73.13 3.29
2 0 -6 73.55 3.81
-2 0 6 72.44 3.5
-2 0 6 73.98 3.82
-2 0 6 72.67 3.28
1 0 -6 1.23 0.19
1 0 -6 1.12 0.16
1 0 -6 1.03 0.15
-1 0 6 1.25 0.22
-1 0 6 1.01 0.16
0 0 -6 7.76 0.48
0 0 -6 6.86 0.38
0 0 6 7.63 0.39
0 0 6 7.13 0.41
0 0 6 7.33 0.48
-1 0 -6 0.82 0.14
-1 0 -6 0.67 0.14
1 0 6 0.95 0.16
1 0 6 0.76 0.17
-2 0 -6 16.4 0.94
-2 0 -6 16.1 0.83
2 0 6 16.84 0.84
2 0 6 16.73 0.95
2 0 6 16.29 0.78
-3 0 -6 25.26 1.31
3 0 6 27.52 1.32
3 0 6 26.19 1.47
4 0 6 112.19 6.16
4 0 6 121.65 5.66
5 0 6 1.9 0.34
5 0 6 2.44 0.38
6 0 6 2.85 0.57
6 0 6 2.6 0.46
7 0 6 5.44 0.6
7 0 6 4.85 0.71
8 0 6 11.84 0.92
8 0 6 12.91 1.07
9 0 6 4.46 0.78
9 0 6 7.04 0.94
10 0 6 21.29 1.52
10 0 6 16.57 1.29
11 0 6 2.3 0.66
11 0 6 2.95 0.73
-12 1 6 7.46 1.08
11 -1 -6 6.38 0.93
-11 1 6 5.77 0.92
10 -1 -6 26.34 1.61
-10 1 6 27.74 1.73
9 -1 -6 7.28 0.7
9 -1 -6 4.81 0.42
-9 1 6 7.05 0.75
8 -1 -6 0.76 0.2
8 -1 -6 0.75 0.36
-8 1 6 0.73 0.35
7 -1 -6 2.73 0.46
7 -1 -6 2.38 0.3
-7 1 6 2.71 0.5
6 -1 -6 24.69 1.19
6 -1 -6 23.76 1.27
-6 1 6 23.83 1.4
5 -1 -6 3.88 0.35
5 -1 -6 4.28 0.38
-5 1 6 4.69 0.43
4 -1 -6 121.49 6.07
4 -1 -6 129.25 5.69
-4 1 6 126.8 6.59
3 -1 -6 63.47 3.43
3 -1 -6 67.34 2.96
3 -1 -6 63.34 3.15
-3 1 6 64.76 3.15
-3 1 6 65.69 3.43
2 -1 -6 16.94 0.82
2 -1 -6 17 0.96
-2 1 6 16.7 0.82
-2 1 6 17.65 0.96
-2 1 6 17.04 0.86
1 -1 -6 1.76 0.23
1 -1 -6 1.9 0.19
-1 1 6 1.94 0.17
-1 1 6 2.3 0.3
-1 1 6 2.05 0.18
0 -1 -6 48.03 2.21
0 -1 -6 49.87 2.6
0 1 6 48.15 2.59
0 1 6 48.4 2.21
-1 -1 -6 10.03 0.61
1 1 6 10.42 0.63
1 1 6 9.87 0.5
-2 -1 -6 42.9 2.14
2 1 6 43.13 2.37
2 1 6 46.13 2.15
-3 -1 -6 58.73 2.94
3 1 6 59.24 3.25
3 1 6 64.09 2.96
4 1 6 16.37 1.04
4 1 6 17.06 0.91
5 1 6 0.46 0.26
5 1 6 0.61 0.31
6 1 6 10.4 0.71
6 1 6 8.89 0.83
7 1 6 22.21 1.47
7 1 6 22.92 1.3
8 1 6 14.62 1.19
8 1 6 14.05 1.02
9 1 6 2.08 0.62
9 1 6 2.15 0.54
10 1 6 5.06 0.86
10 1 6 3.7 0.74
11 1 6 1.25 0.73
11 1 6 0.98 0.65
12 -2 -6 22.04 1.57
11 -2 -6 14.66 1.13
-11 2 6 12.26 1.07
10 -2 -6 0.78 0.5
-10 2 6 0.49 0.45
9 -2 -6 3.76 0.38
9 -2 -6 4.87 0.69
-9 2 6 5.95 0.71
8 -2 -6 30.84 1.62
8 -2 -6 28.53 1.45
-8 2 6 29.9 1.76
7 -2 -6 15.85 0.99
7 -2 -6 17.68 0.91
-7 2 6 17.41 1.09
6 -2 -6 31.57 1.69
6 -2 -6 32.61 1.57
-6 2 6 35.03 1.85
5 -2 -6 17.4 0.96
5 -2 -6 18.33 0.9
-5 2 6 18.49 1.06
4 -2 -6 0.58 0.15
4 -2 -6 0.72 0.15
-4 2 6 0.55 0.18
3 -2 -6 9.64 0.51
3 -2 -6 9.16 0.59
-3 2 6 10.26 0.61
2 -2 -6 18.29 1.05
2 -2 -6 18.41 0.89
-2 2 6 19.31 1.07
-2 2 6 18.86 0.93
1 -2 -6 9.6 0.5
1 -2 -6 9.82 0.61
-1 2 6 10.17 0.51
-1 2 6 10.41 0.63
0 -2 -6 1.01 0.16
0 -2 -6 0.67 0.12
0 2 6 0.85 0.2
0 2 6 0.7 0.12
-1 -2 -6 19.14 0.95
1 2 6 20.99 1.16
1 2 6 20.98 0.95
2 2 6 2.45 0.36
-3 -2 -6 15.05 0.81
3 2 6 17.22 0.84
3 2 6 15.18 0.97
4 2 6 9.61 0.76
4 2 6 10.68 0.63
5 2 6 25.71 1.63
5 2 6 28.75 1.44
6 2 6 0.92 0.35
6 2 6 1.1 0.4
7 2 6 -0.14 0.38
7 2 6 0.12 0.41
8 2 6 4.42 0.71
8 2 6 4.71 0.86
9 2 6 1.42 0.52
9 2 6 1.4 0.63
10 2 6 0.38 0.64
10 2 6 0.39 0.59
12 -3 -6 1.67 0.68
-11 3 6 -0.15 0.35
10 -3 -6 0.83 0.22
10 -3 -6 -0.26 0.49
-10 3 6 0.29 0.33
9 -3 -6 2.83 0.34
9 -3 -6 2.37 0.48
-9 3 6 1.8 0.4
8 -3 -6 1.26 0.37
8 -3 -6 1.06 0.29
-8 3 6 1.14 0.35
7 -3 -6 12.49 0.81
7 -3 -6 12.88 0.73
-7 3 6 13.57 0.89
6 -3 -6 12.82 0.71
6 -3 -6 13.01 0.78
-6 3 6 13.77 0.86
5 -3 -6 4.96 0.36
5 -3 -6 4.84 0.41
-5 3 6 5.63 0.47
4 -3 -6 1.03 0.17
4 -3 -6 0.8 0.16
-4 3 6 0.64 0.19
3 -3 -6 86.4 3.89
3 -3 -6 82.48 4.51
3 -3 -6 82.17 4.14
-3 3 6 92.09 4.53
-3 3 6 86.35 4.14
2 -3 -6 80.2 3.68
2 -3 -6 78.68 4.27
-2 3 6 84.76 4.29
1 -3 -6 0.53 0.15
1 -3 -6 0.61 0.11
-1 3 6 0.64 0.2
-1 3 6 0.65 0.12
0 -3 -6 3.17 0.24
0 3 6 3.89 0.37
0 3 6 3.5 0.25
-1 -3 -6 29.96 1.45
1 3 6 33.07 1.46
1 3 6 31.81 1.75
2 3 6 0.01 0.21
-3 -3 -6 2.49 0.23
3 3 6 2.71 0.44
4 3 6 4.15 0.57
4 3 6 5.17 0.43
5 3 6 0.29 0.29
5 3 6 0.43 0.34
6 3 6 2.65 0.51
6 3 6 4.19 0.53
7 3 6 18.33 1.09
7 3 6 16.21 1.28
8 3 6 3.21 0.54
8 3 6 4.89 0.88
9 3 6 0.65 0.55
9 3 6 0.98 0.64
10 3 6 0.7 0.64
10 3 6 0.88 0.69
11 -4 -6 0.47 0.59
10 -4 -6 10.21 0.87
10 -4 -6 7.8 0.53
-10 4 6 6.57 0.7
9 -4 -6 -0.04 0.45
9 -4 -6 0.13 0.26
-9 4 6 0.33 0.27
8 -4 -6 1.8 0.38
8 -4 -6 1.28 0.29
-8 4 6 1.48 0.31
7 -4 -6 19.84 1.03
7 -4 -6 20.08 1.14
-7 4 6 21.45 1.25
6 -4 -6 -0.39 0.18
6 -4 -6 -0.22 0.23
-6 4 6 0.08 0.24
5 -4 -6 1 0.18
5 -4 -6 0.79 0.2
-5 4 6 0.87 0.23
4 -4 -6 29.81 1.49
4 -4 -6 29.64 1.4
-4 4 6 30.9 1.65
-4 4 6 29.2 1.49
3 -4 -6 7.78 0.52
3 -4 -6 7.94 0.44
-3 4 6 7.53 0.58
2 -4 -6 9.36 0.51
2 -4 -6 9.38 0.61
-2 4 6 10.58 0.65
1 -4 -6 29.95 1.41
-1 4 6 30.83 1.68
0 -4 -6 4.08 0.27
0 4 6 4.06 0.42
-1 -4 -6 1.81 0.2
1 4 6 2.11 0.3
1 4 6 1.99 0.2
2 4 6 31.32 1.77
3 4 6 2.53 0.47
4 4 6 6.67 0.48
4 4 6 6.09 0.67
5 4 6 7.19 0.79
5 4 6 8.42 0.58
6 4 6 5.39 0.54
6 4 6 5.74 0.78
7 4 6 3.28 0.6
7 4 6 2.49 0.43
8 4 6 0.84 0.57
8 4 6 0.04 0.41
9 4 6 0.64 0.51
9 4 6 1.37 0.65
10 4 6 0.31 0.58
10 4 6 0.34 0.7
10 -5 -6 0.16 0.49
10 -5 -6 -0.1 0.22
9 -5 -6 10.18 0.67
9 -5 -6 11.59 0.82
-9 5 6 8.15 0.74
8 -5 -6 3.29 0.45
8 -5 -6 2.81 0.41
-8 5 6 3.47 0.45
7 -5 -6 3.35 0.48
7 -5 -6 3.51 0.39
-7 5 6 3.44 0.44
6 -5 -6 1.28 0.27
6 -5 -6 1.19 0.22
-6 5 6 0.85 0.26
5 -5 -6 8.74 0.55
5 -5 -6 8.56 0.51
-5 5 6 9.24 0.63
4 -5 -6 13.69 0.73
-4 5 6 16.27 0.92
-4 5 6 14.14 0.76
3 -5 -6 67.6 3.26
-3 5 6 75.89 3.81
2 -5 -6 63.26 2.9
-2 5 6 63.84 3.39
1 -5 -6 7.46 0.43
-1 5 6 8.15 0.58
0 -5 -6 0.2 0.12
0 5 6 0.04 0.22
-1 -5 -6 0.42 0.12
1 5 6 0.25 0.11
1 5 6 0.33 0.24
2 5 6 2.36 0.46
3 5 6 32.05 1.86
4 5 6 93.15 5.02
5 5 6 4.43 0.71
5 5 6 3.14 0.36
6 5 6 0.99 0.26
6 5 6 1.03 0.46
7 5 6 1.39 0.33
7 5 6 1.67 0.57
8 5 6 4.27 0.58
8 5 6 5.75 0.98
9 5 6 0.73 0.67
11 -6 -6 5.89 0.5
10 -6 -6 10.52 0.76
10 -6 -6 12.7 0.97
9 -6 -6 0.41 0.29
9 -6 -6 0.43 0.42
8 -6 -6 4.99 0.58
8 -6 -6 4.84 0.46
-8 6 6 3.36 0.47
7 -6 -6 2.03 0.28
7 -6 -6 2.27 0.35
-7 6 6 1.27 0.26
6 -6 -6 1.2 0.23
6 -6 -6 1.42 0.27
-6 6 6 1.31 0.24
5 -6 -6 1.65 0.24
5 -6 -6 2.18 0.3
-5 6 6 2.61 0.43
4 -6 -6 30.27 1.54
-4 6 6 35.51 1.83
3 -6 -6 1.52 0.24
-3 6 6 0.95 0.27
2 -6 -6 35.75 1.71
-2 6 6 38.01 2.03
1 -6 -6 2.87 0.27
-1 6 6 3.46 0.43
0 -6 -6 4.02 0.3
0 6 6 4.13 0.5
-1 -6 -6 2.86 0.25
1 6 6 2.97 0.47
2 6 6 10.22 0.79
3 6 6 0.97 0.36
4 6 6 4.06 0.68
5 6 6 2.13 0.32
5 6 6 3.34 0.55
6 6 6 15.17 1.13
6 6 6 11.74 0.77
7 6 6 0.35 0.28
7 6 6 0.06 0.53
8 6 6 1.67 0.66
9 6 6 0.82 0.71
11 -7 -6 1.46 0.62
11 -7 -6 0.73 0.28
10 -7 -6 2.56 0.4
9 -7 -6 3.42 0.52
9 -7 -6 4.1 0.7
8 -7 -6 1.99 0.4
8 -7 -6 1.68 0.31
7 -7 -6 -0.13 0.24
7 -7 -6 -0.04 0.3
6 -7 -6 24.99 1.29
6 -7 -6 23.94 1.21
5 -7 -6 0.09 0.19
5 -7 -6 0.13 0.19
4 -7 -6 8.57 0.52
-4 7 6 8.85 0.66
3 -7 -6 18.03 0.95
-3 7 6 20.56 1.16
2 -7 -6 1.51 0.26
-2 7 6 1.53 0.29
1 -7 -6 11.5 0.62
-1 7 6 12.48 0.82
0 -7 -6 5.19 0.36
0 7 6 5.68 0.57
-1 -7 -6 1.31 0.22
1 7 6 0.97 0.32
-2 -7 -6 1.92 0.23
2 7 6 2.08 0.4
3 7 6 6.78 0.76
4 7 6 0.13 0.42
5 7 6 7.31 0.89
6 7 6 2.33 0.58
7 7 6 2.08 0.64
8 7 6 9 1.23
11 -8 -6 0.13 0.37
10 -8 -6 0.39 0.32
9 -8 -6 2.77 0.38
8 -8 -6 0.29 0.36
8 -8 -6 0.12 0.27
7 -8 -6 13.81 0.81
7 -8 -6 14.73 0.88
6 -8 -6 17.1 0.94
6 -8 -6 16.28 0.89
5 -8 -6 1.01 0.23
4 -8 -6 2.59 0.32
-4 8 6 1.71 0.28
3 -8 -6 17.43 0.9
-3 8 6 17.89 1.08
2 -8 -6 11.57 0.65
-2 8 6 12.44 0.83
1 -8 -6 0.91 0.19
-1 8 6 1.09 0.31
0 -8 -6 15.36 0.78
0 8 6 15.81 1.04
-1 -8 -6 30.97 1.43
1 8 6 29.5 1.79
-2 -8 -6 0.11 0.15
2 8 6 -0.06 0.35
3 8 6 4.08 0.73
4 8 6 0.55 0.45
5 8 6 0.8 0.51
6 8 6 5.39 0.95
7 8 6 8.42 1.12
8 8 6 3.27 0.83
11 -9 -6 0.18 0.38
10 -9 -6 1.71 0.56
10 -9 -6 1 0.37
9 -9 -6 0.25 0.34
9 -9 -6 0.08 0.42
8 -9 -6 3.47 0.49
8 -9 -6 4.95 0.6
7 -9 -6 10.26 0.72
7 -9 -6 9.66 0.66
6 -9 -6 2.97 0.42
6 -9 -6 3.17 0.43
5 -9 -6 -0.01 0.22
4 -9 -6 11.71 0.68
3 -9 -6 4.79 0.39
-3 9 6 3.73 0.44
2 -9 -6 55.2 2.59
-2 9 6 56.84 3.05
1 -9 -6 14.33 0.75
-1 9 6 13.96 0.97
0 -9 -6 0.58 0.18
0 9 6 0.64 0.35
-1 -9 -6 1.57 0.27
1 9 6 1.62 0.42
-2 -9 -6 0.62 0.17
2 9 6 0.49 0.42
3 9 6 -0.07 0.44
4 9 6 24.39 1.65
5 9 6 26.4 1.78
6 9 6 0.93 0.6
7 9 6 7.31 1.15
11 -10 -6 0.03 0.37
10 -10 -6 0.4 0.39
9 -10 -6 4.29 0.71
9 -10 -6 4.31 0.58
8 -10 -6 -0.04 0.3
8 -10 -6 -0.37 0.36
7 -10 -6 5.08 0.55
7 -10 -6 4.65 0.53
6 -10 -6 2.07 0.32
5 -10 -6 9.04 0.61
4 -10 -6 1.82 0.28
3 -10 -6 40.55 1.66
-3 10 6 28.48 1.9
2 -10 -6 0 0.2
-2 10 6 -0.05 0.23
1 -10 -6 4.16 0.38
-1 10 6 4.09 0.61
0 -10 -6 3.88 0.37
0 10 6 3.96 0.66
-1 -10 -6 -0.05 0.18
1 10 6 -0.15 0.39
-2 -10 -6 0.29 0.17
2 10 6 -0.06 0.43
3 10 6 5.91 0.88
4 10 6 0.65 0.51
5 10 6 3.79 0.7
6 10 6 9.9 1.2
11 -11 -6 0.52 0.41
10 -11 -6 6.34 0.71
9 -11 -6 1.69 0.42
8 -11 -6 0.45 0.34
7 -11 -6 0.82 0.32
6 -11 -6 0.46 0.29
5 -11 -6 4.02 0.46
4 -11 -6 1.63 0.29
3 -11 -6 1.05 0.26
-3 11 6 0.58 0.23
2 -11 -6 4.3 0.4
-2 11 6 2.86 0.45
1 -11 -6 0.14 0.2
-1 11 6 0.11 0.32
0 -11 -6 1.11 0.23
0 11 6 1.13 0.44
-1 -11 -6 2.89 0.35
1 11 6 2.69 0.53
2 11 6 18.21 1.36
3 11 6 1.29 0.53
4 11 6 3.8 0.69
5 11 6 0.32 0.6
6 11 6 10.37 1.3
10 -12 -6 1.55 0.46
9 -12 -6 1.02 0.4
8 -12 -6 0.25 0.36
7 -12 -6 0.22 0.32
6 -12 -6 10.32 0.72
5 -12 -6 2.6 0.37
4 -12 -6 14.13 0.83
3 -12 -6 -0.04 0.25
2 -12 -6 1.93 0.29
-2 12 6 2.2 0.43
1 -12 -6 4.07 0.42
-1 12 6 4.09 0.57
0 -12 -6 1.78 0.27
0 12 6 1.75 0.48
-1 -12 -6 -0.22 0.21
1 12 6 -0.4 0.47
2 12 6 5.64 0.91
3 12 6 1.48 0.57
4 12 6 1.32 0.62
5 12 6 1.11 0.66
10 -13 -6 -0.1 0.43
9 -13 -6 -0.24 0.41
8 -13 -6 0.31 0.43
7 -13 -6 0.26 0.38
6 -13 -6 3.76 0.55
5 -13 -6 0.65 0.33
4 -13 -6 0.76 0.31
3 -13 -6 -0.18 0.26
2 -13 -6 2.16 0.32
1 -13 -6 0.33 0.25
-1 13 6 -0.1 0.28
0 -13 -6 9.73 0.59
0 13 6 6.48 0.81
-1 -13 -6 -0.1 0.23
1 13 6 0.37 0.51
2 13 6 0.68 0.54
3 13 6 1.74 0.64
4 13 6 9.98 1.23
9 -14 -6 0.57 0.43
8 -14 -6 -0.19 0.39
7 -14 -6 0.13 0.42
6 -14 -6 3.32 0.57
5 -14 -6 1.6 0.38
4 -14 -6 6.98 0.61
3 -14 -6 3.69 0.49
2 -14 -6 1.81 0.32
1 -14 -6 -0.08 0.27
-1 14 6 0.21 0.36
0 -14 -6 3.49 0.44
0 14 6 1.8 0.45
1 14 6 1.88 0.52
2 14 6 1.75 0.61
3 14 6 3.32 0.73
8 -15 -6 4.91 0.7
7 -15 -6 1.27 0.42
6 -15 -6 0.49 0.42
5 -15 -6 5.04 0.62
4 -15 -6 3.8 0.56
3 -15 -6 4.9 0.58
2 -15 -6 2.1 0.35
1 -15 -6 2.55 0.37
0 -15 -6 0.9 0.31
0 15 6 0.26 0.4
2 15 6 0.83 0.63
6 -16 -6 0.28 0.44
5 -16 -6 2.29 0.43
4 -16 -6 1.4 0.39
3 -16 -6 19.34 1.1
2 -16 -6 2.99 0.52
1 -16 -6 -0.22 0.3
0 -19 7 0.47 0.38
1 -19 7 -0.24 0.37
2 -19 7 0.46 0.41
3 -19 7 8.43 0.81
4 -19 7 1.9 0.48
5 -19 7 0.3 0.44
-1 -18 7 0.79 0.35
0 -18 7 0.99 0.37
1 -18 7 0.6 0.36
2 -18 7 1.22 0.4
3 -18 7 0.2 0.38
4 -18 7 2.76 0.48
5 -18 7 4.53 0.73
5 -18 7 3.9 0.67
6 -18 7 1.7 0.49
6 -18 7 1.08 0.47
7 -18 7 0.52 0.5
7 -18 7 0.47 0.44
-3 -17 7 11.3 1
-2 -17 7 0.09 0.35
-2 -17 7 0.03 0.31
-1 -17 7 -0.06 0.3
0 -17 7 9.7 0.75
1 -17 7 2.01 0.39
1 -17 7 1.81 0.38
2 -17 7 8.24 0.7
2 -17 7 9.06 0.73
3 -17 7 5.32 0.62
3 -17 7 6.34 0.67
4 -17 7 -0.02 0.34
4 -17 7 -0.18 0.35
5 -17 7 4.25 0.67
5 -17 7 3.87 0.63
6 -17 7 0.88 0.44
6 -17 7 0.42 0.41
7 -17 7 2.7 0.5
7 -17 7 2.41 0.54
8 -17 7 1.31 0.49
8 -17 7 1.75 0.54
-4 -16 7 0.63 0.47
-3 -16 7 -0.49 0.37
-2 -16 7 2.39 0.35
-2 -16 7 1.46 0.43
-2 -16 7 2.76 0.43
-1 -16 7 3.54 0.45
-1 -16 7 3.61 0.6
-1 -16 7 4.03 0.5
0 -16 7 0.24 0.32
0 -16 7 0.13 0.27
1 -16 7 26.3 1.43
1 -16 7 26.06 1.38
2 -16 7 5.36 0.58
2 -16 7 5.6 0.59
3 -16 7 -0.09 0.32
3 -16 7 -0.15 0.31
4 -16 7 0.15 0.33
4 -16 7 0.39 0.34
5 -16 7 9.96 0.78
5 -16 7 10.06 0.8
6 -16 7 2.72 0.46
6 -16 7 2.53 0.45
7 -16 7 6.3 0.71
7 -16 7 5.76 0.79
8 -16 7 1.71 0.53
8 -16 7 1.04 0.45
9 -16 7 1.36 0.59
9 -16 7 1.35 0.49
-5 -15 7 -0.76 0.45
-4 -15 7 0.11 0.42
-3 -15 7 3.43 0.49
-3 -15 7 2.69 0.51
-3 -15 7 3.41 0.45
-2 -15 7 5.19 0.64
-2 -15 7 5.71 0.51
-2 -15 7 3.86 0.67
-1 -15 7 2.41 0.38
-1 -15 7 2.3 0.32
-1 -15 7 1.38 0.38
0 -15 7 5.71 0.6
0 -15 7 5.9 0.54
0 -15 7 5.28 0.59
1 -15 7 3.43 0.5
1 -15 7 3.9 0.5
2 -15 7 11.73 0.77
2 -15 7 12.18 0.8
3 -15 7 4.79 0.54
3 -15 7 4.13 0.54
4 -15 7 20.53 1.17
4 -15 7 20.32 1.15
5 -15 7 -0.03 0.33
5 -15 7 0.97 0.35
6 -15 7 4.74 0.66
6 -15 7 4.28 0.6
7 -15 7 1.85 0.42
7 -15 7 2.75 0.49
8 -15 7 1.33 0.48
8 -15 7 1.52 0.42
9 -15 7 1.43 0.45
9 -15 7 0.67 0.54
10 -15 7 7.91 1.08
10 -15 7 6.8 0.79
-6 -14 7 1.19 0.55
5 14 -7 3.45 0.48
-5 -14 7 4.11 0.67
-4 -14 7 5.3 0.8
-3 -14 7 5.38 0.72
-3 -14 7 6.79 0.51
-3 -14 7 4.45 0.74
-2 -14 7 8.19 0.72
-2 -14 7 9.13 0.6
-2 -14 7 8.24 0.78
-1 -14 7 2.93 0.52
-1 -14 7 3.06 0.42
-1 -14 7 2.25 0.39
0 -14 7 2.29 0.35
0 -14 7 2.72 0.42
1 -14 7 0.89 0.27
1 -14 7 0.83 0.27
2 -14 7 5.3 0.53
2 -14 7 5.15 0.53
3 -14 7 24.45 1.33
3 -14 7 24.67 1.28
4 -14 7 1.87 0.34
4 -14 7 1.5 0.33
5 -14 7 1.52 0.35
5 -14 7 1.29 0.35
6 -14 7 6.47 0.66
6 -14 7 4.89 0.59
7 -14 7 0.82 0.42
7 -14 7 0.9 0.38
8 -14 7 1.86 0.43
8 -14 7 2.14 0.5
9 -14 7 10.35 0.83
9 -14 7 11.39 0.99
10 -14 7 2.52 0.65
10 -14 7 1.51 0.49
7 13 -7 -0.15 0.32
-7 -13 7 -1.03 0.52
6 13 -7 8.05 0.75
-6 -13 7 7.44 1
5 13 -7 9.16 0.76
-5 -13 7 9.03 0.95
4 13 -7 0.47 0.29
-4 -13 7 0.37 0.22
-4 -13 7 0.4 0.39
-3 -13 7 0.18 0.22
-3 -13 7 -0.52 0.32
-2 -13 7 12.83 0.98
-2 -13 7 14.68 0.79
-2 -13 7 13.53 0.9
-1 -13 7 1.2 0.3
-1 -13 7 1.49 0.31
-1 -13 7 1.6 0.27
0 -13 7 8.44 0.67
0 -13 7 8.7 0.6
0 -13 7 9.32 0.67
1 -13 7 62.57 2.92
1 -13 7 62.21 3.1
2 -13 7 0.05 0.24
2 -13 7 -0.1 0.23
3 -13 7 1.77 0.3
3 -13 7 1.39 0.3
4 -13 7 4.52 0.49
4 -13 7 5.25 0.52
5 -13 7 1.37 0.32
5 -13 7 1.59 0.34
6 -13 7 1.35 0.38
6 -13 7 1.05 0.34
7 -13 7 6.14 0.61
7 -13 7 5.25 0.69
8 -13 7 3.54 0.57
8 -13 7 2.49 0.51
9 -13 7 1.16 0.52
9 -13 7 0.18 0.4
10 -13 7 0.47 0.43
10 -13 7 0.65 0.6
7 12 -7 2.33 0.47
-7 -12 7 4.53 0.71
6 12 -7 2.55 0.44
-6 -12 7 2.81 0.58
5 12 -7 -0.16 0.28
-5 -12 7 -0.07 0.39
4 12 -7 9.38 0.73
-4 -12 7 8.99 0.57
-4 -12 7 8.32 0.85
3 12 -7 2.34 0.37
-3 -12 7 2.3 0.41
-3 -12 7 2.02 0.27
-2 -12 7 8.71 0.74
-2 -12 7 9.47 0.59
-1 -12 7 0.21 0.2
-1 -12 7 0.16 0.24
-1 -12 7 0.09 0.24
0 -12 7 4.71 0.49
0 -12 7 5.69 0.53
0 -12 7 5.52 0.47
1 -12 7 21.73 1.21
1 -12 7 23.11 1.15
2 -12 7 16.12 0.9
2 -12 7 16.94 0.95
3 -12 7 1.82 0.29
3 -12 7 2.6 0.41
4 -12 7 1.15 0.28
4 -12 7 1.28 0.29
5 -12 7 5.21 0.53
5 -12 7 4.32 0.49
6 -12 7 0.17 0.3
6 -12 7 -0.11 0.33
7 -12 7 5.91 0.66
7 -12 7 5.12 0.56
8 -12 7 1.25 0.44
8 -12 7 1.15 0.36
9 -12 7 4.66 0.79
9 -12 7 4.35 0.58
10 -12 7 1.89 0.35
10 -12 7 2.82 0.63
11 -12 7 3.65 0.68
8 11 -7 0.18 0.44
-8 -11 7 -1.27 0.52
7 11 -7 8.23 0.79
-7 -11 7 7.45 0.99
6 11 -7 1.72 0.4
-6 -11 7 2.83 0.56
5 11 -7 14.16 0.95
-5 -11 7 14.96 1.12
4 11 -7 3.91 0.51
-4 -11 7 3.96 0.64
3 11 -7 6.43 0.59
-3 -11 7 6.54 0.67
-2 -11 7 -0.13 0.25
-1 -11 7 0.27 0.23
-1 -11 7 0.19 0.21
0 -11 7 0 0.19
0 -11 7 0.06 0.22
1 -11 7 31.46 1.64
1 -11 7 31.96 1.54
2 -11 7 1.61 0.26
2 -11 7 2.39 0.38
3 -11 7 30.77 1.58
3 -11 7 30.45 1.5
4 -11 7 8.05 0.56
4 -11 7 7.57 0.58
5 -11 7 0.17 0.27
5 -11 7 0.08 0.23
6 -11 7 1.8 0.36
6 -11 7 1.69 0.32
7 -11 7 7.62 0.71
7 -11 7 8.17 0.61
8 -11 7 0.95 0.42
8 -11 7 0.17 0.32
9 -11 7 4.81 0.59
9 -11 7 7.22 0.81
10 -11 7 6.46 0.89
10 -11 7 4.58 0.5
11 -11 7 3.21 0.66
8 10 -7 0.22 0.43
-8 -10 7 -0.55 0.5
7 10 -7 16.73 1.14
-7 -10 7 18.36 1.36
6 10 -7 5.24 0.66
-6 -10 7 6.75 0.81
5 10 -7 29.2 1.63
-5 -10 7 31.26 1.84
4 10 -7 6.26 0.59
-4 -10 7 6.51 0.68
3 10 -7 4.17 0.5
-3 -10 7 4.47 0.56
2 10 -7 0.14 0.22
-2 -10 7 0.07 0.23
-1 -10 7 23.49 1.27
-1 -10 7 23.46 1.35
0 -10 7 31.87 1.66
0 -10 7 32.62 1.77
1 -10 7 37.94 1.92
2 -10 7 22.67 1.2
3 -10 7 2.52 0.38
3 -10 7 2.69 0.37
4 -10 7 22.95 1.16
4 -10 7 23.2 1.23
5 -10 7 2.82 0.44
5 -10 7 3.33 0.42
6 -10 7 7.25 0.55
6 -10 7 7.36 0.62
7 -10 7 0.51 0.28
7 -10 7 0.89 0.36
8 -10 7 9.36 0.8
8 -10 7 9.21 0.68
9 -10 7 0.6 0.48
9 -10 7 -0.54 0.23
10 -10 7 1.41 0.54
10 -10 7 0.81 0.26
11 -10 7 2.08 0.62
9 9 -7 10.61 1.02
-9 -9 7 9.9 1.16
8 9 -7 7.69 0.84
-8 -9 7 6.1 0.95
7 9 -7 13.07 0.96
-7 -9 7 12.77 1.12
6 9 -7 14.22 0.96
-6 -9 7 14.31 1.11
5 9 -7 19.77 1.18
-5 -9 7 20.85 1.33
4 9 -7 10.81 0.73
-4 -9 7 11.08 0.84
3 9 -7 2.68 0.34
-3 -9 7 3.03 0.39
2 9 -7 7.3 0.55
-2 -9 7 6.83 0.57
-1 -9 7 21.84 1.26
0 -9 7 38.38 1.98
0 -9 7 40.17 2.13
1 -9 7 2.54 0.37
2 -9 7 6.64 0.48
3 -9 7 12.17 0.72
3 -9 7 11.98 0.67
4 -9 7 19.72 1.04
4 -9 7 18.45 0.98
5 -9 7 13.26 0.76
5 -9 7 14.23 0.83
6 -9 7 16.53 1.01
6 -9 7 17.91 0.92
7 -9 7 4.61 0.57
7 -9 7 4.56 0.47
8 -9 7 1.66 0.3
8 -9 7 1.29 0.42
9 -9 7 4.67 0.43
9 -9 7 8.81 0.8
10 -9 7 0.71 0.51
11 -9 7 2.57 0.64
9 8 -7 0.02 0.5
-9 -8 7 -0.33 0.5
8 8 -7 12.63 1.01
-8 -8 7 12.4 1.14
7 8 -7 1.19 0.4
-7 -8 7 0.44 0.42
6 8 -7 0.58 0.33
-6 -8 7 0.63 0.37
5 8 -7 0.39 0.3
-5 -8 7 -0.09 0.3
4 8 -7 -0.1 0.24
-4 -8 7 -0.21 0.25
3 8 -7 1.26 0.26
-3 -8 7 0.87 0.26
2 8 -7 27.63 1.44
-2 -8 7 27.42 1.55
-1 -8 7 6.92 0.51
0 -8 7 19.76 1.05
0 -8 7 19.69 1.12
1 -8 7 6.95 0.49
1 -8 7 6.55 0.45
2 -8 7 10.49 0.63
3 -8 7 1.21 0.22
4 -8 7 12.5 0.7
4 -8 7 12.57 0.73
5 -8 7 0 0.2
5 -8 7 0.31 0.23
6 -8 7 12.14 0.82
6 -8 7 13.94 0.74
7 -8 7 1.44 0.27
7 -8 7 1.45 0.35
8 -8 7 0.17 0.37
8 -8 7 -0.18 0.18
9 -8 7 0.19 0.19
9 -8 7 -0.28 0.44
10 -8 7 7.06 0.85
11 -8 7 0.98 0.57
10 7 -7 2.9 0.67
-10 -7 7 1.32 0.65
9 7 -7 9.04 0.94
-9 -7 7 7.92 1.02
8 7 -7 3.99 0.57
-8 -7 7 2.49 0.58
7 7 -7 17.65 1.12
-7 -7 7 17.17 1.24
6 7 -7 13.79 0.92
-6 -7 7 14.19 1.03
5 7 -7 2.4 0.33
-5 -7 7 1.35 0.35
4 7 -7 13.38 0.84
-4 -7 7 14.76 0.93
3 7 -7 21.48 1.13
-3 -7 7 20.61 1.24
2 7 -7 13.18 0.75
-2 -7 7 12.63 0.81
-1 -7 7 0.26 0.16
0 -7 7 15.3 0.85
0 -7 7 15.54 0.9
0 -7 7 15.82 0.89
1 -7 7 3.26 0.35
1 -7 7 2.78 0.29
2 -7 7 22.82 1.18
3 -7 7 16.59 0.9
4 -7 7 13.65 0.77
4 -7 7 13.69 0.73
5 -7 7 14.6 0.84
5 -7 7 14.21 0.76
6 -7 7 19.15 1.11
6 -7 7 20.48 1
7 -7 7 0.22 0.21
7 -7 7 0.53 0.3
8 -7 7 1.51 0.27
8 -7 7 2.27 0.42
9 -7 7 2.49 0.5
10 -7 7 18.31 1.25
11 -7 7 14.69 1.16
10 6 -7 9.71 1.01
-10 -6 7 7.35 1.09
9 6 -7 0.48 0.49
-9 -6 7 -0.11 0.47
8 6 -7 3 0.51
-8 -6 7 3.03 0.54
7 6 -7 2.83 0.45
-7 -6 7 2.28 0.46
6 6 -7 11.99 0.83
-6 -6 7 11.81 0.91
5 6 -7 8.7 0.63
-5 -6 7 8.7 0.71
4 6 -7 7.62 0.53
-4 -6 7 6.94 0.6
3 6 -7 8.91 0.57
-3 -6 7 8.99 0.64
2 6 -7 30.59 1.55
-2 -6 7 30.7 1.69
1 6 -7 1.72 0.28
-1 -6 7 1.55 0.28
0 -6 7 0.4 0.14
0 -6 7 0.41 0.15
-1 6 -7 52.59 2.69
1 -6 7 49.06 2.5
1 -6 7 50.59 2.69
2 -6 7 16.66 0.88
3 -6 7 56.03 2.75
4 -6 7 7.62 0.51
5 -6 7 1.15 0.25
5 -6 7 1.13 0.2
6 -6 7 0.23 0.26
6 -6 7 -0.34 0.17
7 -6 7 6.97 0.46
7 -6 7 9.63 0.65
8 -6 7 7.26 0.7
9 -6 7 22.7 1.39
9 -6 7 21.07 1.32
10 -6 7 4.06 0.61
11 -6 7 0.82 0.57
10 5 -7 6.23 0.89
-10 -5 7 2.89 0.71
9 5 -7 1.55 0.52
-9 -5 7 1.72 0.52
8 5 -7 16.39 1.11
-8 -5 7 16.83 1.23
7 5 -7 0.37 0.36
-7 -5 7 0.37 0.34
6 5 -7 2.78 0.38
-6 -5 7 2.83 0.41
5 5 -7 62.13 3.14
-5 -5 7 64.53 3.43
4 5 -7 3.26 0.37
-4 -5 7 2.9 0.41
3 5 -7 17.14 0.91
-3 -5 7 16.5 1.01
2 5 -7 0.83 0.17
-2 -5 7 0.37 0.18
1 5 -7 10.89 0.61
-1 -5 7 10.23 0.65
0 -5 7 3 0.29
0 -5 7 3.33 0.3
-1 5 -7 125.78 6.61
1 -5 7 121.85 6.12
1 -5 7 132.67 6.62
-2 5 -7 19.83 1.08
2 -5 7 19.2 1.01
-3 5 -7 14.82 0.85
3 -5 7 14.56 0.79
4 -5 7 1.3 0.21
4 -5 7 1.15 0.2
5 -5 7 0.44 0.22
5 -5 7 0.15 0.2
5 -5 7 0.2 0.17
6 -5 7 0.13 0.24
6 -5 7 0.07 0.26
6 -5 7 -0.05 0.15
7 -5 7 30.02 1.6
7 -5 7 30.33 1.72
8 -5 7 7.86 0.72
8 -5 7 7.96 0.73
9 -5 7 6.37 0.78
9 -5 7 5.7 0.73
10 -5 7 5.24 0.78
10 -5 7 5.71 0.84
11 -5 7 -0.11 0.53
11 4 -7 0.72 0.64
-11 -4 7 -0.45 0.59
10 4 -7 -0.98 0.53
-10 -4 7 0.05 0.53
9 4 -7 0.52 0.49
-9 -4 7 1.19 0.51
8 4 -7 0.12 0.4
-8 -4 7 0.2 0.38
7 4 -7 32.43 1.73
-7 -4 7 31.82 1.9
6 4 -7 33.27 1.72
-6 -4 7 32.27 1.88
5 4 -7 8.13 0.57
-5 -4 7 7.29 0.62
4 4 -7 0.23 0.2
-4 -4 7 0.48 0.21
3 4 -7 0.78 0.16
-3 -4 7 0.6 0.19
2 4 -7 9.79 0.57
-2 -4 7 10.06 0.63
1 4 -7 28.13 1.39
1 4 -7 26.91 1.49
-1 -4 7 26.93 1.49
0 4 -7 34.25 1.88
0 -4 7 36.83 1.89
0 -4 7 34.66 1.75
-1 4 -7 0.34 0.14
1 -4 7 0.39 0.15
1 -4 7 0.5 0.16
-2 4 -7 1.27 0.21
2 -4 7 1.02 0.19
2 -4 7 1.31 0.24
-3 4 -7 2.19 0.28
3 -4 7 2.7 0.29
3 -4 7 2.53 0.28
-4 4 -7 4.49 0.36
4 -4 7 4.52 0.38
4 -4 7 4.42 0.4
5 -4 7 6.26 0.49
5 -4 7 6.18 0.4
5 -4 7 6.69 0.53
6 -4 7 5.71 0.46
6 -4 7 3.71 0.28
7 -4 7 1.86 0.37
7 -4 7 2.15 0.37
8 -4 7 2.86 0.44
8 -4 7 2.11 0.43
9 -4 7 4.82 0.71
9 -4 7 5.41 0.77
10 -4 7 1.06 0.52
10 -4 7 1.24 0.53
11 -4 7 1.29 0.58
11 3 -7 -0.02 0.61
-11 -3 7 -0.3 0.6
10 3 -7 0.91 0.53
-10 -3 7 -0.26 0.55
9 3 -7 4.59 0.73
-9 -3 7 5.46 0.8
8 3 -7 29.32 1.67
-8 -3 7 31.61 1.85
7 3 -7 1.42 0.35
-7 -3 7 0.69 0.35
6 3 -7 0.14 0.25
-6 -3 7 0.18 0.26
5 3 -7 44.35 2.22
-5 -3 7 43.95 2.43
4 3 -7 2.67 0.32
-4 -3 7 2.51 0.35
3 3 -7 0.11 0.13
-3 -3 7 -0.19 0.15
2 3 -7 39.57 2.03
-2 -3 7 43.12 2.22
-2 -3 7 41.17 1.9
1 3 -7 0.24 0.11
1 3 -7 0.29 0.13
-1 -3 7 0.19 0.13
-1 -3 7 0.14 0.13
-1 -3 7 0.17 0.08
0 3 -7 2.81 0.25
0 -3 7 2.82 0.26
0 -3 7 2.9 0.27
-1 3 -7 84.1 4.45
-1 3 -7 85.64 4.1
1 -3 7 87.23 4.47
1 -3 7 82.22 4.1
-2 3 -7 6.23 0.39
2 -3 7 6.2 0.45
2 -3 7 6.33 0.41
3 -3 7 6.14 0.41
3 -3 7 6.54 0.46
4 -3 7 30.61 1.67
4 -3 7 29.81 1.53
5 -3 7 13.97 0.9
5 -3 7 14.33 0.81
6 -3 7 6.28 0.62
6 -3 7 6.41 0.54
7 -3 7 1.62 0.37
7 -3 7 1.76 0.38
8 -3 7 1.25 0.41
8 -3 7 2.02 0.42
9 -3 7 1.51 0.49
9 -3 7 1.04 0.47
10 -3 7 1.68 0.55
10 -3 7 1.68 0.55
11 -3 7 7.93 1
11 -3 7 8.82 1.1
11 2 -7 -0.36 0.6
-11 -2 7 -0.16 0.55
10 2 -7 10.11 0.98
-10 -2 7 9.62 1.01
9 2 -7 0.54 0.47
-9 -2 7 0.05 0.42
8 2 -7 3.47 0.61
-8 -2 7 3.9 0.63
7 2 -7 25.36 1.41
-7 -2 7 25.8 1.54
6 2 -7 1.32 0.29
-6 -2 7 1.08 0.28
5 2 -7 7.91 0.55
-5 -2 7 8.35 0.61
4 2 -7 2.2 0.3
4 2 -7 2.38 0.28
-4 -2 7 2 0.34
3 2 -7 5.51 0.38
-3 -2 7 6.29 0.45
2 2 -7 23.59 1.23
-2 -2 7 24.26 1.23
-2 -2 7 25.44 1.16
-2 -2 7 24.92 1.36
1 2 -7 25.32 1.45
1 2 -7 26.54 1.34
-1 -2 7 27.29 1.46
-1 -2 7 27.64 1.34
-1 -2 7 27.22 1.25
0 2 -7 2.43 0.24
0 -2 7 2.14 0.24
0 -2 7 2.86 0.29
-1 2 -7 1.49 0.23
-1 2 -7 1.56 0.19
1 -2 7 1.41 0.21
1 -2 7 1.49 0.26
-2 2 -7 4.36 0.29
2 -2 7 4.51 0.38
2 -2 7 4.5 0.33
3 -2 7 35.77 1.95
3 -2 7 35.78 1.78
4 -2 7 158.31 7.5
4 -2 7 152.64 8.14
5 -2 7 0.79 0.22
5 -2 7 0.59 0.27
6 -2 7 13.83 0.96
6 -2 7 13.66 0.84
7 -2 7 16.67 0.99
7 -2 7 15.32 1.11
8 -2 7 7.94 0.75
8 -2 7 7.88 0.84
9 -2 7 2.78 0.55
9 -2 7 2.12 0.51
10 -2 7 54.83 2.99
10 -2 7 47.45 2.7
11 -2 7 6.14 1.07
11 -2 7 5.31 0.78
11 1 -7 0.36 0.6
-11 -1 7 1.19 0.56
10 1 -7 1.28 0.53
-10 -1 7 0.55 0.47
9 1 -7 2.04 0.49
-9 -1 7 1.5 0.46
8 1 -7 2.3 0.42
8 1 -7 1.98 0.29
-8 -1 7 1.63 0.41
7 1 -7 1.51 0.35
7 1 -7 1.87 0.32
-7 -1 7 2.05 0.36
6 1 -7 3.66 0.44
6 1 -7 3.76 0.37
-6 -1 7 4.08 0.49
5 1 -7 11.24 0.7
5 1 -7 11.73 0.64
-5 -1 7 12.01 0.78
4 1 -7 13.66 0.7
4 1 -7 13.42 0.75
-4 -1 7 13.61 0.84
3 1 -7 16.68 0.83
3 1 -7 16.82 0.88
-3 -1 7 17.19 0.98
2 1 -7 19.02 1.09
2 1 -7 19.04 0.99
2 1 -7 18.71 0.93
-2 -1 7 19.99 1.1
-2 -1 7 20.35 0.94
-2 -1 7 19.95 0.99
1 1 -7 77.78 3.83
1 1 -7 74.7 3.59
1 1 -7 79.46 4.17
-1 -1 7 81.24 4.16
-1 -1 7 80.36 3.84
-1 -1 7 81.73 3.59
0 1 -7 25.82 1.43
0 -1 7 28.11 1.46
0 -1 7 25.61 1.31
0 -1 7 25.71 1.22
-1 1 -7 8.24 0.46
-1 1 -7 8.59 0.55
1 -1 7 8.48 0.56
1 -1 7 8.41 0.43
1 -1 7 8.32 0.47
-2 1 -7 72.72 3.64
-2 1 -7 72.29 3.98
2 -1 7 77.8 3.64
2 -1 7 79.97 3.98
2 -1 7 73.79 3.4
3 -1 7 81.75 3.86
3 -1 7 79.13 4.21
3 -1 7 77.88 3.6
4 -1 7 1.08 0.22
4 -1 7 0.66 0.23
5 -1 7 0.77 0.25
5 -1 7 0.99 0.3
6 -1 7 0.86 0.31
6 -1 7 0.87 0.35
7 -1 7 0.21 0.36
7 -1 7 0.49 0.39
8 -1 7 71.59 3.64
8 -1 7 73.49 4
9 -1 7 13.36 1.12
9 -1 7 11.05 0.97
10 -1 7 0.58 0.59
10 -1 7 0.24 0.56
11 -1 7 0.46 0.64
11 -1 7 0.32 0.62
11 0 -7 7.63 1.03
-11 0 7 8.76 1.06
10 0 -7 3.83 0.62
-10 0 7 3.39 0.61
9 0 -7 18.18 1.17
-9 0 7 17.91 1.27
8 0 -7 3.77 0.37
8 0 -7 5.19 0.59
-8 0 7 5.19 0.66
7 0 -7 0.15 0.23
7 0 -7 0.29 0.3
-7 0 7 0.19 0.29
6 0 -7 12.34 0.7
6 0 -7 12.29 0.75
-6 0 7 12.13 0.84
5 0 -7 57.73 2.62
5 0 -7 55.54 2.79
-5 0 7 56.91 3.05
4 0 -7 0.3 0.15
4 0 -7 0.24 0.16
-4 0 7 0.08 0.17
3 0 -7 6.15 0.41
3 0 -7 6.54 0.39
-3 0 7 7.48 0.48
2 0 -7 24.4 1.36
2 0 -7 24.31 1.23
2 0 -7 25.29 1.17
-2 0 7 25.13 1.36
1 0 -7 55.25 3.03
1 0 -7 55.23 2.6
1 0 -7 56.39 2.78
-1 0 7 58.22 2.79
-1 0 7 60.32 3.04
-1 0 7 57.69 2.61
0 0 -7 44 2.31
0 0 -7 39.22 1.96
0 0 7 44.66 1.97
0 0 7 42.37 2.1
0 0 7 45.09 2.31
-1 0 -7 117.77 6.19
-1 0 -7 120.13 5.68
1 0 7 118.97 6.2
1 0 7 115.69 5.68
-2 0 -7 1.41 0.18
2 0 7 1.54 0.22
2 0 7 1.64 0.18
2 0 7 0.97 0.22
3 0 7 1.87 0.37
3 0 7 1.67 0.27
4 0 7 8.98 0.68
4 0 7 9.58 0.58
5 0 7 0.83 0.31
5 0 7 0.99 0.27
6 0 7 0.29 0.34
6 0 7 0.14 0.3
7 0 7 31.05 1.9
7 0 7 31.59 1.69
8 0 7 8.58 0.8
8 0 7 9.27 0.95
9 0 7 0.25 0.5
9 0 7 0.56 0.54
10 0 7 1.97 0.67
10 0 7 1.78 0.61
11 0 7 -0.42 0.65
11 0 7 0.56 0.62
-12 1 7 0.03 0.58
11 -1 -7 4.24 0.72
-11 1 7 5.18 0.93
10 -1 -7 12.89 1.04
-10 1 7 13.34 1.14
9 -1 -7 1.08 0.23
9 -1 -7 1.29 0.44
-9 1 7 1.06 0.43
8 -1 -7 1.77 0.39
8 -1 -7 1.02 0.25
-8 1 7 1.32 0.39
7 -1 -7 30.29 1.46
7 -1 -7 29.61 1.57
-7 1 7 29.27 1.73
6 -1 -7 17.35 0.97
6 -1 -7 17.21 0.9
-6 1 7 17.46 1.07
5 -1 -7 5.43 0.43
5 -1 -7 5.41 0.4
-5 1 7 5.48 0.49
4 -1 -7 16.72 0.89
4 -1 -7 17.05 0.84
-4 1 7 16.44 0.99
3 -1 -7 7.85 0.46
3 -1 -7 7.96 0.45
-3 1 7 8.02 0.54
2 -1 -7 11.27 0.69
2 -1 -7 10.6 0.6
2 -1 -7 11.73 0.59
-2 1 7 11.84 0.61
-2 1 7 12 0.7
1 -1 -7 16.05 0.94
1 -1 -7 16.37 0.79
1 -1 -7 16.74 0.84
-1 1 7 16.21 0.83
-1 1 7 16.37 0.79
-1 1 7 16.86 0.97
0 -1 -7 28.33 1.61
0 -1 -7 28.38 1.36
0 1 7 30.6 1.62
0 1 7 29.78 1.36
-1 -1 -7 -0.04 0.09
1 1 7 -0.03 0.16
1 1 7 0.01 0.1
-2 -1 -7 60.99 3.05
2 1 7 64.75 3.07
2 1 7 62.51 3.37
2 1 7 64.4 2.86
-3 -1 -7 14.74 0.83
3 1 7 17.3 0.85
3 1 7 16.39 1
4 1 7 5.04 0.42
4 1 7 3.71 0.51
5 1 7 31.8 1.86
5 1 7 32.24 1.65
6 1 7 10.89 0.91
6 1 7 11.18 0.77
7 1 7 4.97 0.76
7 1 7 4.85 0.63
8 1 7 4.29 0.83
8 1 7 4.8 0.72
9 1 7 8.19 1.04
9 1 7 7.14 0.86
10 1 7 1.6 0.68
10 1 7 1.67 0.61
-12 2 7 0.12 0.45
11 -2 -7 1.09 0.61
-11 2 7 1.02 0.45
10 -2 -7 -0.25 0.49
-10 2 7 0.22 0.45
9 -2 -7 1.41 0.44
9 -2 -7 1.22 0.24
-9 2 7 1.01 0.42
8 -2 -7 11.68 0.75
8 -2 -7 12.73 0.86
-8 2 7 12.77 0.93
7 -2 -7 1.13 0.27
7 -2 -7 1.25 0.32
-7 2 7 1.26 0.32
6 -2 -7 14.25 0.86
6 -2 -7 14.94 0.81
-6 2 7 15.93 0.97
5 -2 -7 13.41 0.77
5 -2 -7 13.87 0.73
-5 2 7 13.82 0.87
4 -2 -7 -0.18 0.14
4 -2 -7 0.04 0.14
-4 2 7 -0.04 0.18
3 -2 -7 14.3 0.78
3 -2 -7 15.19 0.75
-3 2 7 14.84 0.88
-3 2 7 15.6 0.78
2 -2 -7 1.72 0.21
-2 2 7 1.7 0.19
-2 2 7 2.18 0.33
1 -2 -7 2.31 0.23
-1 2 7 2.02 0.32
0 -2 -7 11.73 0.58
0 2 7 11.73 0.58
0 2 7 11.02 0.74
-1 -2 -7 7.22 0.41
1 2 7 8.14 0.57
1 2 7 8.09 0.42
2 2 7 1.45 0.26
-3 -2 -7 2.34 0.24
3 2 7 2.23 0.33
3 2 7 2.45 0.31
4 2 7 1.34 0.25
4 2 7 0.77 0.3
5 2 7 24.33 1.3
5 2 7 24.01 1.49
6 2 7 1.94 0.4
6 2 7 2.15 0.46
7 2 7 12.45 1.07
7 2 7 12.64 0.91
8 2 7 0.27 0.52
8 2 7 0.77 0.48
9 2 7 0.2 0.51
9 2 7 1.66 0.64
10 2 7 3.79 0.79
10 2 7 2.89 0.67
11 -3 -7 0.36 0.6
-11 3 7 -0.5 0.34
10 -3 -7 0.64 0.22
10 -3 -7 1.04 0.49
-10 3 7 0.08 0.34
9 -3 -7 0.07 0.23
9 -3 -7 0.1 0.4
-9 3 7 0.35 0.36
8 -3 -7 0.3 0.35
8 -3 -7 -0.35 0.26
-8 3 7 -0.13 0.33
7 -3 -7 29.33 1.48
7 -3 -7 31.51 1.61
-7 3 7 30.58 1.76
6 -3 -7 10.12 0.65
6 -3 -7 9.91 0.59
-6 3 7 10.02 0.73
5 -3 -7 1.23 0.22
5 -3 -7 1.35 0.2
-5 3 7 1.01 0.25
4 -3 -7 1.47 0.25
4 -3 -7 1.96 0.26
-4 3 7 1.87 0.31
3 -3 -7 7.97 0.44
-3 3 7 7.5 0.44
-3 3 7 7.91 0.57
2 -3 -7 1.25 0.21
-2 3 7 1.8 0.34
1 -3 -7 82.03 3.69
-1 3 7 81.05 4.32
0 -3 -7 22.55 1.08
0 3 7 23.56 1.09
0 3 7 22.27 1.3
-1 -3 -7 -0.09 0.11
1 3 7 0.1 0.21
1 3 7 0.04 0.11
2 3 7 16.43 1.03
3 3 7 21.07 1.27
4 3 7 27.36 1.39
4 3 7 26.15 1.6
5 3 7 7.06 0.58
5 3 7 6.12 0.74
6 3 7 7.04 0.63
6 3 7 5.96 0.81
7 3 7 1.12 0.51
7 3 7 1.89 0.44
8 3 7 7.5 0.99
8 3 7 7.07 0.79
9 3 7 8.5 1.11
9 3 7 6.08 0.86
10 3 7 12.67 1.17
10 3 7 14 1.43
10 -4 -7 1.34 0.52
-10 4 7 0.15 0.31
9 -4 -7 4.48 0.71
9 -4 -7 4.25 0.51
-9 4 7 4.41 0.56
8 -4 -7 27.49 1.36
8 -4 -7 28.07 1.49
-8 4 7 25.49 1.59
7 -4 -7 2.29 0.36
7 -4 -7 1.79 0.28
-7 4 7 2 0.38
6 -4 -7 3.99 0.44
6 -4 -7 4.01 0.37
-6 4 7 4.14 0.5
5 -4 -7 14.2 0.8
5 -4 -7 14.14 0.75
-5 4 7 15.31 0.9
4 -4 -7 49.26 2.51
4 -4 -7 50.89 2.37
-4 4 7 54.24 2.77
3 -4 -7 1.25 0.17
-3 4 7 1.16 0.27
2 -4 -7 122.23 5.71
-2 4 7 131 6.65
1 -4 -7 6.84 0.38
-1 4 7 6.17 0.53
0 -4 -7 0.78 0.14
0 4 7 0.92 0.25
-1 -4 -7 13.03 0.65
1 4 7 13.15 0.86
1 4 7 13.07 0.65
2 4 7 98.91 5.26
3 4 7 0.42 0.29
4 4 7 18.16 1.04
4 4 7 22.58 1.31
5 4 7 0.34 0.41
5 4 7 0.55 0.22
6 4 7 7.93 0.88
6 4 7 6.73 0.55
7 4 7 15.67 1.16
7 4 7 10.58 0.81
8 4 7 21.43 1.39
8 4 7 29.77 1.79
9 4 7 1.07 0.44
9 4 7 0.86 0.68
11 -5 -7 0.37 0.24
10 -5 -7 6.8 0.56
9 -5 -7 -0.14 0.28
9 -5 -7 0.21 0.42
-9 5 7 0.19 0.27
8 -5 -7 8.08 0.68
8 -5 -7 7.29 0.55
-8 5 7 5.82 0.61
7 -5 -7 1.54 0.34
7 -5 -7 1.45 0.27
-7 5 7 1.31 0.29
6 -5 -7 53.29 2.67
6 -5 -7 52.16 2.5
-6 5 7 56.29 2.92
5 -5 -7 0.52 0.18
5 -5 -7 0.54 0.2
-5 5 7 0.61 0.27
4 -5 -7 25.15 1.18
-4 5 7 21.74 1.22
-4 5 7 27.27 1.44
3 -5 -7 0.42 0.15
-3 5 7 0.34 0.24
2 -5 -7 19.09 0.94
-2 5 7 19.72 1.16
1 -5 -7 19.77 0.95
-1 5 7 19.87 1.17
0 -5 -7 86.03 3.89
0 5 7 85.85 4.57
-1 -5 -7 79.78 3.57
1 5 7 77.68 4.22
2 5 7 12.51 0.88
3 5 7 0.53 0.33
4 5 7 5.95 0.73
5 5 7 0.43 0.42
5 5 7 0.29 0.2
6 5 7 6.35 0.55
6 5 7 10.42 0.95
7 5 7 14.02 0.96
7 5 7 19.09 1.34
8 5 7 0.11 0.33
8 5 7 -0.38 0.57
9 5 7 -0.06 0.67
11 -6 -7 2.5 0.65
10 -6 -7 0.91 0.35
9 -6 -7 0.5 0.31
9 -6 -7 1.09 0.45
8 -6 -7 21.27 1.07
8 -6 -7 17.73 0.93
-8 6 7 13.49 1.06
7 -6 -7 27.04 1.29
7 -6 -7 29.75 1.39
-7 6 7 21.18 1.47
6 -6 -7 1 0.24
6 -6 -7 1.04 0.26
-6 6 7 0.88 0.25
5 -6 -7 0.86 0.21
5 -6 -7 0.82 0.2
-5 6 7 0.54 0.31
4 -6 -7 1.55 0.27
-4 6 7 1.48 0.31
3 -6 -7 1.69 0.26
-3 6 7 1.99 0.33
2 -6 -7 9.42 0.53
-2 6 7 10.05 0.71
1 -6 -7 23.39 1.16
-1 6 7 25.38 1.42
0 -6 -7 0.77 0.16
0 6 7 1.24 0.3
-1 -6 -7 14.28 0.71
1 6 7 13.84 0.96
-2 -6 -7 11.05 0.58
2 6 7 11.79 0.87
3 6 7 1.84 0.42
4 6 7 0.72 0.42
5 6 7 4.48 0.8
6 6 7 1.26 0.53
7 6 7 4.02 0.72
8 6 7 3.76 0.76
11 -7 -7 -0.19 0.29
10 -7 -7 3.54 0.55
9 -7 -7 17.45 0.98
8 -7 -7 0.92 0.3
8 -7 -7 0.36 0.36
7 -7 -7 0.47 0.26
7 -7 -7 -0.03 0.3
6 -7 -7 4.45 0.42
6 -7 -7 3.86 0.45
-6 7 7 3.81 0.47
5 -7 -7 12.94 0.69
-5 7 7 11.88 0.83
4 -7 -7 0.48 0.19
-4 7 7 0.41 0.29
3 -7 -7 27.62 1.35
-3 7 7 28.6 1.62
2 -7 -7 5.59 0.4
-2 7 7 6.57 0.59
1 -7 -7 3.88 0.33
-1 7 7 4.53 0.54
0 -7 -7 0.09 0.15
0 7 7 0.21 0.31
-1 -7 -7 3.77 0.31
1 7 7 4.29 0.58
-2 -7 -7 10.17 0.54
2 7 7 9.69 0.85
3 7 7 1.29 0.44
4 7 7 2.9 0.56
5 7 7 1.25 0.53
6 7 7 0.61 0.54
7 7 7 6.37 1.03
8 7 7 0.51 0.68
11 -8 -7 -0.14 0.35
10 -8 -7 4.31 0.62
10 -8 -7 3.16 0.55
9 -8 -7 0.3 0.45
9 -8 -7 0.03 0.32
8 -8 -7 5.15 0.6
8 -8 -7 3.91 0.49
7 -8 -7 15.17 0.92
7 -8 -7 15.23 0.86
6 -8 -7 6.83 0.55
6 -8 -7 7.85 0.53
5 -8 -7 22.17 1.02
-5 8 7 17.19 1.18
4 -8 -7 5.09 0.41
-4 8 7 3.9 0.49
3 -8 -7 14.46 0.82
-3 8 7 17.62 1.05
2 -8 -7 0.26 0.18
-2 8 7 0.63 0.31
1 -8 -7 28.89 1.42
-1 8 7 30.94 1.75
0 -8 -7 1.25 0.2
0 8 7 1.05 0.36
-1 -8 -7 23.66 1.12
1 8 7 22.76 1.46
-2 -8 -7 4.61 0.34
2 8 7 4.05 0.71
3 8 7 0.48 0.44
4 8 7 0.34 0.48
5 8 7 4.78 0.89
6 8 7 0.96 0.59
7 8 7 12.09 1.28
11 -9 -7 -0.53 0.38
10 -9 -7 -0.31 0.33
9 -9 -7 12.39 0.95
9 -9 -7 11.77 0.8
8 -9 -7 0.48 0.37
8 -9 -7 0.29 0.3
7 -9 -7 8.4 0.65
7 -9 -7 7.93 0.6
6 -9 -7 0.66 0.27
5 -9 -7 3.35 0.41
4 -9 -7 0.11 0.22
-4 9 7 -0.16 0.22
3 -9 -7 6.96 0.48
-3 9 7 5.75 0.58
2 -9 -7 1.39 0.23
-2 9 7 1.33 0.38
1 -9 -7 21.75 1.08
-1 9 7 21.78 1.37
0 -9 -7 3.36 0.34
0 9 7 3.13 0.63
-1 -9 -7 13.47 0.72
1 9 7 14.64 1.08
-2 -9 -7 9.6 0.54
2 9 7 9.7 0.95
3 9 7 0.28 0.49
4 9 7 0.63 0.54
5 9 7 7.27 1.02
6 9 7 3.12 0.71
7 9 7 7.1 1.16
11 -10 -7 1.73 0.45
10 -10 -7 0.28 0.37
9 -10 -7 0.56 0.43
9 -10 -7 0.67 0.36
8 -10 -7 17.07 1.01
8 -10 -7 18.67 1.09
7 -10 -7 6.62 0.58
7 -10 -7 5.48 0.55
6 -10 -7 4.5 0.49
5 -10 -7 0.42 0.26
4 -10 -7 7.07 0.53
3 -10 -7 2.26 0.38
-3 10 7 2.13 0.41
2 -10 -7 16.47 0.85
-2 10 7 14.77 1.04
1 -10 -7 5.61 0.44
-1 10 7 5.53 0.7
0 -10 -7 6.73 0.47
0 10 7 7.4 0.79
-1 -10 -7 0.32 0.19
1 10 7 0.81 0.45
-2 -10 -7 0.92 0.21
2 10 7 0.93 0.51
3 10 7 0.16 0.52
4 10 7 5.6 0.95
5 10 7 2.78 0.68
6 10 7 0.65 0.65
10 -11 -7 1.97 0.46
9 -11 -7 1.35 0.39
8 -11 -7 0.5 0.34
7 -11 -7 1.69 0.36
6 -11 -7 0.27 0.3
5 -11 -7 0.12 0.28
4 -11 -7 9.5 0.64
3 -11 -7 3.78 0.42
-3 11 7 2.67 0.45
2 -11 -7 -0.06 0.22
-2 11 7 0.01 0.25
1 -11 -7 2.58 0.37
-1 11 7 2.66 0.47
0 -11 -7 2.17 0.34
0 11 7 1.16 0.49
-1 -11 -7 -0.14 0.2
1 11 7 0.3 0.49
2 11 7 13.71 1.22
3 11 7 1.3 0.6
4 11 7 1.47 0.62
5 11 7 0.17 0.62
10 -12 -7 -0.61 0.43
9 -12 -7 3.61 0.53
8 -12 -7 -0.27 0.34
7 -12 -7 2.5 0.4
6 -12 -7 2.35 0.38
5 -12 -7 1.05 0.32
4 -12 -7 -0.25 0.27
3 -12 -7 0.46 0.27
2 -12 -7 1.32 0.28
-2 12 7 0.9 0.31
1 -12 -7 0.01 0.24
-1 12 7 -0.1 0.31
0 -12 -7 4.19 0.43
0 12 7 3.87 0.63
-1 -12 -7 2.46 0.37
1 12 7 2.34 0.59
2 12 7 8.66 1.07
3 12 7 2.45 0.65
4 12 7 0.34 0.62
5 12 7 3.06 0.78
8 -13 -7 1.74 0.42
7 -13 -7 1.44 0.4
6 -13 -7 -0.07 0.33
5 -13 -7 3.08 0.41
4 -13 -7 0.59 0.31
3 -13 -7 5.41 0.52
2 -13 -7 0.48 0.27
-2 13 7 0.74 0.33
1 -13 -7 0.14 0.26
-1 13 7 0.2 0.34
0 -13 -7 0.95 0.27
0 13 7 1.07 0.43
1 13 7 3.62 0.66
2 13 7 0.86 0.57
3 13 7 0.31 0.61
4 13 7 0.66 0.69
8 -14 -7 -0.14 0.38
7 -14 -7 1.89 0.46
6 -14 -7 1.08 0.38
5 -14 -7 0.14 0.34
4 -14 -7 0.13 0.32
3 -14 -7 2.34 0.37
2 -14 -7 -0.09 0.28
1 -14 -7 7.87 0.58
-1 14 7 5.77 0.73
0 -14 -7 5.44 0.5
0 14 7 3.82 0.73
1 14 7 2.69 0.62
2 14 7 1.51 0.65
7 -15 -7 -0.26 0.39
6 -15 -7 2.01 0.45
5 -15 -7 0.24 0.38
4 -15 -7 0.21 0.35
3 -15 -7 2.56 0.4
2 -15 -7 2.94 0.4
1 -15 -7 1.57 0.35
1 15 7 0.08 0.47
5 -16 -7 2.7 0.48
4 -16 -7 0.24 0.39
3 -16 -7 0.75 0.39
2 -16 -7 -0.35 0.33
1 -16 -7 4.18 0.54
0 -19 8 1.41 0.42
1 -19 8 3.18 0.49
2 -19 8 0.06 0.4
3 -19 8 2.49 0.48
4 -19 8 -0.25 0.42
5 -19 8 0.01 0.45
-1 -18 8 1.02 0.37
0 -18 8 0.09 0.34
1 -18 8 3.59 0.63
2 -18 8 10.54 0.84
3 -18 8 -0.25 0.37
3 -18 8 0.17 0.38
4 -18 8 0.67 0.42
4 -18 8 1.19 0.42
5 -18 8 0.97 0.43
5 -18 8 0.17 0.42
6 -18 8 0.34 0.45
6 -18 8 -0.37 0.42
7 -18 8 0.35 0.45
7 -18 8 1.01 0.52
-3 -17 8 3.59 0.56
-2 -17 8 0.24 0.3
-2 -17 8 0.05 0.38
-1 -17 8 2.39 0.38
-1 -17 8 2.29 0.46
0 -17 8 20 1.2
0 -17 8 20.49 1.15
1 -17 8 -0.14 0.31
1 -17 8 -0.08 0.33
2 -17 8 1.25 0.38
2 -17 8 0.91 0.37
3 -17 8 5.62 0.66
3 -17 8 4.81 0.66
4 -17 8 1.86 0.42
4 -17 8 1.91 0.43
5 -17 8 5.24 0.67
5 -17 8 5.1 0.69
6 -17 8 20.09 1.27
6 -17 8 19.57 1.2
7 -17 8 4.46 0.81
7 -17 8 4.6 0.68
8 -17 8 0.31 0.5
8 -17 8 0.61 0.48
-4 -16 8 2.65 0.53
-3 -16 8 0.62 0.42
-3 -16 8 0.09 0.36
-2 -16 8 12.05 0.93
-2 -16 8 12.31 0.79
-2 -16 8 11.15 0.96
-1 -16 8 1.76 0.4
-1 -16 8 1.05 0.37
-1 -16 8 1.79 0.33
0 -16 8 0.17 0.28
0 -16 8 0.26 0.34
1 -16 8 1.41 0.35
1 -16 8 1.07 0.33
2 -16 8 0.92 0.35
2 -16 8 1.39 0.34
3 -16 8 0.64 0.34
3 -16 8 0.27 0.33
4 -16 8 7.53 0.7
4 -16 8 7.77 0.71
5 -16 8 0.73 0.39
5 -16 8 0.46 0.37
6 -16 8 1.44 0.41
6 -16 8 1.28 0.45
7 -16 8 1.24 0.49
7 -16 8 0.78 0.44
8 -16 8 0.38 0.49
8 -16 8 0.35 0.43
9 -16 8 0.37 0.55
9 -16 8 -0.02 0.45
-5 -15 8 0.46 0.45
-4 -15 8 0.18 0.39
-3 -15 8 5.54 0.71
-3 -15 8 5.26 0.53
-3 -15 8 4.79 0.7
-2 -15 8 0.2 0.34
-2 -15 8 -0.2 0.24
-2 -15 8 -0.55 0.32
-1 -15 8 -0.24 0.31
-1 -15 8 0.12 0.26
-1 -15 8 -0.21 0.31
0 -15 8 1.2 0.3
0 -15 8 1.14 0.35
0 -15 8 0.61 0.3
1 -15 8 0.17 0.28
1 -15 8 0.09 0.28
2 -15 8 0.4 0.3
2 -15 8 0.04 0.29
3 -15 8 0.92 0.33
3 -15 8 1.05 0.33
4 -15 8 0.7 0.33
4 -15 8 0.62 0.34
5 -15 8 1.41 0.37
5 -15 8 1.01 0.37
6 -15 8 4.16 0.65
6 -15 8 2.56 0.43
7 -15 8 0.29 0.39
7 -15 8 0.43 0.45
8 -15 8 1.46 0.52
8 -15 8 1.54 0.43
9 -15 8 0.8 0.44
9 -15 8 2.04 0.58
6 14 -8 0.25 0.32
-6 -14 8 -0.29 0.46
5 14 -8 7.14 0.66
-5 -14 8 6.16 0.88
-4 -14 8 -0.47 0.38
-4 -14 8 0.45 0.27
-3 -14 8 -0.62 0.33
-3 -14 8 0.99 0.28
-3 -14 8 0.9 0.39
-2 -14 8 1.23 0.37
-2 -14 8 1.73 0.36
-2 -14 8 2.16 0.31
-1 -14 8 -0.04 0.31
-1 -14 8 1.42 0.28
-1 -14 8 1.05 0.33
0 -14 8 3.22 0.52
0 -14 8 1.39 0.35
0 -14 8 3.01 0.46
1 -14 8 4.09 0.5
1 -14 8 3.73 0.51
2 -14 8 0.27 0.28
2 -14 8 0.43 0.29
3 -14 8 5.15 0.55
3 -14 8 4.54 0.54
4 -14 8 1.51 0.35
4 -14 8 1.02 0.31
5 -14 8 12.41 0.85
5 -14 8 12.29 0.81
6 -14 8 2.57 0.43
6 -14 8 2.45 0.4
7 -14 8 0.93 0.47
7 -14 8 1.5 0.39
8 -14 8 2.96 0.55
8 -14 8 2.97 0.47
9 -14 8 5.7 0.69
9 -14 8 7.12 0.9
10 -14 8 0.8 0.45
10 -14 8 1.12 0.62
7 13 -8 1.03 0.41
-7 -13 8 0.5 0.54
6 13 -8 1.29 0.4
-6 -13 8 0.48 0.5
5 13 -8 8.63 0.75
-5 -13 8 8.22 0.91
4 13 -8 1.35 0.35
-4 -13 8 1.09 0.4
-4 -13 8 1.28 0.26
-3 -13 8 9.7 0.84
-3 -13 8 10.37 0.66
-2 -13 8 -0.79 0.29
-2 -13 8 0.35 0.32
-2 -13 8 0.54 0.23
-1 -13 8 2.53 0.46
-1 -13 8 2.3 0.35
-1 -13 8 2.58 0.32
0 -13 8 2.18 0.34
0 -13 8 1.75 0.3
0 -13 8 1.81 0.3
1 -13 8 27.56 1.49
1 -13 8 28.19 1.41
2 -13 8 0.27 0.28
2 -13 8 0.35 0.26
3 -13 8 9.9 0.7
3 -13 8 10.32 0.68
4 -13 8 2.72 0.48
4 -13 8 3.37 0.49
5 -13 8 14.76 0.94
5 -13 8 15 0.89
6 -13 8 17.92 1.08
6 -13 8 16.63 1
7 -13 8 14.72 0.93
7 -13 8 15.26 1.04
8 -13 8 2.06 0.49
8 -13 8 2.74 0.43
9 -13 8 12.17 1.03
9 -13 8 10.31 0.81
10 -13 8 0.81 0.39
10 -13 8 1.35 0.62
7 12 -8 6.43 0.78
-7 -12 8 6.76 0.96
6 12 -8 2.35 0.43
-6 -12 8 1.62 0.52
5 12 -8 1.15 0.36
-5 -12 8 1.54 0.45
4 12 -8 0.5 0.3
-4 -12 8 0.22 0.35
-3 -12 8 2.46 0.4
-2 -12 8 7.77 0.69
-2 -12 8 7.32 0.66
-1 -12 8 21.51 1.27
-1 -12 8 20.95 1.2
0 -12 8 10.82 0.74
0 -12 8 10.63 0.74
1 -12 8 12.3 0.77
1 -12 8 11.46 0.72
2 -12 8 1.83 0.3
2 -12 8 1.4 0.28
3 -12 8 1.31 0.28
3 -12 8 1.34 0.29
4 -12 8 0.31 0.26
4 -12 8 0.85 0.29
5 -12 8 53.38 2.54
5 -12 8 54.06 2.7
6 -12 8 6.62 0.66
6 -12 8 7.18 0.59
7 -12 8 -0.13 0.39
7 -12 8 -0.11 0.31
8 -12 8 10.77 0.88
8 -12 8 9.25 0.75
9 -12 8 2.71 0.43
9 -12 8 2.65 0.57
10 -12 8 0.14 0.57
10 -12 8 -0.04 0.27
8 11 -8 8.24 0.86
-8 -11 8 8.44 1.06
7 11 -8 0.58 0.38
-7 -11 8 -0.47 0.47
6 11 -8 6.2 0.7
-6 -11 8 6.95 0.86
5 11 -8 0.07 0.3
-5 -11 8 -0.41 0.33
4 11 -8 19.06 1.13
-4 -11 8 18.64 1.25
3 11 -8 3.93 0.51
-3 -11 8 4.52 0.56
-2 -11 8 25.74 1.51
-1 -11 8 0.78 0.23
-1 -11 8 0.87 0.27
0 -11 8 0.77 0.22
0 -11 8 0.62 0.26
1 -11 8 0.39 0.25
2 -11 8 10.01 0.66
3 -11 8 7.12 0.55
3 -11 8 6.88 0.54
4 -11 8 22.93 1.25
4 -11 8 23.48 1.19
5 -11 8 4.4 0.49
5 -11 8 4.96 0.53
6 -11 8 15.33 0.86
6 -11 8 14 0.93
7 -11 8 2.17 0.36
7 -11 8 2.2 0.43
8 -11 8 0.28 0.42
8 -11 8 0.07 0.32
9 -11 8 1.2 0.31
9 -11 8 1.78 0.52
10 -11 8 2.97 0.44
10 -11 8 5.34 0.93
11 -11 8 1.52 0.6
8 10 -8 0.88 0.45
-8 -10 8 0.59 0.52
7 10 -8 0.87 0.42
-7 -10 8 0.19 0.45
6 10 -8 4.39 0.62
-6 -10 8 4.3 0.73
5 10 -8 0.61 0.31
-5 -10 8 0.05 0.34
4 10 -8 4.98 0.54
-4 -10 8 5.56 0.63
3 10 -8 39.35 2.03
-3 -10 8 38.73 2.2
-2 -10 8 5.11 0.52
-1 -10 8 2.38 0.32
-1 -10 8 1.92 0.37
0 -10 8 -0.24 0.18
0 -10 8 0.16 0.22
1 -10 8 0.91 0.26
2 -10 8 0.94 0.24
3 -10 8 19.65 1.06
3 -10 8 18.83 0.99
4 -10 8 1.45 0.27
4 -10 8 1.81 0.28
5 -10 8 0.98 0.27
5 -10 8 1.09 0.3
6 -10 8 16.51 0.91
6 -10 8 16.23 1
7 -10 8 8.89 0.75
7 -10 8 9.03 0.64
8 -10 8 0.88 0.32
8 -10 8 0.91 0.42
9 -10 8 0.22 0.24
9 -10 8 0.44 0.48
10 -10 8 2.55 0.6
11 -10 8 1.08 0.6
9 9 -8 0.16 0.51
-9 -9 8 -0.63 0.53
8 9 -8 0.86 0.46
-8 -9 8 0.65 0.52
7 9 -8 2.83 0.48
-7 -9 8 2.46 0.53
6 9 -8 3.93 0.6
-6 -9 8 3.33 0.52
5 9 -8 5.83 0.59
-5 -9 8 5.68 0.69
4 9 -8 0.84 0.28
-4 -9 8 0.68 0.29
3 9 -8 1.65 0.3
-3 -9 8 1.84 0.32
2 9 -8 9.79 0.65
-2 -9 8 9.24 0.69
-1 -9 8 6.56 0.55
-1 -9 8 6.74 0.53
0 -9 8 39.88 2.16
0 -9 8 39.85 2.01
1 -9 8 -0.04 0.22
1 -9 8 0.14 0.14
1 -9 8 0 0.15
2 -9 8 10.41 0.65
3 -9 8 3.06 0.39
4 -9 8 5.76 0.47
4 -9 8 6.63 0.51
5 -9 8 3.04 0.4
5 -9 8 2.73 0.44
6 -9 8 68.51 3.49
6 -9 8 72.39 3.26
7 -9 8 1.28 0.29
7 -9 8 1.24 0.38
8 -9 8 12.28 0.86
8 -9 8 10.21 0.66
9 -9 8 0.36 0.47
9 -9 8 0.08 0.21
10 -9 8 5.98 0.86
11 -9 8 1.05 0.6
9 8 -8 -0.21 0.48
-9 -8 8 -0.09 0.52
8 8 -8 3.01 0.52
-8 -8 8 2.94 0.56
7 8 -8 6 0.69
-7 -8 8 4.36 0.73
6 8 -8 0 0.3
-6 -8 8 0.4 0.34
5 8 -8 4.34 0.53
-5 -8 8 4.36 0.59
4 8 -8 6.47 0.56
-4 -8 8 6.81 0.63
3 8 -8 2.15 0.37
-3 -8 8 2.17 0.41
2 8 -8 18.49 1.02
-2 -8 8 18.09 1.09
-1 -8 8 40.57 2.21
0 -8 8 5.68 0.44
0 -8 8 5.93 0.45
1 -8 8 0.34 0.16
1 -8 8 0.56 0.22
2 -8 8 34.36 1.74
3 -8 8 0.87 0.22
4 -8 8 34.56 1.76
5 -8 8 49.74 2.31
5 -8 8 49.14 2.48
6 -8 8 9.34 0.7
6 -8 8 10.06 0.62
7 -8 8 5.3 0.6
7 -8 8 5.61 0.48
8 -8 8 4.42 0.39
8 -8 8 5.58 0.65
9 -8 8 3.32 0.55
10 -8 8 1.75 0.54
11 -8 8 4.97 0.7
10 7 -8 6.68 0.94
-10 -7 8 3.31 0.77
9 7 -8 12.37 1.03
-9 -7 8 9.07 1.11
8 7 -8 6.02 0.75
-8 -7 8 3.34 0.6
7 7 -8 0.23 0.36
-7 -7 8 -0.25 0.35
6 7 -8 -0.04 0.3
-6 -7 8 -0.21 0.31
5 7 -8 44.55 2.33
-5 -7 8 47.25 2.57
4 7 -8 12.63 0.79
-4 -7 8 13.07 0.88
3 7 -8 48.62 2.49
-3 -7 8 51.12 2.72
2 7 -8 56.33 2.8
-2 -7 8 56.24 3.02
-1 -7 8 42.68 2.31
0 -7 8 0.42 0.18
0 -7 8 0.23 0.16
-1 7 -8 28.61 1.5
1 -7 8 27 1.41
1 -7 8 26.61 1.5
2 -7 8 1.66 0.23
3 -7 8 81.03 3.95
4 -7 8 12.92 0.75
5 -7 8 9.18 0.57
5 -7 8 9.37 0.63
6 -7 8 32.48 1.55
6 -7 8 31.81 1.69
7 -7 8 20.1 1.08
7 -7 8 16.67 0.92
8 -7 8 8.65 0.69
8 -7 8 5.18 0.41
9 -7 8 15.83 1.11
10 -7 8 2.24 0.54
11 -7 8 0.81 0.56
10 6 -8 5.19 0.89
-10 -6 8 4.22 0.77
9 6 -8 11.41 1.01
-9 -6 8 11.45 1.11
8 6 -8 12.18 0.96
-8 -6 8 11.44 1.03
7 6 -8 5.89 0.69
-7 -6 8 6.04 0.72
6 6 -8 2.86 0.4
-6 -6 8 2.84 0.55
5 6 -8 28.42 1.53
-5 -6 8 29.24 1.69
4 6 -8 15.58 0.89
-4 -6 8 14.88 0.98
3 6 -8 2.37 0.33
-3 -6 8 2.54 0.37
2 6 -8 5.7 0.43
-2 -6 8 5.84 0.48
-1 -6 8 38.15 2.06
0 -6 8 38.81 2.01
0 -6 8 41.76 2.17
-1 6 -8 69.24 3.65
1 -6 8 71.33 3.65
1 -6 8 67.04 3.39
-2 6 -8 8.39 0.51
2 -6 8 7.99 0.56
2 -6 8 8.13 0.52
3 -6 8 2.47 0.33
4 -6 8 38.84 1.95
5 -6 8 28.46 1.46
5 -6 8 27.33 1.34
6 -6 8 6.56 0.46
6 -6 8 6.65 0.57
7 -6 8 0.83 0.31
7 -6 8 0.78 0.32
7 -6 8 0.47 0.16
8 -6 8 1.09 0.35
8 -6 8 1.11 0.41
9 -6 8 8.9 0.84
9 -6 8 8.86 0.83
10 -6 8 2.14 0.56
11 -6 8 0.67 0.57
10 5 -8 4.74 0.85
-10 -5 8 2.3 0.65
9 5 -8 1.39 0.5
-9 -5 8 1.46 0.51
8 5 -8 14.96 1.01
-8 -5 8 12.74 1.09
7 5 -8 12.86 0.91
-7 -5 8 13.9 1.01
6 5 -8 1.56 0.35
-6 -5 8 0.84 0.32
5 5 -8 12.1 0.75
-5 -5 8 11.46 0.84
4 5 -8 24.87 1.35
-4 -5 8 26.93 1.49
3 5 -8 0.26 0.17
-3 -5 8 0.36 0.19
2 5 -8 18.48 1
-2 -5 8 19.76 1.11
1 5 -8 -0.02 0.14
-1 -5 8 -0.07 0.15
0 5 -8 5.32 0.38
0 -5 8 5.54 0.39
0 -5 8 5.53 0.41
1 -5 8 13.06 0.75
1 -5 8 13.91 0.8
-2 5 -8 -0.02 0.12
2 -5 8 0.15 0.17
2 -5 8 0.04 0.15
-3 5 -8 0.66 0.16
3 -5 8 0.95 0.19
3 -5 8 0.97 0.2
4 -5 8 22.49 1.27
4 -5 8 22.76 1.19
5 -5 8 3.55 0.41
5 -5 8 2.85 0.4
6 -5 8 0.08 0.26
6 -5 8 -0.1 0.27
6 -5 8 -0.03 0.14
7 -5 8 6.66 0.64
7 -5 8 5.72 0.6
8 -5 8 2.14 0.42
8 -5 8 1.89 0.44
9 -5 8 0.21 0.41
9 -5 8 0.12 0.42
10 -5 8 2.1 0.54
10 -5 8 2.1 0.56
11 -5 8 0.01 0.55
-11 -4 8 1.53 0.65
10 4 -8 0.31 0.54
-10 -4 8 0.43 0.52
9 4 -8 0.19 0.48
-9 -4 8 -0.1 0.44
8 4 -8 -0.18 0.4
-8 -4 8 0.12 0.37
7 4 -8 2.26 0.4
-7 -4 8 1.43 0.38
6 4 -8 0.78 0.3
-6 -4 8 0.25 0.29
5 4 -8 0.7 0.26
-5 -4 8 0.5 0.24
4 4 -8 6.18 0.45
-4 -4 8 5.83 0.51
3 4 -8 17.11 0.91
-3 -4 8 16.79 1.01
2 4 -8 19.19 1.01
-2 -4 8 19.61 1.11
1 4 -8 5.17 0.38
-1 -4 8 5.34 0.41
0 4 -8 3.97 0.32
0 -4 8 4.44 0.35
0 -4 8 4.26 0.33
-1 4 -8 0.37 0.13
1 -4 8 0.27 0.16
1 -4 8 0.45 0.19
2 -4 8 0.77 0.2
2 -4 8 0.27 0.16
3 -4 8 11.02 0.67
3 -4 8 10.1 0.61
4 -4 8 0.87 0.22
4 -4 8 1.01 0.22
5 -4 8 16.38 1.01
5 -4 8 16.94 0.94
6 -4 8 39.92 2.19
6 -4 8 38.93 2.01
7 -4 8 1.58 0.37
7 -4 8 1.96 0.39
8 -4 8 0.87 0.41
8 -4 8 1.44 0.42
9 -4 8 -0.02 0.45
9 -4 8 0.09 0.42
10 -4 8 3.29 0.63
10 -4 8 5.06 0.86
11 -4 8 -0.29 0.56
11 3 -8 -0.22 0.58
-11 -3 8 0.27 0.58
10 3 -8 0.16 0.54
-10 -3 8 -0.03 0.5
9 3 -8 -0.47 0.45
-9 -3 8 0.35 0.44
8 3 -8 13.84 0.96
-8 -3 8 13.43 1.04
7 3 -8 3.34 0.55
-7 -3 8 3.53 0.58
6 3 -8 8.91 0.67
-6 -3 8 9.58 0.73
5 3 -8 1.15 0.25
-5 -3 8 0.75 0.26
4 3 -8 0.35 0.17
-4 -3 8 0.38 0.21
3 3 -8 0.31 0.14
-3 -3 8 0.25 0.17
2 3 -8 131.16 6.5
-2 -3 8 138.49 7.06
1 3 -8 26.56 1.35
-1 -3 8 26.66 1.47
0 3 -8 0.18 0.11
0 -3 8 0.08 0.1
0 -3 8 0.17 0.13
0 -3 8 0.12 0.14
-1 3 -8 3.37 0.27
-1 3 -8 2.94 0.3
1 -3 8 3.24 0.36
1 -3 8 2.82 0.3
-2 3 -8 5.42 0.41
2 -3 8 5.01 0.44
2 -3 8 5.61 0.39
3 -3 8 0.42 0.16
4 -3 8 84.32 4.09
4 -3 8 83.49 4.45
5 -3 8 44.49 2.41
5 -3 8 43.76 2.21
6 -3 8 4.01 0.48
6 -3 8 3.93 0.56
7 -3 8 4.43 0.58
7 -3 8 5.01 0.65
8 -3 8 1.76 0.43
8 -3 8 1.62 0.44
9 -3 8 0.25 0.46
9 -3 8 0.14 0.46
10 -3 8 11.52 1.14
10 -3 8 10.41 0.99
11 -3 8 12.51 1.16
11 -3 8 14.14 1.32
11 2 -8 0.1 0.6
-11 -2 8 -0.01 0.56
10 2 -8 27.28 1.63
-10 -2 8 26.1 1.77
9 2 -8 10.78 0.91
-9 -2 8 10.73 0.99
8 2 -8 0.57 0.39
-8 -2 8 0.42 0.37
7 2 -8 1.1 0.34
-7 -2 8 0.57 0.32
6 2 -8 0.21 0.26
-6 -2 8 -0.05 0.26
5 2 -8 18.45 0.96
5 2 -8 19.28 1.04
-5 -2 8 18.85 1.15
4 2 -8 44.09 2.11
4 2 -8 45.18 2.25
-4 -2 8 46.96 2.47
3 2 -8 36.46 1.88
-3 -2 8 39.38 2.06
2 2 -8 0.09 0.12
-2 -2 8 0.06 0.14
1 2 -8 7.43 0.45
-1 -2 8 7.32 0.45
-1 -2 8 7.52 0.49
0 2 -8 0.15 0.12
0 -2 8 0.25 0.1
0 -2 8 0.14 0.13
0 -2 8 0.24 0.17
0 -2 8 0.11 0.11
-1 2 -8 12.92 0.68
-1 2 -8 12.15 0.76
1 -2 8 13.03 0.78
1 -2 8 12.69 0.68
2 -2 8 65.7 3.57
2 -2 8 68.81 3.27
3 -2 8 86.45 4.54
3 -2 8 85.28 4.17
4 -2 8 0.05 0.23
4 -2 8 0.05 0.2
5 -2 8 0 0.21
5 -2 8 -0.06 0.25
6 -2 8 3.18 0.46
6 -2 8 2.22 0.4
7 -2 8 14.59 0.95
7 -2 8 14.96 1.08
8 -2 8 0.33 0.43
8 -2 8 0.06 0.41
9 -2 8 3.6 0.58
9 -2 8 4.67 0.82
10 -2 8 0.32 0.53
10 -2 8 0.68 0.59
11 -2 8 -0.5 0.62
11 -2 8 -0.06 0.62
11 1 -8 14.1 1.21
-11 -1 8 13.4 1.28
10 1 -8 0.44 0.53
-10 -1 8 0.44 0.5
9 1 -8 -0.19 0.44
-9 -1 8 0.09 0.42
8 1 -8 1.42 0.42
8 1 -8 2.19 0.31
-8 -1 8 1.01 0.4
7 1 -8 0.23 0.26
7 1 -8 0.35 0.33
-7 -1 8 -0.04 0.31
6 1 -8 22.88 1.13
6 1 -8 21.5 1.21
-6 -1 8 22.86 1.35
5 1 -8 76.37 3.43
5 1 -8 74.01 3.67
-5 -1 8 74.42 4
4 1 -8 16.36 0.87
4 1 -8 15.82 0.81
-4 -1 8 15.88 0.97
3 1 -8 5.68 0.38
3 1 -8 6.11 0.39
-3 -1 8 5.76 0.46
2 1 -8 17.21 0.91
2 1 -8 17.95 0.87
-2 -1 8 18.23 1.02
1 1 -8 0.28 0.12
1 1 -8 0.21 0.13
-1 -1 8 0.29 0.15
-1 -1 8 0.32 0.13
0 -1 8 0.44 0.11
0 -1 8 0.31 0.19
0 -1 8 0.21 0.14
-1 1 -8 27.2 1.34
1 -1 8 26.54 1.49
1 -1 8 26.86 1.25
1 -1 8 26.6 1.34
-2 1 -8 1.72 0.21
2 -1 8 2.02 0.25
2 -1 8 2.18 0.2
2 -1 8 1.88 0.32
3 -1 8 3.35 0.32
3 -1 8 2.83 0.4
3 -1 8 3.14 0.23
4 -1 8 3.15 0.46
4 -1 8 3.27 0.36
5 -1 8 13.22 0.95
5 -1 8 14.56 0.83
6 -1 8 3.11 0.51
6 -1 8 4.33 0.62
7 -1 8 1.34 0.38
7 -1 8 1.43 0.45
8 -1 8 0.22 0.46
8 -1 8 0.78 0.44
9 -1 8 6.27 0.81
9 -1 8 7.27 0.97
10 -1 8 0.23 0.61
10 -1 8 0.11 0.56
11 -1 8 0.09 0.66
11 -1 8 0.78 0.65
11 0 -8 -0.03 0.62
-11 0 8 0.43 0.57
10 0 -8 0.24 0.52
-10 0 8 0.22 0.48
9 0 -8 3.12 0.52
9 0 -8 2.51 0.35
-9 0 8 2.48 0.52
8 0 -8 9.06 0.72
8 0 -8 6.96 0.52
-8 0 8 9.05 0.81
7 0 -8 23.7 1.32
7 0 -8 24.23 1.21
-7 0 8 23.7 1.46
6 0 -8 22.44 1.24
6 0 -8 24.08 1.16
-6 0 8 22.87 1.37
5 0 -8 2.14 0.32
5 0 -8 1.83 0.33
-5 0 8 2.12 0.4
4 0 -8 0.56 0.18
4 0 -8 0.65 0.18
-4 0 8 0.45 0.2
3 0 -8 -0.09 0.12
3 0 -8 -0.02 0.13
-3 0 8 0 0.16
2 0 -8 43.38 2.02
2 0 -8 42.63 2.14
-2 0 8 45.48 2.35
1 0 -8 5.66 0.36
-1 0 8 6.39 0.49
-1 0 8 6.33 0.38
0 0 -8 18.54 0.94
0 0 8 19.74 1.13
0 0 8 19.63 1
0 0 8 20.73 0.95
-1 0 -8 10.46 0.54
1 0 8 9.48 0.67
1 0 8 10.06 0.55
-2 0 -8 10.71 0.6
2 0 8 11.14 0.74
2 0 8 11.7 0.62
2 0 8 11.97 0.58
3 0 8 10.6 0.62
3 0 8 10.51 0.73
4 0 8 5.78 0.44
4 0 8 5.21 0.55
5 0 8 1.04 0.34
5 0 8 1.47 0.3
6 0 8 14.84 0.92
6 0 8 14.63 1.08
7 0 8 8.86 0.74
7 0 8 8.56 0.89
8 0 8 9.03 0.95
8 0 8 8.87 0.82
9 0 8 7.02 0.99
9 0 8 5.91 0.83
10 0 8 0.56 0.64
10 0 8 0.08 0.56
11 -1 -8 0.6 0.62
-11 1 8 -0.15 0.53
10 -1 -8 1.67 0.56
-10 1 8 0.44 0.49
9 -1 -8 2.35 0.49
9 -1 -8 1.5 0.25
-9 1 8 2.55 0.48
8 -1 -8 27.03 1.37
8 -1 -8 26.62 1.49
-8 1 8 27.33 1.64
7 -1 -8 16.67 0.9
7 -1 -8 15.88 0.98
-7 1 8 16.57 1.08
6 -1 -8 0.2 0.24
6 -1 -8 -0.07 0.21
-6 1 8 -0.21 0.26
5 -1 -8 4.67 0.39
5 -1 -8 4.38 0.41
-5 1 8 4.72 0.48
4 -1 -8 7.71 0.48
4 -1 -8 7.55 0.47
-4 1 8 7.56 0.58
3 -1 -8 22.83 1.12
-3 1 8 23.89 1.31
2 -1 -8 21.96 1.16
2 -1 -8 23.25 1.11
-2 1 8 24.64 1.32
-2 1 8 23.52 1.17
1 -1 -8 68.02 3.21
-1 1 8 74.11 3.76
-1 1 8 69.69 3.42
0 -1 -8 18.62 0.91
0 1 8 19.01 1.11
0 1 8 19.25 0.91
-1 -1 -8 1.15 0.19
1 1 8 0.85 0.22
-2 -1 -8 2.44 0.23
2 1 8 3.03 0.27
2 1 8 3.1 0.24
2 1 8 2.85 0.41
3 1 8 0.51 0.17
3 1 8 0.48 0.26
4 1 8 0.57 0.24
4 1 8 0.06 0.27
5 1 8 49.88 2.41
5 1 8 45.54 2.67
6 1 8 60.79 3.46
6 1 8 63.92 3.13
7 1 8 0.32 0.44
7 1 8 0.43 0.39
8 1 8 0.65 0.49
8 1 8 0.41 0.51
9 1 8 0.92 0.61
9 1 8 0.76 0.54
10 1 8 1.68 0.69
10 1 8 0.25 0.62
-12 2 8 0.02 0.44
-11 2 8 -0.25 0.44
10 -2 -8 0.22 0.51
10 -2 -8 0.63 0.23
-10 2 8 0.19 0.46
9 -2 -8 3.15 0.4
9 -2 -8 4.08 0.71
-9 2 8 4.08 0.7
8 -2 -8 20.33 1.08
8 -2 -8 20.45 1.19
-8 2 8 19.71 1.31
7 -2 -8 -0.42 0.29
7 -2 -8 -0.3 0.25
-7 2 8 -0.06 0.3
6 -2 -8 0.15 0.22
6 -2 -8 0.48 0.25
-6 2 8 0.16 0.27
5 -2 -8 0 0.19
5 -2 -8 -0.12 0.19
-5 2 8 0.12 0.24
4 -2 -8 1.93 0.29
4 -2 -8 2.04 0.27
-4 2 8 2.13 0.35
3 -2 -8 45.16 2.06
3 -2 -8 41.75 2.18
-3 2 8 46.21 2.18
-3 2 8 44.66 2.4
2 -2 -8 119.44 5.44
-2 2 8 121.25 6.34
1 -2 -8 2.96 0.26
-1 2 8 3.41 0.38
0 -2 -8 11 0.56
0 2 8 10.46 0.72
-1 -2 -8 3.86 0.28
1 2 8 4.13 0.28
1 2 8 4.36 0.44
-2 -2 -8 9.37 0.51
2 2 8 9.58 0.71
2 2 8 10.07 0.51
3 2 8 22.47 1.14
3 2 8 21.01 1.31
4 2 8 52.71 2.5
4 2 8 47.36 2.77
5 2 8 5.8 0.54
5 2 8 5.54 0.7
6 2 8 4.15 0.55
6 2 8 3.25 0.55
7 2 8 0.77 0.5
7 2 8 0.69 0.43
8 2 8 6.8 0.98
8 2 8 7.63 0.83
9 2 8 1.61 0.66
9 2 8 1.1 0.58
10 2 8 10.13 1.13
10 2 8 10.81 1.32
11 -3 -8 0.12 0.6
10 -3 -8 12.12 0.73
-10 3 8 12.4 0.99
9 -3 -8 1.9 0.37
9 -3 -8 2.32 0.48
-9 3 8 2.44 0.48
8 -3 -8 1.95 0.34
8 -3 -8 1.82 0.4
-8 3 8 2 0.43
7 -3 -8 2.47 0.33
7 -3 -8 3.05 0.47
-7 3 8 2.79 0.56
6 -3 -8 -0.21 0.2
6 -3 -8 -0.02 0.24
-6 3 8 0 0.27
5 -3 -8 2.83 0.34
5 -3 -8 2.67 0.32
-5 3 8 2.03 0.41
4 -3 -8 31.93 1.62
4 -3 -8 33.4 1.54
-4 3 8 32.52 1.8
3 -3 -8 18.87 0.92
-3 3 8 18.75 1.13
2 -3 -8 -0.06 0.14
-2 3 8 0.2 0.19
1 -3 -8 38.4 1.79
-1 3 8 38.65 2.12
0 -3 -8 2.72 0.26
0 3 8 3.09 0.41
-1 -3 -8 1.28 0.16
1 3 8 0.91 0.27
2 3 8 72.46 3.81
2 3 8 69.41 3.21
3 3 8 26.44 1.56
4 3 8 5.92 0.69
4 3 8 6.45 0.47
5 3 8 0.26 0.39
5 3 8 0.18 0.24
6 3 8 1.3 0.48
6 3 8 0.68 0.31
7 3 8 7.43 0.93
7 3 8 6.05 0.63
8 3 8 2.29 0.44
8 3 8 3.09 0.68
9 3 8 1.93 0.68
9 3 8 0.43 0.46
12 -4 -8 11.4 1.2
10 -4 -8 -0.24 0.48
10 -4 -8 -0.19 0.23
-10 4 8 0.24 0.33
9 -4 -8 0 0.29
9 -4 -8 0.11 0.42
-9 4 8 0.2 0.3
8 -4 -8 9.85 0.74
8 -4 -8 8.3 0.64
-8 4 8 8.88 0.77
7 -4 -8 0.26 0.3
7 -4 -8 0.36 0.25
-7 4 8 0.11 0.32
6 -4 -8 0.48 0.25
6 -4 -8 0.27 0.22
-6 4 8 0.44 0.28
5 -4 -8 53.49 2.66
5 -4 -8 52.77 2.5
-5 4 8 56.02 2.93
4 -4 -8 -0.03 0.15
4 -4 -8 -0.21 0.15
-4 4 8 0.05 0.24
3 -4 -8 2.75 0.28
-3 4 8 2.93 0.44
2 -4 -8 15.91 0.81
-2 4 8 16.86 1.01
1 -4 -8 4.45 0.32
-1 4 8 4.84 0.5
0 -4 -8 0.47 0.14
0 4 8 0.58 0.26
-1 -4 -8 3.76 0.3
1 4 8 3.73 0.49
2 4 8 10.19 0.79
3 4 8 2.38 0.4
4 4 8 1.04 0.39
5 4 8 4.69 0.44
5 4 8 6.93 0.79
6 4 8 6.24 0.55
6 4 8 8.59 0.93
7 4 8 5.4 0.58
7 4 8 7.6 0.96
8 4 8 3.32 0.71
8 4 8 1.91 0.41
9 4 8 1.15 0.7
10 -5 -8 4.28 0.55
9 -5 -8 3.4 0.5
9 -5 -8 2.52 0.38
-9 5 8 3.29 0.53
8 -5 -8 1.58 0.38
8 -5 -8 0.31 0.29
-8 5 8 0.77 0.29
7 -5 -8 14.37 0.82
7 -5 -8 16.29 0.91
-7 5 8 13.54 0.96
6 -5 -8 2.77 0.36
6 -5 -8 2.58 0.41
-6 5 8 3.27 0.49
5 -5 -8 32.27 1.59
5 -5 -8 33.94 1.68
-5 5 8 34.38 1.9
4 -5 -8 8.13 0.49
-4 5 8 7.99 0.67
3 -5 -8 10.72 0.6
-3 5 8 11.61 0.78
2 -5 -8 8.37 0.49
-2 5 8 8.72 0.67
1 -5 -8 0.05 0.14
-1 5 8 0.11 0.25
0 -5 -8 3.36 0.29
0 5 8 3.65 0.5
-1 -5 -8 0.74 0.16
1 5 8 0.38 0.3
2 5 8 9.33 0.78
3 5 8 0.15 0.34
4 5 8 1.05 0.43
5 5 8 1.14 0.5
6 5 8 13.97 1.21
7 5 8 21.44 1.59
8 5 8 0.42 0.63
9 5 8 1.58 0.76
11 -6 -8 0.86 0.28
10 -6 -8 -0.28 0.33
10 -6 -8 0.85 0.5
9 -6 -8 0.78 0.34
9 -6 -8 1.65 0.46
8 -6 -8 1.75 0.39
8 -6 -8 1.83 0.33
-8 6 8 1.23 0.3
7 -6 -8 18.16 0.97
7 -6 -8 16.62 0.89
-7 6 8 13.92 1.01
6 -6 -8 4.27 0.44
6 -6 -8 3.94 0.41
-6 6 8 3.18 0.48
5 -6 -8 0.45 0.21
-5 6 8 0.21 0.33
4 -6 -8 0.06 0.18
-4 6 8 -0.07 0.29
3 -6 -8 1.76 0.28
-3 6 8 1.65 0.34
2 -6 -8 45.74 2.1
-2 6 8 44.95 2.5
1 -6 -8 27.57 1.34
-1 6 8 29.11 1.64
0 -6 -8 4.77 0.35
0 6 8 5.69 0.6
-1 -6 -8 2.75 0.27
1 6 8 2.3 0.4
-2 -6 -8 0.09 0.16
2 6 8 -0.17 0.32
3 6 8 15.38 1.13
4 6 8 0.46 0.44
5 6 8 32.1 2.02
6 6 8 -0.16 0.54
7 6 8 1.38 0.63
8 6 8 2.28 0.72
11 -7 -8 0.12 0.38
10 -7 -8 1.06 0.51
10 -7 -8 0.54 0.37
9 -7 -8 1.81 0.44
9 -7 -8 1.51 0.35
8 -7 -8 6.07 0.63
8 -7 -8 4.47 0.52
7 -7 -8 7.31 0.56
7 -7 -8 8.28 0.61
-7 7 8 6.2 0.63
6 -7 -8 0.79 0.25
6 -7 -8 1.16 0.26
-6 7 8 0.6 0.28
5 -7 -8 0.4 0.22
-5 7 8 0.15 0.26
4 -7 -8 18.27 0.98
-4 7 8 20.63 1.23
3 -7 -8 15.84 0.84
-3 7 8 16.69 1.08
2 -7 -8 10.52 0.61
-2 7 8 11.4 0.83
1 -7 -8 10.74 0.61
-1 7 8 11.84 0.86
0 -7 -8 0.88 0.19
0 7 8 1.28 0.38
-1 -7 -8 0.26 0.16
1 7 8 0.37 0.36
-2 -7 -8 14.32 0.72
2 7 8 13.39 1.06
3 7 8 29.57 1.85
4 7 8 16.35 1.28
5 7 8 0.05 0.52
6 7 8 6.4 1
7 7 8 0.11 0.63
8 7 8 0.71 0.71
11 -8 -8 1.36 0.39
10 -8 -8 7.22 0.68
9 -8 -8 -0.17 0.32
8 -8 -8 8.02 0.65
8 -8 -8 9.41 0.73
7 -8 -8 0.08 0.27
7 -8 -8 0.18 0.3
6 -8 -8 0.69 0.26
-6 8 8 0.28 0.27
5 -8 -8 21.7 1.02
-5 8 8 17.32 1.19
4 -8 -8 55.29 2.4
-4 8 8 47.07 2.81
3 -8 -8 6.12 0.45
-3 8 8 6.2 0.67
2 -8 -8 23.09 1.18
-2 8 8 25.46 1.48
1 -8 -8 0.23 0.19
-1 8 8 0.11 0.35
0 -8 -8 2.86 0.31
0 8 8 2.45 0.46
-1 -8 -8 1.83 0.28
1 8 8 1.45 0.44
-2 -8 -8 38.73 1.76
2 8 8 35.95 2.23
3 8 8 5.97 0.86
4 8 8 7.89 0.99
5 8 8 0.81 0.57
6 8 8 0.62 0.59
7 8 8 1.43 0.71
11 -9 -8 -0.9 0.38
10 -9 -8 -0.08 0.36
9 -9 -8 -0.03 0.34
9 -9 -8 0.42 0.42
8 -9 -8 0.3 0.33
8 -9 -8 0.24 0.36
7 -9 -8 -0.12 0.3
7 -9 -8 0.22 0.29
6 -9 -8 8.95 0.62
5 -9 -8 4.96 0.46
4 -9 -8 16.35 0.81
-4 9 8 12.42 0.94
3 -9 -8 0.44 0.22
-3 9 8 0.47 0.31
2 -9 -8 3.43 0.37
-2 9 8 3.21 0.62
1 -9 -8 0.59 0.21
-1 9 8 0.79 0.4
0 -9 -8 10.98 0.63
0 9 8 11.16 0.95
-1 -9 -8 11.49 0.65
1 9 8 12.61 1.04
-2 -9 -8 13.35 0.7
2 9 8 13.09 1.15
3 9 8 0.35 0.53
4 9 8 2.55 0.64
5 9 8 11.24 1.2
6 9 8 0.42 0.63
10 -10 -8 -0.45 0.36
9 -10 -8 0.35 0.37
8 -10 -8 2.45 0.39
7 -10 -8 1.1 0.33
6 -10 -8 0.06 0.28
5 -10 -8 1.2 0.29
4 -10 -8 1.3 0.28
-4 10 8 0.57 0.27
3 -10 -8 4.28 0.44
-3 10 8 4.19 0.53
2 -10 -8 3.71 0.4
-2 10 8 4.28 0.61
1 -10 -8 3.24 0.37
-1 10 8 3.41 0.68
0 -10 -8 0.2 0.21
0 10 8 0.16 0.42
-1 -10 -8 2.24 0.34
1 10 8 2.38 0.56
-2 -10 -8 0.26 0.21
2 10 8 0.06 0.52
3 10 8 1.2 0.59
4 10 8 3.12 0.69
5 10 8 0.75 0.63
6 10 8 0.96 0.7
10 -11 -8 2.91 0.5
9 -11 -8 -0.62 0.39
8 -11 -8 0.19 0.34
7 -11 -8 -0.05 0.34
6 -11 -8 0.73 0.31
5 -11 -8 1.49 0.32
4 -11 -8 9.69 0.65
3 -11 -8 4.74 0.46
-3 11 8 3.75 0.52
2 -11 -8 0.08 0.24
-2 11 8 0.34 0.3
1 -11 -8 2.77 0.37
-1 11 8 2.49 0.49
0 -11 -8 0.4 0.24
0 11 8 0.6 0.48
-1 -11 -8 3.9 0.41
1 11 8 4.15 0.67
2 11 8 9.24 1.1
3 11 8 22.36 1.67
4 11 8 0.01 0.59
5 11 8 6.45 1.16
9 -12 -8 1.68 0.43
8 -12 -8 -0.41 0.34
7 -12 -8 5.17 0.64
6 -12 -8 7.75 0.65
5 -12 -8 17.1 0.98
4 -12 -8 8.3 0.63
3 -12 -8 9.02 0.63
2 -12 -8 0.59 0.26
-2 12 8 0.45 0.3
1 -12 -8 20.43 1
-1 12 8 16.71 1.28
0 -12 -8 1.1 0.28
0 12 8 1.02 0.56
-1 -12 -8 6.24 0.5
1 12 8 6.93 1.02
2 12 8 -0.21 0.57
3 12 8 3.01 0.71
4 12 8 1.41 0.69
9 -13 -8 4.18 0.7
8 -13 -8 6.21 0.67
7 -13 -8 4.31 0.59
6 -13 -8 0.27 0.36
5 -13 -8 4.11 0.55
4 -13 -8 2.19 0.37
3 -13 -8 3.05 0.47
2 -13 -8 2.87 0.45
1 -13 -8 4.9 0.49
-1 13 8 4.99 0.69
0 -13 -8 0.42 0.29
0 13 8 1.2 0.51
1 13 8 1.47 0.64
2 13 8 0.29 0.61
3 13 8 3.55 0.76
7 -14 -8 0.4 0.4
6 -14 -8 1.51 0.41
5 -14 -8 0.6 0.38
4 -14 -8 5.37 0.58
3 -14 -8 5.33 0.56
2 -14 -8 0.83 0.31
1 -14 -8 0.03 0.29
-1 14 8 0.37 0.43
0 -14 -8 0.12 0.29
1 14 8 0.06 0.61
2 14 8 2.93 0.72
6 -15 -8 1.48 0.42
5 -15 -8 1.79 0.41
4 -15 -8 3.9 0.56
3 -15 -8 0.17 0.33
2 -15 -8 0.14 0.31
1 -15 -8 0.61 0.32
3 -16 -8 -0.35 0.36
2 -16 -8 0.45 0.35
0 -19 9 0.4 0.4
1 -19 9 9.21 0.84
2 -19 9 1 0.44
3 -19 9 1.33 0.45
4 -19 9 0.26 0.43
5 -19 9 4.61 0.73
6 -19 9 1.07 0.52
-2 -18 9 0.48 0.35
-1 -18 9 -0.01 0.35
0 -18 9 19.82 1.17
1 -18 9 4.42 0.52
1 -18 9 4.43 0.67
2 -18 9 3.74 0.65
2 -18 9 3.58 0.65
3 -18 9 2.23 0.47
3 -18 9 2.45 0.46
4 -18 9 -0.12 0.4
4 -18 9 0 0.41
5 -18 9 0.42 0.44
5 -18 9 0.11 0.41
6 -18 9 2.86 0.56
6 -18 9 2.69 0.5
7 -18 9 -0.02 0.52
7 -18 9 -0.17 0.47
-3 -17 9 3.32 0.57
-2 -17 9 1.49 0.43
-2 -17 9 1.71 0.49
-2 -17 9 2.01 0.36
-1 -17 9 1.02 0.34
-1 -17 9 2.26 0.46
0 -17 9 4.16 0.62
0 -17 9 3.28 0.58
1 -17 9 0.54 0.37
1 -17 9 0.29 0.34
2 -17 9 2.05 0.42
2 -17 9 2.18 0.41
3 -17 9 5.43 0.68
3 -17 9 5.84 0.7
4 -17 9 -0.24 0.4
4 -17 9 0.12 0.39
5 -17 9 9.65 0.84
5 -17 9 8.95 0.79
6 -17 9 3.94 0.69
6 -17 9 5.51 0.79
7 -17 9 0.54 0.52
7 -17 9 0.25 0.44
8 -17 9 0.75 0.47
8 -17 9 0.19 0.55
-4 -16 9 0.56 0.43
-4 -16 9 -0.13 0.41
-3 -16 9 2.6 0.5
-3 -16 9 1.71 0.46
-3 -16 9 3.26 0.51
-2 -16 9 -0.13 0.37
-2 -16 9 0.87 0.41
-2 -16 9 0.48 0.3
-1 -16 9 0.51 0.3
-1 -16 9 -0.18 0.35
-1 -16 9 -0.23 0.33
0 -16 9 0.46 0.36
0 -16 9 0.14 0.3
1 -16 9 6.7 0.67
1 -16 9 7.14 0.66
2 -16 9 0.55 0.34
2 -16 9 1.09 0.36
3 -16 9 0.66 0.35
3 -16 9 0.18 0.35
4 -16 9 4.36 0.63
4 -16 9 2.87 0.45
5 -16 9 5.79 0.69
5 -16 9 5.99 0.67
6 -16 9 2.37 0.47
6 -16 9 1.18 0.42
7 -16 9 1.74 0.45
7 -16 9 2.39 0.56
8 -16 9 0.39 0.52
8 -16 9 0.17 0.42
9 -16 9 0.39 0.46
9 -16 9 1.27 0.59
-5 -15 9 -0.24 0.44
-4 -15 9 0.39 0.46
-4 -15 9 0.98 0.43
-3 -15 9 7.19 0.6
-3 -15 9 6.16 0.76
-3 -15 9 5.95 0.76
-2 -15 9 3.43 0.5
-2 -15 9 2.71 0.45
-2 -15 9 2.06 0.44
-1 -15 9 3.18 0.45
-1 -15 9 2.04 0.39
-1 -15 9 3.24 0.5
0 -15 9 1.03 0.36
0 -15 9 1.26 0.32
0 -15 9 0.59 0.29
1 -15 9 1.81 0.36
1 -15 9 2.14 0.36
2 -15 9 -0.15 0.29
2 -15 9 0.17 0.32
3 -15 9 14.74 0.94
3 -15 9 14.17 0.91
4 -15 9 0.54 0.35
4 -15 9 0.16 0.33
5 -15 9 0.6 0.37
5 -15 9 -0.06 0.34
6 -15 9 0.68 0.39
6 -15 9 0.9 0.43
7 -15 9 0.77 0.4
7 -15 9 0.44 0.47
8 -15 9 -0.2 0.5
8 -15 9 0.17 0.41
9 -15 9 7.5 0.93
9 -15 9 5.36 0.78
6 14 -9 0.11 0.37
-6 -14 9 -0.54 0.45
5 14 -9 8.87 0.8
-5 -14 9 8.23 0.96
-4 -14 9 2.59 0.44
-4 -14 9 1.53 0.46
-3 -14 9 8.67 0.83
-3 -14 9 9.35 0.65
-3 -14 9 7.54 0.81
-2 -14 9 0.48 0.35
-2 -14 9 0.56 0.26
-2 -14 9 0.84 0.36
-1 -14 9 0.34 0.28
-1 -14 9 0.85 0.28
-1 -14 9 1.04 0.34
0 -14 9 1.02 0.3
0 -14 9 1.76 0.31
0 -14 9 2.08 0.38
1 -14 9 16.07 0.98
1 -14 9 15.94 0.94
2 -14 9 26.79 1.41
2 -14 9 24.32 1.34
3 -14 9 3.34 0.53
3 -14 9 3.62 0.51
4 -14 9 1.91 0.36
4 -14 9 2.18 0.38
5 -14 9 0.15 0.32
5 -14 9 1 0.36
6 -14 9 0.93 0.37
6 -14 9 1.16 0.42
7 -14 9 0.32 0.46
7 -14 9 0.41 0.37
8 -14 9 10.36 0.97
8 -14 9 11.26 0.84
9 -14 9 0.83 0.43
9 -14 9 1.71 0.58
10 -14 9 0.57 0.44
10 -14 9 0.99 0.62
7 13 -9 8.37 0.84
-7 -13 9 7.7 1.04
6 13 -9 9.02 0.84
-6 -13 9 8.79 0.98
5 13 -9 0.35 0.35
-5 -13 9 -0.17 0.39
4 13 -9 1.39 0.36
-4 -13 9 0.88 0.37
-3 -13 9 0.49 0.35
-2 -13 9 1.2 0.35
-2 -13 9 0.63 0.34
-1 -13 9 1.78 0.34
-1 -13 9 2.65 0.47
0 -13 9 19.29 1.19
0 -13 9 20.27 1.16
1 -13 9 2.31 0.34
1 -13 9 3.3 0.51
2 -13 9 12.43 0.8
2 -13 9 12.98 0.83
3 -13 9 0.74 0.3
3 -13 9 0.63 0.29
4 -13 9 2.29 0.35
4 -13 9 2.12 0.37
5 -13 9 2.27 0.39
5 -13 9 2.18 0.37
6 -13 9 10.62 0.75
6 -13 9 10.18 0.82
7 -13 9 2.53 0.49
7 -13 9 2.15 0.41
8 -13 9 1.83 0.5
8 -13 9 1.61 0.42
9 -13 9 0.76 0.54
9 -13 9 0.17 0.39
10 -13 9 7.97 0.99
10 -13 9 4.56 0.58
7 12 -9 0.34 0.4
-7 -12 9 -0.11 0.48
6 12 -9 2.38 0.44
-6 -12 9 1.65 0.5
5 12 -9 0.09 0.33
-5 -12 9 0.24 0.37
4 12 -9 -0.16 0.29
-4 -12 9 -0.04 0.31
-3 -12 9 0.48 0.31
-2 -12 9 9.22 0.74
-2 -12 9 7.97 0.71
-1 -12 9 0.47 0.29
-1 -12 9 0.64 0.27
0 -12 9 51.46 2.79
0 -12 9 51.81 2.62
1 -12 9 0.5 0.28
2 -12 9 4.67 0.51
3 -12 9 16.68 0.98
3 -12 9 16.39 0.93
4 -12 9 0.21 0.3
4 -12 9 0.56 0.27
5 -12 9 1.59 0.36
5 -12 9 1.05 0.32
6 -12 9 4.93 0.62
6 -12 9 4.07 0.53
7 -12 9 0.99 0.44
7 -12 9 1.17 0.36
8 -12 9 1.27 0.36
8 -12 9 1.19 0.47
9 -12 9 0.67 0.52
9 -12 9 0.43 0.38
10 -12 9 2.72 0.64
8 11 -9 3.22 0.55
-8 -11 9 3 0.7
7 11 -9 4.72 0.7
-7 -11 9 3.52 0.65
6 11 -9 1.61 0.41
-6 -11 9 0.26 0.42
5 11 -9 2.53 0.4
-5 -11 9 1.48 0.41
4 11 -9 0.1 0.3
-4 -11 9 -0.22 0.3
3 11 -9 -0.03 0.26
-3 -11 9 0.11 0.28
-2 -11 9 6.89 0.62
-1 -11 9 27.04 1.55
-1 -11 9 26.84 1.46
0 -11 9 1.32 0.25
0 -11 9 2.01 0.33
1 -11 9 2.14 0.32
1 -11 9 1.54 0.24
2 -11 9 0.01 0.24
3 -11 9 1.44 0.3
3 -11 9 0.98 0.26
4 -11 9 14.4 0.83
4 -11 9 13.88 0.88
5 -11 9 14.13 0.83
5 -11 9 14.09 0.89
6 -11 9 1.71 0.34
6 -11 9 2 0.39
7 -11 9 1.35 0.43
7 -11 9 1.73 0.35
8 -11 9 6.07 0.59
8 -11 9 5.73 0.74
9 -11 9 1.93 0.54
9 -11 9 1.14 0.3
10 -11 9 4.44 0.68
8 10 -9 0.62 0.45
-8 -10 9 0.12 0.51
7 10 -9 0.73 0.39
-7 -10 9 0.95 0.48
6 10 -9 6.25 0.68
-6 -10 9 6.19 0.78
5 10 -9 0.44 0.32
-5 -10 9 -0.09 0.33
4 10 -9 8.35 0.67
-4 -10 9 8.75 0.76
3 10 -9 24.26 1.32
-3 -10 9 23.08 1.43
-2 -10 9 0.34 0.24
-1 -10 9 7.42 0.6
-1 -10 9 7.39 0.59
0 -10 9 61.23 3.07
0 -10 9 62.17 3.29
1 -10 9 6.17 0.55
1 -10 9 6.19 0.48
2 -10 9 15.23 0.88
3 -10 9 14.98 0.88
4 -10 9 6.63 0.52
4 -10 9 5.92 0.54
5 -10 9 38.09 1.82
5 -10 9 37.19 1.94
6 -10 9 7.62 0.67
6 -10 9 8.18 0.6
7 -10 9 -0.18 0.37
7 -10 9 0.12 0.29
8 -10 9 3.61 0.5
8 -10 9 3.76 0.66
9 -10 9 7.17 0.54
10 -10 9 1.53 0.59
11 -10 9 5.15 0.91
9 9 -9 -0.14 0.5
-9 -9 9 -0.5 0.54
8 9 -9 3.36 0.55
-8 -9 9 3.36 0.64
7 9 -9 1.77 0.45
-7 -9 9 2.01 0.5
6 9 -9 6.53 0.67
-6 -9 9 6.43 0.76
5 9 -9 53.12 2.7
-5 -9 9 52.59 2.96
4 9 -9 0.6 0.28
-4 -9 9 0.29 0.28
3 9 -9 17.25 1.03
-3 -9 9 18.11 1.12
2 9 -9 1.29 0.28
-2 -9 9 1.78 0.3
-1 -9 9 1.35 0.27
-1 -9 9 0.79 0.23
0 -9 9 6.67 0.51
0 -9 9 6.75 0.53
1 -9 9 25.53 1.36
1 -9 9 25.83 1.43
2 -9 9 14.57 0.84
3 -9 9 17.82 1
4 -9 9 0.14 0.24
5 -9 9 1.31 0.28
5 -9 9 1.65 0.31
6 -9 9 0.13 0.31
6 -9 9 0.32 0.26
7 -9 9 16.7 0.91
7 -9 9 15.82 1.03
8 -9 9 1.53 0.43
8 -9 9 0.5 0.22
9 -9 9 14.96 0.83
10 -9 9 2.76 0.61
11 -9 9 3.28 0.66
9 8 -9 0.62 0.51
-9 -8 9 -0.15 0.53
8 8 -9 2.18 0.5
-8 -8 9 1.73 0.53
7 8 -9 6.79 0.73
-7 -8 9 7.12 0.83
6 8 -9 1.14 0.36
-6 -8 9 1.14 0.38
5 8 -9 2.83 0.5
-5 -8 9 2.23 0.4
4 8 -9 14.93 0.91
-4 -8 9 15.3 1.01
3 8 -9 2.8 0.4
-3 -8 9 3.18 0.44
2 8 -9 0.9 0.24
-2 -8 9 0.57 0.23
-1 -8 9 23.62 1.34
-1 -8 9 23.39 1.27
0 -8 9 4.46 0.4
0 -8 9 4.18 0.42
1 -8 9 13.8 0.82
1 -8 9 13.37 0.8
2 -8 9 17.68 0.97
3 -8 9 15.47 0.88
4 -8 9 9.39 0.63
5 -8 9 29.43 1.48
5 -8 9 31.11 1.59
6 -8 9 1.5 0.35
6 -8 9 2.45 0.39
7 -8 9 3.78 0.57
7 -8 9 3.24 0.41
8 -8 9 7.83 0.54
8 -8 9 11.45 0.81
9 -8 9 0.52 0.48
10 -8 9 6.37 0.87
11 -8 9 0.87 0.59
10 7 -9 6.28 0.94
-10 -7 9 4.35 0.83
9 7 -9 1.96 0.55
-9 -7 9 0.65 0.56
8 7 -9 15.79 1.11
-8 -7 9 15.26 1.22
7 7 -9 4.55 0.67
-7 -7 9 5.7 0.74
6 7 -9 27.65 1.55
-6 -7 9 29.05 1.72
5 7 -9 1.26 0.32
-5 -7 9 0.58 0.3
4 7 -9 0.06 0.23
-4 -7 9 0.09 0.24
3 7 -9 1.71 0.26
-3 -7 9 1.13 0.26
2 7 -9 43 2.14
-2 -7 9 41.82 2.32
-1 -7 9 0.94 0.21
0 -7 9 22.7 1.25
0 -7 9 21.49 1.16
-1 7 -9 0.47 0.15
1 -7 9 0.5 0.22
1 -7 9 0.67 0.18
-2 7 -9 3.27 0.28
2 -7 9 2.86 0.36
2 -7 9 2.75 0.39
3 -7 9 17.24 0.95
4 -7 9 1.07 0.24
5 -7 9 1.57 0.29
6 -7 9 0.59 0.32
6 -7 9 0.57 0.24
7 -7 9 2.2 0.39
7 -7 9 1.86 0.29
8 -7 9 3.88 0.62
8 -7 9 2.37 0.29
9 -7 9 7.72 0.84
10 -7 9 4.3 0.8
11 -7 9 0.27 0.57
10 6 -9 -0.42 0.54
-10 -6 9 -0.05 0.57
9 6 -9 0.39 0.5
-9 -6 9 0.59 0.49
8 6 -9 10.96 0.93
-8 -6 9 11.33 1.02
7 6 -9 1.07 0.39
-7 -6 9 1.72 0.42
6 6 -9 1.47 0.35
-6 -6 9 1.01 0.35
5 6 -9 9.37 0.65
-5 -6 9 8.82 0.73
4 6 -9 0.66 0.25
-4 -6 9 0.45 0.24
3 6 -9 9.89 0.63
-3 -6 9 10.08 0.7
2 6 -9 21.78 1.18
-2 -6 9 22.76 1.28
-1 -6 9 0.86 0.21
0 -6 9 6.35 0.47
0 -6 9 5.94 0.44
-1 6 -9 58.52 3.27
1 -6 9 64.89 3.28
1 -6 9 61.87 3.04
-2 6 -9 4.22 0.35
2 -6 9 4.74 0.4
2 -6 9 4.73 0.43
-3 6 -9 3.68 0.35
3 -6 9 3.82 0.39
3 -6 9 3.56 0.39
4 -6 9 6.87 0.5
4 -6 9 6.31 0.5
5 -6 9 0.28 0.22
5 -6 9 0.44 0.25
6 -6 9 20.81 1.24
6 -6 9 20.63 1.04
6 -6 9 20.93 1.18
7 -6 9 24.11 1.36
7 -6 9 24.97 1.46
8 -6 9 16.2 1.04
8 -6 9 15.44 1.08
9 -6 9 1.06 0.48
9 -6 9 1.64 0.43
10 -6 9 3.72 0.62
11 -6 9 0.3 0.58
10 5 -9 1.12 0.57
-10 -5 9 0.73 0.56
9 5 -9 0.64 0.49
-9 -5 9 0.22 0.46
8 5 -9 0.82 0.44
-8 -5 9 0.81 0.42
7 5 -9 6.96 0.71
-7 -5 9 6.79 0.73
6 5 -9 19.05 1.12
-6 -5 9 19.48 1.23
5 5 -9 8 0.59
-5 -5 9 7.03 0.65
4 5 -9 6.56 0.51
-4 -5 9 6.63 0.57
3 5 -9 0.24 0.18
-3 -5 9 0.07 0.19
2 5 -9 28.19 1.5
-2 -5 9 30.77 1.64
-1 -5 9 2.41 0.33
0 -5 9 81.6 4.07
0 -5 9 85.79 4.41
1 -5 9 57.4 2.99
1 -5 9 54.68 2.76
2 -5 9 64.49 3.32
2 -5 9 60.33 3.06
3 -5 9 0.21 0.19
3 -5 9 -0.03 0.19
4 -5 9 31.38 1.71
4 -5 9 30.22 1.58
5 -5 9 0.11 0.25
5 -5 9 0.08 0.23
6 -5 9 4.76 0.55
6 -5 9 3.89 0.32
6 -5 9 4.76 0.52
7 -5 9 1.55 0.37
7 -5 9 1.8 0.37
7 -5 9 1.07 0.17
8 -5 9 7.95 0.78
8 -5 9 8.32 0.76
9 -5 9 0.57 0.47
9 -5 9 0.7 0.44
10 -5 9 12.15 1.08
10 -5 9 14.34 1.19
11 -5 9 2.78 0.66
-11 -4 9 2.03 0.68
10 4 -9 0.95 0.56
-10 -4 9 0.59 0.55
9 4 -9 2.15 0.52
-9 -4 9 2.3 0.54
8 4 -9 7.87 0.75
-8 -4 9 6.63 0.8
7 4 -9 22.91 1.28
-7 -4 9 21.3 1.4
6 4 -9 16.36 1.01
-6 -4 9 17 1.11
5 4 -9 8.21 0.61
-5 -4 9 9.58 0.7
4 4 -9 20.24 1.09
-4 -4 9 20.6 1.22
3 4 -9 3.21 0.32
-3 -4 9 2.5 0.37
2 4 -9 11.65 0.67
-2 -4 9 11.8 0.75
-1 -4 9 46.96 2.53
0 -4 9 5.34 0.42
0 -4 9 5.23 0.39
1 -4 9 0.5 0.19
1 -4 9 0.68 0.22
2 -4 9 74.74 3.86
2 -4 9 70.8 3.55
3 -4 9 29.23 1.53
3 -4 9 31.34 1.67
4 -4 9 0.13 0.21
4 -4 9 0.07 0.21
5 -4 9 17.54 1.07
5 -4 9 17.4 0.99
6 -4 9 11.68 0.85
6 -4 9 11.15 0.76
7 -4 9 8.01 0.75
7 -4 9 7.17 0.67
8 -4 9 10.24 0.89
8 -4 9 9.9 0.84
9 -4 9 39.87 2.25
9 -4 9 35.87 2.06
10 -4 9 3.11 0.62
10 -4 9 4.03 0.66
11 -4 9 1.56 0.62
11 3 -9 8.73 1.05
-11 -3 9 8.16 1.15
10 3 -9 0.59 0.55
-10 -3 9 0.94 0.55
9 3 -9 12.97 0.99
-9 -3 9 11.36 1.06
8 3 -9 5.15 0.69
-8 -3 9 5.58 0.74
7 3 -9 13.16 0.91
-7 -3 9 14.56 1.01
6 3 -9 3.9 0.49
-6 -3 9 3.72 0.55
5 3 -9 61.74 3.03
-5 -3 9 60.15 3.3
4 3 -9 0.2 0.18
-4 -3 9 0.17 0.21
3 3 -9 56.17 2.82
-3 -3 9 58.73 3.08
2 3 -9 17.45 0.95
-2 -3 9 18.87 1.06
-1 -3 9 37.67 2.04
0 -3 9 0.33 0.18
0 -3 9 0.4 0.16
1 -3 9 47.41 2.39
1 -3 9 49.73 2.61
2 -3 9 59.48 3.24
2 -3 9 61.77 2.97
3 -3 9 4.04 0.37
3 -3 9 4.51 0.43
4 -3 9 0.43 0.24
4 -3 9 0.29 0.21
5 -3 9 0.76 0.29
5 -3 9 1.27 0.28
6 -3 9 0.36 0.28
6 -3 9 0.22 0.33
7 -3 9 38.06 2.03
7 -3 9 39.22 2.23
8 -3 9 27.46 1.58
8 -3 9 28.52 1.74
9 -3 9 2.03 0.54
9 -3 9 2.47 0.56
10 -3 9 1.33 0.6
10 -3 9 1.32 0.57
11 -3 9 1.41 0.66
11 -3 9 1.38 0.66
11 2 -9 4.33 0.73
-11 -2 9 5.84 1.06
10 2 -9 3.08 0.63
-10 -2 9 2.81 0.62
9 2 -9 6.07 0.8
-9 -2 9 6.21 0.85
8 2 -9 2.62 0.47
-8 -2 9 3.93 0.68
7 2 -9 16.26 1.02
-7 -2 9 17.01 1.14
6 2 -9 30.16 1.6
-6 -2 9 30.6 1.77
5 2 -9 1.09 0.25
5 2 -9 1.32 0.26
-5 -2 9 1.26 0.28
4 2 -9 4.85 0.4
4 2 -9 4.92 0.4
-4 -2 9 5.37 0.48
3 2 -9 19.14 1.04
-3 -2 9 21.03 1.17
2 2 -9 6.74 0.43
-2 -2 9 6.69 0.5
-1 -2 9 112.88 5.92
0 -2 9 18.77 1
0 -2 9 19.9 1.13
1 -2 9 0.65 0.21
1 -2 9 0.53 0.16
2 -2 9 0.37 0.17
2 -2 9 0.18 0.19
3 -2 9 17.33 1.03
3 -2 9 18.08 0.92
3 -2 9 16.12 0.83
4 -2 9 4.81 0.53
4 -2 9 5.69 0.45
5 -2 9 6.11 0.6
5 -2 9 5.48 0.51
6 -2 9 35.53 2.06
6 -2 9 35.84 1.86
7 -2 9 0.42 0.37
7 -2 9 0.79 0.4
8 -2 9 2.02 0.48
8 -2 9 2.28 0.52
9 -2 9 25.52 1.65
9 -2 9 22.69 1.47
10 -2 9 0.49 0.59
10 -2 9 0.13 0.54
11 -2 9 -0.08 0.63
11 -2 9 -0.25 0.61
11 1 -9 0.1 0.6
-11 -1 9 0.36 0.6
10 1 -9 0.06 0.53
-10 -1 9 0.3 0.5
9 1 -9 4.01 0.56
-9 -1 9 3.86 0.76
8 1 -9 12.5 0.82
8 1 -9 17.3 1.01
-8 -1 9 16.98 1.13
7 1 -9 -0.07 0.26
7 1 -9 0.98 0.34
-7 -1 9 -0.06 0.32
6 1 -9 5.13 0.46
6 1 -9 5.11 0.51
-6 -1 9 5.2 0.57
5 1 -9 1.54 0.24
5 1 -9 1.12 0.25
-5 -1 9 1.69 0.3
4 1 -9 3.09 0.32
4 1 -9 2.98 0.33
-4 -1 9 3.49 0.41
3 1 -9 3.82 0.33
3 1 -9 3.59 0.31
-3 -1 9 3.63 0.4
2 1 -9 31.24 1.47
2 1 -9 30.51 1.55
-2 -1 9 31.79 1.71
1 1 -9 11.7 0.62
-1 -1 9 11.59 0.66
-1 -1 9 12.79 0.76
0 -1 9 10.8 0.61
0 -1 9 10.47 0.71
-1 1 -9 40.32 1.97
1 -1 9 39.83 2.18
1 -1 9 39.6 1.97
2 -1 9 5.89 0.53
2 -1 9 6.86 0.39
2 -1 9 6.95 0.43
3 -1 9 0.65 0.13
3 -1 9 0.85 0.2
3 -1 9 0.63 0.26
4 -1 9 16.02 0.88
4 -1 9 15.14 1.01
5 -1 9 -0.11 0.3
5 -1 9 0.28 0.26
6 -1 9 2.25 0.39
6 -1 9 1.65 0.42
7 -1 9 6.91 0.68
7 -1 9 6.43 0.8
8 -1 9 0.01 0.43
8 -1 9 0.4 0.46
9 -1 9 1.74 0.58
9 -1 9 1.74 0.53
10 -1 9 0.71 0.63
10 -1 9 0.37 0.58
11 0 -9 1.3 0.63
-11 0 9 1.69 0.58
10 0 -9 0.44 0.53
-10 0 9 0.18 0.49
9 0 -9 5.27 0.74
9 0 -9 3.94 0.43
-9 0 9 4.45 0.75
8 0 -9 0.03 0.25
8 0 -9 -0.08 0.39
-8 0 9 0.23 0.37
7 0 -9 29.42 1.41
7 0 -9 27.69 1.52
-7 0 9 27.11 1.66
6 0 -9 25.06 1.23
6 0 -9 23.38 1.31
-6 0 9 25.11 1.46
5 0 -9 0.67 0.23
5 0 -9 0.57 0.21
-5 0 9 0.86 0.26
4 0 -9 5.06 0.4
4 0 -9 4.93 0.38
-4 0 9 4.95 0.48
3 0 -9 1.69 0.23
3 0 -9 1.58 0.25
-3 0 9 1.31 0.23
2 0 -9 20.38 1.08
2 0 -9 21.01 1.02
-2 0 9 22.09 1.21
1 0 -9 1.52 0.21
-1 0 9 1.54 0.23
-1 0 9 1.31 0.26
0 0 -9 55.71 2.63
0 0 9 58.12 2.79
0 0 9 58.35 3.08
-1 0 -9 5.85 0.36
1 0 9 4.47 0.48
-2 0 -9 0.53 0.14
2 0 9 0.62 0.17
2 0 9 0.33 0.23
2 0 9 0.66 0.14
3 0 9 1.71 0.3
3 0 9 1.71 0.31
4 0 9 15.39 0.86
4 0 9 15.19 1.02
5 0 9 3.82 0.48
5 0 9 4.2 0.61
6 0 9 35.23 2.06
6 0 9 34.66 1.84
7 0 9 0.13 0.4
7 0 9 0.35 0.45
8 0 9 0.37 0.44
8 0 9 0.66 0.5
9 0 9 7.89 1.03
9 0 9 6.1 0.89
10 0 9 6.51 0.99
10 0 9 8.39 1.18
11 -1 -9 0.41 0.63
-11 1 9 0.32 0.55
10 -1 -9 4.54 0.7
-10 1 9 5.47 0.82
9 -1 -9 8.16 0.79
9 -1 -9 5.72 0.5
-9 1 9 6.76 0.81
8 -1 -9 35.22 1.86
8 -1 -9 35.07 1.72
-8 1 9 33.87 2.03
7 -1 -9 0.54 0.27
7 -1 -9 0.49 0.33
-7 1 9 0.69 0.34
6 -1 -9 2.81 0.41
6 -1 -9 2.7 0.38
-6 1 9 2.1 0.36
5 -1 -9 4.16 0.39
5 -1 -9 4.1 0.41
-5 1 9 3.95 0.49
4 -1 -9 55.59 2.79
4 -1 -9 58.41 2.63
-4 1 9 56.54 3.06
3 -1 -9 0.63 0.16
3 -1 -9 0.43 0.14
-3 1 9 0.6 0.2
2 -1 -9 179.64 8.18
2 -1 -9 174.78 8.72
-2 1 9 185.96 9.5
-2 1 9 185.81 8.73
1 -1 -9 51.66 2.43
-1 1 9 54.2 2.85
0 -1 -9 30.06 1.42
0 1 9 30.8 1.71
-1 -1 -9 0.19 0.13
1 1 9 0.13 0.21
-2 -1 -9 74.19 3.75
2 1 9 77.92 3.76
2 1 9 82.17 3.52
2 1 9 75.93 4.14
3 1 9 12.25 0.69
3 1 9 11.46 0.84
4 1 9 15.88 0.88
4 1 9 14.57 1.03
5 1 9 8.69 0.65
5 1 9 8.31 0.8
6 1 9 4.13 0.58
6 1 9 3.99 0.73
7 1 9 -0.05 0.39
7 1 9 0.46 0.49
8 1 9 10.44 0.94
8 1 9 11.37 1.1
9 1 9 21.72 1.59
9 1 9 19.89 1.39
10 1 9 4.28 0.83
10 1 9 5.12 0.93
11 -2 -9 1.43 0.65
-11 2 9 0.15 0.5
10 -2 -9 19.12 1.18
10 -2 -9 12.19 0.85
-10 2 9 17.96 1.25
9 -2 -9 2.2 0.35
9 -2 -9 3.8 0.66
-9 2 9 2.32 0.51
8 -2 -9 -0.47 0.28
8 -2 -9 -0.32 0.35
-8 2 9 -0.01 0.38
7 -2 -9 8.32 0.66
7 -2 -9 7.71 0.59
-7 2 9 8.36 0.76
6 -2 -9 26.73 1.33
6 -2 -9 27.12 1.42
-6 2 9 26.74 1.58
5 -2 -9 21.6 1.07
5 -2 -9 21.26 1.12
-5 2 9 20.5 1.26
4 -2 -9 29.61 1.42
4 -2 -9 29.65 1.49
-4 2 9 29.6 1.66
3 -2 -9 3.75 0.31
3 -2 -9 3.89 0.33
-3 2 9 4.26 0.44
-3 2 9 4.1 0.31
2 -2 -9 0.95 0.17
-2 2 9 1.26 0.2
-2 2 9 0.85 0.27
1 -2 -9 2.15 0.26
-1 2 9 2.38 0.38
0 -2 -9 11.1 0.58
0 2 9 10.93 0.76
-1 -2 -9 53.57 2.42
1 2 9 52.21 2.87
-2 -2 -9 2.91 0.27
2 2 9 2.66 0.26
2 2 9 2.61 0.47
3 2 9 6.02 0.63
4 2 9 4.98 0.47
4 2 9 4.99 0.63
5 2 9 7.52 0.6
5 2 9 6.38 0.78
6 2 9 7.3 0.85
6 2 9 6.18 0.62
7 2 9 32.85 1.81
7 2 9 34.05 2.09
8 2 9 0.39 0.56
8 2 9 -0.06 0.45
9 2 9 -0.01 0.54
9 2 9 0.84 0.63
10 2 9 3.72 0.85
10 2 9 3.72 0.7
10 -3 -9 0.69 0.26
-10 3 9 0.04 0.36
9 -3 -9 0.28 0.32
9 -3 -9 -0.12 0.44
-9 3 9 0.18 0.43
8 -3 -9 3.26 0.58
8 -3 -9 3.31 0.48
-8 3 9 3.29 0.5
7 -3 -9 6.65 0.54
7 -3 -9 7.04 0.61
-7 3 9 7.59 0.73
6 -3 -9 5.85 0.49
6 -3 -9 4.32 0.45
-6 3 9 5.22 0.6
5 -3 -9 11.7 0.71
5 -3 -9 11.21 0.68
-5 3 9 13.39 0.82
4 -3 -9 1.94 0.28
4 -3 -9 2.03 0.3
-4 3 9 2.7 0.42
3 -3 -9 9.73 0.55
-3 3 9 10.05 0.55
-3 3 9 8.95 0.72
2 -3 -9 2.05 0.28
-2 3 9 2.56 0.4
1 -3 -9 46.87 2.17
-1 3 9 47.15 2.57
0 -3 -9 10.8 0.57
0 3 9 10.16 0.75
-1 -3 -9 0.47 0.14
1 3 9 0.36 0.26
-2 -3 -9 0.29 0.14
2 3 9 0.63 0.3
3 3 9 3.98 0.58
4 3 9 0.13 0.34
4 3 9 0.03 0.18
5 3 9 4 0.43
5 3 9 5.62 0.75
6 3 9 1.12 0.49
6 3 9 0.11 0.28
7 3 9 -0.11 0.31
7 3 9 0.41 0.53
8 3 9 4.35 0.73
8 3 9 2.72 0.46
9 3 9 8.71 1.22
10 -4 -9 0.08 0.31
-10 4 9 0.63 0.35
9 -4 -9 16.08 1.05
9 -4 -9 15.06 0.88
-9 4 9 11.68 1.01
8 -4 -9 17.66 1.02
8 -4 -9 19.88 1.12
-8 4 9 17.88 1.23
7 -4 -9 0.05 0.26
7 -4 -9 0.21 0.3
-7 4 9 0.36 0.35
6 -4 -9 7.44 0.54
6 -4 -9 8.03 0.59
-6 4 9 8.09 0.68
5 -4 -9 2.5 0.35
5 -4 -9 2.3 0.28
-5 4 9 3.11 0.47
4 -4 -9 4.13 0.34
4 -4 -9 3.98 0.35
-4 4 9 4.37 0.53
3 -4 -9 0.64 0.17
-3 4 9 0.76 0.27
2 -4 -9 15.53 0.8
-2 4 9 16.45 1.02
1 -4 -9 1.06 0.18
-1 4 9 0.92 0.3
0 -4 -9 2.74 0.3
0 4 9 3.08 0.48
-1 -4 -9 29.71 1.39
1 4 9 28.91 1.71
-2 -4 -9 22.61 1.08
2 4 9 22.42 1.4
3 4 9 0.44 0.34
4 4 9 5.2 0.72
5 4 9 1.74 0.51
6 4 9 1.6 0.55
6 4 9 0.67 0.27
7 4 9 5.31 0.57
7 4 9 7.88 1
8 4 9 7.5 1.11
9 4 9 4.18 0.85
11 -5 -9 -0.01 0.57
10 -5 -9 1.12 0.35
10 -5 -9 0.6 0.49
-10 5 9 0.78 0.36
9 -5 -9 0.62 0.45
9 -5 -9 0.24 0.32
-9 5 9 0.02 0.29
8 -5 -9 0.6 0.38
8 -5 -9 0.25 0.28
-8 5 9 0.13 0.28
7 -5 -9 20.17 1.07
7 -5 -9 21.96 1.15
-7 5 9 18.99 1.25
6 -5 -9 4.48 0.44
6 -5 -9 4.97 0.47
-6 5 9 5.19 0.6
5 -5 -9 4.48 0.42
5 -5 -9 5.58 0.43
-5 5 9 5.51 0.62
4 -5 -9 1.02 0.21
-4 5 9 1.23 0.33
3 -5 -9 11.61 0.66
-3 5 9 13.15 0.86
2 -5 -9 0.2 0.17
-2 5 9 0.01 0.28
1 -5 -9 59.56 2.66
-1 5 9 56 3.15
0 -5 -9 6.92 0.43
0 5 9 5.99 0.64
-1 -5 -9 1.7 0.21
1 5 9 1.54 0.36
-2 -5 -9 6.37 0.4
2 5 9 6.09 0.71
3 5 9 3.49 0.66
4 5 9 11.91 1.02
5 5 9 11.79 1.09
6 5 9 19.54 1.48
7 5 9 2.69 0.69
8 5 9 0.86 0.67
11 -6 -9 0.16 0.34
10 -6 -9 0.32 0.34
10 -6 -9 -0.31 0.49
9 -6 -9 5.98 0.58
8 -6 -9 10.12 0.74
8 -6 -9 8.64 0.63
-8 6 9 7.04 0.68
7 -6 -9 1.14 0.3
7 -6 -9 1.22 0.34
-7 6 9 1.22 0.31
6 -6 -9 2.54 0.4
6 -6 -9 2.09 0.3
-6 6 9 2.42 0.4
5 -6 -9 0.6 0.22
-5 6 9 0.45 0.34
4 -6 -9 11.24 0.67
-4 6 9 13.22 0.89
3 -6 -9 1.93 0.31
-3 6 9 1.91 0.38
2 -6 -9 16.06 0.82
-2 6 9 15.51 1.06
1 -6 -9 1.13 0.2
-1 6 9 0.9 0.35
0 -6 -9 1.87 0.27
0 6 9 1.72 0.39
-1 -6 -9 3.94 0.34
1 6 9 3.93 0.64
-2 -6 -9 13.08 0.67
2 6 9 12 0.99
3 6 9 0.14 0.4
4 6 9 0.71 0.47
5 6 9 1.64 0.57
6 6 9 8.53 1.08
7 6 9 2.72 0.72
8 6 9 6.8 1.17
11 -7 -9 1.21 0.6
11 -7 -9 1.09 0.39
10 -7 -9 2.71 0.43
9 -7 -9 1.6 0.37
9 -7 -9 2.41 0.47
8 -7 -9 2.67 0.39
8 -7 -9 3.5 0.59
7 -7 -9 3.31 0.5
7 -7 -9 3.31 0.43
-7 7 9 1.78 0.38
6 -7 -9 0.28 0.25
6 -7 -9 0.03 0.25
-6 7 9 -0.11 0.27
5 -7 -9 0.04 0.23
-5 7 9 -0.36 0.28
4 -7 -9 11.52 0.7
-4 7 9 13.79 0.94
3 -7 -9 0.25 0.2
-3 7 9 0 0.35
2 -7 -9 4.66 0.39
-2 7 9 4.41 0.63
1 -7 -9 16.02 0.82
-1 7 9 15.19 1.09
0 -7 -9 1.05 0.2
0 7 9 0.54 0.38
-1 -7 -9 11.24 0.62
1 7 9 11.54 0.96
-2 -7 -9 2.29 0.31
2 7 9 2.63 0.5
3 7 9 0.6 0.47
4 7 9 1.23 0.54
5 7 9 2.73 0.64
6 7 9 5.93 1.04
7 7 9 2.05 0.73
11 -8 -9 1.35 0.41
10 -8 -9 5.76 0.65
9 -8 -9 3.69 0.55
8 -8 -9 1.08 0.38
8 -8 -9 1.09 0.34
7 -8 -9 3.26 0.46
7 -8 -9 2.73 0.5
6 -8 -9 1.07 0.28
-6 8 9 0.27 0.3
5 -8 -9 2.51 0.38
-5 8 9 1.54 0.35
4 -8 -9 9.58 0.59
-4 8 9 8.72 0.76
3 -8 -9 3.87 0.4
-3 8 9 3.46 0.63
2 -8 -9 0.71 0.22
-2 8 9 0.39 0.39
1 -8 -9 8.4 0.53
-1 8 9 7.73 0.81
0 -8 -9 18.35 0.93
0 8 9 18.59 1.28
-1 -8 -9 0.06 0.19
1 8 9 0.07 0.41
-2 -8 -9 23.78 1.15
2 8 9 22.53 1.57
3 8 9 10.79 1.08
4 8 9 0.43 0.55
5 8 9 1.23 0.63
6 8 9 0.63 0.64
7 8 9 0.22 0.7
11 -9 -9 0.41 0.58
11 -9 -9 0.4 0.38
10 -9 -9 -0.29 0.36
9 -9 -9 0.28 0.36
9 -9 -9 -0.19 0.41
8 -9 -9 1.41 0.35
8 -9 -9 0.82 0.39
7 -9 -9 -0.02 0.3
7 -9 -9 0.01 0.3
6 -9 -9 7.88 0.59
5 -9 -9 9.11 0.59
-5 9 9 6.98 0.69
4 -9 -9 0.16 0.24
-4 9 9 -0.25 0.27
3 -9 -9 3.36 0.4
-3 9 9 2.44 0.44
2 -9 -9 10.67 0.65
-2 9 9 11.29 0.94
1 -9 -9 9.91 0.6
-1 9 9 9.47 0.91
0 -9 -9 14.09 0.75
0 9 9 13.33 1.1
-1 -9 -9 8.18 0.53
1 9 9 8.89 0.94
-2 -9 -9 2.57 0.35
2 9 9 2.11 0.58
3 9 9 6.83 1
4 9 9 0.18 0.57
5 9 9 2.55 0.72
6 9 9 9.58 1.23
10 -10 -9 -0.29 0.39
9 -10 -9 -0.05 0.34
8 -10 -9 0.31 0.34
7 -10 -9 4.91 0.56
6 -10 -9 0.14 0.29
5 -10 -9 0.18 0.28
4 -10 -9 0.3 0.26
-4 10 9 0.19 0.3
3 -10 -9 1.44 0.28
-3 10 9 1.09 0.33
2 -10 -9 0.53 0.25
-2 10 9 0.55 0.4
1 -10 -9 15.67 0.86
-1 10 9 16.98 1.22
0 -10 -9 1.14 0.25
0 10 9 1.37 0.5
-1 -10 -9 2.59 0.37
1 10 9 2.67 0.6
2 10 9 2.59 0.63
3 10 9 1.76 0.64
4 10 9 0.59 0.64
5 10 9 2.9 0.75
10 -11 -9 -0.19 0.42
9 -11 -9 2.01 0.43
8 -11 -9 5.89 0.64
7 -11 -9 4.12 0.56
6 -11 -9 1.79 0.37
5 -11 -9 0.15 0.29
4 -11 -9 0.11 0.28
3 -11 -9 3.44 0.44
-3 11 9 3.12 0.55
2 -11 -9 1.62 0.29
-2 11 9 1.01 0.37
1 -11 -9 0.93 0.26
-1 11 9 1.15 0.5
0 -11 -9 8 0.57
0 11 9 9.28 1.03
-1 -11 -9 1.81 0.28
1 11 9 2.1 0.62
2 11 9 0.41 0.61
3 11 9 -0.05 0.63
4 11 9 5.74 1.13
5 11 9 2.51 0.79
9 -12 -9 0.48 0.44
8 -12 -9 1.37 0.45
7 -12 -9 0.09 0.37
6 -12 -9 1.3 0.36
5 -12 -9 0.75 0.33
4 -12 -9 29.19 1.48
3 -12 -9 3.8 0.46
-3 12 9 2.66 0.46
2 -12 -9 9.36 0.62
-2 12 9 7.17 0.77
1 -12 -9 2.27 0.33
-1 12 9 2.15 0.49
0 -12 -9 7.82 0.58
0 12 9 8.23 1.07
1 12 9 6.18 1.09
2 12 9 2.11 0.71
3 12 9 0.71 0.69
4 12 9 2.44 0.77
8 -13 -9 1.06 0.44
7 -13 -9 1.16 0.4
6 -13 -9 -0.29 0.34
5 -13 -9 0.04 0.33
4 -13 -9 3.38 0.51
3 -13 -9 4.69 0.53
2 -13 -9 -0.02 0.29
-2 13 9 0.26 0.35
1 -13 -9 2 0.34
-1 13 9 2.2 0.5
0 -13 -9 -0.13 0.27
0 13 9 0.21 0.53
1 13 9 0.7 0.66
2 13 9 7.84 1.21
3 13 9 0.98 0.7
7 -14 -9 -0.33 0.39
6 -14 -9 -0.19 0.37
5 -14 -9 0.6 0.38
4 -14 -9 1.23 0.37
3 -14 -9 3.34 0.52
2 -14 -9 1.83 0.36
1 -14 -9 4.27 0.53
-1 14 9 4.17 0.8
1 14 9 -0.05 0.65
5 -15 -9 -0.14 0.38
4 -15 -9 -0.03 0.35
3 -15 -9 3.28 0.55
2 -15 -9 0.69 0.36
1 -15 -9 0.3 0.34
0 -19 10 -0.04 0.38
1 -19 10 0.57 0.42
2 -19 10 0.19 0.42
3 -19 10 1.82 0.48
3 -19 10 1.54 0.5
4 -19 10 0.88 0.46
4 -19 10 0.85 0.49
5 -19 10 10.58 0.97
-2 -18 10 9.16 0.76
-1 -18 10 1.23 0.38
-1 -18 10 1.01 0.49
0 -18 10 0.34 0.35
0 -18 10 0.71 0.41
1 -18 10 -0.11 0.35
1 -18 10 -0.14 0.41
2 -18 10 0.15 0.42
2 -18 10 0.04 0.37
3 -18 10 2.78 0.5
3 -18 10 2.87 0.5
4 -18 10 1.58 0.47
4 -18 10 2.14 0.5
5 -18 10 -0.06 0.42
5 -18 10 0.43 0.46
6 -18 10 0.55 0.44
6 -18 10 0.31 0.5
7 -18 10 -0.24 0.49
7 -18 10 0.17 0.54
-3 -17 10 1.01 0.48
-3 -17 10 0.8 0.47
-2 -17 10 2.04 0.48
-2 -17 10 2.32 0.39
-2 -17 10 1.37 0.48
-1 -17 10 12.08 0.83
-1 -17 10 11.02 0.96
0 -17 10 0.14 0.33
0 -17 10 -0.49 0.37
1 -17 10 -0.18 0.37
1 -17 10 0.23 0.35
2 -17 10 6.55 0.71
2 -17 10 6.72 0.74
3 -17 10 0.04 0.4
3 -17 10 -0.08 0.37
4 -17 10 1.53 0.43
4 -17 10 1.7 0.45
5 -17 10 1.68 0.45
5 -17 10 2.18 0.48
6 -17 10 0.42 0.48
6 -17 10 0.32 0.41
7 -17 10 3.97 0.57
7 -17 10 5.51 0.88
8 -17 10 0.23 0.46
8 -17 10 0.87 0.57
-4 -16 10 1.94 0.5
-4 -16 10 1.12 0.48
-3 -16 10 20.64 1.12
-3 -16 10 18.85 1.33
-3 -16 10 17.79 1.26
-2 -16 10 0.7 0.43
-2 -16 10 1.1 0.34
-2 -16 10 0.5 0.39
-1 -16 10 0.62 0.35
-1 -16 10 0.96 0.41
-1 -16 10 1.37 0.36
0 -16 10 5.37 0.63
0 -16 10 5.32 0.7
1 -16 10 5.13 0.63
1 -16 10 4.98 0.65
2 -16 10 0.86 0.35
2 -16 10 1.27 0.4
3 -16 10 12.67 0.88
3 -16 10 11.92 0.9
4 -16 10 1.56 0.4
4 -16 10 1.75 0.44
5 -16 10 3.13 0.48
5 -16 10 2.7 0.47
6 -16 10 0.53 0.41
6 -16 10 1.59 0.49
7 -16 10 12.09 0.91
7 -16 10 12.12 1.04
8 -16 10 4.07 0.71
8 -16 10 4.99 0.87
9 -16 10 3.33 0.67
9 -16 10 2.54 0.54
-5 -15 10 2.2 0.57
-4 -15 10 8.65 0.9
-4 -15 10 8.57 0.93
-3 -15 10 0.43 0.38
-3 -15 10 0.17 0.29
-3 -15 10 0.27 0.37
-2 -15 10 1.12 0.32
-2 -15 10 1.14 0.4
-2 -15 10 1.08 0.38
-1 -15 10 7.59 0.73
-1 -15 10 8.76 0.67
-1 -15 10 7.54 0.77
0 -15 10 7.13 0.67
0 -15 10 8.5 0.67
0 -15 10 8.16 0.75
1 -15 10 4.33 0.58
1 -15 10 4.16 0.59
2 -15 10 0.75 0.33
2 -15 10 1.8 0.38
3 -15 10 0.69 0.35
3 -15 10 0.63 0.36
4 -15 10 10.57 0.82
4 -15 10 9.9 0.78
5 -15 10 5.61 0.71
5 -15 10 5.72 0.64
6 -15 10 21.93 1.24
6 -15 10 21.84 1.35
7 -15 10 0.31 0.4
7 -15 10 0.34 0.48
8 -15 10 3.06 0.59
8 -15 10 2.08 0.48
9 -15 10 0.4 0.45
9 -15 10 1.48 0.61
6 14 -10 6.24 0.77
-6 -14 10 7.75 0.96
5 14 -10 0.22 0.35
-5 -14 10 -1.66 0.43
-4 -14 10 10.24 0.94
-3 -14 10 4.37 0.68
-3 -14 10 4.83 0.72
-2 -14 10 12.51 0.91
-2 -14 10 12.36 0.94
-1 -14 10 10.58 0.82
-1 -14 10 10.24 0.81
0 -14 10 20.14 1.24
0 -14 10 21.05 1.13
0 -14 10 20.28 1.22
1 -14 10 0.26 0.3
1 -14 10 0.85 0.33
2 -14 10 1.42 0.35
2 -14 10 1.07 0.33
3 -14 10 1.44 0.34
3 -14 10 1.49 0.36
4 -14 10 16.41 0.97
4 -14 10 16.05 1.03
5 -14 10 20.84 1.22
5 -14 10 19.62 1.15
6 -14 10 1.51 0.39
6 -14 10 1.04 0.43
7 -14 10 1.93 0.49
7 -14 10 2.37 0.44
8 -14 10 2.67 0.46
8 -14 10 2.74 0.56
9 -14 10 1.23 0.45
9 -14 10 2.22 0.59
10 -14 10 1.06 0.64
10 -14 10 -0.34 0.42
7 13 -10 7.8 0.87
-7 -13 10 8.41 1.06
6 13 -10 1.55 0.43
-6 -13 10 1.1 0.52
5 13 -10 0.05 0.33
-5 -13 10 -0.73 0.38
4 13 -10 16.92 1.09
-4 -13 10 16.82 1.21
-3 -13 10 14.6 1.05
-2 -13 10 1.24 0.34
-2 -13 10 1.23 0.36
-1 -13 10 0.66 0.32
-1 -13 10 0.27 0.27
0 -13 10 16.07 1.01
0 -13 10 15.68 1
1 -13 10 0.33 0.31
2 -13 10 0.7 0.29
2 -13 10 0.74 0.32
3 -13 10 19.7 1.15
3 -13 10 19.54 1.09
4 -13 10 1.64 0.34
4 -13 10 1.06 0.37
5 -13 10 3.83 0.55
5 -13 10 4.33 0.61
6 -13 10 4.8 0.58
6 -13 10 4.96 0.68
7 -13 10 0.81 0.45
7 -13 10 0.55 0.37
8 -13 10 1.51 0.52
8 -13 10 1.57 0.41
9 -13 10 4.85 0.86
9 -13 10 2.64 0.48
10 -13 10 0.04 0.6
7 12 -10 1.28 0.44
-7 -12 10 1.17 0.54
6 12 -10 0.1 0.35
-6 -12 10 -0.28 0.42
5 12 -10 7.82 0.76
-5 -12 10 8.42 0.87
4 12 -10 0.93 0.35
-4 -12 10 0.7 0.36
-3 -12 10 0.39 0.3
-2 -12 10 2.54 0.5
-2 -12 10 1.77 0.4
-1 -12 10 0.54 0.3
-1 -12 10 0.29 0.26
0 -12 10 20.56 1.22
0 -12 10 20.52 1.19
1 -12 10 -0.06 0.29
2 -12 10 0.11 0.28
3 -12 10 -0.16 0.26
3 -12 10 0.15 0.3
4 -12 10 10.92 0.79
4 -12 10 10.52 0.73
5 -12 10 9.21 0.7
5 -12 10 10.16 0.76
6 -12 10 8.73 0.77
6 -12 10 9.2 0.69
7 -12 10 0.7 0.44
7 -12 10 0.26 0.35
8 -12 10 4.22 0.74
8 -12 10 3.68 0.59
9 -12 10 7.63 0.7
9 -12 10 11.74 0.98
10 -12 10 2.6 0.65
8 11 -10 1.02 0.47
-8 -11 10 0.38 0.58
7 11 -10 0.1 0.39
-7 -11 10 -0.16 0.48
6 11 -10 -0.04 0.35
-6 -11 10 0.54 0.42
5 11 -10 1.81 0.39
-5 -11 10 2.61 0.47
4 11 -10 5.97 0.62
-4 -11 10 5.92 0.69
3 11 -10 10.05 0.75
-3 -11 10 10.34 0.81
-2 -11 10 5.16 0.57
-1 -11 10 0.92 0.29
-1 -11 10 0.81 0.26
0 -11 10 3.98 0.44
0 -11 10 3.45 0.53
1 -11 10 0.29 0.29
1 -11 10 0.11 0.21
2 -11 10 1.01 0.28
3 -11 10 8.86 0.67
4 -11 10 10.89 0.77
4 -11 10 10.84 0.71
5 -11 10 9.02 0.71
5 -11 10 8.93 0.66
6 -11 10 3.99 0.61
6 -11 10 4.9 0.53
7 -11 10 1.18 0.45
7 -11 10 2.33 0.37
8 -11 10 0.68 0.47
8 -11 10 0.35 0.35
9 -11 10 4.81 0.5
9 -11 10 7.12 0.88
10 -11 10 0.11 0.57
8 10 -10 -0.18 0.42
-8 -10 10 0.48 0.51
7 10 -10 0.08 0.37
-7 -10 10 0.06 0.44
6 10 -10 -0.13 0.34
-6 -10 10 0.37 0.39
5 10 -10 5.13 0.61
-5 -10 10 5.31 0.69
4 10 -10 3.51 0.54
-4 -10 10 4.61 0.59
3 10 -10 40.21 2.08
-3 -10 10 39.51 2.25
-2 -10 10 2.82 0.47
-1 -10 10 28.76 1.63
-1 -10 10 28.72 1.53
0 -10 10 2.35 0.39
0 -10 10 2.95 0.46
1 -10 10 10.5 0.73
1 -10 10 10.76 0.7
2 -10 10 20.5 1.13
3 -10 10 43.58 2.21
4 -10 10 22.19 1.24
5 -10 10 8.96 0.7
5 -10 10 9.82 0.66
6 -10 10 10.78 0.82
6 -10 10 11.62 0.74
7 -10 10 -0.17 0.39
7 -10 10 0.34 0.3
8 -10 10 8.43 0.8
8 -10 10 7.28 0.57
9 -10 10 5.65 0.81
9 -10 10 2.46 0.4
10 -10 10 5.47 0.92
9 9 -10 -0.17 0.48
-9 -9 10 0.28 0.55
8 9 -10 4.17 0.75
-8 -9 10 3.27 0.63
7 9 -10 7.9 0.8
-7 -9 10 8.15 0.92
6 9 -10 9.81 0.8
-6 -9 10 10.47 0.92
5 9 -10 26.44 1.46
-5 -9 10 25.94 1.61
4 9 -10 10.4 0.73
-4 -9 10 9.94 0.8
3 9 -10 5.2 0.52
-3 -9 10 5.52 0.58
-2 -9 10 19.67 1.19
-1 -9 10 6.03 0.51
-1 -9 10 5.61 0.53
0 -9 10 14.09 0.86
0 -9 10 14.38 0.88
1 -9 10 19.07 1.1
1 -9 10 18.8 1.07
2 -9 10 15.69 0.9
3 -9 10 1.64 0.29
4 -9 10 6.21 0.54
5 -9 10 9.04 0.63
5 -9 10 9.43 0.68
6 -9 10 2.51 0.44
6 -9 10 2.53 0.4
7 -9 10 6.81 0.55
7 -9 10 5.38 0.67
8 -9 10 5.81 0.68
8 -9 10 3.43 0.4
9 -9 10 -0.01 0.47
10 -9 10 0.02 0.56
11 -9 10 1.79 0.63
9 8 -10 0.1 0.49
-9 -8 10 0.25 0.54
8 8 -10 -0.16 0.44
-8 -8 10 0.17 0.46
7 8 -10 3.29 0.5
-7 -8 10 2.89 0.52
6 8 -10 6.76 0.7
-6 -8 10 7.37 0.75
5 8 -10 0.33 0.3
-5 -8 10 0.78 0.32
4 8 -10 2.47 0.44
-4 -8 10 1.95 0.35
3 8 -10 0.16 0.24
-3 -8 10 0.09 0.24
2 8 -10 0.43 0.22
-2 -8 10 0.33 0.23
-1 -8 10 4.15 0.47
-1 -8 10 4.77 0.46
0 -8 10 37.31 1.92
0 -8 10 38.15 2.06
1 -8 10 2.33 0.34
1 -8 10 2.79 0.42
2 -8 10 3.7 0.41
2 -8 10 3.53 0.43
3 -8 10 0.9 0.25
4 -8 10 2.78 0.42
5 -8 10 0.14 0.28
6 -8 10 6.62 0.53
6 -8 10 5.68 0.61
7 -8 10 6.66 0.66
7 -8 10 5.5 0.46
8 -8 10 2.44 0.47
8 -8 10 1.43 0.24
9 -8 10 0.23 0.48
10 -8 10 0.23 0.54
11 -8 10 0.62 0.6
9 7 -10 0.48 0.5
-9 -7 10 0.66 0.53
8 7 -10 3.7 0.55
-8 -7 10 2.87 0.56
7 7 -10 14.61 1.01
-7 -7 10 15.09 1.12
6 7 -10 0.32 0.34
-6 -7 10 0.37 0.34
5 7 -10 27.37 1.51
-5 -7 10 28.66 1.67
4 7 -10 9.73 0.67
-4 -7 10 9.92 0.76
3 7 -10 1.68 0.28
-3 -7 10 1.49 0.29
2 7 -10 8.41 0.6
-2 -7 10 9.17 0.65
-1 -7 10 7.63 0.56
-1 -7 10 7.11 0.56
0 -7 10 31.98 1.72
0 -7 10 30.19 1.59
1 -7 10 1.36 0.26
1 -7 10 1.34 0.23
2 -7 10 0.07 0.2
2 -7 10 0.23 0.23
3 -7 10 0.56 0.24
3 -7 10 1.01 0.25
4 -7 10 16.59 0.95
5 -7 10 3.91 0.48
6 -7 10 0.48 0.26
6 -7 10 0.27 0.32
7 -7 10 9.67 0.71
7 -7 10 6.44 0.47
8 -7 10 0.49 0.42
9 -7 10 0.02 0.47
10 -7 10 2.11 0.59
11 -7 10 0.17 0.6
10 6 -10 1.01 0.6
-10 -6 10 1.34 0.63
9 6 -10 5.67 0.86
-9 -6 10 5.75 0.9
8 6 -10 11.66 0.97
-8 -6 10 12.14 1.05
7 6 -10 0.47 0.38
-7 -6 10 0.49 0.37
6 6 -10 0.94 0.32
-6 -6 10 1.26 0.36
5 6 -10 5.46 0.54
-5 -6 10 4.47 0.58
4 6 -10 3.16 0.41
-4 -6 10 2.9 0.47
3 6 -10 0.2 0.2
-3 -6 10 0.19 0.22
2 6 -10 18.62 1.03
-2 -6 10 18.78 1.11
-1 -6 10 23.54 1.34
0 -6 10 4.05 0.4
0 -6 10 4.54 0.4
1 -6 10 0.15 0.19
1 -6 10 0.13 0.21
2 -6 10 0.88 0.23
2 -6 10 0.93 0.23
3 -6 10 14.65 0.82
3 -6 10 13.34 0.87
4 -6 10 50.52 2.54
4 -6 10 51.52 2.75
5 -6 10 127.47 6.24
5 -6 10 129.29 6.75
6 -6 10 9.77 0.72
6 -6 10 8.36 0.54
6 -6 10 9.07 0.71
7 -6 10 3.43 0.57
7 -6 10 3.79 0.6
8 -6 10 -0.14 0.37
8 -6 10 0.09 0.4
9 -6 10 11.12 0.95
9 -6 10 10.13 0.95
10 -6 10 0.43 0.53
11 -6 10 10.47 1.1
10 5 -10 0.51 0.56
-10 -5 10 0 0.58
9 5 -10 11.32 1.03
-9 -5 10 12.08 1.14
8 5 -10 0.53 0.44
-8 -5 10 0.35 0.42
7 5 -10 -0.02 0.34
-7 -5 10 0.44 0.36
6 5 -10 10.07 0.73
-6 -5 10 9.37 0.81
5 5 -10 2.75 0.43
-5 -5 10 3.26 0.51
4 5 -10 3.48 0.4
-4 -5 10 3.18 0.46
3 5 -10 53.37 2.73
-3 -5 10 56.9 2.98
2 5 -10 12.7 0.74
-2 -5 10 12.67 0.81
-1 -5 10 21.17 1.22
0 -5 10 3.96 0.37
0 -5 10 3.8 0.38
1 -5 10 14.17 0.83
1 -5 10 15.23 0.91
2 -5 10 3.1 0.4
2 -5 10 2.93 0.35
3 -5 10 63.08 3.49
3 -5 10 67.65 3.22
4 -5 10 16.39 0.94
4 -5 10 17.15 1.02
5 -5 10 3.65 0.48
5 -5 10 4.12 0.5
6 -5 10 0.43 0.32
6 -5 10 0.62 0.16
6 -5 10 0.49 0.31
7 -5 10 4.04 0.63
7 -5 10 3.64 0.56
8 -5 10 0.15 0.43
8 -5 10 0.16 0.42
9 -5 10 16.63 1.22
9 -5 10 15.78 1.14
10 -5 10 1.53 0.59
10 -5 10 1.87 0.58
11 -5 10 1.5 0.65
10 4 -10 3.68 0.64
-10 -4 10 3.36 0.69
9 4 -10 0.62 0.48
-9 -4 10 0.35 0.49
8 4 -10 3.14 0.51
-8 -4 10 2.05 0.5
7 4 -10 0.47 0.38
-7 -4 10 0.34 0.36
6 4 -10 0.26 0.29
-6 -4 10 0 0.29
5 4 -10 8.81 0.63
-5 -4 10 9.01 0.72
4 4 -10 25.14 1.35
-4 -4 10 26.11 1.48
3 4 -10 0.57 0.18
-3 -4 10 0.69 0.22
2 4 -10 11.59 0.68
-2 -4 10 11.49 0.75
-1 -4 10 6.13 0.49
0 -4 10 5.94 0.47
0 -4 10 5.61 0.42
1 -4 10 9.12 0.58
2 -4 10 19.44 1.14
2 -4 10 19.3 1.03
3 -4 10 2.85 0.36
3 -4 10 3.48 0.42
4 -4 10 7.65 0.55
4 -4 10 7.72 0.63
5 -4 10 5.02 0.51
5 -4 10 5.05 0.56
6 -4 10 1.44 0.37
6 -4 10 1.15 0.34
7 -4 10 1.37 0.4
7 -4 10 1.01 0.41
8 -4 10 -0.33 0.42
8 -4 10 0.62 0.45
9 -4 10 2.89 0.57
9 -4 10 3.67 0.57
10 -4 10 0.45 0.55
10 -4 10 1.13 0.55
11 -4 10 0.58 0.62
-11 -3 10 0.36 0.64
10 3 -10 0.66 0.56
-10 -3 10 0.25 0.54
9 3 -10 0.7 0.49
-9 -3 10 -0.15 0.46
8 3 -10 0.17 0.41
-8 -3 10 0.27 0.4
7 3 -10 9.87 0.76
-7 -3 10 9.15 0.84
6 3 -10 38.04 1.97
-6 -3 10 37.36 2.15
5 3 -10 -0.06 0.22
-5 -3 10 0.25 0.25
4 3 -10 0.39 0.21
-4 -3 10 0.46 0.23
3 3 -10 19.45 1.05
-3 -3 10 20.33 1.18
2 3 -10 7.2 0.49
-2 -3 10 7.87 0.56
-1 -3 10 15.33 0.91
0 -3 10 37.94 2.05
0 -3 10 36.55 1.86
1 -3 10 1.83 0.35
1 -3 10 2.13 0.31
2 -3 10 5.71 0.51
2 -3 10 5.42 0.43
3 -3 10 19.93 1.05
3 -3 10 19.47 1.17
4 -3 10 4.03 0.51
4 -3 10 4.22 0.43
5 -3 10 -0.21 0.29
5 -3 10 -0.06 0.27
6 -3 10 1.08 0.32
6 -3 10 0.63 0.36
7 -3 10 13.74 0.96
7 -3 10 15.3 1.1
8 -3 10 2.53 0.5
8 -3 10 2.92 0.54
9 -3 10 1 0.53
9 -3 10 1.49 0.52
10 -3 10 1.55 0.61
10 -3 10 1.3 0.58
11 2 -10 7.48 1.01
-11 -2 10 6.67 1.06
10 2 -10 -0.25 0.53
-10 -2 10 0.56 0.53
9 2 -10 0.61 0.48
-9 -2 10 1.78 0.52
8 2 -10 10.97 0.88
-8 -2 10 11.63 0.97
7 2 -10 1.6 0.39
-7 -2 10 1.24 0.39
6 2 -10 5.85 0.56
-6 -2 10 6.28 0.63
5 2 -10 15.24 0.89
-5 -2 10 15.38 1
4 2 -10 0.05 0.17
4 2 -10 -0.16 0.19
-4 -2 10 -0.05 0.21
3 2 -10 3.48 0.34
-3 -2 10 3.67 0.42
2 2 -10 0 0.16
-2 -2 10 0.1 0.17
-1 -2 10 4.57 0.42
0 -2 10 81.16 4.37
0 -2 10 82.96 3.99
1 -2 10 6.25 0.43
1 -2 10 6.17 0.53
2 -2 10 1 0.21
2 -2 10 1.11 0.25
3 -2 10 0.14 0.25
3 -2 10 0.05 0.2
4 -2 10 1.24 0.26
4 -2 10 1.38 0.32
5 -2 10 23.96 1.29
5 -2 10 23.71 1.44
6 -2 10 80.74 4.34
6 -2 10 79.32 3.95
7 -2 10 0.47 0.39
7 -2 10 0.29 0.43
8 -2 10 5.75 0.74
8 -2 10 5.98 0.87
9 -2 10 4.42 0.86
9 -2 10 1.58 0.54
10 -2 10 2.5 0.65
10 -2 10 1.47 0.58
11 1 -10 0.09 0.6
-11 -1 10 -0.46 0.55
10 1 -10 9.37 0.97
-10 -1 10 9.26 1
9 1 -10 3.61 0.59
-9 -1 10 4.33 0.76
8 1 -10 3.12 0.48
8 1 -10 2.57 0.41
-8 -1 10 2.92 0.49
7 1 -10 3.9 0.57
7 1 -10 3.96 0.51
-7 -1 10 5.13 0.64
6 1 -10 10.61 0.66
6 1 -10 10.22 0.71
-6 -1 10 10.26 0.8
5 1 -10 0.43 0.22
5 1 -10 0.56 0.25
-5 -1 10 0.06 0.25
4 1 -10 32.37 1.66
4 1 -10 32.21 1.56
-4 -1 10 33.5 1.84
3 1 -10 5.48 0.39
3 1 -10 5.25 0.39
-3 -1 10 5.24 0.48
2 1 -10 52.81 2.44
2 1 -10 51.76 2.59
-2 -1 10 53.63 2.83
1 1 -10 13.54 0.72
-1 -1 10 14.76 0.89
0 -1 10 5.88 0.42
0 -1 10 6.41 0.51
1 -1 10 3.8 0.45
1 -1 10 3.79 0.34
2 -1 10 13.04 0.71
2 -1 10 12.07 0.83
3 -1 10 -0.04 0.25
3 -1 10 0.34 0.21
4 -1 10 53.94 3.01
4 -1 10 55.88 2.73
5 -1 10 34.28 1.75
5 -1 10 33.2 1.95
6 -1 10 0.15 0.34
6 -1 10 0.08 0.39
7 -1 10 0.13 0.39
7 -1 10 0.09 0.45
8 -1 10 1.44 0.54
8 -1 10 1.06 0.48
9 -1 10 0.28 0.57
9 -1 10 0.07 0.51
10 -1 10 40.6 2.39
10 -1 10 33.81 2.12
11 0 -10 -0.04 0.61
-11 0 10 0.35 0.57
10 0 -10 8.59 0.92
-10 0 10 7.43 0.96
9 0 -10 10.43 0.88
9 0 -10 6.91 0.6
-9 0 10 11.44 0.94
8 0 -10 0.26 0.39
8 0 -10 0.09 0.29
-8 0 10 0.49 0.4
7 0 -10 20.27 1.04
7 0 -10 18.93 1.13
-7 0 10 18.72 1.26
6 0 -10 5.04 0.52
6 0 -10 5.93 0.48
-6 0 10 5.33 0.61
5 0 -10 1.05 0.23
5 0 -10 1.08 0.25
-5 0 10 0.44 0.27
4 0 -10 34.58 1.59
4 0 -10 32.11 1.68
-4 0 10 33.11 1.87
3 0 -10 69.55 3.46
3 0 -10 72.79 3.25
-3 0 10 70.82 3.79
2 0 -10 4.79 0.37
2 0 -10 4.26 0.34
-2 0 10 5.52 0.46
1 0 -10 1.42 0.23
-1 0 10 1.06 0.27
-1 0 10 1.26 0.19
-1 0 10 1.57 0.26
0 0 -10 -0.03 0.14
0 0 10 -0.17 0.2
0 0 10 0.01 0.16
0 0 10 -0.12 0.13
-1 0 -10 1.85 0.25
1 0 10 1.7 0.3
1 0 10 1.85 0.27
2 0 10 59.99 3.25
2 0 10 60.4 2.94
3 0 10 75.71 3.48
3 0 10 72.5 3.84
3 0 10 65.82 3.24
4 0 10 1.53 0.37
4 0 10 1.49 0.28
5 0 10 0.26 0.35
5 0 10 0.21 0.31
6 0 10 1.65 0.39
6 0 10 1.65 0.47
7 0 10 2.45 0.48
7 0 10 4.14 0.79
8 0 10 3.28 0.65
8 0 10 3.32 0.56
9 0 10 12.01 1.05
9 0 10 12.73 1.24
10 0 10 1.93 0.7
10 0 10 2.12 0.67
11 -1 -10 11.95 1.16
-11 1 10 10.95 1.18
10 -1 -10 1.24 0.28
-10 1 10 2.09 0.56
9 -1 -10 0.45 0.45
9 -1 -10 0.36 0.26
-9 1 10 0.09 0.45
8 -1 -10 11.92 0.9
8 -1 -10 13.4 0.8
-8 1 10 12.76 1.02
7 -1 -10 5.5 0.58
7 -1 -10 4.89 0.52
-7 1 10 5.27 0.69
6 -1 -10 0.24 0.24
6 -1 -10 0.27 0.27
-6 1 10 0.16 0.3
5 -1 -10 21.39 1.13
5 -1 -10 20.14 1.06
-5 1 10 21.52 1.28
4 -1 -10 11.62 0.64
4 -1 -10 10.82 0.66
-4 1 10 11.47 0.77
3 -1 -10 2.25 0.28
3 -1 -10 2.19 0.27
-3 1 10 1.97 0.37
2 -1 -10 9.15 0.53
2 -1 -10 9.26 0.55
-2 1 10 9.59 0.69
-2 1 10 9.53 0.55
1 -1 -10 18.17 0.93
-1 1 10 19.51 0.98
-1 1 10 19.23 0.98
-1 1 10 19.07 1.13
0 -1 -10 0.23 0.14
0 1 10 0.27 0.23
-1 -1 -10 40.54 1.79
1 1 10 35.74 2.12
-2 -1 -10 45.4 2.38
2 1 10 49.4 2.68
2 1 10 51.9 2.4
3 1 10 0.96 0.23
3 1 10 1.1 0.33
4 1 10 20.88 1.1
4 1 10 18.84 1.28
5 1 10 0.89 0.32
5 1 10 0.39 0.39
6 1 10 1.7 0.42
6 1 10 2.47 0.52
7 1 10 7.42 0.77
7 1 10 8.12 0.96
8 1 10 2.74 0.66
8 1 10 2.81 0.57
9 1 10 3.48 0.74
9 1 10 2.53 0.65
10 1 10 0.84 0.64
10 1 10 1.18 0.72
11 -2 -10 0.32 0.6
-11 2 10 0.14 0.52
10 -2 -10 0.33 0.24
10 -2 -10 0.15 0.52
-10 2 10 -0.13 0.5
9 -2 -10 5.67 0.74
9 -2 -10 5.32 0.58
-9 2 10 4.71 0.8
8 -2 -10 5.24 0.65
8 -2 -10 4.52 0.53
-8 2 10 4.36 0.74
7 -2 -10 17.95 1.04
7 -2 -10 17.29 0.97
-7 2 10 17.54 1.2
6 -2 -10 13.7 0.83
6 -2 -10 13.26 0.78
-6 2 10 14.09 0.97
5 -2 -10 14.43 0.8
5 -2 -10 14.51 0.84
-5 2 10 15.31 0.97
4 -2 -10 5.5 0.42
4 -2 -10 4.69 0.4
-4 2 10 5.91 0.52
3 -2 -10 6.95 0.45
3 -2 -10 6.94 0.44
-3 2 10 7.05 0.6
2 -2 -10 6.46 0.43
-2 2 10 6.75 0.58
1 -2 -10 5.77 0.4
-1 2 10 6.99 0.56
0 -2 -10 1.45 0.25
0 2 10 1.65 0.31
-1 -2 -10 10.45 0.56
1 2 10 10.17 0.76
2 2 10 1.45 0.34
3 2 10 4.48 0.37
3 2 10 4.72 0.62
4 2 10 4.24 0.41
4 2 10 4.95 0.66
5 2 10 0.08 0.24
5 2 10 -0.29 0.38
6 2 10 0.34 0.48
6 2 10 0.04 0.27
7 2 10 16.75 1.25
7 2 10 11.72 0.89
8 2 10 0.72 0.61
8 2 10 -0.16 0.38
9 2 10 4.54 0.81
10 -3 -10 3.35 0.59
10 -3 -10 2.86 0.47
-10 3 10 2.85 0.52
9 -3 -10 2.55 0.4
9 -3 -10 2.32 0.52
-9 3 10 2.47 0.53
8 -3 -10 0.09 0.31
8 -3 -10 0.27 0.4
-8 3 10 0.27 0.41
7 -3 -10 0.23 0.28
7 -3 -10 0.3 0.33
-7 3 10 0.09 0.37
6 -3 -10 0.78 0.28
6 -3 -10 0.6 0.26
-6 3 10 0.74 0.33
5 -3 -10 1.83 0.27
5 -3 -10 2.27 0.29
-5 3 10 2.73 0.47
4 -3 -10 4.07 0.35
4 -3 -10 3.86 0.38
-4 3 10 3.54 0.51
3 -3 -10 0.27 0.18
-3 3 10 -0.1 0.27
2 -3 -10 -0.24 0.16
-2 3 10 -0.1 0.24
1 -3 -10 9.5 0.54
-1 3 10 9.08 0.72
0 -3 -10 0.37 0.16
0 3 10 0.23 0.27
-1 -3 -10 28.64 1.33
1 3 10 27.26 1.64
-2 -3 -10 5.7 0.38
2 3 10 5.32 0.63
3 3 10 2 0.42
4 3 10 8.67 0.81
4 3 10 6.75 0.5
5 3 10 17.81 1.18
5 3 10 13.03 0.84
6 3 10 12.51 1.09
6 3 10 9.26 0.71
7 3 10 1.52 0.38
7 3 10 3.09 0.69
8 3 10 0.58 0.65
8 3 10 0.09 0.35
9 3 10 0.63 0.69
10 -4 -10 0.27 0.34
-10 4 10 -0.17 0.34
9 -4 -10 0.99 0.46
9 -4 -10 0.94 0.36
-9 4 10 0.66 0.36
8 -4 -10 6.27 0.67
8 -4 -10 5.43 0.55
-8 4 10 5.7 0.73
7 -4 -10 9.65 0.72
7 -4 -10 8.16 0.65
-7 4 10 10.37 0.82
6 -4 -10 6.92 0.56
6 -4 -10 7.89 0.58
-6 4 10 8.12 0.71
5 -4 -10 2.24 0.3
5 -4 -10 2.27 0.35
-5 4 10 2.13 0.39
4 -4 -10 2.93 0.35
-4 4 10 2.92 0.43
3 -4 -10 30.63 1.51
-3 4 10 32.97 1.81
2 -4 -10 29.52 1.43
-2 4 10 30.07 1.72
1 -4 -10 -0.49 0.17
-1 4 10 -0.14 0.28
0 -4 -10 10.41 0.57
0 4 10 9.55 0.78
-1 -4 -10 17.88 0.87
1 4 10 16.59 1.14
-2 -4 -10 21.61 1.03
2 4 10 20.88 1.37
3 4 10 15.86 1.14
4 4 10 20.36 1.39
5 4 10 0.22 0.47
6 4 10 3.72 0.67
7 4 10 0.38 0.61
8 4 10 2.37 0.72
11 -5 -10 2.01 0.36
10 -5 -10 9.93 0.74
-10 5 10 7.93 0.81
9 -5 -10 0.27 0.44
9 -5 -10 -0.19 0.31
-9 5 10 -0.6 0.29
8 -5 -10 6.94 0.59
-8 5 10 6.15 0.64
7 -5 -10 2.02 0.33
7 -5 -10 2.48 0.38
-7 5 10 2.3 0.41
6 -5 -10 1.79 0.3
6 -5 -10 1.91 0.3
-6 5 10 2.01 0.42
5 -5 -10 2.07 0.36
5 -5 -10 2.38 0.34
-5 5 10 1.19 0.39
4 -5 -10 83.47 3.93
-4 5 10 88.62 4.61
3 -5 -10 10.89 0.63
-3 5 10 11.07 0.84
2 -5 -10 22.72 1.11
-2 5 10 22.08 1.38
1 -5 -10 4.8 0.39
-1 5 10 4.93 0.6
0 -5 -10 7.07 0.46
0 5 10 6.85 0.69
-1 -5 -10 0.53 0.19
1 5 10 0.76 0.36
-2 -5 -10 54.64 2.45
2 5 10 51.41 2.98
3 5 10 38.19 2.25
4 5 10 10.84 1.01
5 5 10 1.29 0.55
6 5 10 0.07 0.57
7 5 10 -0.27 0.61
8 5 10 0.06 0.68
11 -6 -10 2.37 0.46
10 -6 -10 -0.1 0.35
9 -6 -10 3.87 0.54
8 -6 -10 1.01 0.39
8 -6 -10 0.69 0.32
-8 6 10 1.23 0.34
7 -6 -10 0.73 0.3
7 -6 -10 0.64 0.34
-7 6 10 0.98 0.33
6 -6 -10 12.35 0.75
6 -6 -10 14.4 0.78
-6 6 10 11.08 0.95
5 -6 -10 39.38 2
-5 6 10 45.41 2.39
4 -6 -10 1.89 0.27
-4 6 10 1.89 0.41
3 -6 -10 5.6 0.44
-3 6 10 5.45 0.67
2 -6 -10 0.09 0.19
-2 6 10 0.11 0.35
1 -6 -10 3.24 0.35
-1 6 10 3 0.59
0 -6 -10 10.18 0.58
0 6 10 9.28 0.85
-1 -6 -10 21.36 1.02
1 6 10 19.12 1.36
-2 -6 -10 0.46 0.19
2 6 10 0.36 0.42
3 6 10 0.62 0.45
4 6 10 1.53 0.53
5 6 10 0.48 0.56
6 6 10 -0.13 0.6
7 6 10 3.01 0.75
11 -7 -10 0.34 0.37
10 -7 -10 0.39 0.39
9 -7 -10 -0.13 0.32
9 -7 -10 -0.48 0.42
8 -7 -10 1.01 0.35
8 -7 -10 1.68 0.41
7 -7 -10 7.01 0.58
7 -7 -10 8.9 0.65
-7 7 10 5.38 0.66
6 -7 -10 0.17 0.26
-6 7 10 -0.17 0.29
5 -7 -10 -0.16 0.23
-5 7 10 0.28 0.33
4 -7 -10 2.91 0.39
-4 7 10 3.86 0.64
3 -7 -10 11.77 0.68
-3 7 10 11.46 0.94
2 -7 -10 0.2 0.21
-2 7 10 0.24 0.37
1 -7 -10 13.95 0.74
-1 7 10 13.12 1.04
0 -7 -10 -0.3 0.19
0 7 10 0.21 0.4
-1 -7 -10 3.66 0.37
1 7 10 3.35 0.55
-2 -7 -10 0.43 0.2
2 7 10 0.77 0.45
3 7 10 4.24 0.83
4 7 10 6.31 0.97
5 7 10 -0.15 0.56
6 7 10 1.07 0.67
7 7 10 2.37 0.74
11 -8 -10 1.2 0.43
10 -8 -10 0.23 0.37
9 -8 -10 1.01 0.44
9 -8 -10 0.6 0.37
8 -8 -10 13.33 0.87
8 -8 -10 10.01 0.77
7 -8 -10 1.25 0.34
7 -8 -10 1.1 0.32
6 -8 -10 0.51 0.28
-6 8 10 -0.27 0.29
5 -8 -10 1.67 0.3
-5 8 10 1.22 0.36
4 -8 -10 10.75 0.65
-4 8 10 9.52 0.85
3 -8 -10 25.77 1.28
-3 8 10 25.35 1.6
2 -8 -10 0.34 0.22
-2 8 10 0.35 0.43
1 -8 -10 12.15 0.68
-1 8 10 11.73 1.01
0 -8 -10 1.74 0.26
0 8 10 2.12 0.5
-1 -8 -10 15.02 0.78
1 8 10 13.03 1.15
-2 -8 -10 -0.1 0.2
2 8 10 0.02 0.49
3 8 10 5.81 0.97
4 8 10 2.52 0.68
5 8 10 2.11 0.7
6 8 10 2.22 0.75
10 -9 -10 -0.34 0.37
9 -9 -10 1.97 0.41
8 -9 -10 0.22 0.33
7 -9 -10 7.08 0.61
6 -9 -10 0.08 0.28
5 -9 -10 3.46 0.46
-5 9 10 2.38 0.43
4 -9 -10 1.42 0.29
-4 9 10 0.64 0.34
3 -9 -10 13.76 0.77
-3 9 10 12.26 1.02
2 -9 -10 0.39 0.24
-2 9 10 0.48 0.46
1 -9 -10 1.22 0.25
-1 9 10 1.03 0.48
0 -9 -10 3.56 0.39
0 9 10 3.41 0.6
-1 -9 -10 21.14 1.06
1 9 10 20.13 1.49
-2 -9 -10 0.3 0.22
2 9 10 0.5 0.55
3 9 10 2.99 0.68
4 9 10 11.19 1.26
5 9 10 -0.11 0.64
6 9 10 1.59 0.75
10 -10 -10 -0.44 0.38
9 -10 -10 1.25 0.45
8 -10 -10 1.65 0.41
7 -10 -10 1.98 0.37
6 -10 -10 10.67 0.74
5 -10 -10 2.24 0.35
4 -10 -10 17.95 0.89
-4 10 10 12.54 1.05
3 -10 -10 0.7 0.28
-3 10 10 0.88 0.37
2 -10 -10 3.56 0.43
-2 10 10 3.73 0.6
1 -10 -10 0.32 0.24
-1 10 10 0.24 0.5
0 -10 -10 7.1 0.53
0 10 10 8.58 0.97
-1 -10 -10 2.44 0.39
1 10 10 2.01 0.61
2 10 10 9.18 1.15
3 10 10 0.03 0.62
4 10 10 0.16 0.66
5 10 10 0.76 0.72
9 -11 -10 -0.48 0.41
8 -11 -10 1.5 0.42
7 -11 -10 2.79 0.42
6 -11 -10 0.24 0.32
5 -11 -10 0.91 0.34
4 -11 -10 1.24 0.32
3 -11 -10 0.37 0.29
-3 11 10 0.73 0.36
2 -11 -10 5.71 0.5
-2 11 10 4.12 0.69
1 -11 -10 1.03 0.29
-1 11 10 1.2 0.54
0 -11 -10 1.93 0.31
0 11 10 2.84 0.64
-1 -11 -10 0.19 0.26
1 11 10 0.6 0.6
2 11 10 0.95 0.67
3 11 10 1.22 0.71
4 11 10 1.53 0.76
9 -12 -10 0.92 0.46
8 -12 -10 -0.08 0.41
7 -12 -10 0.91 0.41
6 -12 -10 2.01 0.39
5 -12 -10 4.16 0.55
4 -12 -10 2.36 0.38
3 -12 -10 0.31 0.3
2 -12 -10 0.51 0.3
-2 12 10 0.52 0.4
1 -12 -10 0.78 0.29
-1 12 10 0.34 0.45
0 -12 -10 0.97 0.3
0 12 10 0.77 0.62
1 12 10 1.1 0.68
2 12 10 0.59 0.7
3 12 10 0.28 0.71
7 -13 -10 0.81 0.4
6 -13 -10 2.41 0.44
5 -13 -10 0.98 0.37
4 -13 -10 -0.01 0.33
3 -13 -10 3.94 0.53
2 -13 -10 0.77 0.32
-2 13 10 0.79 0.42
1 -13 -10 14.58 0.82
-1 13 10 10.65 1.1
0 -13 -10 1.1 0.34
0 13 10 1.53 0.68
1 13 10 1 0.72
2 13 10 1.21 0.76
6 -14 -10 0.42 0.4
5 -14 -10 1.23 0.44
4 -14 -10 2.53 0.42
3 -14 -10 -0.19 0.33
2 -14 -10 0.68 0.35
1 -14 -10 2.27 0.38
0 14 10 1.04 0.57
4 -15 -10 0.3 0.4
3 -15 -10 0.37 0.37
2 -15 -10 0.55 0.36
0 -19 11 0.62 0.4
1 -19 11 0.61 0.49
1 -19 11 0.33 0.4
2 -19 11 0.39 0.46
2 -19 11 0.3 0.44
3 -19 11 2.65 0.53
3 -19 11 3.62 0.57
4 -19 11 1.09 0.51
4 -19 11 1.17 0.49
5 -19 11 7.55 0.9
-1 -18 11 1.6 0.41
-1 -18 11 2.09 0.51
0 -18 11 0.07 0.42
0 -18 11 0.21 0.37
1 -18 11 1.96 0.48
1 -18 11 2.27 0.45
2 -18 11 0.45 0.41
2 -18 11 0.81 0.46
3 -18 11 9.27 0.85
3 -18 11 9.28 0.89
4 -18 11 10.09 0.98
4 -18 11 10.89 0.89
5 -18 11 1.05 0.5
5 -18 11 1.7 0.49
6 -18 11 0.08 0.44
6 -18 11 0.78 0.51
7 -18 11 0.14 0.57
-3 -17 11 1.89 0.52
-3 -17 11 1.43 0.5
-3 -17 11 2 0.42
-2 -17 11 0.49 0.45
-2 -17 11 0.81 0.45
-2 -17 11 0.03 0.35
-1 -17 11 8.69 0.89
-1 -17 11 8.75 0.77
0 -17 11 2.35 0.44
0 -17 11 2.61 0.48
1 -17 11 1.31 0.41
1 -17 11 0.72 0.4
2 -17 11 17.77 1.14
2 -17 11 19.82 1.21
3 -17 11 0.49 0.43
3 -17 11 0.67 0.41
4 -17 11 2.4 0.48
4 -17 11 2.96 0.51
5 -17 11 2.61 0.49
5 -17 11 2.97 0.52
6 -17 11 1.07 0.45
6 -17 11 1.99 0.54
7 -17 11 4.44 0.74
7 -17 11 5.29 0.86
8 -17 11 5.95 0.8
8 -17 11 6.2 1
-4 -16 11 0.31 0.44
-4 -16 11 1.06 0.5
-3 -16 11 0.02 0.42
-3 -16 11 0.39 0.34
-3 -16 11 0.37 0.41
-2 -16 11 0.35 0.39
-2 -16 11 0.83 0.44
-2 -16 11 0.31 0.32
-1 -16 11 0.24 0.36
-1 -16 11 0.09 0.39
-1 -16 11 0.12 0.32
0 -16 11 29.77 1.55
0 -16 11 28.7 1.66
1 -16 11 2.5 0.43
1 -16 11 1.85 0.41
2 -16 11 0.44 0.37
2 -16 11 0.13 0.38
3 -16 11 0.05 0.36
3 -16 11 0.2 0.4
4 -16 11 7.29 0.75
4 -16 11 8.69 0.81
5 -16 11 2.69 0.46
5 -16 11 1.87 0.49
6 -16 11 2.13 0.47
6 -16 11 3.33 0.54
7 -16 11 2.16 0.55
7 -16 11 1.33 0.46
8 -16 11 1.79 0.59
8 -16 11 1.94 0.5
-5 -15 11 0.58 0.47
-4 -15 11 0.03 0.42
-4 -15 11 0.18 0.31
-4 -15 11 0.32 0.47
-3 -15 11 1.07 0.43
-3 -15 11 1.29 0.44
-3 -15 11 1.27 0.34
-2 -15 11 0.35 0.39
-2 -15 11 0.64 0.36
-2 -15 11 0.44 0.31
-1 -15 11 4.99 0.63
-1 -15 11 5.5 0.72
-1 -15 11 5.2 0.6
0 -15 11 0.77 0.33
0 -15 11 0.3 0.38
0 -15 11 0.14 0.28
1 -15 11 0.09 0.32
1 -15 11 0.15 0.33
2 -15 11 0.41 0.34
2 -15 11 1.04 0.38
3 -15 11 2.67 0.43
3 -15 11 1.89 0.41
4 -15 11 1.68 0.44
4 -15 11 2.18 0.41
5 -15 11 2.02 0.47
5 -15 11 1.32 0.41
6 -15 11 0.09 0.45
6 -15 11 0.49 0.39
7 -15 11 0.85 0.5
7 -15 11 -0.31 0.39
8 -15 11 2.63 0.59
8 -15 11 1.79 0.47
9 -15 11 0.85 0.48
9 -15 11 2.34 0.62
6 14 -11 3.25 0.54
-6 -14 11 4.37 0.86
-5 -14 11 1.51 0.52
-4 -14 11 2.59 0.5
-3 -14 11 2.61 0.49
-3 -14 11 2.12 0.44
-2 -14 11 0.4 0.33
-2 -14 11 0.22 0.36
-1 -14 11 6.91 0.67
-1 -14 11 7.1 0.73
0 -14 11 0.21 0.27
0 -14 11 0.21 0.35
1 -14 11 0.32 0.35
2 -14 11 6.92 0.68
2 -14 11 6.45 0.64
3 -14 11 1 0.38
3 -14 11 0.35 0.33
4 -14 11 2.27 0.44
4 -14 11 2.38 0.4
5 -14 11 4.37 0.66
5 -14 11 3.43 0.58
6 -14 11 1.57 0.46
6 -14 11 2.13 0.42
7 -14 11 1.5 0.5
7 -14 11 1.24 0.42
8 -14 11 5.8 0.85
8 -14 11 5.6 0.71
9 -14 11 1.4 0.59
9 -14 11 0.9 0.44
6 13 -11 2.82 0.49
-6 -13 11 4.34 0.84
5 13 -11 2.69 0.47
-5 -13 11 4.07 0.75
-4 -13 11 0.55 0.38
-3 -13 11 8.6 0.81
-2 -13 11 6.32 0.66
-2 -13 11 6.26 0.69
-1 -13 11 1.57 0.38
-1 -13 11 1.89 0.33
0 -13 11 9.49 0.72
0 -13 11 10.14 0.79
1 -13 11 0.73 0.26
1 -13 11 1.42 0.36
2 -13 11 0.62 0.33
3 -13 11 28.24 1.42
3 -13 11 26.2 1.5
4 -13 11 -0.02 0.36
4 -13 11 0.23 0.32
5 -13 11 9.21 0.77
5 -13 11 9.11 0.73
6 -13 11 1.36 0.39
6 -13 11 1.11 0.44
7 -13 11 11.89 0.97
7 -13 11 11.82 0.83
8 -13 11 4.64 0.65
8 -13 11 4.52 0.8
9 -13 11 4.99 0.7
9 -13 11 6.99 0.92
10 -13 11 0.35 0.61
7 12 -11 -0.09 0.39
-7 -12 11 0.78 0.52
6 12 -11 0.41 0.39
-6 -12 11 -0.07 0.42
5 12 -11 20.6 1.31
-5 -12 11 22.33 1.46
4 12 -11 4.94 0.65
-4 -12 11 6.55 0.74
-3 -12 11 1.6 0.38
-2 -12 11 0.74 0.36
-2 -12 11 0.48 0.3
-1 -12 11 0.52 0.26
-1 -12 11 0.53 0.31
0 -12 11 27.74 1.63
0 -12 11 29.59 1.57
1 -12 11 26.32 1.5
1 -12 11 26 1.45
2 -12 11 16.66 1.01
3 -12 11 15.67 0.98
4 -12 11 1.53 0.38
4 -12 11 1.33 0.34
5 -12 11 3.12 0.52
5 -12 11 2.55 0.42
6 -12 11 0.36 0.34
6 -12 11 0.26 0.41
7 -12 11 24.18 1.45
7 -12 11 24.49 1.31
8 -12 11 10.35 0.94
8 -12 11 10.49 0.79
9 -12 11 2.19 0.36
9 -12 11 2.32 0.58
10 -12 11 3.67 0.69
8 11 -11 2.47 0.53
-8 -11 11 3.05 0.69
7 11 -11 13.94 1.05
-7 -11 11 13.77 1.22
6 11 -11 18.69 1.2
-6 -11 11 19.25 1.37
5 11 -11 2.12 0.43
-5 -11 11 2.45 0.46
4 11 -11 7.69 0.7
-4 -11 11 7.68 0.78
-3 -11 11 1.45 0.36
-2 -11 11 4.46 0.62
-2 -11 11 4.14 0.55
-1 -11 11 26.47 1.47
-1 -11 11 27.01 1.55
0 -11 11 52.78 2.64
0 -11 11 51.19 2.81
1 -11 11 0.02 0.22
1 -11 11 -0.12 0.29
2 -11 11 1.14 0.3
3 -11 11 1.92 0.35
4 -11 11 3.35 0.55
5 -11 11 2.5 0.41
5 -11 11 3.01 0.4
6 -11 11 16.06 1.09
6 -11 11 18.02 0.99
7 -11 11 0.16 0.33
7 -11 11 0.88 0.44
8 -11 11 3.71 0.57
8 -11 11 4.29 0.58
9 -11 11 0.65 0.28
9 -11 11 1.35 0.55
10 -11 11 0.49 0.61
8 10 -11 11.62 0.99
-8 -10 11 10.88 1.16
7 10 -11 6.89 0.79
-7 -10 11 8.85 0.95
6 10 -11 5.95 0.69
-6 -10 11 5.87 0.79
5 10 -11 0.21 0.32
-5 -10 11 0.41 0.36
4 10 -11 2.99 0.54
-4 -10 11 3.2 0.58
3 10 -11 0.29 0.28
-3 -10 11 -0.01 0.28
-2 -10 11 4.01 0.52
-1 -10 11 10.17 0.72
-1 -10 11 9.67 0.72
0 -10 11 8.82 0.66
0 -10 11 9.52 0.69
1 -10 11 2.82 0.4
1 -10 11 2.68 0.49
2 -10 11 7.87 0.62
3 -10 11 4.47 0.53
4 -10 11 0.04 0.31
5 -10 11 7.01 0.64
5 -10 11 6.81 0.58
6 -10 11 0.55 0.38
6 -10 11 0.58 0.32
7 -10 11 6.12 0.72
7 -10 11 5.65 0.58
8 -10 11 0.08 0.26
8 -10 11 0.46 0.45
9 -10 11 5.72 0.5
10 -10 11 4.52 0.71
9 9 -11 2.34 0.59
8 9 -11 1.01 0.46
-8 -9 11 0.38 0.5
7 9 -11 4.54 0.69
-7 -9 11 4.7 0.79
6 9 -11 0.74 0.37
-6 -9 11 1.01 0.41
5 9 -11 7.3 0.67
-5 -9 11 6.45 0.75
4 9 -11 0.97 0.31
-4 -9 11 0.93 0.33
3 9 -11 17.87 1.05
-3 -9 11 17.29 1.14
-2 -9 11 0.75 0.27
-1 -9 11 0.83 0.28
-1 -9 11 0.85 0.25
0 -9 11 3.92 0.44
0 -9 11 3.68 0.47
1 -9 11 25.87 1.38
1 -9 11 25.14 1.44
2 -9 11 20.33 1.13
2 -9 11 20.5 1.21
3 -9 11 3.37 0.48
4 -9 11 14.73 0.91
5 -9 11 2.14 0.37
6 -9 11 1.59 0.39
6 -9 11 1.28 0.32
7 -9 11 0.24 0.41
7 -9 11 0.32 0.3
8 -9 11 16.21 0.95
8 -9 11 21.08 1.21
9 -9 11 0.59 0.52
10 -9 11 3.12 0.66
9 8 -11 0 0.51
-9 -8 11 0.08 0.56
8 8 -11 4.97 0.76
-8 -8 11 5.59 0.89
7 8 -11 1.27 0.43
-7 -8 11 1.03 0.45
6 8 -11 3.33 0.59
-6 -8 11 4.11 0.67
5 8 -11 5.21 0.57
-5 -8 11 3.54 0.62
4 8 -11 17.36 1.02
-4 -8 11 17.12 1.13
3 8 -11 7.89 0.61
-3 -8 11 7.72 0.66
-2 -8 11 0.59 0.24
-1 -8 11 6.37 0.55
-1 -8 11 6.99 0.56
0 -8 11 9.8 0.66
0 -8 11 9.67 0.68
1 -8 11 17.73 1.04
1 -8 11 17.11 1
2 -8 11 4.68 0.47
2 -8 11 5.01 0.52
3 -8 11 4.85 0.5
3 -8 11 5.26 0.5
4 -8 11 16.68 0.97
5 -8 11 3.48 0.51
6 -8 11 9.59 0.64
6 -8 11 8.81 0.74
7 -8 11 6.72 0.51
7 -8 11 8.59 0.73
8 -8 11 4.52 0.42
8 -8 11 6.7 0.72
9 -8 11 7.03 0.86
10 -8 11 0.74 0.58
9 7 -11 2.18 0.55
-9 -7 11 1.35 0.6
8 7 -11 5.25 0.73
-8 -7 11 3.21 0.61
7 7 -11 14.97 1.03
-7 -7 11 14.14 1.13
6 7 -11 16.07 1.02
-6 -7 11 14.88 1.12
5 7 -11 0.31 0.29
-5 -7 11 0.37 0.32
4 7 -11 0.33 0.26
-4 -7 11 0.48 0.28
3 7 -11 36.6 1.93
-3 -7 11 38.35 2.1
2 7 -11 4.29 0.44
-2 -7 11 4.35 0.47
-1 -7 11 42.41 2.32
-1 -7 11 42.6 2.15
0 -7 11 33.31 1.85
0 -7 11 33.67 1.72
1 -7 11 24.11 1.32
1 -7 11 25.17 1.41
2 -7 11 -0.04 0.22
2 -7 11 -0.15 0.24
3 -7 11 21.26 1.16
3 -7 11 21.16 1.25
4 -7 11 0.58 0.27
4 -7 11 0.19 0.25
5 -7 11 54.76 2.98
5 -7 11 55.78 2.77
6 -7 11 0.28 0.3
6 -7 11 0.7 0.35
6 -7 11 0.36 0.26
7 -7 11 4.68 0.6
7 -7 11 4.43 0.62
7 -7 11 2.99 0.34
8 -7 11 1.07 0.4
8 -7 11 0.65 0.44
9 -7 11 11.68 1
10 -7 11 2.23 0.6
10 6 -11 0.37 0.58
-10 -6 11 0.06 0.6
9 6 -11 12.99 1.08
-9 -6 11 13.47 1.25
8 6 -11 4.22 0.74
-8 -6 11 4.5 0.82
7 6 -11 9.28 0.78
-7 -6 11 8.33 0.87
6 6 -11 17.7 1.09
-6 -6 11 17.12 1.19
5 6 -11 22.32 1.26
-5 -6 11 22.57 1.39
4 6 -11 6.94 0.56
-4 -6 11 7.54 0.65
3 6 -11 49.69 2.55
-3 -6 11 52.17 2.78
2 6 -11 11.1 0.69
-2 -6 11 10.84 0.75
-1 -6 11 4.12 0.45
-1 -6 11 4.05 0.43
0 -6 11 1.08 0.23
0 -6 11 0.68 0.22
1 -6 11 24.03 1.39
1 -6 11 24.4 1.29
2 -6 11 26.16 1.4
2 -6 11 27.48 1.53
3 -6 11 16.76 0.94
3 -6 11 16.2 1.02
4 -6 11 3.69 0.47
4 -6 11 3.37 0.45
5 -6 11 0.38 0.3
5 -6 11 0.31 0.28
6 -6 11 5.5 0.62
6 -6 11 5.81 0.62
7 -6 11 17.65 1.16
7 -6 11 16.77 1.08
8 -6 11 20.3 1.31
8 -6 11 22.11 1.4
9 -6 11 -0.28 0.44
9 -6 11 0.09 0.51
10 -6 11 0.42 0.53
10 5 -11 2.35 0.63
-10 -5 11 2.95 0.68
9 5 -11 5.79 0.84
-9 -5 11 5.18 0.89
8 5 -11 2.48 0.51
-8 -5 11 2.17 0.52
7 5 -11 5.35 0.65
-7 -5 11 4.96 0.71
6 5 -11 31.85 1.71
-6 -5 11 32.21 1.9
5 5 -11 9.54 0.69
-5 -5 11 9.77 0.78
4 5 -11 0.58 0.24
-4 -5 11 1.02 0.28
3 5 -11 26.97 1.43
-3 -5 11 27.79 1.57
2 5 -11 13.94 0.81
-2 -5 11 14.15 0.9
-1 -5 11 -0.21 0.2
-1 -5 11 0.13 0.2
0 -5 11 44.17 2.24
0 -5 11 45.59 2.43
1 -5 11 0.39 0.26
1 -5 11 0.95 0.24
2 -5 11 0.17 0.2
2 -5 11 0.08 0.24
3 -5 11 6.75 0.58
3 -5 11 6.83 0.53
4 -5 11 0.04 0.24
4 -5 11 0.04 0.27
5 -5 11 10.53 0.79
5 -5 11 9.75 0.71
6 -5 11 19.51 1.2
6 -5 11 17.82 1.1
7 -5 11 0.17 0.38
7 -5 11 0.39 0.37
8 -5 11 0.42 0.44
8 -5 11 0.01 0.43
9 -5 11 4.98 0.79
9 -5 11 5.57 0.84
10 -5 11 0.98 0.57
10 4 -11 5.99 0.93
-10 -4 11 6.31 0.99
9 4 -11 0.4 0.5
-9 -4 11 0.38 0.49
8 4 -11 8.69 0.85
-8 -4 11 10.11 0.94
7 4 -11 1.23 0.38
-7 -4 11 1.04 0.41
6 4 -11 0.01 0.3
-6 -4 11 0.35 0.32
5 4 -11 1.5 0.31
-5 -4 11 1.44 0.32
4 4 -11 0.13 0.22
-4 -4 11 -0.15 0.24
3 4 -11 1.76 0.33
-3 -4 11 2.09 0.4
2 4 -11 19.57 1.08
-2 -4 11 20.76 1.2
-1 -4 11 4.11 0.41
-1 -4 11 4.16 0.41
0 -4 11 25.78 1.47
0 -4 11 25.93 1.34
1 -4 11 7.38 0.6
1 -4 11 7.05 0.52
2 -4 11 3.7 0.39
2 -4 11 3.23 0.46
3 -4 11 1.41 0.3
3 -4 11 2.31 0.38
4 -4 11 24.14 1.33
4 -4 11 26.03 1.47
5 -4 11 7.06 0.67
5 -4 11 6.62 0.59
6 -4 11 0.17 0.33
6 -4 11 0.23 0.34
7 -4 11 5.82 0.66
7 -4 11 6.38 0.76
8 -4 11 18.12 1.28
8 -4 11 16.82 1.15
9 -4 11 3.22 0.58
9 -4 11 4.49 0.84
10 -4 11 1.97 0.61
10 -4 11 2.7 0.63
-11 -3 11 0.67 0.65
10 3 -11 2.16 0.6
-10 -3 11 1.67 0.6
9 3 -11 2.46 0.53
-9 -3 11 2.02 0.54
8 3 -11 -0.11 0.42
-8 -3 11 -0.15 0.4
7 3 -11 1.27 0.41
-7 -3 11 1.24 0.4
6 3 -11 11.94 0.79
-6 -3 11 10.58 0.86
5 3 -11 0.65 0.26
-5 -3 11 0.63 0.29
4 3 -11 0.44 0.22
-4 -3 11 0.62 0.25
3 3 -11 13.59 0.78
-3 -3 11 14.08 0.89
2 3 -11 0.42 0.19
-2 -3 11 0.48 0.22
-1 -3 11 3.35 0.39
-1 -3 11 4.12 0.41
0 -3 11 108.03 5.71
0 -3 11 107.67 5.23
1 -3 11 19.69 1.04
1 -3 11 19.62 1.17
2 -3 11 0.09 0.2
2 -3 11 -0.35 0.24
3 -3 11 3.18 0.38
3 -3 11 2.89 0.46
4 -3 11 20.47 1.24
4 -3 11 19.5 1.09
5 -3 11 0.79 0.35
5 -3 11 1.04 0.33
6 -3 11 18.1 1.09
6 -3 11 19.01 1.24
7 -3 11 9.41 0.81
7 -3 11 10.79 0.94
8 -3 11 -0.16 0.44
8 -3 11 0.19 0.48
9 -3 11 4.47 0.65
9 -3 11 4.73 0.89
10 -3 11 2.42 0.63
10 -3 11 2.42 0.67
11 2 -11 0.67 0.61
-11 -2 11 0.12 0.61
10 2 -11 4.45 0.81
-10 -2 11 2.71 0.63
9 2 -11 0.91 0.5
-9 -2 11 0.08 0.46
8 2 -11 52.62 2.67
-8 -2 11 50.24 2.91
7 2 -11 17.31 1.05
-7 -2 11 15.81 1.14
6 2 -11 0.13 0.28
-6 -2 11 0.49 0.33
5 2 -11 3.15 0.42
-5 -2 11 3.33 0.51
4 2 -11 0.38 0.21
-4 -2 11 0.07 0.24
3 2 -11 13.37 0.76
-3 -2 11 13.34 0.87
2 2 -11 81.24 3.91
-2 -2 11 78.77 4.25
-1 -2 11 40.1 2.01
-1 -2 11 40.42 2.21
0 -2 11 0.16 0.24
0 -2 11 0.07 0.2
1 -2 11 5.06 0.4
1 -2 11 4.13 0.49
2 -2 11 3.35 0.38
2 -2 11 3.45 0.46
3 -2 11 34.32 1.73
3 -2 11 34.06 1.93
4 -2 11 37.82 1.92
4 -2 11 37.7 2.14
5 -2 11 17.74 1.04
5 -2 11 18.15 1.19
6 -2 11 1.57 0.39
6 -2 11 1.65 0.45
7 -2 11 0.44 0.46
7 -2 11 0.58 0.42
8 -2 11 -0.61 0.5
8 -2 11 0.26 0.45
9 -2 11 19.11 1.41
9 -2 11 15.91 1.22
10 -2 11 4.17 0.69
10 -2 11 5.7 1.06
11 1 -11 0.31 0.61
-11 -1 11 0.02 0.59
10 1 -11 2.79 0.62
-10 -1 11 1.94 0.57
9 1 -11 12.02 1.01
-9 -1 11 12.96 1.08
8 1 -11 4.33 0.65
8 1 -11 3.11 0.44
-8 -1 11 3.95 0.7
7 1 -11 6.53 0.65
7 1 -11 7.14 0.6
-7 -1 11 5.8 0.73
6 1 -11 3.71 0.47
6 1 -11 3.86 0.53
-6 -1 11 3.55 0.58
5 1 -11 0.9 0.25
5 1 -11 0.72 0.25
-5 -1 11 0.69 0.3
4 1 -11 6.54 0.5
4 1 -11 7.07 0.48
-4 -1 11 6.85 0.6
3 1 -11 54.13 2.73
3 1 -11 56.11 2.57
-3 -1 11 56.17 3
2 1 -11 14.5 0.77
2 1 -11 14.91 0.82
-2 -1 11 14.67 0.91
1 1 -11 5.7 0.4
-1 -1 11 5.19 0.54
-1 -1 11 6.28 0.43
0 -1 11 7.53 0.5
0 -1 11 7.33 0.59
1 -1 11 11.04 0.8
1 -1 11 12.06 0.67
2 -1 11 3.77 0.36
2 -1 11 3.31 0.48
3 -1 11 9.55 0.61
3 -1 11 9.1 0.74
4 -1 11 0.92 0.35
4 -1 11 0.93 0.29
5 -1 11 1.24 0.4
5 -1 11 1.42 0.32
6 -1 11 0.75 0.43
6 -1 11 0.76 0.38
7 -1 11 16.79 1.28
7 -1 11 16.31 1.08
8 -1 11 2.38 0.54
8 -1 11 3.16 0.64
9 -1 11 1.06 0.54
9 -1 11 0 0.59
10 -1 11 0.24 0.65
10 -1 11 -0.41 0.59
11 0 -11 6.67 1.03
-11 0 11 6.34 1.07
10 0 -11 12.94 1.11
-10 0 11 12.22 1.19
9 0 -11 1.87 0.51
9 0 -11 1.83 0.33
-9 0 11 1.72 0.53
8 0 -11 0.19 0.4
8 0 -11 -0.04 0.31
-8 0 11 -0.07 0.41
7 0 -11 8.51 0.69
7 0 -11 8.12 0.62
-7 0 11 7.57 0.79
6 0 -11 8.77 0.59
6 0 -11 7.6 0.63
-6 0 11 8.2 0.75
5 0 -11 3.48 0.42
5 0 -11 3.21 0.4
-5 0 11 3.76 0.53
4 0 -11 5.6 0.42
4 0 -11 4.89 0.43
-4 0 11 4.86 0.52
3 0 -11 3.67 0.35
3 0 -11 4.05 0.36
-3 0 11 4.66 0.46
2 0 -11 1.6 0.26
2 0 -11 1.63 0.29
-2 0 11 1.27 0.29
1 0 -11 5.52 0.38
-1 0 11 5.44 0.4
-1 0 11 4.91 0.51
0 0 -11 6.59 0.46
0 0 11 7.55 0.61
0 0 11 8.44 0.49
1 0 11 0.13 0.18
1 0 11 -0.03 0.25
2 0 11 0.52 0.21
2 0 11 0.5 0.29
3 0 11 13.56 0.98
3 0 11 14.34 0.8
4 0 11 12.03 0.72
4 0 11 10.36 0.9
5 0 11 1.12 0.41
5 0 11 1.27 0.35
6 0 11 5.71 0.82
6 0 11 5.69 0.64
7 0 11 0.75 0.44
7 0 11 1.09 0.54
8 0 11 7.57 0.84
8 0 11 8.7 1.05
9 0 11 8.31 0.96
9 0 11 9.45 1.14
10 0 11 1.01 0.68
10 0 11 3.21 0.81
11 -1 -11 5.34 0.96
-11 1 11 5.56 0.99
10 -1 -11 0.32 0.27
-10 1 11 0.22 0.54
9 -1 -11 0.94 0.51
9 -1 -11 1 0.35
-9 1 11 1.72 0.52
8 -1 -11 2.98 0.49
8 -1 -11 2.08 0.46
-8 1 11 2.41 0.51
7 -1 -11 1.31 0.37
7 -1 -11 1.23 0.32
-7 1 11 1.41 0.42
6 -1 -11 19.15 1.09
6 -1 -11 19.61 1.03
-6 1 11 18.7 1.24
5 -1 -11 28.5 1.38
5 -1 -11 28.11 1.46
-5 1 11 27.24 1.63
4 -1 -11 15.86 0.88
4 -1 -11 16.27 0.85
-4 1 11 16.04 1.01
3 -1 -11 2.6 0.31
3 -1 -11 1.94 0.3
-3 1 11 2.36 0.43
2 -1 -11 2.1 0.28
2 -1 -11 1.85 0.29
-2 1 11 1.79 0.34
1 -1 -11 2.89 0.3
-1 1 11 3.1 0.31
-1 1 11 3.13 0.44
0 -1 -11 7.33 0.46
0 1 11 7.89 0.64
-1 -1 -11 72.09 3.13
1 1 11 63.94 3.67
2 1 11 6.92 0.67
2 1 11 7.74 0.49
3 1 11 0.43 0.34
3 1 11 0.39 0.23
4 1 11 0.44 0.38
4 1 11 0.36 0.25
5 1 11 0.58 0.3
5 1 11 0.88 0.43
6 1 11 0.08 0.31
6 1 11 0.15 0.47
7 1 11 25.67 1.67
7 1 11 22.22 1.35
8 1 11 22.77 1.55
8 1 11 16.5 1.2
9 1 11 -0.34 0.5
9 1 11 0.3 0.64
11 -2 -11 0.9 0.64
-11 2 11 0.91 0.57
10 -2 -11 1.45 0.31
-10 2 11 1.41 0.56
9 -2 -11 1.14 0.36
9 -2 -11 0.99 0.49
-9 2 11 1.4 0.5
8 -2 -11 -0.09 0.38
8 -2 -11 0.02 0.31
-8 2 11 0.19 0.43
7 -2 -11 22.12 1.19
7 -2 -11 23.35 1.29
-7 2 11 22.74 1.46
6 -2 -11 23.41 1.26
6 -2 -11 22.82 1.19
-6 2 11 23.18 1.43
5 -2 -11 -0.02 0.22
5 -2 -11 0.19 0.23
-5 2 11 -0.19 0.27
4 -2 -11 0.76 0.22
4 -2 -11 0.43 0.2
-4 2 11 0.81 0.29
3 -2 -11 0.13 0.18
3 -2 -11 -0.04 0.17
-3 2 11 -0.22 0.27
2 -2 -11 4.32 0.36
-2 2 11 4.69 0.52
1 -2 -11 29.08 1.42
-1 2 11 30.61 1.71
0 -2 -11 65.35 2.97
0 2 11 64.28 3.51
-1 -2 -11 2.05 0.28
1 2 11 1.83 0.36
2 2 11 4.7 0.61
3 2 11 0.02 0.35
4 2 11 10.99 0.71
4 2 11 14.06 1.01
5 2 11 6.68 0.83
5 2 11 5.4 0.49
6 2 11 10.83 0.74
7 2 11 1.11 0.37
7 2 11 2.1 0.62
8 2 11 0.62 0.39
8 2 11 1.11 0.66
9 2 11 0.66 0.73
10 -3 -11 1.03 0.38
-10 3 11 0.76 0.45
9 -3 -11 0.51 0.35
9 -3 -11 0.28 0.46
-9 3 11 -0.13 0.47
8 -3 -11 22.57 1.29
8 -3 -11 26 1.41
-8 3 11 24.98 1.59
7 -3 -11 6.09 0.61
7 -3 -11 5.03 0.54
-7 3 11 6.81 0.73
6 -3 -11 0.95 0.29
6 -3 -11 0.71 0.28
-6 3 11 0.97 0.35
5 -3 -11 0.37 0.24
5 -3 -11 0.19 0.23
-5 3 11 0.1 0.3
4 -3 -11 2.15 0.35
4 -3 -11 2.4 0.33
-4 3 11 2.24 0.39
3 -3 -11 4.27 0.38
-3 3 11 3.36 0.54
2 -3 -11 17.36 0.92
-2 3 11 19.03 1.14
1 -3 -11 13.19 0.72
-1 3 11 13.86 0.93
0 -3 -11 0.51 0.18
0 3 11 0.59 0.3
-1 -3 -11 10.49 0.56
1 3 11 8.82 0.79
-2 -3 -11 11.81 0.63
2 3 11 10.31 0.89
3 3 11 3.09 0.5
4 3 11 18.27 1.29
5 3 11 6.73 0.55
5 3 11 10.04 0.94
6 3 11 1.84 0.6
6 3 11 0.56 0.3
7 3 11 1.9 0.66
8 3 11 2.23 0.73
9 3 11 6.07 1.2
11 -4 -11 0.1 0.31
11 -4 -11 0.45 0.56
10 -4 -11 2.87 0.45
-10 4 11 2.25 0.47
9 -4 -11 14.72 0.96
9 -4 -11 11.46 0.79
-9 4 11 9.43 0.93
8 -4 -11 -0.34 0.31
8 -4 -11 -0.42 0.36
-8 4 11 -0.04 0.4
7 -4 -11 2.21 0.36
7 -4 -11 2.31 0.39
-7 4 11 2.37 0.44
6 -4 -11 1.12 0.3
6 -4 -11 1.35 0.3
-6 4 11 1.05 0.39
5 -4 -11 3.11 0.4
5 -4 -11 3 0.42
-5 4 11 3.12 0.6
4 -4 -11 6.61 0.52
-4 4 11 7.18 0.7
3 -4 -11 51.85 2.43
-3 4 11 52.4 2.87
2 -4 -11 -0.12 0.19
-2 4 11 0.04 0.31
1 -4 -11 0.47 0.2
-1 4 11 0.29 0.3
0 -4 -11 2.53 0.32
0 4 11 2.54 0.42
-1 -4 -11 16.12 0.8
1 4 11 14.48 1.09
-2 -4 -11 -0.18 0.17
2 4 11 -0.17 0.37
3 4 11 2.48 0.5
4 4 11 4.54 0.78
5 4 11 6.86 0.95
6 4 11 2.64 0.67
7 4 11 10.71 1.24
8 4 11 0.53 0.69
11 -5 -11 7.6 1
11 -5 -11 5.62 0.71
10 -5 -11 0.61 0.37
9 -5 -11 1.55 0.38
9 -5 -11 2.84 0.49
-9 5 11 0.77 0.36
8 -5 -11 3.22 0.49
8 -5 -11 3.59 0.61
-8 5 11 2.35 0.43
7 -5 -11 4.79 0.58
7 -5 -11 4.38 0.52
-7 5 11 5.19 0.69
6 -5 -11 0.25 0.27
6 -5 -11 -0.16 0.27
-6 5 11 0.25 0.4
5 -5 -11 3.42 0.43
-5 5 11 4.11 0.66
4 -5 -11 0.16 0.23
-4 5 11 0.34 0.34
3 -5 -11 35.46 1.74
-3 5 11 37.65 2.1
2 -5 -11 2.21 0.36
-2 5 11 2.88 0.58
1 -5 -11 7.32 0.5
-1 5 11 7.18 0.72
0 -5 -11 9.31 0.54
0 5 11 7.33 0.79
-1 -5 -11 4.42 0.38
1 5 11 3.89 0.69
-2 -5 -11 0.57 0.19
2 5 11 0.27 0.41
3 5 11 -0.11 0.43
4 5 11 0.66 0.49
5 5 11 2.08 0.62
6 5 11 7.89 1.11
7 5 11 0.44 0.67
8 5 11 2.44 0.8
11 -6 -11 0.7 0.39
10 -6 -11 0.32 0.37
10 -6 -11 0.22 0.5
9 -6 -11 -0.15 0.33
9 -6 -11 0.2 0.44
-9 6 11 0 0.39
8 -6 -11 0.48 0.39
8 -6 -11 0.45 0.33
-8 6 11 1.11 0.34
7 -6 -11 0.23 0.33
7 -6 -11 -0.17 0.29
-7 6 11 0.81 0.34
6 -6 -11 1.25 0.3
6 -6 -11 1.42 0.29
-6 6 11 0.4 0.38
5 -6 -11 7.46 0.57
-5 6 11 8.91 0.8
4 -6 -11 8.52 0.59
-4 6 11 9.47 0.83
3 -6 -11 2.35 0.3
-3 6 11 2.3 0.46
2 -6 -11 2.71 0.37
-2 6 11 3.44 0.65
1 -6 -11 0.15 0.22
-1 6 11 0.12 0.38
0 -6 -11 20.13 0.98
0 6 11 17.57 1.29
-1 -6 -11 45.05 2.02
1 6 11 40.51 2.5
-2 -6 -11 0.59 0.21
2 6 11 0.95 0.46
3 6 11 4.08 0.8
4 6 11 0.79 0.54
5 6 11 3.14 0.69
6 6 11 0.55 0.65
7 6 11 19.03 1.66
11 -7 -11 0.78 0.43
10 -7 -11 0.61 0.38
9 -7 -11 -0.09 0.34
8 -7 -11 5.41 0.64
8 -7 -11 3.51 0.45
-8 7 11 3.06 0.61
7 -7 -11 3.84 0.51
7 -7 -11 5.3 0.58
-7 7 11 3.38 0.59
6 -7 -11 11.58 0.68
-6 7 11 8.06 0.8
5 -7 -11 3.66 0.45
-5 7 11 3.52 0.63
4 -7 -11 1.4 0.28
-4 7 11 1.01 0.43
3 -7 -11 0.32 0.24
-3 7 11 -0.21 0.41
2 -7 -11 25.59 1.24
-2 7 11 24.26 1.58
1 -7 -11 3.44 0.39
-1 7 11 2.65 0.53
0 -7 -11 1.36 0.26
0 7 11 1.1 0.47
-1 -7 -11 13.17 0.72
1 7 11 12.56 1.1
-2 -7 -11 0.47 0.21
2 7 11 0.33 0.47
3 7 11 1 0.55
4 7 11 2.28 0.65
5 7 11 9.19 1.19
6 7 11 19.03 1.63
10 -8 -11 0.31 0.4
9 -8 -11 6.66 0.69
8 -8 -11 12.98 0.87
7 -8 -11 0.34 0.32
6 -8 -11 8.01 0.59
-6 8 11 6.01 0.7
5 -8 -11 0.01 0.27
-5 8 11 -0.33 0.31
4 -8 -11 0.41 0.26
-4 8 11 -0.28 0.39
3 -8 -11 18.18 0.98
-3 8 11 18.64 1.31
2 -8 -11 35.65 1.65
-2 8 11 32.12 2.06
1 -8 -11 0.04 0.23
-1 8 11 0.02 0.44
0 -8 -11 11.39 0.68
0 8 11 11.74 1.06
-1 -8 -11 2.13 0.37
1 8 11 1.88 0.56
-2 -8 -11 -0.01 0.21
2 8 11 0.5 0.53
3 8 11 1.01 0.59
4 8 11 13.88 1.34
5 8 11 0.41 0.66
6 8 11 8.79 1.3
10 -9 -11 17.56 1.11
9 -9 -11 -0.41 0.38
8 -9 -11 4.11 0.61
7 -9 -11 -0.3 0.33
6 -9 -11 2.13 0.36
5 -9 -11 0.24 0.29
-5 9 11 -0.02 0.34
4 -9 -11 20.38 1.02
-4 9 11 16.48 1.24
3 -9 -11 0.91 0.28
-3 9 11 0.37 0.46
2 -9 -11 11.99 0.73
-2 9 11 13.19 1.1
1 -9 -11 0.21 0.25
-1 9 11 0.12 0.5
0 -9 -11 2.96 0.4
0 9 11 2.85 0.61
-1 -9 -11 0.3 0.25
1 9 11 0.5 0.53
2 9 11 2.49 0.65
3 9 11 2.66 0.72
4 9 11 17.28 1.56
5 9 11 2.21 0.79
9 -10 -11 0.54 0.41
8 -10 -11 -0.25 0.36
7 -10 -11 0.76 0.38
6 -10 -11 2.47 0.39
5 -10 -11 1.95 0.35
4 -10 -11 0.19 0.28
-4 10 11 -0.06 0.34
3 -10 -11 1.25 0.3
-3 10 11 0.74 0.39
2 -10 -11 1.28 0.3
-2 10 11 1.58 0.57
1 -10 -11 9.53 0.63
-1 10 11 8.92 1.04
0 -10 -11 2.92 0.43
0 10 11 2.62 0.64
-1 -10 -11 0.68 0.27
1 10 11 0.52 0.6
2 10 11 0.46 0.63
3 10 11 0.73 0.7
4 10 11 0.59 0.71
9 -11 -11 -0.18 0.43
8 -11 -11 9.02 0.83
7 -11 -11 0.37 0.35
6 -11 -11 0.78 0.35
5 -11 -11 -0.14 0.31
4 -11 -11 0.06 0.3
-4 11 11 0.52 0.38
3 -11 -11 0.76 0.3
-3 11 11 0.5 0.39
2 -11 -11 2.86 0.45
-2 11 11 2.26 0.51
1 -11 -11 0.04 0.28
-1 11 11 -0.11 0.53
0 -11 -11 1.23 0.3
0 11 11 1.33 0.63
1 11 11 7.12 1.16
2 11 11 1.5 0.72
3 11 11 0.42 0.73
4 11 11 1.67 0.81
8 -12 -11 -0.65 0.37
7 -12 -11 1.07 0.43
6 -12 -11 -0.3 0.34
5 -12 -11 0.11 0.34
4 -12 -11 1.3 0.36
3 -12 -11 12.97 0.76
-3 12 11 8.63 0.94
2 -12 -11 1.49 0.34
-2 12 11 1.04 0.46
1 -12 -11 4.27 0.51
-1 12 11 5.4 0.93
0 -12 -11 0.2 0.3
0 12 11 -0.02 0.65
1 12 11 16.94 1.58
2 12 11 0.77 0.74
7 -13 -11 5.41 0.66
6 -13 -11 1.78 0.46
5 -13 -11 3.94 0.6
4 -13 -11 -0.11 0.35
3 -13 -11 0.71 0.34
2 -13 -11 0.41 0.33
1 -13 -11 1.69 0.37
-1 13 11 1.62 0.55
0 13 11 2.85 0.79
1 13 11 3.01 0.85
5 -14 -11 0.64 0.41
4 -14 -11 -0.17 0.38
3 -14 -11 0.28 0.35
2 -14 -11 3.8 0.56
1 -14 -11 1.61 0.4
1 -19 12 1.42 0.51
1 -19 12 1.8 0.48
2 -19 12 0.18 0.45
2 -19 12 0.92 0.5
3 -19 12 3.13 0.55
3 -19 12 3.19 0.6
4 -19 12 0.51 0.49
4 -19 12 0.16 0.53
5 -19 12 1.43 0.56
-1 -18 12 3.69 0.6
-1 -18 12 3.4 0.49
0 -18 12 3.09 0.52
0 -18 12 4.14 0.68
1 -18 12 -0.1 0.44
1 -18 12 0.36 0.41
2 -18 12 6.51 0.79
2 -18 12 7.93 0.87
3 -18 12 5.87 0.76
3 -18 12 4.05 0.6
4 -18 12 1.01 0.46
4 -18 12 1.19 0.51
5 -18 12 0.68 0.51
5 -18 12 0.45 0.47
6 -18 12 2.52 0.54
6 -18 12 3.83 0.63
-3 -17 12 0.08 0.43
-3 -17 12 0.63 0.37
-3 -17 12 -0.15 0.45
-2 -17 12 5.85 0.69
-2 -17 12 4.4 0.62
-1 -17 12 1.76 0.49
-1 -17 12 1.71 0.42
0 -17 12 1.35 0.47
0 -17 12 1.6 0.42
1 -17 12 4.87 0.7
1 -17 12 4.99 0.73
2 -17 12 12.04 0.97
2 -17 12 11.1 0.91
3 -17 12 0.1 0.41
3 -17 12 -0.05 0.45
4 -17 12 1.64 0.5
4 -17 12 2.14 0.47
5 -17 12 6.8 0.76
5 -17 12 5.63 0.86
6 -17 12 0.69 0.46
6 -17 12 0.68 0.53
7 -17 12 7.01 0.81
7 -17 12 7.47 0.96
-4 -16 12 1.46 0.51
-4 -16 12 2.14 0.53
-3 -16 12 17.07 1.06
-3 -16 12 17.46 1.27
-3 -16 12 16.06 1.2
-2 -16 12 0.81 0.41
-2 -16 12 0.97 0.44
-2 -16 12 0.65 0.35
-1 -16 12 5.1 0.65
-1 -16 12 4.17 0.75
-1 -16 12 5.94 0.67
0 -16 12 1.12 0.4
0 -16 12 1.86 0.47
1 -16 12 0.78 0.38
1 -16 12 0.61 0.39
2 -16 12 0.38 0.38
2 -16 12 0.4 0.41
3 -16 12 9.22 0.81
3 -16 12 8.94 0.84
4 -16 12 -0.1 0.44
4 -16 12 0.2 0.39
5 -16 12 -0.42 0.4
5 -16 12 -0.24 0.45
6 -16 12 6.8 0.85
6 -16 12 5.9 0.72
7 -16 12 3.6 0.55
7 -16 12 3.86 0.63
8 -16 12 1.11 0.48
8 -16 12 0.76 0.6
-5 -15 12 2.48 0.61
-4 -15 12 3.35 0.6
-4 -15 12 3.21 0.58
-3 -15 12 0.61 0.43
-3 -15 12 0.1 0.4
-2 -15 12 4.14 0.71
-2 -15 12 3.49 0.65
-1 -15 12 10.57 0.83
-1 -15 12 9.57 0.89
0 -15 12 0.58 0.32
0 -15 12 0.75 0.41
1 -15 12 0.49 0.37
1 -15 12 0.28 0.34
2 -15 12 0.68 0.4
2 -15 12 0.19 0.36
3 -15 12 1.55 0.43
3 -15 12 1.2 0.4
4 -15 12 3.9 0.63
4 -15 12 3.35 0.53
5 -15 12 11.58 0.94
5 -15 12 11.31 0.86
6 -15 12 -0.05 0.4
6 -15 12 0 0.46
7 -15 12 -0.07 0.41
7 -15 12 0.38 0.52
8 -15 12 0.21 0.44
8 -15 12 -0.22 0.55
9 -15 12 1.39 0.64
9 -15 12 1.05 0.48
6 14 -12 6.28 0.8
-6 -14 12 5.83 0.99
-5 -14 12 -0.26 0.43
-4 -14 12 0.14 0.42
-3 -14 12 3.5 0.55
-3 -14 12 4.59 0.7
-2 -14 12 4.02 0.64
-2 -14 12 4.31 0.69
-1 -14 12 2.49 0.45
-1 -14 12 2.1 0.39
0 -14 12 0.54 0.39
0 -14 12 0.67 0.29
1 -14 12 0.5 0.37
2 -14 12 0.12 0.37
3 -14 12 7.52 0.68
3 -14 12 6.69 0.73
4 -14 12 5.18 0.71
4 -14 12 6.13 0.66
5 -14 12 2.36 0.42
5 -14 12 1.7 0.46
6 -14 12 2.59 0.51
6 -14 12 3.3 0.48
7 -14 12 3.25 0.5
7 -14 12 4.28 0.78
8 -14 12 8.15 0.76
8 -14 12 6.35 0.92
9 -14 12 1.01 0.59
9 -14 12 0.77 0.45
6 13 -12 0.34 0.39
-6 -13 12 0.16 0.49
5 13 -12 13.93 1.02
-5 -13 12 13.59 1.16
-4 -13 12 15.04 1.15
-3 -13 12 0.81 0.38
-3 -13 12 0.37 0.44
-2 -13 12 3.03 0.58
-2 -13 12 3.62 0.64
-1 -13 12 0.1 0.35
-1 -13 12 0.35 0.29
0 -13 12 4.69 0.65
0 -13 12 5.53 0.57
1 -13 12 0.56 0.35
1 -13 12 0.14 0.26
2 -13 12 5.71 0.64
3 -13 12 0.4 0.36
4 -13 12 28.84 1.62
4 -13 12 29.63 1.53
5 -13 12 1.57 0.43
5 -13 12 1.61 0.4
6 -13 12 6.12 0.75
6 -13 12 6.24 0.66
7 -13 12 1.02 0.39
7 -13 12 1.26 0.5
8 -13 12 8.86 0.92
8 -13 12 7.36 0.76
9 -13 12 1.18 0.57
9 -13 12 0.52 0.39
7 12 -12 0.61 0.42
-7 -12 12 0.24 0.53
6 12 -12 4.08 0.57
-6 -12 12 4.48 0.84
5 12 -12 4.17 0.66
-5 -12 12 3.95 0.59
4 12 -12 5.4 0.65
-4 -12 12 5.47 0.74
-3 -12 12 0.24 0.33
-2 -12 12 6.61 0.67
-2 -12 12 7.06 0.71
-1 -12 12 0.6 0.28
-1 -12 12 0.85 0.34
0 -12 12 6.27 0.66
0 -12 12 5.29 0.56
1 -12 12 0.19 0.25
1 -12 12 0.17 0.33
2 -12 12 11.89 0.83
3 -12 12 1.15 0.37
4 -12 12 8.78 0.77
5 -12 12 21.17 1.16
5 -12 12 19.58 1.22
6 -12 12 0.1 0.42
6 -12 12 0.47 0.36
7 -12 12 0.61 0.38
7 -12 12 1.14 0.48
8 -12 12 1.05 0.4
8 -12 12 1.81 0.55
9 -12 12 0.39 0.29
9 -12 12 0.21 0.55
10 -12 12 0.98 0.64
8 11 -12 1.33 0.51
7 11 -12 0.25 0.41
-7 -11 12 0.17 0.51
6 11 -12 7.85 0.8
-6 -11 12 8.73 0.95
5 11 -12 3 0.47
-5 -11 12 2.34 0.49
4 11 -12 1.1 0.36
-4 -11 12 1.54 0.41
-3 -11 12 5.76 0.67
-2 -11 12 0.17 0.35
-2 -11 12 0.17 0.27
-1 -11 12 3.62 0.51
-1 -11 12 3.49 0.55
0 -11 12 0.8 0.34
0 -11 12 0.67 0.28
1 -11 12 6.91 0.59
1 -11 12 7.85 0.67
2 -11 12 1.51 0.33
2 -11 12 1.48 0.3
3 -11 12 9.5 0.74
4 -11 12 0.29 0.36
5 -11 12 2.14 0.38
5 -11 12 3.07 0.57
6 -11 12 4.94 0.68
6 -11 12 4.9 0.59
7 -11 12 3.01 0.44
7 -11 12 3.46 0.53
8 -11 12 0.61 0.5
8 -11 12 0.56 0.34
9 -11 12 0.34 0.26
9 -11 12 0.21 0.53
10 -11 12 3.06 0.69
8 10 -12 3.03 0.56
-8 -10 12 2.56 0.67
7 10 -12 6.76 0.79
-7 -10 12 8.27 0.97
6 10 -12 0.4 0.36
-6 -10 12 0.29 0.43
5 10 -12 0.05 0.32
-5 -10 12 0.12 0.37
4 10 -12 7.42 0.68
-4 -10 12 8.03 0.77
3 10 -12 0 0.28
-3 -10 12 0.44 0.3
-2 -10 12 3.09 0.49
-1 -10 12 50.56 2.53
-1 -10 12 48.72 2.71
0 -10 12 -0.08 0.3
0 -10 12 0.24 0.24
1 -10 12 12.61 0.82
1 -10 12 12.58 0.85
2 -10 12 7.68 0.62
2 -10 12 6.71 0.61
3 -10 12 0.25 0.3
4 -10 12 12.15 0.84
5 -10 12 6.19 0.63
6 -10 12 7.37 0.74
6 -10 12 7.48 0.65
7 -10 12 13.91 1.02
7 -10 12 14.56 0.89
8 -10 12 -0.27 0.23
8 -10 12 -0.12 0.47
9 -10 12 0.95 0.55
10 -10 12 0.67 0.61
8 9 -12 -0.13 0.43
-8 -9 12 0.25 0.53
7 9 -12 0.66 0.42
-7 -9 12 0.39 0.48
6 9 -12 2.62 0.46
-6 -9 12 2.55 0.5
5 9 -12 7.42 0.68
-5 -9 12 6.66 0.77
4 9 -12 2.14 0.38
-4 -9 12 1.95 0.4
3 9 -12 31.82 1.7
-3 -9 12 31.68 1.83
-2 -9 12 12.37 0.86
-1 -9 12 69.21 3.71
-1 -9 12 68.76 3.43
0 -9 12 0.14 0.27
0 -9 12 0.18 0.25
1 -9 12 0.2 0.22
1 -9 12 0.05 0.28
2 -9 12 2.68 0.46
2 -9 12 3.16 0.49
3 -9 12 36.68 1.9
3 -9 12 36.63 2.04
4 -9 12 4.39 0.56
5 -9 12 35.05 1.85
6 -9 12 1.5 0.34
6 -9 12 1.27 0.4
7 -9 12 2.93 0.51
7 -9 12 2.87 0.44
8 -9 12 0.19 0.46
8 -9 12 0 0.22
9 -9 12 10.36 1.01
10 -9 12 2.09 0.63
9 8 -12 3.53 0.6
-9 -8 12 3.32 0.7
8 8 -12 0 0.45
-8 -8 12 -0.26 0.5
7 8 -12 0.67 0.42
-7 -8 12 -0.21 0.43
6 8 -12 0.29 0.36
-6 -8 12 0.59 0.4
5 8 -12 24.85 1.39
-5 -8 12 24.28 1.54
4 8 -12 0.27 0.29
-4 -8 12 0.25 0.3
3 8 -12 1.96 0.34
-3 -8 12 2.13 0.35
-2 -8 12 13.14 0.89
-1 -8 12 4.39 0.49
-1 -8 12 3.93 0.48
0 -8 12 0.75 0.26
0 -8 12 0.47 0.23
1 -8 12 26.43 1.49
1 -8 12 25.41 1.39
2 -8 12 0.01 0.28
2 -8 12 0.08 0.25
3 -8 12 29.21 1.64
3 -8 12 28.08 1.52
4 -8 12 34.89 1.78
4 -8 12 33 1.89
5 -8 12 17.61 1.05
6 -8 12 7.29 0.66
6 -8 12 7.63 0.58
6 -8 12 6.77 0.69
7 -8 12 15.26 0.95
7 -8 12 10.84 0.7
8 -8 12 4.88 0.72
9 -8 12 4.73 0.81
10 -8 12 2.14 0.64
9 7 -12 0.66 0.52
-9 -7 12 0.2 0.53
8 7 -12 0.38 0.45
-8 -7 12 0.22 0.49
7 7 -12 5.08 0.69
-7 -7 12 3.9 0.75
6 7 -12 12.38 0.88
-6 -7 12 11.18 0.97
5 7 -12 5 0.56
-5 -7 12 4.22 0.62
4 7 -12 10.84 0.75
-4 -7 12 11.43 0.83
3 7 -12 23.02 1.26
-3 -7 12 22.29 1.36
-2 -7 12 1.27 0.3
-1 -7 12 13 0.79
-1 -7 12 12.42 0.85
0 -7 12 27.78 1.47
0 -7 12 28.17 1.58
1 -7 12 3.07 0.45
1 -7 12 3.01 0.45
2 -7 12 13.7 0.89
2 -7 12 12.79 0.81
3 -7 12 6.18 0.53
3 -7 12 4.76 0.55
4 -7 12 9 0.69
4 -7 12 10.1 0.72
5 -7 12 20.6 1.21
5 -7 12 18.56 1.13
6 -7 12 1.83 0.41
6 -7 12 1.99 0.38
7 -7 12 1.22 0.23
7 -7 12 1.7 0.45
7 -7 12 1.86 0.42
8 -7 12 7.03 0.77
8 -7 12 6.61 0.79
9 -7 12 1.04 0.54
10 -7 12 0.68 0.58
-10 -6 12 2.1 0.67
9 6 -12 2.7 0.58
-9 -6 12 1.92 0.59
8 6 -12 0.04 0.43
-8 -6 12 0.17 0.46
7 6 -12 2.3 0.46
-7 -6 12 2 0.47
6 6 -12 19.41 1.15
-6 -6 12 17.93 1.25
5 6 -12 3.1 0.5
-5 -6 12 2.94 0.55
4 6 -12 4.64 0.5
-4 -6 12 5.08 0.56
3 6 -12 41.38 2.13
-3 -6 12 41.93 2.32
2 6 -12 0.36 0.22
-2 -6 12 0.36 0.24
-1 -6 12 1.71 0.27
-1 -6 12 1.07 0.27
0 -6 12 27.99 1.48
0 -6 12 28.64 1.6
1 -6 12 0.6 0.25
1 -6 12 0.61 0.29
2 -6 12 10.6 0.71
2 -6 12 11.67 0.79
3 -6 12 21.02 1.16
3 -6 12 20.96 1.27
4 -6 12 1.77 0.33
4 -6 12 1.9 0.34
5 -6 12 1.31 0.35
5 -6 12 1.44 0.34
6 -6 12 5.85 0.65
6 -6 12 6.9 0.68
7 -6 12 0.39 0.39
7 -6 12 -0.04 0.39
8 -6 12 10.38 0.93
8 -6 12 8.43 0.85
9 -6 12 10.26 1
9 -6 12 12.14 1.06
10 -6 12 1.9 0.6
10 5 -12 0.18 0.57
-10 -5 12 -0.28 0.58
9 5 -12 0.49 0.51
-9 -5 12 1.24 0.54
8 5 -12 7.42 0.82
-8 -5 12 7.4 0.89
7 5 -12 0.03 0.38
-7 -5 12 -0.07 0.37
6 5 -12 3.22 0.56
-6 -5 12 2.64 0.45
5 5 -12 6.32 0.58
-5 -5 12 6.09 0.64
4 5 -12 21.39 1.19
-4 -5 12 21.73 1.32
3 5 -12 0.66 0.24
-3 -5 12 0.46 0.27
2 5 -12 17.47 0.99
-2 -5 12 18.01 1.1
-1 -5 12 9.18 0.65
-1 -5 12 10.93 0.7
0 -5 12 9.74 0.7
0 -5 12 10.03 0.65
1 -5 12 0.86 0.3
1 -5 12 1.15 0.26
2 -5 12 27.44 1.58
2 -5 12 27.31 1.43
3 -5 12 2.25 0.36
3 -5 12 2.53 0.43
4 -5 12 38.37 2.02
4 -5 12 40.98 2.21
5 -5 12 1.11 0.34
5 -5 12 1.1 0.36
6 -5 12 27.22 1.52
6 -5 12 28.08 1.66
7 -5 12 2.9 0.5
7 -5 12 2.63 0.46
8 -5 12 8.59 0.89
8 -5 12 7.14 0.82
9 -5 12 0.85 0.52
9 -5 12 1.16 0.54
10 -5 12 2.82 0.64
10 4 -12 1.6 0.61
-10 -4 12 1.65 0.62
9 4 -12 0.46 0.52
-9 -4 12 -0.55 0.47
8 4 -12 1.76 0.49
-8 -4 12 1.33 0.47
7 4 -12 0.47 0.38
-7 -4 12 0.22 0.37
6 4 -12 21.49 1.22
-6 -4 12 20.64 1.34
5 4 -12 12.22 0.8
-5 -4 12 12.12 0.89
4 4 -12 26.64 1.43
-4 -4 12 27.36 1.59
3 4 -12 4.43 0.44
-3 -4 12 5.21 0.53
2 4 -12 33.25 1.69
-2 -4 12 32.39 1.85
-1 -4 12 7.55 0.54
-1 -4 12 7.33 0.58
0 -4 12 8.86 0.61
0 -4 12 9.17 0.68
1 -4 12 3.24 0.4
1 -4 12 2.78 0.44
2 -4 12 0.44 0.29
2 -4 12 -0.23 0.22
3 -4 12 0.22 0.29
3 -4 12 0.94 0.27
4 -4 12 66.04 3.48
4 -4 12 62.41 3.18
5 -4 12 6.89 0.69
5 -4 12 5.44 0.58
6 -4 12 0.55 0.36
6 -4 12 0.38 0.38
7 -4 12 0.52 0.45
7 -4 12 0.61 0.41
8 -4 12 4.24 0.8
8 -4 12 3.52 0.55
9 -4 12 -0.11 0.51
9 -4 12 0.89 0.55
10 -4 12 5.8 0.93
10 -4 12 5.08 0.99
10 3 -12 0.69 0.59
-10 -3 12 0.22 0.55
9 3 -12 22.51 1.43
-9 -3 12 21.95 1.54
8 3 -12 2.76 0.5
-8 -3 12 2.41 0.5
7 3 -12 3.2 0.47
-7 -3 12 3.49 0.65
6 3 -12 8.19 0.69
-6 -3 12 9.12 0.79
5 3 -12 0.78 0.29
-5 -3 12 0.43 0.31
4 3 -12 17.59 0.98
-4 -3 12 16.91 1.1
3 3 -12 60.78 2.96
-3 -3 12 58.99 3.25
2 3 -12 1.83 0.26
-2 -3 12 1.39 0.27
-1 -3 12 5.03 0.43
-1 -3 12 4.43 0.48
0 -3 12 4.78 0.54
0 -3 12 5.26 0.46
1 -3 12 7 0.51
2 -3 12 2.41 0.38
2 -3 12 2.38 0.47
3 -3 12 64.38 3.54
3 -3 12 66.83 3.23
4 -3 12 23.06 1.27
4 -3 12 24.18 1.44
5 -3 12 -0.33 0.32
5 -3 12 0.31 0.37
6 -3 12 0.54 0.4
6 -3 12 0.71 0.37
7 -3 12 1.29 0.45
7 -3 12 1.38 0.5
8 -3 12 1.09 0.49
8 -3 12 2.32 0.58
9 -3 12 21.19 1.54
9 -3 12 19.68 1.37
10 -3 12 4.5 0.73
10 -3 12 7.45 1.06
-11 -2 12 7 1.09
10 2 -12 5.13 0.92
-10 -2 12 5.33 0.91
9 2 -12 0.8 0.51
-9 -2 12 0.47 0.49
8 2 -12 3.61 0.53
-8 -2 12 2.49 0.53
7 2 -12 6.47 0.68
-7 -2 12 6.78 0.77
6 2 -12 5.55 0.58
-6 -2 12 5.66 0.67
5 2 -12 35.54 1.8
-5 -2 12 33.74 1.99
4 2 -12 48.48 2.38
-4 -2 12 46.59 2.63
3 2 -12 -0.03 0.2
-3 -2 12 0.19 0.23
2 2 -12 1.27 0.23
-2 -2 12 1.32 0.26
-1 -2 12 7.5 0.53
-1 -2 12 8.32 0.64
0 -2 12 9.32 0.72
0 -2 12 10.39 0.63
1 -2 12 88.43 4.81
1 -2 12 92.25 4.4
2 -2 12 43.55 2.11
2 -2 12 40.45 2.34
3 -2 12 -0.36 0.23
3 -2 12 -0.05 0.3
4 -2 12 -0.19 0.26
4 -2 12 0.08 0.34
5 -2 12 2.87 0.5
5 -2 12 4.38 0.66
6 -2 12 3.92 0.57
6 -2 12 3.82 0.72
7 -2 12 10.79 0.91
7 -2 12 12.88 1.09
8 -2 12 16.61 1.29
8 -2 12 14.23 1.1
9 -2 12 0.37 0.54
9 -2 12 0.24 0.59
10 -2 12 0.06 0.63
10 -2 12 -0.38 0.57
-11 -1 12 -0.31 0.59
10 1 -12 0.21 0.55
-10 -1 12 0.33 0.55
9 1 -12 -0.28 0.47
-9 -1 12 -0.43 0.47
8 1 -12 -0.08 0.35
8 1 -12 0.91 0.43
-8 -1 12 -0.31 0.43
7 1 -12 11.71 0.8
7 1 -12 12.57 0.89
-7 -1 12 11.43 0.97
6 1 -12 22.89 1.26
6 1 -12 22.15 1.19
-6 -1 12 22.38 1.42
5 1 -12 2.97 0.43
5 1 -12 2.95 0.42
-5 -1 12 3.78 0.56
4 1 -12 3.75 0.41
4 1 -12 3.58 0.4
-4 -1 12 3.12 0.5
3 1 -12 1.2 0.23
3 1 -12 0.88 0.22
-3 -1 12 0.92 0.26
2 1 -12 6.42 0.47
2 1 -12 6.03 0.44
-2 -1 12 6.12 0.56
-1 -1 12 2.88 0.48
-1 -1 12 3.66 0.37
0 -1 12 15.89 1.07
0 -1 12 18.7 0.95
1 -1 12 4.08 0.39
1 -1 12 4.06 0.52
2 -1 12 26.65 1.62
2 -1 12 28.55 1.42
3 -1 12 6.59 0.52
3 -1 12 6.61 0.67
4 -1 12 1.48 0.41
4 -1 12 1.5 0.32
5 -1 12 -0.27 0.39
5 -1 12 -0.14 0.31
6 -1 12 3.19 0.6
6 -1 12 3.91 0.61
7 -1 12 3 0.51
7 -1 12 3.63 0.64
8 -1 12 4.88 0.96
8 -1 12 5.06 0.79
9 -1 12 5.25 1.03
9 -1 12 4.52 0.85
10 -1 12 2.48 0.67
10 -1 12 2.97 0.76
11 0 -12 1.62 0.65
-11 0 12 1.45 0.64
10 0 -12 0.71 0.58
-10 0 12 0.29 0.57
9 0 -12 0.58 0.47
9 0 -12 0.23 0.32
-9 0 12 0.68 0.51
8 0 -12 2.78 0.47
8 0 -12 2.39 0.4
-8 0 12 1.64 0.5
7 0 -12 3.97 0.61
7 0 -12 3.88 0.51
-7 0 12 3.92 0.69
6 0 -12 7.1 0.61
6 0 -12 6.92 0.56
-6 0 12 7.09 0.74
5 0 -12 18.62 1.06
5 0 -12 19.7 1
-5 0 12 18.61 1.21
4 0 -12 6.82 0.48
4 0 -12 6.13 0.49
-4 0 12 6.53 0.6
3 0 -12 2.79 0.34
3 0 -12 2.49 0.32
-3 0 12 1.35 0.3
2 0 -12 0 0.17
-2 0 12 -0.04 0.27
1 0 -12 3.82 0.36
-1 0 12 3.78 0.49
-1 0 12 4.21 0.38
0 0 -12 3.35 0.35
0 0 12 3.3 0.49
0 0 12 4.15 0.37
1 0 12 0.69 0.3
1 0 12 0.7 0.21
2 0 12 21.42 1.08
2 0 12 18.97 1.27
3 0 12 0.21 0.24
3 0 12 0.15 0.35
4 0 12 0.2 0.28
4 0 12 0.43 0.41
5 0 12 0.87 0.35
5 0 12 0.51 0.42
6 0 12 10.17 1
6 0 12 9.23 0.78
7 0 12 0.28 0.54
7 0 12 0.08 0.42
8 0 12 7.33 1.08
8 0 12 6.57 0.81
9 0 12 0.57 0.66
9 0 12 -0.63 0.55
11 -1 -12 -0.55 0.6
-11 1 12 0.39 0.6
10 -1 -12 0.19 0.28
-10 1 12 -0.26 0.54
9 -1 -12 0.19 0.34
9 -1 -12 0.26 0.46
-9 1 12 0.14 0.48
8 -1 -12 7.9 0.65
8 -1 -12 7.42 0.75
-8 1 12 7.67 0.88
7 -1 -12 2.65 0.4
7 -1 -12 2.16 0.35
-7 1 12 1.35 0.45
6 -1 -12 10.32 0.67
6 -1 -12 9.87 0.72
-6 1 12 10.08 0.86
5 -1 -12 5.02 0.48
5 -1 -12 4.59 0.46
-5 1 12 5.24 0.59
4 -1 -12 8.46 0.55
4 -1 -12 8.83 0.57
-4 1 12 8.18 0.69
3 -1 -12 13.38 0.75
3 -1 -12 12.98 0.72
-3 1 12 12.96 0.91
2 -1 -12 30.24 1.41
-2 1 12 27.85 1.69
1 -1 -12 0.49 0.18
-1 1 12 0.91 0.28
-1 1 12 0.54 0.2
0 -1 -12 17.58 0.91
0 1 12 18.62 1.15
1 1 12 6.75 0.65
2 1 12 8.48 0.54
2 1 12 10.62 0.79
3 1 12 0.61 0.38
3 1 12 0.77 0.21
4 1 12 44.93 2.33
4 1 12 35.76 1.99
5 1 12 8.33 0.64
5 1 12 10.9 0.95
6 1 12 2.71 0.6
6 1 12 2.06 0.35
7 1 12 0.95 0.35
7 1 12 1.84 0.62
8 1 12 1.08 0.67
8 1 12 0.31 0.39
9 1 12 0.04 0.69
11 -2 -12 -0.55 0.59
-11 2 12 0.17 0.57
10 -2 -12 3.57 0.53
-10 2 12 5.17 0.93
9 -2 -12 0.39 0.48
9 -2 -12 0.58 0.35
-9 2 12 0.46 0.51
8 -2 -12 20.28 1.18
8 -2 -12 17.47 1.06
-8 2 12 18.48 1.34
7 -2 -12 8.27 0.69
7 -2 -12 7.58 0.63
-7 2 12 8 0.83
6 -2 -12 -0.04 0.29
6 -2 -12 0 0.26
-6 2 12 -0.15 0.34
5 -2 -12 0.48 0.25
5 -2 -12 0.43 0.26
-5 2 12 0.45 0.32
4 -2 -12 45.22 2.15
4 -2 -12 46.04 2.27
-4 2 12 45.46 2.54
3 -2 -12 27.41 1.32
3 -2 -12 27.31 1.39
-3 2 12 25.89 1.61
2 -2 -12 13.97 0.75
-2 2 12 13.67 0.93
1 -2 -12 4.22 0.37
-1 2 12 3.86 0.54
0 -2 -12 9.14 0.52
0 2 12 7.93 0.74
-1 -2 -12 0.03 0.19
1 2 12 -0.34 0.3
2 2 12 5.52 0.68
3 2 12 28.2 1.74
4 2 12 1.75 0.48
4 2 12 1.14 0.24
5 2 12 3.68 0.43
5 2 12 4.35 0.79
6 2 12 3.83 0.48
6 2 12 4.74 0.9
7 2 12 1.42 0.66
7 2 12 0.44 0.35
8 2 12 5.74 1.11
9 2 12 11.56 1.37
10 -3 -12 0.33 0.37
-10 3 12 0.3 0.49
9 -3 -12 8.88 0.83
9 -3 -12 6.99 0.67
-9 3 12 8.13 0.95
8 -3 -12 0.54 0.4
8 -3 -12 0.29 0.32
-8 3 12 -0.36 0.43
7 -3 -12 -0.3 0.28
7 -3 -12 -0.13 0.32
-7 3 12 -0.14 0.38
6 -3 -12 2.7 0.48
6 -3 -12 2.69 0.35
-6 3 12 2.37 0.45
5 -3 -12 16.35 0.92
5 -3 -12 15.53 0.89
-5 3 12 16.18 1.11
4 -3 -12 0.3 0.23
4 -3 -12 0.53 0.22
-4 3 12 0.34 0.36
3 -3 -12 5.95 0.48
-3 3 12 7.28 0.66
2 -3 -12 0.42 0.21
-2 3 12 0.55 0.32
1 -3 -12 3.79 0.37
-1 3 12 3.66 0.58
0 -3 -12 8.12 0.5
0 3 12 7.24 0.72
-1 -3 -12 45.45 1.94
1 3 12 36.43 2.34
-2 -3 -12 2.87 0.35
2 3 12 2.74 0.49
3 3 12 0.05 0.41
4 3 12 0.65 0.47
5 3 12 1.07 0.53
6 3 12 0.36 0.57
7 3 12 2.25 0.72
8 3 12 1.1 0.73
11 -4 -12 0.9 0.37
10 -4 -12 1.01 0.4
9 -4 -12 2.44 0.4
9 -4 -12 1.98 0.51
-9 4 12 1.88 0.46
8 -4 -12 0.51 0.33
8 -4 -12 -0.24 0.38
-8 4 12 -0.15 0.43
7 -4 -12 7.16 0.64
7 -4 -12 9.35 0.71
-7 4 12 9.63 0.86
6 -4 -12 13.31 0.85
6 -4 -12 16.29 0.91
-6 4 12 14.89 1.1
5 -4 -12 1.47 0.28
5 -4 -12 1.44 0.3
-5 4 12 1.03 0.43
4 -4 -12 16.58 0.92
-4 4 12 17.77 1.16
3 -4 -12 1.52 0.27
-3 4 12 1.6 0.38
2 -4 -12 4.98 0.43
-2 4 12 4.71 0.64
1 -4 -12 0.43 0.22
-1 4 12 0.57 0.34
0 -4 -12 7.12 0.48
0 4 12 6.35 0.73
-1 -4 -12 3.04 0.34
1 4 12 1.8 0.46
-2 -4 -12 -0.02 0.2
2 4 12 0.5 0.42
3 4 12 24.96 1.63
4 4 12 4.66 0.82
5 4 12 -0.01 0.53
6 4 12 1.2 0.65
7 4 12 3.03 0.79
8 4 12 0.93 0.75
11 -5 -12 4.02 0.66
10 -5 -12 1.67 0.54
10 -5 -12 1.38 0.41
9 -5 -12 0.01 0.35
9 -5 -12 0.04 0.45
-9 5 12 0.33 0.36
8 -5 -12 3.83 0.63
8 -5 -12 3.07 0.42
-8 5 12 2.36 0.45
7 -5 -12 -0.05 0.29
7 -5 -12 0.43 0.33
-7 5 12 0.24 0.43
6 -5 -12 3.33 0.4
6 -5 -12 3.71 0.5
-6 5 12 2.68 0.54
5 -5 -12 12.67 0.77
-5 5 12 12.61 1
4 -5 -12 0.55 0.27
-4 5 12 0.97 0.39
3 -5 -12 2.27 0.4
-3 5 12 2.74 0.47
2 -5 -12 -0.07 0.22
-2 5 12 0.37 0.38
1 -5 -12 1.28 0.26
-1 5 12 1.6 0.42
0 -5 -12 11.97 0.65
0 5 12 9 0.92
-1 -5 -12 21.01 1
1 5 12 17.41 1.34
-2 -5 -12 1.06 0.21
2 5 12 0.63 0.47
3 5 12 -0.05 0.47
4 5 12 4.35 0.87
5 5 12 7.54 1.07
6 5 12 10.5 1.26
7 5 12 9.5 1.29
10 -6 -12 7.63 0.72
10 -6 -12 8.37 0.9
9 -6 -12 1.48 0.39
9 -6 -12 0.06 0.48
-9 6 12 0.86 0.39
8 -6 -12 -0.02 0.38
8 -6 -12 -0.21 0.33
-8 6 12 0.87 0.36
7 -6 -12 5.2 0.57
7 -6 -12 4.14 0.54
-7 6 12 3.78 0.65
6 -6 -12 0.49 0.31
6 -6 -12 0.97 0.3
-6 6 12 0.82 0.44
5 -6 -12 0.05 0.27
-5 6 12 0.18 0.41
4 -6 -12 0.37 0.27
-4 6 12 0.73 0.41
3 -6 -12 1.52 0.3
-3 6 12 1.66 0.46
2 -6 -12 28.9 1.41
-2 6 12 28.04 1.75
1 -6 -12 0.05 0.23
-1 6 12 0.21 0.42
0 -6 -12 11.8 0.68
0 6 12 11.08 1.01
-1 -6 -12 0.29 0.22
1 6 12 -0.22 0.45
-2 -6 -12 0.03 0.2
2 6 12 -0.04 0.46
3 6 12 2.07 0.58
4 6 12 16.71 1.38
5 6 12 1.19 0.64
6 6 12 0.56 0.7
7 6 12 0.37 0.74
10 -7 -12 1.4 0.42
9 -7 -12 0.54 0.37
8 -7 -12 3.42 0.57
8 -7 -12 6.09 0.68
7 -7 -12 0.47 0.32
7 -7 -12 -0.27 0.31
-7 7 12 -0.82 0.32
6 -7 -12 0.38 0.3
-6 7 12 -0.12 0.34
5 -7 -12 5.68 0.52
-5 7 12 5.31 0.75
4 -7 -12 6.27 0.55
-4 7 12 7.37 0.83
3 -7 -12 4.71 0.48
-3 7 12 4.82 0.79
2 -7 -12 4.12 0.45
-2 7 12 3.25 0.56
1 -7 -12 2.34 0.39
-1 7 12 1.2 0.51
0 -7 -12 0.63 0.25
0 7 12 0.48 0.48
-1 -7 -12 29.9 1.41
1 7 12 27.07 1.85
-2 -7 -12 3.46 0.38
2 7 12 2.5 0.59
3 7 12 3.8 0.7
4 7 12 1.75 0.67
5 7 12 0.58 0.68
6 7 12 0.08 0.71
10 -8 -12 -0.72 0.38
9 -8 -12 0.91 0.41
8 -8 -12 3.9 0.58
7 -8 -12 2.93 0.5
-7 8 12 1.97 0.46
6 -8 -12 1.08 0.33
-6 8 12 0.93 0.38
5 -8 -12 2.39 0.35
-5 8 12 1.07 0.42
4 -8 -12 -0.17 0.27
-4 8 12 -0.28 0.45
3 -8 -12 0.12 0.27
-3 8 12 -0.13 0.47
2 -8 -12 0.64 0.27
-2 8 12 0.57 0.52
1 -8 -12 0.55 0.27
-1 8 12 0.69 0.51
0 -8 -12 0.74 0.27
0 8 12 0.32 0.53
-1 -8 -12 7.65 0.55
1 8 12 7.03 0.99
-2 -8 -12 10.56 0.68
2 8 12 8.99 1.12
3 8 12 0.79 0.61
4 8 12 6.35 1.14
5 8 12 0.6 0.7
9 -9 -12 1.3 0.45
8 -9 -12 3.3 0.46
7 -9 -12 1.37 0.37
6 -9 -12 2.25 0.38
-6 9 12 0.97 0.41
5 -9 -12 1.7 0.35
-5 9 12 0.99 0.4
4 -9 -12 2.86 0.47
-4 9 12 2.67 0.48
3 -9 -12 10.66 0.7
-3 9 12 10.93 1.06
2 -9 -12 1.8 0.32
-2 9 12 1.65 0.57
1 -9 -12 -0.08 0.26
-1 9 12 -0.12 0.52
0 -9 -12 1.49 0.31
0 9 12 0.46 0.57
-1 -9 -12 6.77 0.53
1 9 12 5.34 1.01
2 9 12 3.31 0.73
3 9 12 0.36 0.67
4 9 12 1.84 0.79
5 9 12 0.25 0.76
9 -10 -12 0.62 0.41
8 -10 -12 0.74 0.4
7 -10 -12 0.24 0.35
6 -10 -12 0.49 0.37
5 -10 -12 2.97 0.51
4 -10 -12 -0.06 0.31
-4 10 12 -0.12 0.38
3 -10 -12 0.47 0.3
-3 10 12 0.68 0.42
2 -10 -12 0.79 0.3
-2 10 12 1.42 0.61
1 -10 -12 -0.39 0.27
-1 10 12 -0.04 0.56
0 -10 -12 1.89 0.34
0 10 12 1.42 0.63
-1 -10 -12 17.08 0.96
1 10 12 15.37 1.46
2 10 12 0.29 0.68
3 10 12 2.05 0.79
4 10 12 2.02 0.82
8 -11 -12 0.18 0.38
7 -11 -12 1.89 0.46
6 -11 -12 5.66 0.62
5 -11 -12 6.82 0.69
4 -11 -12 9.14 0.68
-4 11 12 7.33 0.83
3 -11 -12 1.93 0.37
-3 11 12 1.86 0.49
2 -11 -12 -0.1 0.3
-2 11 12 0.31 0.49
1 -11 -12 0.26 0.3
-1 11 12 -0.14 0.59
0 -11 -12 3.74 0.51
0 11 12 3.44 0.76
1 11 12 4.07 0.83
2 11 12 6.06 0.97
3 11 12 3.48 0.88
6 -12 -12 0.73 0.39
5 -12 -12 1.23 0.38
4 -12 -12 1.23 0.37
3 -12 -12 -0.13 0.32
-3 12 12 0.75 0.47
2 -12 -12 10.99 0.73
-2 12 12 8.59 0.99
1 -12 -12 1.25 0.35
-1 12 12 1.62 0.67
0 12 12 3.88 0.83
1 12 12 1.82 0.8
2 12 12 2.98 0.89
6 -13 -12 4.56 0.7
5 -13 -12 3.4 0.59
4 -13 -12 0.06 0.35
3 -13 -12 0.88 0.37
2 -13 -12 3.33 0.55
1 -13 -12 1.42 0.37
0 13 12 -0.02 0.74
3 -14 -12 0.2 0.37
1 -19 13 4.71 0.78
1 -19 13 5.05 0.87
2 -19 13 1.82 0.52
2 -19 13 1.83 0.56
3 -19 13 0.97 0.54
3 -19 13 0.83 0.5
4 -19 13 0.92 0.56
-1 -18 13 17.21 1.11
-1 -18 13 15.75 1.24
0 -18 13 7.61 0.82
0 -18 13 7.32 0.87
1 -18 13 0.59 0.44
1 -18 13 -0.01 0.47
2 -18 13 0.94 0.51
2 -18 13 0.56 0.45
3 -18 13 1.86 0.5
3 -18 13 1.74 0.53
4 -18 13 0.77 0.47
4 -18 13 0.33 0.52
5 -18 13 1.17 0.57
5 -18 13 1.22 0.48
6 -18 13 0.37 0.55
-3 -17 13 0 0.5
-3 -17 13 0.08 0.45
-3 -17 13 0.25 0.37
-2 -17 13 -0.15 0.36
-2 -17 13 -0.24 0.46
-1 -17 13 -0.47 0.36
-1 -17 13 0.76 0.49
0 -17 13 1.36 0.43
0 -17 13 0.48 0.46
1 -17 13 2.65 0.48
1 -17 13 1.53 0.48
2 -17 13 1.93 0.51
2 -17 13 1.53 0.46
3 -17 13 0.73 0.48
3 -17 13 0.37 0.43
4 -17 13 2.81 0.52
4 -17 13 3.64 0.59
5 -17 13 0.93 0.52
5 -17 13 0.78 0.46
6 -17 13 -0.05 0.45
6 -17 13 0.56 0.53
7 -17 13 2.38 0.62
7 -17 13 1.91 0.54
-4 -16 13 0.27 0.47
-4 -16 13 0.04 0.47
-3 -16 13 0.29 0.44
-3 -16 13 0.56 0.46
-2 -16 13 0.24 0.39
-2 -16 13 0.09 0.46
-1 -16 13 11.75 1.02
-1 -16 13 12.92 0.96
0 -16 13 6.23 0.83
0 -16 13 7.11 0.73
1 -16 13 6.86 0.75
1 -16 13 6.69 0.78
2 -16 13 0.85 0.44
2 -16 13 0.13 0.4
3 -16 13 4.13 0.74
3 -16 13 3.77 0.52
4 -16 13 2.03 0.53
4 -16 13 2.44 0.48
5 -16 13 6.77 0.88
5 -16 13 7.75 0.77
6 -16 13 -0.29 0.42
6 -16 13 0.36 0.5
7 -16 13 1.39 0.58
7 -16 13 1.35 0.49
8 -16 13 -0.64 0.59
8 -16 13 -0.16 0.47
-5 -15 13 2.93 0.62
-4 -15 13 0.37 0.49
-4 -15 13 0.58 0.46
-3 -15 13 1.38 0.45
-3 -15 13 1.06 0.46
-2 -15 13 1.05 0.45
-2 -15 13 1.19 0.4
-1 -15 13 -0.11 0.32
-1 -15 13 0.82 0.43
0 -15 13 0.99 0.44
0 -15 13 0.66 0.32
1 -15 13 15.73 1.07
2 -15 13 7.13 0.78
3 -15 13 0.81 0.44
3 -15 13 0.71 0.4
4 -15 13 0.65 0.47
4 -15 13 0.97 0.42
5 -15 13 0.75 0.49
5 -15 13 1.18 0.42
6 -15 13 1.24 0.51
6 -15 13 1.04 0.45
7 -15 13 4.16 0.69
7 -15 13 4.87 0.67
8 -15 13 8.07 0.83
8 -15 13 9.37 1.03
-5 -14 13 1.56 0.53
-4 -14 13 7.09 0.94
-4 -14 13 6.37 0.86
-3 -14 13 0.66 0.43
-3 -14 13 0.05 0.38
-2 -14 13 7.54 0.84
-2 -14 13 9.2 0.79
-1 -14 13 9.08 0.84
-1 -14 13 9.07 0.78
0 -14 13 17.39 1.14
0 -14 13 18.8 1.18
1 -14 13 8.97 0.81
1 -14 13 8.77 0.7
2 -14 13 8.28 0.78
3 -14 13 0.04 0.4
4 -14 13 -0.05 0.43
4 -14 13 -0.03 0.37
5 -14 13 0.03 0.45
5 -14 13 0.45 0.41
6 -14 13 8.44 0.88
6 -14 13 9.43 0.79
7 -14 13 6.13 0.84
7 -14 13 4.12 0.68
8 -14 13 0.08 0.56
8 -14 13 0.26 0.44
9 -14 13 0.32 0.6
9 -14 13 0.29 0.45
6 13 -13 2.53 0.5
-6 -13 13 2.46 0.61
5 13 -13 5.09 0.72
-5 -13 13 5.79 0.87
-4 -13 13 -0.35 0.39
-3 -13 13 -0.04 0.42
-3 -13 13 0.15 0.36
-2 -13 13 10.84 0.87
-2 -13 13 11.19 0.9
-1 -13 13 13.69 0.96
-1 -13 13 12.6 0.93
0 -13 13 1.54 0.33
0 -13 13 1.32 0.4
1 -13 13 3.85 0.65
1 -13 13 3.48 0.49
2 -13 13 1.53 0.4
3 -13 13 0.12 0.39
4 -13 13 1.34 0.44
5 -13 13 4.57 0.71
5 -13 13 5.15 0.65
6 -13 13 0.59 0.47
6 -13 13 1.11 0.41
7 -13 13 7.56 0.74
7 -13 13 7.15 0.87
8 -13 13 1.93 0.46
8 -13 13 1.11 0.57
9 -13 13 0.15 0.34
9 -13 13 0.66 0.6
7 12 -13 -0.06 0.43
-7 -12 13 0.59 0.55
6 12 -13 1.78 0.45
-6 -12 13 1.35 0.53
5 12 -13 1.44 0.41
-5 -12 13 1.13 0.48
-4 -12 13 0.06 0.38
-3 -12 13 11.8 0.94
-2 -12 13 1.7 0.37
-2 -12 13 1.76 0.41
-1 -12 13 14.07 0.96
-1 -12 13 13.51 0.96
0 -12 13 7.38 0.66
0 -12 13 7.23 0.72
1 -12 13 0.38 0.26
1 -12 13 0.06 0.35
2 -12 13 2.95 0.42
3 -12 13 0.45 0.37
4 -12 13 0.91 0.42
5 -12 13 2.51 0.43
5 -12 13 2.72 0.47
6 -12 13 3.85 0.63
6 -12 13 4.42 0.71
7 -12 13 3.14 0.47
7 -12 13 2.43 0.54
8 -12 13 5.18 0.65
8 -12 13 4.27 0.65
9 -12 13 0.98 0.58
7 11 -13 0.25 0.42
-7 -11 13 -0.2 0.5
6 11 -13 1.66 0.45
-6 -11 13 1.74 0.53
5 11 -13 0.71 0.37
-5 -11 13 0.43 0.41
4 11 -13 0.47 0.34
-4 -11 13 0.31 0.36
-3 -11 13 0.49 0.34
-2 -11 13 1.94 0.41
-2 -11 13 1.89 0.37
-1 -11 13 4.35 0.57
-1 -11 13 5.9 0.62
0 -11 13 7.68 0.65
0 -11 13 6.72 0.69
1 -11 13 0.54 0.25
1 -11 13 0.05 0.33
2 -11 13 0.86 0.31
2 -11 13 0.78 0.33
3 -11 13 7.64 0.71
4 -11 13 0.7 0.4
5 -11 13 5.64 0.67
6 -11 13 6.74 0.67
6 -11 13 7.39 0.76
7 -11 13 1.98 0.41
7 -11 13 0.96 0.49
8 -11 13 2.77 0.57
8 -11 13 1.45 0.33
9 -11 13 4.97 0.89
10 -11 13 0.75 0.65
8 10 -13 1.02 0.5
-8 -10 13 0.43 0.57
7 10 -13 10.52 0.95
-7 -10 13 12.5 1.13
6 10 -13 0.96 0.4
-6 -10 13 0.66 0.45
5 10 -13 2.25 0.43
-5 -10 13 1.43 0.44
4 10 -13 1.75 0.38
-4 -10 13 1.47 0.4
-3 -10 13 0.11 0.3
-2 -10 13 0.26 0.3
-2 -10 13 -0.03 0.33
-1 -10 13 45.59 2.64
-1 -10 13 50.48 2.46
0 -10 13 0.59 0.33
0 -10 13 1.21 0.29
1 -10 13 9.02 0.68
1 -10 13 9 0.73
2 -10 13 9.31 0.73
2 -10 13 8.01 0.69
3 -10 13 4.78 0.6
3 -10 13 5.2 0.57
4 -10 13 5.01 0.64
5 -10 13 20.16 1.2
6 -10 13 5.51 0.62
6 -10 13 5.57 0.7
7 -10 13 8.25 0.86
7 -10 13 10.15 0.73
8 -10 13 6.33 0.81
8 -10 13 4.36 0.47
9 -10 13 -0.18 0.53
10 -10 13 3.66 0.7
8 9 -13 2.27 0.54
-8 -9 13 2.47 0.63
7 9 -13 0.25 0.42
-7 -9 13 0.58 0.48
6 9 -13 13.11 0.97
-6 -9 13 13.56 1.1
5 9 -13 4.95 0.63
-5 -9 13 4.75 0.7
4 9 -13 9.49 0.75
-4 -9 13 9.42 0.81
3 9 -13 5.44 0.59
-3 -9 13 5.48 0.63
-2 -9 13 10.44 0.8
-1 -9 13 1.58 0.32
-1 -9 13 1.37 0.32
0 -9 13 30.31 1.74
0 -9 13 30.82 1.63
1 -9 13 0.31 0.3
1 -9 13 0.45 0.26
2 -9 13 16.07 0.94
2 -9 13 14.63 1.02
3 -9 13 12.49 0.84
3 -9 13 12.42 0.87
4 -9 13 9.08 0.74
5 -9 13 0.57 0.36
6 -9 13 1.07 0.42
7 -9 13 1.41 0.28
7 -9 13 1.22 0.48
8 -9 13 5.72 0.5
8 -9 13 9.02 0.84
9 -9 13 2.5 0.61
10 -9 13 0.6 0.62
9 8 -13 4.75 0.86
-9 -8 13 5.68 1.01
8 8 -13 7.61 0.88
-8 -8 13 9.28 1.02
7 8 -13 0.19 0.4
-7 -8 13 0.25 0.45
6 8 -13 3.4 0.48
-6 -8 13 3.49 0.69
5 8 -13 3.02 0.55
-5 -8 13 2.55 0.45
4 8 -13 11.92 0.87
-4 -8 13 13.41 0.94
3 8 -13 -0.21 0.26
-3 -8 13 -0.04 0.29
-2 -8 13 41.89 2.34
-1 -8 13 0.68 0.27
-1 -8 13 0.38 0.27
0 -8 13 0.92 0.29
0 -8 13 0.98 0.27
1 -8 13 0.43 0.28
1 -8 13 0.46 0.29
2 -8 13 15.55 0.95
2 -8 13 16.45 1.05
3 -8 13 0.29 0.29
3 -8 13 -0.04 0.3
4 -8 13 2.56 0.4
4 -8 13 2.82 0.5
5 -8 13 6.02 0.63
5 -8 13 5.85 0.62
6 -8 13 6.17 0.65
6 -8 13 5.06 0.67
7 -8 13 0.38 0.45
7 -8 13 0.82 0.24
8 -8 13 2.14 0.52
9 -8 13 12.76 1.09
10 -8 13 0.38 0.62
9 7 -13 2.49 0.57
-9 -7 13 3.24 0.67
8 7 -13 5.59 0.79
-8 -7 13 5.74 0.89
7 7 -13 0.89 0.42
-7 -7 13 0.72 0.44
6 7 -13 3.88 0.64
-6 -7 13 5.18 0.7
5 7 -13 1.74 0.37
-5 -7 13 1.72 0.39
4 7 -13 0.15 0.27
-4 -7 13 0.04 0.3
3 7 -13 16.1 0.97
-3 -7 13 15.82 1.06
-2 -7 13 5.3 0.57
-1 -7 13 3.04 0.47
-1 -7 13 3.59 0.45
0 -7 13 0.68 0.27
0 -7 13 0.31 0.25
1 -7 13 1.78 0.35
1 -7 13 1.87 0.32
2 -7 13 35.91 1.86
2 -7 13 35.91 2.02
3 -7 13 3.93 0.51
3 -7 13 3.32 0.54
4 -7 13 1.75 0.36
4 -7 13 1.95 0.37
5 -7 13 7.16 0.66
5 -7 13 7.28 0.69
6 -7 13 1.11 0.39
6 -7 13 1.41 0.42
7 -7 13 -0.01 0.43
7 -7 13 0.47 0.4
7 -7 13 0.16 0.21
8 -7 13 9.61 0.91
8 -7 13 7.91 0.85
9 -7 13 7.58 0.93
10 -7 13 1.13 0.62
9 6 -13 4.61 0.81
-9 -6 13 2.53 0.63
8 6 -13 1.26 0.49
-8 -6 13 1.03 0.48
7 6 -13 1.32 0.44
-7 -6 13 1.09 0.44
6 6 -13 12.76 0.9
-6 -6 13 12.29 0.98
5 6 -13 1.97 0.36
-5 -6 13 1.78 0.4
4 6 -13 0.55 0.28
-4 -6 13 0.89 0.33
3 6 -13 7.77 0.59
-3 -6 13 6.35 0.65
-2 -6 13 2.42 0.47
-1 -6 13 13.13 0.85
-1 -6 13 12.12 0.78
0 -6 13 30.11 1.58
0 -6 13 30.36 1.72
1 -6 13 15.82 1.09
1 -6 13 17.84 0.98
2 -6 13 0.11 0.27
2 -6 13 0.29 0.3
3 -6 13 11.57 0.85
3 -6 13 11.19 0.77
4 -6 13 -0.36 0.3
4 -6 13 -0.23 0.31
5 -6 13 6.4 0.68
5 -6 13 7.13 0.64
6 -6 13 18.57 1.21
6 -6 13 22.31 1.33
7 -6 13 43.84 2.45
7 -6 13 41.13 2.24
8 -6 13 5.45 0.78
8 -6 13 6.73 0.86
9 -6 13 0.71 0.55
9 -6 13 -0.19 0.55
10 -6 13 -0.05 0.57
10 5 -13 1.11 0.6
-10 -5 13 1.12 0.62
9 5 -13 5.38 0.86
-9 -5 13 5.76 0.92
8 5 -13 2.62 0.52
-8 -5 13 2.91 0.56
7 5 -13 9.79 0.83
-7 -5 13 8.72 0.87
6 5 -13 0.25 0.35
-6 -5 13 0.38 0.37
5 5 -13 3.44 0.52
-5 -5 13 3.05 0.58
4 5 -13 0.12 0.26
-4 -5 13 0.08 0.3
3 5 -13 12.4 0.79
-3 -5 13 12.59 0.88
-2 -5 13 8.4 0.68
-1 -5 13 55.95 2.98
-1 -5 13 53.96 2.74
0 -5 13 12.95 0.78
0 -5 13 11.87 0.85
1 -5 13 26.16 1.55
1 -5 13 26.85 1.4
2 -5 13 0.24 0.3
2 -5 13 -0.08 0.25
3 -5 13 30.41 1.73
3 -5 13 29.03 1.57
4 -5 13 2.79 0.55
4 -5 13 2.84 0.48
5 -5 13 7.15 0.68
5 -5 13 9.01 0.77
6 -5 13 2.98 0.47
6 -5 13 3.53 0.65
7 -5 13 6.42 0.76
7 -5 13 9.65 0.89
8 -5 13 2.44 0.53
8 -5 13 3.04 0.6
9 -5 13 1.9 0.59
9 -5 13 2.78 0.63
10 -5 13 0.09 0.58
10 4 -13 0.63 0.59
-10 -4 13 0.17 0.56
9 4 -13 14.7 1.14
-9 -4 13 13.47 1.2
8 4 -13 8.48 0.87
-8 -4 13 9.69 0.94
7 4 -13 2.38 0.45
-7 -4 13 2.55 0.5
6 4 -13 2.9 0.42
-6 -4 13 1.64 0.43
5 4 -13 2.67 0.48
-5 -4 13 2.94 0.57
4 4 -13 0.23 0.25
-4 -4 13 0.18 0.29
3 4 -13 8.37 0.61
-3 -4 13 8.35 0.69
-2 -4 13 19.46 1.18
-1 -4 13 12.91 0.84
-1 -4 13 12.11 0.76
0 -4 13 12.56 0.76
0 -4 13 11.51 0.86
1 -4 13 15.17 0.87
2 -4 13 -0.2 0.3
2 -4 13 -0.12 0.24
3 -4 13 11.64 0.88
3 -4 13 12.41 0.78
4 -4 13 21.83 1.23
4 -4 13 22.76 1.39
5 -4 13 3.61 0.54
5 -4 13 4.28 0.66
6 -4 13 6.26 0.75
6 -4 13 4.72 0.64
7 -4 13 4.19 0.67
7 -4 13 5.21 0.8
8 -4 13 3.95 0.67
8 -4 13 3.41 0.57
9 -4 13 -0.14 0.57
9 -4 13 -0.2 0.52
10 -4 13 0.41 0.61
10 -4 13 1.12 0.66
10 3 -13 2.49 0.65
-10 -3 13 1.77 0.64
9 3 -13 1.1 0.54
-9 -3 13 0.4 0.51
8 3 -13 2.53 0.51
-8 -3 13 1.81 0.52
7 3 -13 0.34 0.38
-7 -3 13 0.19 0.41
6 3 -13 5.81 0.63
-6 -3 13 5.96 0.71
5 3 -13 8.85 0.65
-5 -3 13 7.61 0.75
4 3 -13 7.28 0.59
-4 -3 13 8.81 0.72
3 3 -13 1.83 0.29
-3 -3 13 1.43 0.31
-2 -3 13 0.12 0.24
-1 -3 13 5.71 0.48
-1 -3 13 5.39 0.56
0 -3 13 7.18 0.65
0 -3 13 7.53 0.56
1 -3 13 5.68 0.59
1 -3 13 6.18 0.5
2 -3 13 1.89 0.38
2 -3 13 2.26 0.4
3 -3 13 4.56 0.48
3 -3 13 4.03 0.59
4 -3 13 0.75 0.38
4 -3 13 0.14 0.31
5 -3 13 0.37 0.41
5 -3 13 -0.07 0.35
6 -3 13 0.23 0.44
6 -3 13 0 0.37
7 -3 13 0.53 0.44
7 -3 13 0.36 0.5
8 -3 13 0.47 0.55
8 -3 13 0.27 0.49
9 -3 13 7.56 1.05
9 -3 13 5.43 0.87
10 -3 13 1.13 0.69
10 -3 13 0.48 0.61
10 2 -13 1.04 0.59
-10 -2 13 0.37 0.58
9 2 -13 7.63 0.88
-9 -2 13 6.35 0.93
8 2 -13 0.3 0.45
-8 -2 13 0.27 0.47
7 2 -13 1.79 0.43
-7 -2 13 0.69 0.44
6 2 -13 0.48 0.31
-6 -2 13 0.43 0.37
5 2 -13 5.27 0.54
-5 -2 13 5.07 0.65
4 2 -13 3.62 0.43
-4 -2 13 3.62 0.54
3 2 -13 13.98 0.82
-3 -2 13 13.67 0.92
-2 -2 13 4.61 0.51
-1 -2 13 1.47 0.26
-1 -2 13 1.9 0.35
0 -2 13 0.26 0.25
0 -2 13 0.1 0.23
1 -2 13 0.82 0.31
1 -2 13 -0.08 0.23
2 -2 13 56.13 2.78
3 -2 13 3.05 0.43
3 -2 13 3.1 0.57
4 -2 13 0.86 0.31
4 -2 13 0.69 0.39
5 -2 13 0.46 0.43
5 -2 13 0.59 0.34
6 -2 13 0.49 0.46
6 -2 13 0.62 0.38
7 -2 13 13.75 1.2
7 -2 13 13.59 1
8 -2 13 31.29 1.94
8 -2 13 26.74 1.67
9 -2 13 -0.46 0.52
9 -2 13 0.57 0.65
10 1 -13 0.33 0.59
-10 -1 13 -0.23 0.56
9 1 -13 0.49 0.52
-9 -1 13 0.06 0.51
8 1 -13 9.85 0.85
-8 -1 13 7.99 0.94
7 1 -13 1.24 0.41
7 1 -13 1.2 0.38
-7 -1 13 0.73 0.43
6 1 -13 8.64 0.68
6 1 -13 8.3 0.66
-6 -1 13 8.34 0.81
5 1 -13 5.08 0.52
5 1 -13 4.76 0.5
-5 -1 13 4.56 0.63
4 1 -13 0.1 0.24
4 1 -13 0.16 0.24
-4 -1 13 0.12 0.28
3 1 -13 10.65 0.66
3 1 -13 9.61 0.62
-3 -1 13 9.54 0.74
2 1 -13 34.21 1.61
-2 -1 13 32.69 1.91
-1 -1 13 3.29 0.51
-1 -1 13 3.36 0.39
0 -1 13 48.48 2.8
0 -1 13 53.69 2.54
1 -1 13 4.86 0.59
1 -1 13 5.28 0.45
2 -1 13 0.55 0.25
2 -1 13 0.3 0.32
3 -1 13 0.23 0.26
3 -1 13 0.14 0.36
4 -1 13 4.23 0.53
4 -1 13 5.31 0.71
5 -1 13 1.57 0.48
5 -1 13 1.66 0.37
6 -1 13 24.65 1.45
6 -1 13 26.74 1.69
7 -1 13 17.99 1.18
7 -1 13 18.76 1.42
8 -1 13 -0.15 0.5
8 -1 13 0.19 0.57
9 -1 13 0.62 0.57
9 -1 13 0.22 0.67
11 0 -13 0.94 0.66
-11 0 13 -0.23 0.62
-10 0 13 0.72 0.57
9 0 -13 -0.39 0.37
-9 0 13 0.07 0.49
8 0 -13 14.74 0.96
8 0 -13 15.3 1.07
-8 0 13 14.99 1.19
7 0 -13 16.9 0.98
7 0 -13 17.29 1.07
-7 0 13 15.77 1.22
6 0 -13 1.3 0.31
6 0 -13 1.42 0.35
-6 0 13 0.73 0.4
5 0 -13 9.57 0.7
5 0 -13 10.49 0.66
-5 0 13 10.55 0.82
4 0 -13 10.77 0.68
4 0 -13 11.88 0.72
-4 0 13 11.55 0.84
3 0 -13 8 0.54
3 0 -13 8.71 0.59
-3 0 13 8.08 0.71
2 0 -13 37.75 1.75
-2 0 13 35.21 2.09
1 0 -13 76.98 3.58
-1 0 13 78.86 3.8
0 0 13 4.57 0.41
0 0 13 4.35 0.56
1 0 13 4.92 0.43
1 0 13 4.73 0.61
2 0 13 14.75 0.81
2 0 13 13.45 1.01
3 0 13 -0.13 0.23
3 0 13 -0.11 0.37
4 0 13 15.82 1.14
4 0 13 14.23 0.87
5 0 13 28.9 1.63
5 0 13 34.05 1.94
6 0 13 0.1 0.31
6 0 13 0.87 0.53
7 0 13 0.3 0.35
7 0 13 -0.03 0.57
8 0 13 0.8 0.65
8 0 13 0.27 0.41
9 0 13 0.31 0.47
9 0 13 1.1 0.73
-11 1 13 2.12 0.68
10 -1 -13 2.8 0.42
10 -1 -13 2.94 0.61
-10 1 13 1.8 0.62
9 -1 -13 26.12 1.46
9 -1 -13 29.61 1.62
-9 1 13 26.73 1.81
8 -1 -13 6 0.74
8 -1 -13 4.58 0.58
-8 1 13 5.04 0.83
7 -1 -13 3.2 0.4
7 -1 -13 2.3 0.44
-7 1 13 2.83 0.53
6 -1 -13 1.51 0.32
6 -1 -13 1.56 0.35
-6 1 13 1.28 0.41
5 -1 -13 11.94 0.75
5 -1 -13 11.15 0.7
-5 1 13 11.24 0.88
4 -1 -13 3.66 0.42
4 -1 -13 3.35 0.4
-4 1 13 3.06 0.55
3 -1 -13 57.79 2.68
3 -1 -13 61.11 2.85
-3 1 13 53.34 3.16
2 -1 -13 8.7 0.54
-2 1 13 7.9 0.72
-2 1 13 9.04 0.58
1 -1 -13 11.33 0.62
-1 1 13 9.61 0.62
-1 1 13 11.46 0.81
0 -1 -13 0.05 0.2
0 1 13 -0.26 0.3
1 1 13 11.01 0.87
2 1 13 1.01 0.39
3 1 13 16.37 1.08
3 1 13 12.52 0.77
4 1 13 8.59 0.6
4 1 13 11.42 0.96
5 1 13 1.28 0.5
5 1 13 0.42 0.26
6 1 13 1.45 0.58
6 1 13 1.01 0.3
7 1 13 4.91 0.58
7 1 13 6.32 1.04
8 1 13 2.86 0.77
9 1 13 1.22 0.75
11 -2 -13 9.76 1.06
-11 2 13 7.51 1.12
10 -2 -13 0.8 0.53
10 -2 -13 0.17 0.38
-10 2 13 0.07 0.55
9 -2 -13 0.47 0.35
9 -2 -13 0.3 0.47
-9 2 13 -0.19 0.51
8 -2 -13 0.1 0.4
8 -2 -13 0.15 0.33
-8 2 13 -0.26 0.45
7 -2 -13 2.02 0.37
7 -2 -13 2.51 0.42
-7 2 13 1.44 0.45
6 -2 -13 3.97 0.53
6 -2 -13 3.66 0.48
-6 2 13 3.62 0.64
5 -2 -13 31.92 1.63
5 -2 -13 35 1.72
-5 2 13 32.44 1.94
4 -2 -13 13.61 0.8
4 -2 -13 14.87 0.82
-4 2 13 13.39 1.01
3 -2 -13 8.22 0.55
3 -2 -13 7.79 0.53
-3 2 13 6.33 0.72
2 -2 -13 3.68 0.38
-2 2 13 3.32 0.55
1 -2 -13 1.11 0.22
-1 2 13 0.93 0.35
0 -2 -13 22.1 1.05
0 2 13 19.26 1.32
-1 -2 -13 6.97 0.5
1 2 13 6.33 0.71
2 2 13 1.82 0.46
3 2 13 8.18 0.86
4 2 13 -0.18 0.23
4 2 13 0.03 0.46
5 2 13 0.23 0.5
5 2 13 0.31 0.27
6 2 13 8.47 0.72
6 2 13 12.57 1.16
7 2 13 0.92 0.68
8 2 13 0.29 0.71
11 -3 -13 -0.01 0.32
11 -3 -13 0.93 0.58
-11 3 13 0.91 0.53
10 -3 -13 4.6 0.8
10 -3 -13 4.65 0.61
-10 3 13 2.03 0.61
9 -3 -13 0.89 0.46
9 -3 -13 -0.08 0.35
-9 3 13 -0.23 0.49
8 -3 -13 0.83 0.35
8 -3 -13 0.66 0.41
-8 3 13 0.26 0.45
7 -3 -13 -0.38 0.3
7 -3 -13 -0.19 0.35
-7 3 13 0.12 0.42
6 -3 -13 0.14 0.28
6 -3 -13 0.35 0.31
-6 3 13 -0.11 0.39
5 -3 -13 5.82 0.54
5 -3 -13 7.39 0.55
-5 3 13 6.29 0.76
4 -3 -13 3.67 0.42
4 -3 -13 4.13 0.44
-4 3 13 4.08 0.55
3 -3 -13 1.3 0.26
-3 3 13 1.08 0.36
2 -3 -13 10.49 0.62
-2 3 13 9.58 0.83
1 -3 -13 0.68 0.23
-1 3 13 0.58 0.36
0 -3 -13 0.22 0.21
0 3 13 0.17 0.36
-1 -3 -13 10.74 0.61
1 3 13 8.99 0.88
2 3 13 -0.39 0.4
3 3 13 3.98 0.62
4 3 13 1.82 0.55
5 3 13 2.45 0.62
6 3 13 3.91 0.76
7 3 13 16.6 1.52
8 3 13 9.13 1.31
10 -4 -13 0.04 0.37
-10 4 13 -0.46 0.4
9 -4 -13 6.79 0.78
9 -4 -13 5.49 0.62
-9 4 13 4.4 0.76
8 -4 -13 0.19 0.33
8 -4 -13 0.1 0.39
-8 4 13 1.21 0.5
7 -4 -13 2.21 0.37
7 -4 -13 2.45 0.42
-7 4 13 2 0.52
6 -4 -13 0.61 0.3
6 -4 -13 1.22 0.33
-6 4 13 0.81 0.46
5 -4 -13 2.5 0.35
5 -4 -13 3 0.44
-5 4 13 2.44 0.51
4 -4 -13 1.86 0.31
-4 4 13 2.13 0.43
3 -4 -13 1.37 0.28
-3 4 13 1.05 0.4
2 -4 -13 -0.1 0.23
-2 4 13 -0.06 0.37
1 -4 -13 46.26 2.15
-1 4 13 44.56 2.58
0 -4 -13 19.12 0.95
0 4 13 16.97 1.25
-1 -4 -13 1.33 0.24
1 4 13 1.1 0.45
-2 -4 -13 5.71 0.45
2 4 13 4.96 0.79
3 4 13 1.02 0.5
4 4 13 2.99 0.63
5 4 13 6.12 1
6 4 13 10.97 1.27
7 4 13 2.69 0.81
10 -5 -13 0.63 0.41
9 -5 -13 2.91 0.45
-9 5 13 3.75 0.66
8 -5 -13 32.78 1.56
8 -5 -13 25.16 1.43
-8 5 13 23.7 1.7
7 -5 -13 0.37 0.36
7 -5 -13 0.25 0.31
-7 5 13 0.48 0.5
6 -5 -13 4.41 0.53
6 -5 -13 3.53 0.49
-6 5 13 3.04 0.61
5 -5 -13 2 0.33
-5 5 13 2.14 0.48
4 -5 -13 0.38 0.27
-4 5 13 1.08 0.43
3 -5 -13 3.81 0.45
-3 5 13 3.76 0.68
2 -5 -13 51.64 2.38
-2 5 13 48.97 2.84
1 -5 -13 0.65 0.26
-1 5 13 0.74 0.42
0 -5 -13 14.23 0.76
0 5 13 11.84 1.06
-1 -5 -13 6.38 0.48
1 5 13 6.24 0.82
-2 -5 -13 7.12 0.49
2 5 13 4.88 0.88
3 5 13 3.23 0.62
4 5 13 26.11 1.8
5 5 13 6.37 1.08
6 5 13 4.03 0.85
7 5 13 0.46 0.75
10 -6 -13 5.41 0.67
9 -6 -13 5.58 0.64
8 -6 -13 6.36 0.7
8 -6 -13 4.32 0.59
-8 6 13 4.83 0.72
7 -6 -13 0.11 0.33
7 -6 -13 0.7 0.36
-7 6 13 1.34 0.43
6 -6 -13 -0.25 0.3
-6 6 13 -0.06 0.45
5 -6 -13 0.48 0.31
-5 6 13 0.88 0.45
4 -6 -13 20.69 1.12
-4 6 13 21.42 1.42
3 -6 -13 21.81 1.16
-3 6 13 22.76 1.48
2 -6 -13 2.82 0.43
-2 6 13 2.87 0.52
1 -6 -13 4.35 0.45
-1 6 13 3.35 0.58
0 -6 -13 4.26 0.43
0 6 13 3.46 0.6
-1 -6 -13 1.86 0.28
1 6 13 1 0.53
-2 -6 -13 5.49 0.45
2 6 13 4.97 0.88
3 6 13 1.37 0.59
4 6 13 1.68 0.63
5 6 13 1.11 0.67
6 6 13 0.13 0.71
10 -7 -13 0.03 0.41
9 -7 -13 1 0.4
8 -7 -13 1.07 0.4
-8 7 13 0.54 0.43
7 -7 -13 1.86 0.39
-7 7 13 0.82 0.44
6 -7 -13 0.15 0.32
-6 7 13 -0.09 0.37
5 -7 -13 8.57 0.67
-5 7 13 10.3 0.95
4 -7 -13 -0.4 0.29
-4 7 13 -0.34 0.45
3 -7 -13 1.92 0.35
-3 7 13 1.63 0.54
2 -7 -13 0.44 0.28
-2 7 13 0.16 0.48
1 -7 -13 -0.16 0.25
-1 7 13 -0.56 0.49
0 -7 -13 0.17 0.25
0 7 13 -0.71 0.48
-1 -7 -13 3.45 0.42
1 7 13 3.68 0.67
-2 -7 -13 1.42 0.26
2 7 13 0.63 0.57
3 7 13 1.8 0.65
4 7 13 4.1 0.81
5 7 13 1.36 0.74
9 -8 -13 0.25 0.41
8 -8 -13 -0.12 0.37
7 -8 -13 -0.18 0.35
-7 8 13 0.1 0.4
6 -8 -13 5.6 0.57
-6 8 13 4.09 0.68
5 -8 -13 5.3 0.55
-5 8 13 4.42 0.71
4 -8 -13 -0.08 0.29
-4 8 13 -0.52 0.5
3 -8 -13 0.06 0.29
-3 8 13 -0.26 0.5
2 -8 -13 1.08 0.32
-2 8 13 0.67 0.56
1 -8 -13 5.54 0.51
-1 8 13 4.5 0.89
0 -8 -13 -0.13 0.26
0 8 13 0.11 0.56
-1 -8 -13 8.2 0.56
1 8 13 5.17 1.02
2 8 13 0.03 0.59
3 8 13 4.25 0.79
4 8 13 0.53 0.7
5 8 13 2.02 0.8
9 -9 -13 4.97 0.72
8 -9 -13 -0.52 0.39
7 -9 -13 3.04 0.44
6 -9 -13 2.67 0.41
-6 9 13 2.32 0.56
5 -9 -13 9.88 0.69
-5 9 13 7.4 0.84
4 -9 -13 0.81 0.34
-4 9 13 0.82 0.45
3 -9 -13 1.42 0.34
-3 9 13 0.79 0.58
2 -9 -13 0.56 0.31
-2 9 13 0.35 0.56
1 -9 -13 6.76 0.56
-1 9 13 4.09 0.75
0 -9 -13 9.19 0.64
0 9 13 8.56 1.12
-1 -9 -13 0.45 0.28
1 9 13 0.7 0.62
2 9 13 2.15 0.71
3 9 13 6.13 1.21
4 9 13 -1.01 0.71
8 -10 -13 0.24 0.39
7 -10 -13 0.51 0.37
6 -10 -13 0.3 0.38
5 -10 -13 5.13 0.58
-5 10 13 3.38 0.69
4 -10 -13 6.85 0.62
-4 10 13 5.48 0.8
3 -10 -13 0.22 0.32
-3 10 13 0.32 0.46
2 -10 -13 8.33 0.65
-2 10 13 8.03 1.11
1 -10 -13 2.8 0.49
-1 10 13 2.53 0.69
0 -10 -13 3.58 0.5
0 10 13 4 0.76
1 10 13 2.05 0.73
2 10 13 1.64 0.75
3 10 13 1.09 0.76
7 -11 -13 -0.43 0.4
6 -11 -13 0.56 0.38
5 -11 -13 2.15 0.41
4 -11 -13 0.52 0.35
-4 11 13 1.13 0.46
3 -11 -13 0.41 0.34
-3 11 13 0.19 0.45
2 -11 -13 0.14 0.33
-2 11 13 1.5 0.58
1 -11 -13 -0.06 0.33
-1 11 13 -0.29 0.63
0 -11 -13 1.68 0.35
0 11 13 0.75 0.71
1 11 13 0.86 0.75
2 11 13 0.16 0.78
6 -12 -13 -0.53 0.37
5 -12 -13 1.97 0.43
4 -12 -13 5.05 0.62
3 -12 -13 0.27 0.37
-3 12 13 1.8 0.52
2 -12 -13 -0.08 0.34
-2 12 13 0.62 0.54
1 -12 -13 0.55 0.36
-1 12 13 0.43 0.69
0 12 13 2.1 0.81
1 12 13 -0.43 0.79
5 -13 -13 -0.26 0.39
4 -13 -13 5.99 0.73
3 -13 -13 1.21 0.44
2 -13 -13 3.47 0.58
2 -19 14 0.17 0.56
3 -19 14 -0.53 0.54
-1 -18 14 4.66 0.75
-1 -18 14 2.63 0.61
0 -18 14 0.5 0.45
0 -18 14 -0.26 0.45
1 -18 14 1.99 0.54
1 -18 14 2.71 0.53
2 -18 14 1.81 0.55
2 -18 14 1.9 0.51
3 -18 14 0.94 0.49
3 -18 14 -0.02 0.52
4 -18 14 1.16 0.57
4 -18 14 0.83 0.5
5 -18 14 10.83 1.09
5 -18 14 11.01 0.96
-2 -17 14 10.85 1.1
-2 -17 14 12.98 0.94
-1 -17 14 1.5 0.44
-1 -17 14 1.13 0.53
0 -17 14 0.3 0.42
0 -17 14 0.54 0.49
1 -17 14 -0.2 0.42
1 -17 14 -0.35 0.44
2 -17 14 2.78 0.51
2 -17 14 2.01 0.54
3 -17 14 0.56 0.46
3 -17 14 0.41 0.5
4 -17 14 9.68 0.91
4 -17 14 11.74 1.03
5 -17 14 -0.15 0.46
5 -17 14 0.07 0.55
6 -17 14 2.68 0.55
6 -17 14 2.71 0.61
7 -17 14 -0.21 0.49
7 -17 14 0.3 0.6
-3 -16 14 0.51 0.45
-3 -16 14 0.54 0.5
-2 -16 14 0.14 0.4
-2 -16 14 0.15 0.47
-1 -16 14 0.37 0.46
-1 -16 14 -0.41 0.36
0 -16 14 0.56 0.47
1 -16 14 0.45 0.43
2 -16 14 35.25 1.83
2 -16 14 34.21 1.94
3 -16 14 1.59 0.51
3 -16 14 2.17 0.5
4 -16 14 1.44 0.53
4 -16 14 1.25 0.46
5 -16 14 0.45 0.52
5 -16 14 0.02 0.44
6 -16 14 5.41 0.88
6 -16 14 4.82 0.75
7 -16 14 2.11 0.52
7 -16 14 2.24 0.61
-4 -15 14 -0.37 0.44
-4 -15 14 0.58 0.49
-3 -15 14 0.42 0.43
-3 -15 14 -0.18 0.45
-2 -15 14 3.37 0.55
-2 -15 14 2.82 0.49
-1 -15 14 2.02 0.5
-1 -15 14 1.97 0.42
0 -15 14 2.39 0.51
0 -15 14 1.68 0.38
1 -15 14 1.17 0.43
2 -15 14 -0.38 0.42
3 -15 14 0.35 0.4
3 -15 14 0.53 0.45
4 -15 14 0.23 0.48
4 -15 14 0.32 0.43
5 -15 14 8.49 0.8
5 -15 14 7.28 0.88
6 -15 14 1.18 0.46
6 -15 14 0.93 0.53
7 -15 14 0.79 0.56
7 -15 14 1.35 0.48
8 -15 14 0.08 0.61
8 -15 14 -0.13 0.46
-5 -14 14 2.3 0.57
-4 -14 14 1.33 0.48
-4 -14 14 1.58 0.56
-3 -14 14 -0.26 0.37
-3 -14 14 0.11 0.44
-2 -14 14 2.75 0.47
-2 -14 14 3.27 0.52
-1 -14 14 4.13 0.74
-1 -14 14 3.55 0.6
0 -14 14 -0.14 0.31
0 -14 14 0.02 0.41
1 -14 14 3.38 0.49
1 -14 14 2.75 0.49
2 -14 14 -0.29 0.4
3 -14 14 0.42 0.43
4 -14 14 16.82 1.06
4 -14 14 16.76 1.16
5 -14 14 0.15 0.47
5 -14 14 -0.15 0.41
6 -14 14 4.78 0.68
6 -14 14 3.52 0.59
7 -14 14 2.32 0.59
7 -14 14 1.59 0.47
8 -14 14 0.07 0.58
8 -14 14 -0.06 0.44
9 -14 14 0.56 0.46
6 13 -14 0.55 0.43
-6 -13 14 0.6 0.54
-5 -13 14 -0.01 0.46
-4 -13 14 7.16 0.84
-3 -13 14 4.73 0.7
-3 -13 14 5.44 0.81
-2 -13 14 0.02 0.39
-2 -13 14 0.5 0.38
-1 -13 14 11.99 0.96
-1 -13 14 12.56 0.92
0 -13 14 12.28 0.94
0 -13 14 12.31 0.9
1 -13 14 3.78 0.5
1 -13 14 3.37 0.49
2 -13 14 3.3 0.48
3 -13 14 0.54 0.42
4 -13 14 4.43 0.73
5 -13 14 13.64 0.93
5 -13 14 12.95 1
6 -13 14 1.21 0.49
6 -13 14 0.48 0.41
7 -13 14 4.31 0.68
7 -13 14 4.98 0.83
8 -13 14 -0.45 0.56
8 -13 14 0.26 0.42
9 -13 14 2.73 0.43
9 -13 14 5.8 0.95
7 12 -14 8.36 0.93
-7 -12 14 8.21 1.07
6 12 -14 1.32 0.48
-6 -12 14 1.19 0.53
5 12 -14 0.13 0.37
-5 -12 14 0.5 0.45
-4 -12 14 2.67 0.49
-3 -12 14 19.41 1.26
-3 -12 14 18.04 1.25
-2 -12 14 11.26 0.9
-2 -12 14 10.48 0.88
-1 -12 14 3.89 0.65
-1 -12 14 3.61 0.56
0 -12 14 1.16 0.32
0 -12 14 0.26 0.37
1 -12 14 1 0.39
1 -12 14 0.7 0.3
2 -12 14 5.8 0.67
2 -12 14 5.76 0.62
3 -12 14 41.17 2.18
4 -12 14 12.75 0.96
5 -12 14 9.13 0.84
6 -12 14 4.05 0.64
6 -12 14 3.87 0.56
7 -12 14 -0.06 0.39
7 -12 14 0.24 0.51
8 -12 14 0.42 0.4
8 -12 14 0.54 0.56
9 -12 14 11.52 1.12
7 11 -14 1.48 0.48
-7 -11 14 0.76 0.54
6 11 -14 3.91 0.56
-6 -11 14 2.94 0.59
5 11 -14 14.66 1.06
-5 -11 14 14.97 1.15
4 11 -14 16.63 1.09
-4 -11 14 16.59 1.18
-3 -11 14 8.25 0.78
-2 -11 14 11.89 0.92
-2 -11 14 12.37 0.92
-1 -11 14 0.59 0.35
-1 -11 14 0.01 0.29
0 -11 14 -0.12 0.35
0 -11 14 -0.1 0.28
1 -11 14 16.68 1.09
1 -11 14 18.26 1.1
2 -11 14 23.51 1.31
2 -11 14 21.77 1.38
3 -11 14 7.74 0.74
4 -11 14 5.75 0.7
5 -11 14 4.37 0.67
6 -11 14 0.29 0.4
6 -11 14 0.61 0.45
7 -11 14 -0.13 0.48
7 -11 14 0.27 0.39
8 -11 14 6.28 0.6
8 -11 14 9.58 0.92
9 -11 14 5.04 0.71
8 10 -14 -0.12 0.47
-8 -10 14 0.1 0.6
7 10 -14 2.77 0.52
-7 -10 14 2.69 0.6
6 10 -14 14.2 1.02
-6 -10 14 12.77 1.11
5 10 -14 9.41 0.85
-5 -10 14 9.9 0.91
4 10 -14 11.91 0.87
-4 -10 14 10.73 0.92
-3 -10 14 1.63 0.39
-2 -10 14 3.39 0.61
-2 -10 14 2.91 0.56
-1 -10 14 1.54 0.35
-1 -10 14 2.08 0.36
0 -10 14 2.69 0.4
0 -10 14 1.87 0.34
1 -10 14 3.72 0.56
1 -10 14 2.78 0.5
2 -10 14 28.67 1.55
2 -10 14 27.97 1.67
3 -10 14 4.91 0.59
3 -10 14 4.5 0.61
4 -10 14 7.38 0.74
5 -10 14 3.87 0.63
6 -10 14 0.31 0.44
7 -10 14 2.36 0.42
7 -10 14 4.11 0.74
8 -10 14 4.37 0.79
8 -10 14 1.92 0.33
9 -10 14 1.75 0.6
8 9 -14 1.87 0.53
-8 -9 14 2.27 0.61
7 9 -14 1.96 0.49
-7 -9 14 2.29 0.55
6 9 -14 5.54 0.72
-6 -9 14 6.6 0.8
5 9 -14 8.1 0.78
-5 -9 14 8.49 0.83
4 9 -14 -0.01 0.32
-4 -9 14 0.66 0.38
-3 -9 14 5.76 0.67
-2 -9 14 0.4 0.31
-2 -9 14 0.77 0.35
-1 -9 14 11.47 0.86
-1 -9 14 11.81 0.81
0 -9 14 2.27 0.38
0 -9 14 1.84 0.33
1 -9 14 3.01 0.4
1 -9 14 2.56 0.51
2 -9 14 0.59 0.35
2 -9 14 0.71 0.32
3 -9 14 24.02 1.43
3 -9 14 23.48 1.34
4 -9 14 8.37 0.75
4 -9 14 9.72 0.77
5 -9 14 0.86 0.4
5 -9 14 1.3 0.38
6 -9 14 7.74 0.78
7 -9 14 4.09 0.73
7 -9 14 2.69 0.43
8 -9 14 -0.44 0.25
8 -9 14 0.03 0.51
9 -9 14 0.11 0.56
10 -9 14 3.32 0.77
8 8 -14 0.47 0.48
-8 -8 14 0.25 0.51
7 8 -14 -0.04 0.42
-7 -8 14 0.11 0.44
6 8 -14 5.25 0.69
-6 -8 14 5.45 0.75
5 8 -14 2.58 0.43
-5 -8 14 2.37 0.45
4 8 -14 3.98 0.56
-4 -8 14 3.09 0.61
3 8 -14 2.01 0.35
-3 -8 14 1.97 0.38
-2 -8 14 50.69 2.56
-2 -8 14 49.4 2.77
-1 -8 14 9.14 0.69
-1 -8 14 8.96 0.73
0 -8 14 2.61 0.47
0 -8 14 2.04 0.36
1 -8 14 7.33 0.63
1 -8 14 7.06 0.68
2 -8 14 3.85 0.54
2 -8 14 3.53 0.53
3 -8 14 1.79 0.39
3 -8 14 1.16 0.36
4 -8 14 1.64 0.38
4 -8 14 1.93 0.41
5 -8 14 9.2 0.77
5 -8 14 9.45 0.8
6 -8 14 3.88 0.64
6 -8 14 3.51 0.65
7 -8 14 1.36 0.43
7 -8 14 0.81 0.25
7 -8 14 0.95 0.49
8 -8 14 7.25 0.86
9 -8 14 5.3 0.91
10 -8 14 1.33 0.65
9 7 -14 1.82 0.57
-9 -7 14 0.74 0.57
8 7 -14 0.39 0.48
-8 -7 14 0.35 0.49
7 7 -14 0.17 0.41
-7 -7 14 0 0.43
6 7 -14 9.67 0.81
-6 -7 14 9.1 0.88
5 7 -14 7.77 0.7
-5 -7 14 7.55 0.77
4 7 -14 4.2 0.58
-4 -7 14 4.54 0.63
3 7 -14 0.18 0.28
-3 -7 14 0.37 0.31
-2 -7 14 7.34 0.68
-1 -7 14 21.87 1.31
-1 -7 14 21.55 1.21
0 -7 14 4.96 0.56
0 -7 14 5.58 0.56
1 -7 14 3.87 0.6
1 -7 14 4.93 0.53
2 -7 14 18.1 1.04
2 -7 14 16.97 1.13
3 -7 14 8.96 0.75
3 -7 14 8.03 0.69
4 -7 14 0.03 0.33
4 -7 14 0.18 0.34
5 -7 14 10.2 0.78
5 -7 14 9.33 0.83
6 -7 14 0.21 0.42
6 -7 14 0.7 0.41
7 -7 14 1.46 0.47
7 -7 14 0.78 0.48
7 -7 14 1.1 0.25
8 -7 14 0.23 0.47
8 -7 14 0.47 0.5
9 -7 14 2.33 0.6
10 -7 14 1.18 0.65
9 6 -14 8.14 0.94
-9 -6 14 7.89 1.02
8 6 -14 0.79 0.48
-8 -6 14 0.63 0.49
7 6 -14 15.22 1.07
-7 -6 14 14.73 1.16
6 6 -14 5.21 0.67
-6 -6 14 5.75 0.73
5 6 -14 7.85 0.67
-5 -6 14 7.13 0.76
4 6 -14 4.03 0.53
-4 -6 14 3.6 0.59
3 6 -14 22.39 1.25
-3 -6 14 22.02 1.38
-2 -6 14 5.76 0.61
-1 -6 14 35.15 1.99
-1 -6 14 35.6 1.83
0 -6 14 6.02 0.62
0 -6 14 6.31 0.57
1 -6 14 1.13 0.3
1 -6 14 0.54 0.34
2 -6 14 0.52 0.29
2 -6 14 0.55 0.33
3 -6 14 39.15 2.07
3 -6 14 41.16 2.27
4 -6 14 14.91 1.04
4 -6 14 15.06 0.95
5 -6 14 1.03 0.38
5 -6 14 1.16 0.41
6 -6 14 0.37 0.42
6 -6 14 0.81 0.42
7 -6 14 0.18 0.46
7 -6 14 0.39 0.45
8 -6 14 3.5 0.61
8 -6 14 3.05 0.57
9 -6 14 0.9 0.57
10 -6 14 10.55 1.09
9 5 -14 0.78 0.54
-9 -5 14 0.33 0.53
8 5 -14 2.76 0.54
-8 -5 14 3.24 0.6
7 5 -14 6.74 0.76
-7 -5 14 6.3 0.81
6 5 -14 4.97 0.65
-6 -5 14 4.48 0.7
5 5 -14 15.69 0.96
-5 -5 14 14.15 1.07
4 5 -14 23.24 1.29
-4 -5 14 23.13 1.44
3 5 -14 1.64 0.32
-3 -5 14 1.95 0.37
-2 -5 14 0.61 0.28
-1 -5 14 0.82 0.3
-1 -5 14 0.92 0.26
0 -5 14 10.25 0.7
0 -5 14 9.65 0.79
1 -5 14 4.59 0.57
1 -5 14 4.54 0.5
2 -5 14 47.45 2.42
2 -5 14 48.41 2.66
3 -5 14 -0.2 0.34
3 -5 14 0.33 0.32
4 -5 14 0.05 0.37
4 -5 14 -0.04 0.32
5 -5 14 6.01 0.7
5 -5 14 4.59 0.62
6 -5 14 -0.35 0.42
6 -5 14 -0.3 0.41
7 -5 14 -0.72 0.42
7 -5 14 0.21 0.48
8 -5 14 13.13 1.07
8 -5 14 14.69 1.22
9 -5 14 0.37 0.6
9 -5 14 -0.09 0.55
10 -5 14 -0.24 0.59
10 4 -14 1.1 0.62
-10 -4 14 2.67 0.68
9 4 -14 0.57 0.52
-9 -4 14 -0.18 0.52
8 4 -14 7.54 0.84
-8 -4 14 7.31 0.91
7 4 -14 0.07 0.4
-7 -4 14 0.42 0.44
6 4 -14 7.67 0.72
-6 -4 14 7.5 0.8
5 4 -14 2.61 0.39
-5 -4 14 3.14 0.59
4 4 -14 0.13 0.27
-4 -4 14 0.05 0.32
3 4 -14 0.23 0.27
-3 -4 14 0.33 0.29
-2 -4 14 0.2 0.26
-1 -4 14 9.72 0.66
-1 -4 14 9.71 0.75
0 -4 14 5.69 0.51
0 -4 14 4.28 0.6
1 -4 14 1.41 0.29
1 -4 14 1.24 0.34
2 -4 14 4.56 0.51
2 -4 14 4.3 0.6
3 -4 14 27.1 1.43
3 -4 14 25.71 1.59
4 -4 14 12.96 1
4 -4 14 13.21 0.85
5 -4 14 0.27 0.4
5 -4 14 0.36 0.37
6 -4 14 18.72 1.26
6 -4 14 15.91 1.1
7 -4 14 3.63 0.68
7 -4 14 4.54 0.84
8 -4 14 3.41 0.67
8 -4 14 2.16 0.56
9 -4 14 2.06 0.59
9 -4 14 3.45 0.72
10 3 -14 1.06 0.61
-10 -3 14 0.54 0.61
9 3 -14 0.79 0.54
-9 -3 14 -0.26 0.52
8 3 -14 5.4 0.78
-8 -3 14 5.26 0.86
7 3 -14 7.81 0.76
-7 -3 14 6.78 0.84
6 3 -14 1.35 0.39
-6 -3 14 1.59 0.44
5 3 -14 0.01 0.3
-5 -3 14 0.37 0.36
4 3 -14 8.02 0.62
-4 -3 14 7.82 0.73
3 3 -14 1.96 0.32
-3 -3 14 2.55 0.48
-2 -3 14 4.31 0.53
-1 -3 14 11.87 0.89
-1 -3 14 12.51 0.76
0 -3 14 -0.03 0.28
0 -3 14 0.06 0.26
1 -3 14 7.86 0.71
1 -3 14 8.05 0.59
2 -3 14 31.65 1.6
2 -3 14 29.31 1.79
3 -3 14 12.17 0.76
3 -3 14 10.61 0.9
4 -3 14 2.54 0.48
4 -3 14 1.93 0.38
5 -3 14 -0.36 0.41
5 -3 14 -0.61 0.35
6 -3 14 19.25 1.32
6 -3 14 16.81 1.11
7 -3 14 1.06 0.47
7 -3 14 2.02 0.6
8 -3 14 9.66 1.1
8 -3 14 6.33 0.87
9 -3 14 5.57 0.88
9 -3 14 7.79 1.12
10 2 -14 0.35 0.61
-10 -2 14 -0.16 0.6
9 2 -14 5.49 0.84
-9 -2 14 4.55 0.92
8 2 -14 2.05 0.51
-8 -2 14 1.46 0.52
7 2 -14 0.08 0.38
-7 -2 14 0.25 0.43
6 2 -14 36.45 1.93
-6 -2 14 36.39 2.15
5 2 -14 17.89 1.04
-5 -2 14 16.93 1.18
4 2 -14 2.17 0.32
-4 -2 14 1.64 0.37
3 2 -14 1.31 0.28
-3 -2 14 0.99 0.31
-2 -2 14 6.37 0.63
-1 -2 14 27.58 1.37
-1 -2 14 23.95 1.55
0 -2 14 20.77 1.14
1 -2 14 14.3 1.01
1 -2 14 14.82 0.86
2 -2 14 4.58 0.64
2 -2 14 5.34 0.51
3 -2 14 4.84 0.67
3 -2 14 4.93 0.51
4 -2 14 -0.39 0.4
4 -2 14 -0.3 0.32
5 -2 14 24.78 1.57
5 -2 14 23.12 1.35
6 -2 14 5.73 0.69
6 -2 14 7.68 0.91
7 -2 14 7.01 0.81
7 -2 14 9.2 1.03
8 -2 14 0.47 0.5
8 -2 14 1.02 0.64
9 -2 14 0.17 0.65
9 -2 14 0.19 0.56
-10 -1 14 4.19 0.75
9 1 -14 1.21 0.55
-9 -1 14 1.93 0.58
8 1 -14 2.73 0.52
-8 -1 14 2.78 0.59
7 1 -14 17.41 1.07
7 1 -14 15.27 0.98
-7 -1 14 14.98 1.2
6 1 -14 4.45 0.55
6 1 -14 4.07 0.6
-6 -1 14 4.46 0.7
5 1 -14 12.24 0.79
5 1 -14 11.64 0.76
-5 -1 14 11.14 0.91
4 1 -14 0.34 0.28
4 1 -14 0.38 0.26
-4 -1 14 0.33 0.31
3 1 -14 5.81 0.52
3 1 -14 5.92 0.49
-3 -1 14 5.37 0.61
-2 -1 14 0.23 0.31
-1 -1 14 27.54 1.7
-1 -1 14 30.46 1.51
0 -1 14 1.94 0.38
0 -1 14 2.27 0.4
1 -1 14 -0.04 0.25
1 -1 14 0.4 0.34
2 -1 14 0 0.34
2 -1 14 0.03 0.26
3 -1 14 31.77 2.02
3 -1 14 36.79 1.78
4 -1 14 5.32 0.57
4 -1 14 4.91 0.75
5 -1 14 0.17 0.35
5 -1 14 0.42 0.48
6 -1 14 3.59 0.62
6 -1 14 4.8 0.86
7 -1 14 0.28 0.44
7 -1 14 0.68 0.6
8 -1 14 0.49 0.66
8 -1 14 -0.74 0.46
9 -1 14 7.75 1.18
9 -1 14 3.71 0.66
-10 0 14 0.92 0.6
9 0 -14 6.26 0.85
9 0 -14 5.26 0.7
-9 0 14 6.14 0.94
8 0 -14 5.05 0.67
8 0 -14 6.96 0.79
-8 0 14 6.01 0.88
7 0 -14 0.25 0.39
7 0 -14 0.52 0.35
-7 0 14 0.13 0.45
6 0 -14 -0.12 0.33
6 0 -14 0.23 0.3
-6 0 14 0.05 0.38
5 0 -14 14.97 0.91
5 0 -14 14.99 0.86
-5 0 14 14.7 1.05
4 0 -14 8.22 0.59
4 0 -14 8.84 0.62
-4 0 14 8.21 0.75
3 0 -14 0.75 0.27
3 0 -14 0.41 0.24
-3 0 14 0.43 0.34
2 0 -14 1.59 0.27
-2 0 14 1.73 0.29
-2 0 14 1.03 0.37
1 0 -14 0.89 0.25
-1 0 14 0.98 0.26
-1 0 14 0.74 0.31
0 0 14 0.3 0.33
0 0 14 0.35 0.22
1 0 14 11.18 0.66
2 0 14 4.5 0.41
2 0 14 6.46 0.7
3 0 14 1.15 0.24
3 0 14 1.21 0.46
4 0 14 3.57 0.58
4 0 14 3.14 0.4
5 0 14 1.12 0.3
5 0 14 2.2 0.56
6 0 14 2.68 0.48
6 0 14 3.67 0.66
7 0 14 2.33 0.69
7 0 14 1.21 0.37
8 0 14 3.26 0.78
9 0 14 -0.02 0.74
10 -1 -14 0.52 0.42
10 -1 -14 0.59 0.56
-10 1 14 0.78 0.59
9 -1 -14 4.75 0.67
9 -1 -14 6.3 0.87
-9 1 14 5.8 0.94
8 -1 -14 0.03 0.34
8 -1 -14 0.3 0.44
-8 1 14 -0.3 0.48
7 -1 -14 0.14 0.38
7 -1 -14 0.01 0.31
-7 1 14 0.45 0.43
6 -1 -14 1.53 0.37
6 -1 -14 1.58 0.34
-6 1 14 1.37 0.43
5 -1 -14 -0.03 0.28
5 -1 -14 0.03 0.26
-5 1 14 0.11 0.36
4 -1 -14 3.52 0.42
4 -1 -14 3.66 0.46
-4 1 14 3.55 0.62
3 -1 -14 21.15 1.1
3 -1 -14 20.38 1.04
-3 1 14 17.68 1.29
2 -1 -14 7.42 0.5
-2 1 14 6.29 0.66
-2 1 14 5.92 0.47
1 -1 -14 0.44 0.23
-1 1 14 0.6 0.33
0 -1 -14 12.47 0.7
0 1 14 10.64 0.9
1 1 14 1.99 0.43
2 1 14 1.46 0.45
3 1 14 28.3 1.62
3 1 14 22.62 1.28
4 1 14 2.34 0.56
4 1 14 2.3 0.35
5 1 14 0.71 0.53
5 1 14 -0.09 0.25
6 1 14 0.61 0.58
6 1 14 0.52 0.28
7 1 14 0.08 0.32
7 1 14 1.05 0.66
8 1 14 0.92 0.73
10 -2 -14 1.27 0.42
-10 2 14 0.81 0.61
9 -2 -14 2.73 0.45
9 -2 -14 3.69 0.58
-9 2 14 2.41 0.6
8 -2 -14 12.33 0.92
8 -2 -14 9.61 0.77
-8 2 14 10.72 1.01
7 -2 -14 0.41 0.37
7 -2 -14 0.13 0.31
-7 2 14 0.54 0.44
6 -2 -14 -0.19 0.29
6 -2 -14 0 0.32
-6 2 14 0.13 0.4
5 -2 -14 15.61 0.91
5 -2 -14 17.5 0.96
-5 2 14 14.89 1.15
4 -2 -14 25.11 1.27
4 -2 -14 26.38 1.33
-4 2 14 22.42 1.56
3 -2 -14 4.88 0.45
-3 2 14 4.3 0.64
2 -2 -14 1.68 0.27
-2 2 14 1.57 0.39
1 -2 -14 6.67 0.48
-1 2 14 5.47 0.69
0 -2 -14 1.02 0.25
0 2 14 1.06 0.38
-1 -2 -14 20.41 1.01
1 2 14 17.71 1.28
2 2 14 41.35 2.41
3 2 14 0.12 0.46
4 2 14 2.67 0.6
5 2 14 1.07 0.56
6 2 14 11.84 1.25
7 2 14 3.53 0.8
8 2 14 9.6 1.36
10 -3 -14 1.44 0.42
-10 3 14 0.93 0.6
9 -3 -14 0.24 0.49
9 -3 -14 -0.07 0.35
-9 3 14 -0.16 0.51
8 -3 -14 6.81 0.77
8 -3 -14 4.68 0.6
-8 3 14 5.6 0.86
7 -3 -14 0.81 0.39
7 -3 -14 0.67 0.34
-7 3 14 0.79 0.48
6 -3 -14 6.32 0.6
6 -3 -14 7.97 0.66
-6 3 14 7.08 0.85
5 -3 -14 2.7 0.36
5 -3 -14 2.78 0.46
-5 3 14 2.19 0.53
4 -3 -14 0.31 0.26
4 -3 -14 0.15 0.27
-4 3 14 -0.17 0.39
3 -3 -14 -0.15 0.24
-3 3 14 -0.16 0.36
2 -3 -14 3.49 0.42
-2 3 14 3.8 0.64
1 -3 -14 -0.43 0.22
-1 3 14 -0.13 0.38
0 -3 -14 13.59 0.75
0 3 14 12.32 1.01
-1 -3 -14 3.32 0.41
1 3 14 2.14 0.5
2 3 14 -0.07 0.45
3 3 14 4.2 0.65
4 3 14 16.5 1.33
5 3 14 2.51 0.65
6 3 14 12.85 1.34
7 3 14 3.88 0.86
10 -4 -14 0.75 0.41
10 -4 -14 1.02 0.53
9 -4 -14 0.6 0.48
9 -4 -14 0.94 0.39
-9 4 14 1.6 0.52
8 -4 -14 6.16 0.74
8 -4 -14 3.62 0.58
-8 4 14 4.13 0.67
7 -4 -14 10.07 0.79
7 -4 -14 8.05 0.68
-7 4 14 9.58 0.99
6 -4 -14 0.53 0.31
6 -4 -14 0.22 0.32
-6 4 14 0.22 0.49
5 -4 -14 6.55 0.57
5 -4 -14 7.6 0.58
-5 4 14 6.08 0.83
4 -4 -14 0.16 0.27
-4 4 14 0.35 0.4
3 -4 -14 4.98 0.48
-3 4 14 5.02 0.72
2 -4 -14 4.14 0.46
-2 4 14 4.86 0.71
1 -4 -14 5.87 0.49
-1 4 14 5.46 0.76
0 -4 -14 0.88 0.25
0 4 14 0.31 0.44
-1 -4 -14 1.2 0.26
1 4 14 0.73 0.48
2 4 14 15.13 1.21
3 4 14 2.07 0.59
4 4 14 -0.37 0.53
5 4 14 1.4 0.64
6 4 14 1.03 0.71
7 4 14 1.53 0.81
10 -5 -14 0.36 0.41
10 -5 -14 0.95 0.52
9 -5 -14 12.02 0.92
9 -5 -14 8.32 0.73
-9 5 14 6.58 0.92
8 -5 -14 0.39 0.36
8 -5 -14 0.88 0.43
-8 5 14 0.89 0.46
7 -5 -14 0.76 0.34
7 -5 -14 0.62 0.38
-7 5 14 0.48 0.55
6 -5 -14 0.13 0.31
-6 5 14 -0.17 0.47
5 -5 -14 19.91 1.08
-5 5 14 18.69 1.34
4 -5 -14 0.85 0.31
-4 5 14 1.32 0.47
3 -5 -14 0.34 0.28
-3 5 14 0.32 0.44
2 -5 -14 0.09 0.26
-2 5 14 -0.24 0.41
1 -5 -14 2.89 0.42
-1 5 14 3.09 0.55
0 -5 -14 -0.07 0.24
0 5 14 -0.4 0.45
-1 -5 -14 13.6 0.74
1 5 14 11.47 1.1
-2 -5 -14 9.69 0.6
2 5 14 6.71 1
3 5 14 0.88 0.57
4 5 14 0.5 0.58
5 5 14 0.61 0.69
6 5 14 0.46 0.75
10 -6 -14 0.1 0.39
9 -6 -14 1.01 0.41
8 -6 -14 -0.14 0.35
-8 6 14 0.66 0.41
7 -6 -14 0.37 0.34
-7 6 14 0.11 0.43
6 -6 -14 3.23 0.41
-6 6 14 2.66 0.58
5 -6 -14 1.46 0.35
-5 6 14 1.94 0.52
4 -6 -14 0.43 0.3
-4 6 14 0.46 0.47
3 -6 -14 1.33 0.32
-3 6 14 1.28 0.53
2 -6 -14 2.93 0.36
-2 6 14 2.32 0.55
1 -6 -14 0.52 0.27
-1 6 14 0.11 0.49
0 -6 -14 12.92 0.74
0 6 14 10.6 1.1
-1 -6 -14 3.12 0.41
1 6 14 1.61 0.59
-2 -6 -14 3.78 0.43
2 6 14 2.98 0.66
3 6 14 18.91 1.5
4 6 14 -0.38 0.6
5 6 14 0.41 0.69
6 6 14 1 0.81
9 -7 -14 0.43 0.41
8 -7 -14 0.22 0.38
-8 7 14 -0.26 0.48
7 -7 -14 1.16 0.37
-7 7 14 0.22 0.42
6 -7 -14 5.9 0.6
-6 7 14 5.22 0.76
5 -7 -14 13.62 0.87
-5 7 14 14.48 1.19
4 -7 -14 7.54 0.63
-4 7 14 7.73 0.93
3 -7 -14 0.96 0.31
-3 7 14 0.81 0.53
2 -7 -14 -0.01 0.28
-2 7 14 -0.25 0.49
1 -7 -14 0.98 0.3
-1 7 14 0.75 0.56
0 -7 -14 1.43 0.3
0 7 14 0.26 0.55
-1 -7 -14 7.19 0.54
1 7 14 4.73 0.98
2 7 14 -0.74 0.55
3 7 14 7.18 1.1
4 7 14 0.75 0.7
5 7 14 0 0.72
9 -8 -14 1.02 0.46
8 -8 -14 0.18 0.4
7 -8 -14 3.79 0.58
-7 8 14 1.67 0.5
6 -8 -14 2.08 0.41
-6 8 14 0.91 0.44
5 -8 -14 3.7 0.56
-5 8 14 4.06 0.74
4 -8 -14 18.46 1.04
-4 8 14 17.59 1.39
3 -8 -14 0.14 0.31
-3 8 14 1.3 0.57
2 -8 -14 0.23 0.3
-2 8 14 -0.45 0.54
1 -8 -14 12 0.74
-1 8 14 9.38 1.13
0 -8 -14 17.49 0.93
0 8 14 13.98 1.38
-1 -8 -14 0.08 0.26
1 8 14 0.08 0.61
2 8 14 2.52 0.72
3 8 14 5.03 0.86
4 8 14 0.12 0.73
8 -9 -14 11.86 0.93
7 -9 -14 0.36 0.41
6 -9 -14 2.68 0.44
-6 9 14 1.76 0.5
5 -9 -14 -0.05 0.35
-5 9 14 0.24 0.41
4 -9 -14 3.76 0.55
-4 9 14 2.89 0.58
3 -9 -14 -0.34 0.32
-3 9 14 0.14 0.61
2 -9 -14 5.44 0.57
-2 9 14 6.03 1
1 -9 -14 0.46 0.31
-1 9 14 -0.59 0.6
0 -9 -14 14.99 0.89
0 9 14 15.31 1.4
1 9 14 -0.12 0.62
2 9 14 2.56 0.78
3 9 14 2.34 0.83
7 -10 -14 1.36 0.47
6 -10 -14 0.39 0.42
5 -10 -14 5.7 0.63
-5 10 14 4.13 0.77
4 -10 -14 2.01 0.4
-4 10 14 0.78 0.48
3 -10 -14 0.29 0.36
-3 10 14 0.74 0.56
2 -10 -14 2.11 0.39
-2 10 14 1.93 0.69
1 -10 -14 3.62 0.52
-1 10 14 3.25 0.75
0 -10 -14 0.67 0.33
0 10 14 0.15 0.66
1 10 14 4.45 0.85
2 10 14 0.4 0.75
7 -11 -14 0.63 0.41
6 -11 -14 2.12 0.44
5 -11 -14 0.35 0.39
4 -11 -14 0.56 0.38
3 -11 -14 -0.4 0.34
2 -11 -14 -0.35 0.34
-2 11 14 -0.12 0.62
1 -11 -14 1.4 0.37
-1 11 14 0.42 0.69
0 11 14 0.85 0.72
1 11 14 0.31 0.77
5 -12 -14 1.63 0.44
4 -12 -14 0.04 0.38
3 -12 -14 0.08 0.37
2 -12 -14 2.29 0.44
1 -12 -14 1.6 0.39
-1 12 14 1.93 0.82
0 -18 15 0.74 0.46
0 -18 15 0.57 0.51
1 -18 15 2.94 0.55
1 -18 15 2.95 0.6
2 -18 15 3.19 0.63
2 -18 15 4.92 0.81
3 -18 15 1.25 0.52
3 -18 15 0.55 0.56
4 -18 15 2.64 0.56
4 -18 15 2.81 0.64
5 -18 15 -0.06 0.58
-2 -17 15 6.54 0.98
-1 -17 15 0.4 0.52
0 -17 15 4.43 0.64
1 -17 15 -0.17 0.44
1 -17 15 -0.68 0.46
2 -17 15 0.03 0.52
2 -17 15 0.04 0.47
3 -17 15 0.92 0.49
3 -17 15 0.72 0.53
4 -17 15 6.47 0.96
4 -17 15 7.81 0.85
5 -17 15 0.38 0.58
5 -17 15 -0.12 0.48
6 -17 15 1.14 0.59
6 -17 15 0.49 0.5
-3 -16 15 0.47 0.52
-3 -16 15 0.49 0.48
-2 -16 15 1.56 0.55
-2 -16 15 1.73 0.49
-1 -16 15 13.12 1.02
-1 -16 15 13.9 1.12
0 -16 15 -0.46 0.47
1 -16 15 -0.31 0.44
2 -16 15 0.16 0.48
3 -16 15 0.5 0.5
3 -16 15 1.68 0.48
4 -16 15 0.79 0.47
4 -16 15 0.29 0.54
5 -16 15 11.82 1.08
5 -16 15 12.45 0.98
6 -16 15 1.76 0.6
6 -16 15 2.18 0.53
7 -16 15 0.29 0.59
7 -16 15 -0.5 0.47
-4 -15 15 0.07 0.47
-4 -15 15 0.02 0.51
-3 -15 15 9.2 0.99
-3 -15 15 8.51 0.92
-2 -15 15 0.64 0.49
-2 -15 15 0.47 0.41
-1 -15 15 0.43 0.38
-1 -15 15 0.56 0.47
0 -15 15 5.14 0.81
0 -15 15 4.55 0.63
1 -15 15 8.94 0.87
2 -15 15 -0.29 0.45
3 -15 15 1.29 0.51
4 -15 15 -0.51 0.43
4 -15 15 -0.87 0.5
5 -15 15 2.37 0.58
5 -15 15 3.09 0.54
6 -15 15 0.83 0.48
6 -15 15 0.82 0.54
7 -15 15 3.92 0.67
7 -15 15 4.83 0.76
8 -15 15 -0.09 0.65
8 -15 15 -0.41 0.47
-5 -14 15 0.52 0.51
-4 -14 15 0.17 0.45
-4 -14 15 0.34 0.55
-3 -14 15 2.36 0.5
-3 -14 15 3.06 0.56
-2 -14 15 1.6 0.44
-2 -14 15 1.52 0.49
-1 -14 15 1.4 0.47
-1 -14 15 1.85 0.41
0 -14 15 6.39 0.68
0 -14 15 6.79 0.83
1 -14 15 0.95 0.44
1 -14 15 1.35 0.33
2 -14 15 -0.09 0.43
3 -14 15 0.74 0.47
4 -14 15 -0.22 0.48
5 -14 15 2.25 0.56
5 -14 15 4.23 0.71
6 -14 15 1.97 0.55
6 -14 15 1.79 0.49
7 -14 15 3.33 0.55
7 -14 15 4.2 0.66
8 -14 15 0.59 0.47
8 -14 15 0.91 0.64
6 13 -15 0.76 0.45
-6 -13 15 -0.25 0.51
-5 -13 15 1.45 0.53
-4 -13 15 3.48 0.56
-3 -13 15 10.77 0.96
-3 -13 15 10.91 0.99
-2 -13 15 7.1 0.76
-2 -13 15 7.29 0.82
-1 -13 15 7.87 0.83
-1 -13 15 8.09 0.78
0 -13 15 6.53 0.78
0 -13 15 6.56 0.68
1 -13 15 0.58 0.32
1 -13 15 0.4 0.41
2 -13 15 23.2 1.39
3 -13 15 0.38 0.45
4 -13 15 7.55 0.84
5 -13 15 0.1 0.47
6 -13 15 11.68 1.02
6 -13 15 12.85 0.94
7 -13 15 0.22 0.53
7 -13 15 0.13 0.43
8 -13 15 4.74 0.73
8 -13 15 5.55 0.74
6 12 -15 5.44 0.79
-6 -12 15 5.36 0.91
5 12 -15 0 0.38
-5 -12 15 0.34 0.45
-4 -12 15 2.46 0.51
-3 -12 15 2.2 0.47
-3 -12 15 2.41 0.52
-2 -12 15 3.38 0.5
-2 -12 15 3.34 0.62
-1 -12 15 -0.26 0.38
-1 -12 15 0.09 0.33
0 -12 15 4.87 0.7
0 -12 15 5.44 0.61
1 -12 15 5.51 0.6
1 -12 15 5.44 0.71
2 -12 15 2.65 0.46
2 -12 15 2.44 0.43
3 -12 15 3.74 0.52
4 -12 15 0.75 0.46
5 -12 15 -0.55 0.44
6 -12 15 7.53 0.85
6 -12 15 8.18 0.78
7 -12 15 19.51 1.35
7 -12 15 20.95 1.22
8 -12 15 0.08 0.36
8 -12 15 0.16 0.58
9 -12 15 0.46 0.61
7 11 -15 1.08 0.5
-7 -11 15 1.18 0.58
6 11 -15 1.74 0.48
-6 -11 15 1.32 0.52
5 11 -15 0.41 0.39
-5 -11 15 -0.05 0.42
-4 -11 15 1 0.43
-3 -11 15 0.22 0.45
-3 -11 15 0.17 0.38
-2 -11 15 6.56 0.7
-2 -11 15 5.86 0.72
-1 -11 15 26.09 1.59
-1 -11 15 26.6 1.51
0 -11 15 -0.09 0.36
0 -11 15 0.32 0.31
1 -11 15 0.76 0.33
1 -11 15 0.83 0.38
2 -11 15 0.42 0.38
2 -11 15 -0.06 0.35
3 -11 15 0.29 0.35
3 -11 15 0.54 0.41
4 -11 15 1.69 0.47
5 -11 15 8.17 0.81
6 -11 15 1.57 0.43
6 -11 15 0.94 0.49
7 -11 15 0.43 0.41
7 -11 15 0.36 0.52
8 -11 15 0.05 0.33
8 -11 15 1.29 0.58
9 -11 15 0.27 0.59
7 10 -15 1.33 0.48
-7 -10 15 1.25 0.55
6 10 -15 6.82 0.8
-6 -10 15 6.35 0.87
5 10 -15 0.93 0.42
-5 -10 15 1.25 0.46
4 10 -15 1.54 0.4
-4 -10 15 1.58 0.45
-3 -10 15 0.07 0.37
-2 -10 15 4.3 0.63
-2 -10 15 4.48 0.65
-1 -10 15 1.28 0.37
-1 -10 15 1.14 0.35
0 -10 15 0.79 0.32
0 -10 15 0.54 0.36
1 -10 15 5.45 0.63
1 -10 15 5.53 0.64
2 -10 15 0.69 0.36
2 -10 15 0.63 0.37
3 -10 15 6.12 0.69
3 -10 15 5.83 0.66
4 -10 15 4.31 0.61
4 -10 15 4.34 0.69
5 -10 15 0.12 0.42
6 -10 15 7.96 0.83
7 -10 15 0.73 0.34
7 -10 15 0.61 0.51
8 -10 15 5.34 0.55
8 -10 15 9.69 0.93
9 -10 15 7.09 0.97
8 9 -15 0.39 0.49
-8 -9 15 0.62 0.56
7 9 -15 9.06 0.89
-7 -9 15 9.06 0.99
6 9 -15 0.02 0.4
-6 -9 15 0.11 0.44
5 9 -15 3.28 0.49
-5 -9 15 2.58 0.51
4 9 -15 3.5 0.6
-4 -9 15 3.9 0.67
-3 -9 15 -0.09 0.34
-2 -9 15 1.59 0.38
-2 -9 15 0.92 0.36
-1 -9 15 19.03 1.14
-1 -9 15 19.56 1.23
0 -9 15 12.94 0.92
0 -9 15 13.21 0.89
1 -9 15 45.49 2.6
1 -9 15 48.02 2.4
2 -9 15 0.57 0.36
2 -9 15 1.26 0.38
3 -9 15 0.43 0.37
3 -9 15 -0.16 0.36
4 -9 15 3.01 0.46
4 -9 15 3.42 0.49
5 -9 15 25.21 1.46
5 -9 15 25.5 1.54
6 -9 15 0.27 0.39
6 -9 15 -0.04 0.45
7 -9 15 24.29 1.37
7 -9 15 18.71 1.11
8 -9 15 2.2 0.59
9 -9 15 0.47 0.6
8 8 -15 -0.02 0.48
-8 -8 15 -0.38 0.49
7 8 -15 12.93 1.04
-7 -8 15 13.82 1.15
6 8 -15 0.4 0.39
-6 -8 15 0.39 0.44
5 8 -15 2.67 0.47
-5 -8 15 2.13 0.48
4 8 -15 -0.2 0.32
-4 -8 15 0.06 0.37
-3 -8 15 19.4 1.27
-2 -8 15 1.38 0.36
-2 -8 15 1.17 0.37
-1 -8 15 3.06 0.52
-1 -8 15 2.64 0.38
0 -8 15 4.98 0.58
0 -8 15 4.22 0.59
1 -8 15 3.79 0.55
1 -8 15 2.54 0.45
2 -8 15 5.98 0.65
2 -8 15 5.21 0.61
3 -8 15 18.49 1.22
3 -8 15 19.14 1.13
4 -8 15 -0.03 0.36
4 -8 15 -0.45 0.37
5 -8 15 6.33 0.7
5 -8 15 6.12 0.72
6 -8 15 15.59 1.11
6 -8 15 16.97 1.16
7 -8 15 11.46 0.96
7 -8 15 12.28 0.96
7 -8 15 8.65 0.65
8 -8 15 2.18 0.58
9 -8 15 0.87 0.62
9 7 -15 0.26 0.54
-9 -7 15 -0.1 0.56
8 7 -15 6.67 0.86
-8 -7 15 6.23 0.92
7 7 -15 6.15 0.8
-7 -7 15 7.1 0.88
6 7 -15 0.88 0.41
-6 -7 15 0.32 0.44
5 7 -15 1.62 0.4
-5 -7 15 1.75 0.45
4 7 -15 2.21 0.4
-4 -7 15 2.35 0.44
-3 -7 15 4.73 0.64
-2 -7 15 17.52 1.06
-2 -7 15 16.97 1.14
-1 -7 15 36.1 2.1
-1 -7 15 38.29 1.94
0 -7 15 6.02 0.65
0 -7 15 6.27 0.61
1 -7 15 2.45 0.46
1 -7 15 2.97 0.52
2 -7 15 22.09 1.36
2 -7 15 21.15 1.23
3 -7 15 0.94 0.37
3 -7 15 0.99 0.39
4 -7 15 10.95 0.88
4 -7 15 11.21 0.83
5 -7 15 0.21 0.4
5 -7 15 0.27 0.41
6 -7 15 8.47 0.83
6 -7 15 5.68 0.76
7 -7 15 0.83 0.52
7 -7 15 2.06 0.5
8 -7 15 2.23 0.57
8 -7 15 2.69 0.59
9 -7 15 0.01 0.56
9 6 -15 0.45 0.55
-9 -6 15 0.43 0.59
8 6 -15 1.51 0.52
-8 -6 15 2.3 0.59
7 6 -15 2.01 0.49
-7 -6 15 2.18 0.54
6 6 -15 3.19 0.47
-6 -6 15 2.23 0.5
5 6 -15 3.89 0.57
-5 -6 15 2.84 0.49
4 6 -15 17.73 1.08
-4 -6 15 16.84 1.18
3 6 -15 11.53 0.8
-3 -6 15 11.47 0.9
-2 -6 15 1.92 0.37
-2 -6 15 2.08 0.38
-1 -6 15 28.93 1.7
-1 -6 15 29.32 1.55
0 -6 15 0.23 0.33
0 -6 15 0.38 0.31
1 -6 15 0.15 0.3
1 -6 15 0.3 0.34
2 -6 15 19.5 1.11
2 -6 15 18.53 1.23
3 -6 15 3.34 0.63
3 -6 15 3.25 0.57
4 -6 15 5.54 0.63
4 -6 15 5.09 0.69
5 -6 15 1.44 0.43
5 -6 15 1.81 0.46
6 -6 15 2.4 0.52
6 -6 15 1.34 0.47
7 -6 15 2.76 0.57
7 -6 15 1.68 0.52
8 -6 15 5.83 0.91
8 -6 15 4.38 0.64
9 -6 15 0.13 0.57
9 5 -15 9.3 1
-9 -5 15 9.54 1.12
8 5 -15 -0.26 0.47
-8 -5 15 -0.09 0.5
7 5 -15 0.42 0.43
-7 -5 15 0.53 0.47
6 5 -15 3.59 0.62
-6 -5 15 3.59 0.7
5 5 -15 0.25 0.34
-5 -5 15 0.48 0.39
4 5 -15 -0.36 0.31
-4 -5 15 -0.25 0.33
3 5 -15 10.19 0.72
-3 -5 15 9.23 0.8
-2 -5 15 21.94 1.36
-2 -5 15 22.81 1.27
-1 -5 15 8.15 0.63
-1 -5 15 7.76 0.71
0 -5 15 4.28 0.52
0 -5 15 3.55 0.62
1 -5 15 6.95 0.6
1 -5 15 6.87 0.68
2 -5 15 5.93 0.6
2 -5 15 5.97 0.68
3 -5 15 1.17 0.37
3 -5 15 1 0.4
4 -5 15 19.84 1.18
4 -5 15 20.67 1.33
5 -5 15 1.55 0.46
5 -5 15 1.13 0.41
6 -5 15 5.64 0.75
6 -5 15 8.18 0.88
7 -5 15 1.47 0.55
7 -5 15 1.35 0.48
8 -5 15 19.02 1.4
8 -5 15 25.42 1.62
9 -5 15 3.2 0.71
9 -5 15 1.57 0.63
-10 -4 15 -0.09 0.62
9 4 -15 0.84 0.54
-9 -4 15 0.87 0.59
8 4 -15 0.82 0.49
-8 -4 15 0.81 0.52
7 4 -15 -0.08 0.42
-7 -4 15 0.07 0.44
6 4 -15 9.29 0.8
-6 -4 15 9.32 0.89
5 4 -15 0.17 0.31
-5 -4 15 -0.07 0.37
4 4 -15 10.26 0.75
-4 -4 15 10 0.85
3 4 -15 2.14 0.34
-3 -4 15 1.79 0.37
-2 -4 15 10.25 0.74
-2 -4 15 10.12 0.79
-1 -4 15 1.92 0.4
-1 -4 15 2.13 0.33
0 -4 15 21.87 1.18
0 -4 15 20.23 1.33
1 -4 15 5.79 0.65
1 -4 15 6.06 0.56
2 -4 15 0.75 0.32
2 -4 15 -0.15 0.36
3 -4 15 0.1 0.38
3 -4 15 -0.03 0.33
4 -4 15 -0.41 0.41
4 -4 15 -0.38 0.33
5 -4 15 0.52 0.4
5 -4 15 1.2 0.47
6 -4 15 24.94 1.54
6 -4 15 29.73 1.76
7 -4 15 11.69 1.08
7 -4 15 8.68 0.87
8 -4 15 0.11 0.51
8 -4 15 0.61 0.61
9 -4 15 0.4 0.56
9 -4 15 -0.27 0.63
-10 -3 15 0.47 0.63
9 3 -15 0.6 0.54
-9 -3 15 -0.68 0.52
8 3 -15 0.94 0.5
-8 -3 15 0.53 0.5
7 3 -15 23.13 1.37
-7 -3 15 21.66 1.51
6 3 -15 -0.32 0.35
-6 -3 15 -0.27 0.4
5 3 -15 -0.62 0.3
-5 -3 15 -0.38 0.36
4 3 -15 -0.2 0.29
-4 -3 15 0.2 0.33
3 3 -15 0.51 0.28
-3 -3 15 0.48 0.31
-2 -3 15 29.78 1.52
-2 -3 15 26.58 1.67
-1 -3 15 41.56 2.48
-1 -3 15 46.01 2.23
0 -3 15 0.97 0.32
0 -3 15 1.32 0.36
1 -3 15 0.66 0.3
1 -3 15 0.82 0.36
2 -3 15 2.6 0.47
2 -3 15 2.39 0.36
3 -3 15 8.02 0.66
3 -3 15 8.29 0.81
4 -3 15 2.36 0.4
4 -3 15 1.37 0.49
5 -3 15 32.67 1.95
5 -3 15 30.42 1.7
6 -3 15 11.13 1.03
6 -3 15 8.58 0.81
7 -3 15 -0.33 0.46
7 -3 15 0.22 0.59
8 -3 15 1.74 0.67
8 -3 15 0.82 0.54
9 -3 15 1.73 0.73
9 -3 15 1.76 0.6
10 2 -15 1.24 0.62
-10 -2 15 0.1 0.59
9 2 -15 19.04 1.3
-9 -2 15 17.24 1.41
8 2 -15 7.13 0.86
-8 -2 15 6.06 0.92
7 2 -15 5.62 0.71
-7 -2 15 4.68 0.81
6 2 -15 1.38 0.4
-6 -2 15 1.25 0.46
5 2 -15 4.24 0.56
-5 -2 15 4.13 0.67
4 2 -15 8.41 0.66
-4 -2 15 7.81 0.74
3 2 -15 71.34 3.38
-3 -2 15 64.47 3.69
-2 -2 15 29.68 1.84
-2 -2 15 32.9 1.65
-1 -2 15 -0.24 0.26
-1 -2 15 0.01 0.34
0 -2 15 1.2 0.29
0 -2 15 0.32 0.33
1 -2 15 1.14 0.31
1 -2 15 1.39 0.4
2 -2 15 9.06 0.86
2 -2 15 10.49 0.71
3 -2 15 47.03 2.75
3 -2 15 50.08 2.45
4 -2 15 10.95 0.78
4 -2 15 10.76 0.98
5 -2 15 -0.16 0.38
5 -2 15 1.04 0.51
6 -2 15 0.75 0.55
6 -2 15 0.17 0.4
7 -2 15 1.38 0.5
7 -2 15 1.91 0.66
8 -2 15 2.31 0.74
8 -2 15 2.21 0.59
9 -2 15 2.43 0.79
9 -2 15 1.71 0.61
10 1 -15 13.74 1.18
-10 -1 15 10.19 1.22
9 1 -15 0.79 0.54
-9 -1 15 -0.74 0.53
8 1 -15 2.59 0.52
-8 -1 15 2.13 0.58
7 1 -15 1.1 0.43
-7 -1 15 0.89 0.5
6 1 -15 0.55 0.36
6 1 -15 0.25 0.35
-6 -1 15 0.57 0.43
5 1 -15 12.14 0.8
5 1 -15 11.26 0.77
-5 -1 15 11.08 0.92
4 1 -15 45.98 2.16
4 1 -15 46.26 2.3
-4 -1 15 42.46 2.53
3 1 -15 1.64 0.31
3 1 -15 0.79 0.29
-3 -1 15 0.91 0.37
-2 -1 15 3.67 0.48
-2 -1 15 2.03 0.45
-1 -1 15 0.19 0.3
-1 -1 15 0.94 0.28
0 -1 15 4.34 0.46
0 -1 15 3.81 0.6
1 -1 15 3.11 0.61
1 -1 15 2.71 0.44
2 -1 15 20.5 1.09
2 -1 15 18.41 1.3
3 -1 15 7.14 0.81
3 -1 15 5.98 0.54
4 -1 15 4.01 0.48
4 -1 15 4.66 0.78
5 -1 15 2.28 0.57
5 -1 15 1.16 0.32
6 -1 15 2.1 0.62
6 -1 15 1.55 0.37
7 -1 15 0.15 0.62
7 -1 15 0.36 0.36
8 -1 15 0.68 0.42
8 -1 15 0.77 0.72
-10 0 15 0.34 0.63
9 0 -15 1.01 0.44
-9 0 15 0.91 0.58
8 0 -15 4.4 0.73
8 0 -15 3.7 0.63
-8 0 15 3.41 0.64
7 0 -15 0.25 0.37
7 0 -15 0.33 0.41
-7 0 15 -0.21 0.44
6 0 -15 3.14 0.44
6 0 -15 3.35 0.43
-6 0 15 2.67 0.5
5 0 -15 0.43 0.31
5 0 -15 -0.06 0.3
-5 0 15 0.06 0.37
4 0 -15 2.56 0.35
4 0 -15 2.35 0.36
-4 0 15 2.09 0.45
3 0 -15 10.43 0.68
-3 0 15 10.45 0.89
2 0 -15 0.33 0.25
-2 0 15 0.02 0.34
-2 0 15 0.04 0.26
-1 0 15 -0.08 0.32
-1 0 15 -0.01 0.22
0 0 15 0.03 0.19
0 0 15 0.19 0.36
1 0 15 1.33 0.41
1 0 15 0.69 0.22
2 0 15 1.61 0.26
2 0 15 1.98 0.47
3 0 15 0.42 0.21
3 0 15 0 0.46
4 0 15 -0.15 0.23
4 0 15 -0.14 0.49
5 0 15 0.2 0.53
5 0 15 -0.03 0.25
6 0 15 0.79 0.32
6 0 15 0.71 0.6
7 0 15 2.02 0.39
7 0 15 2.97 0.76
8 0 15 6.52 1.21
10 -1 -15 2.54 0.51
-10 1 15 2.9 0.71
9 -1 -15 -0.03 0.41
9 -1 -15 0.64 0.56
-9 1 15 -0.07 0.55
8 -1 -15 0.21 0.46
8 -1 -15 -0.02 0.36
-8 1 15 -0.55 0.46
7 -1 -15 -0.2 0.39
7 -1 -15 0.06 0.33
-7 1 15 0.07 0.44
6 -1 -15 8.65 0.68
6 -1 -15 9.57 0.74
-6 1 15 8.85 0.89
5 -1 -15 -0.1 0.29
5 -1 -15 0.06 0.28
-5 1 15 -0.2 0.39
4 -1 -15 0.83 0.32
4 -1 -15 0.72 0.28
-4 1 15 0.18 0.4
3 -1 -15 0.24 0.25
-3 1 15 0.14 0.39
2 -1 -15 0.52 0.26
-2 1 15 0.23 0.19
-2 1 15 0.56 0.35
1 -1 -15 5.62 0.48
-1 1 15 4.33 0.39
-1 1 15 5.96 0.67
0 1 15 18.6 1.25
1 1 15 0.29 0.4
2 1 15 1.62 0.49
3 1 15 1.09 0.51
3 1 15 0.9 0.24
4 1 15 3.59 0.41
4 1 15 4 0.66
5 1 15 0.04 0.55
6 1 15 31.98 2.13
7 1 15 9.4 1.26
8 1 15 0.33 0.76
10 -2 -15 0.22 0.44
-10 2 15 0.22 0.59
9 -2 -15 0.01 0.37
9 -2 -15 0.23 0.49
-9 2 15 -0.48 0.53
8 -2 -15 6.24 0.78
8 -2 -15 4.65 0.6
-8 2 15 4.17 0.84
7 -2 -15 1.91 0.39
7 -2 -15 2.37 0.44
-7 2 15 1.86 0.54
6 -2 -15 18.31 1.03
6 -2 -15 15.47 0.95
-6 2 15 15.21 1.23
5 -2 -15 1.27 0.33
5 -2 -15 1.21 0.31
-5 2 15 1.07 0.47
4 -2 -15 0.07 0.26
4 -2 -15 -0.03 0.29
-4 2 15 -0.46 0.4
3 -2 -15 5.87 0.5
-3 2 15 5.14 0.69
2 -2 -15 43.59 1.97
-2 2 15 38.57 2.35
1 -2 -15 37.32 1.69
-1 2 15 31.69 2.03
0 -2 -15 2.53 0.41
0 2 15 1.92 0.47
1 2 15 0.35 0.42
2 2 15 -0.51 0.45
3 2 15 -0.17 0.48
4 2 15 1.77 0.59
5 2 15 12.45 1.23
6 2 15 0.3 0.64
7 2 15 1.58 0.76
10 -3 -15 11.09 0.89
-10 3 15 12.91 1.22
9 -3 -15 13.62 1.02
9 -3 -15 9.85 0.82
-9 3 15 10.53 1.13
8 -3 -15 1.32 0.48
8 -3 -15 1.05 0.38
-8 3 15 1.4 0.57
7 -3 -15 0.19 0.34
7 -3 -15 0.32 0.38
-7 3 15 0.29 0.52
6 -3 -15 1.61 0.37
6 -3 -15 1.07 0.34
-6 3 15 1.47 0.55
5 -3 -15 -0.2 0.29
5 -3 -15 0.27 0.3
-5 3 15 -0.45 0.46
4 -3 -15 9.18 0.64
-4 3 15 8.08 0.86
3 -3 -15 10.91 0.71
-3 3 15 11.34 0.94
2 -3 -15 1.95 0.32
-2 3 15 2.19 0.47
1 -3 -15 0.52 0.26
-1 3 15 0.64 0.43
0 -3 -15 0.17 0.25
0 3 15 0.11 0.41
-1 -3 -15 1.31 0.29
1 3 15 1.07 0.49
2 3 15 1.97 0.55
3 3 15 6.68 0.95
4 3 15 1.68 0.61
5 3 15 0.22 0.61
6 3 15 2.84 0.79
7 3 15 0.77 0.79
10 -4 -15 0.4 0.41
10 -4 -15 0.41 0.57
-10 4 15 0.41 0.49
9 -4 -15 0.48 0.48
9 -4 -15 0.34 0.4
-9 4 15 0.67 0.57
8 -4 -15 0.2 0.36
8 -4 -15 0.92 0.45
-8 4 15 0.76 0.57
7 -4 -15 3.53 0.62
7 -4 -15 3.3 0.45
-7 4 15 2.33 0.64
6 -4 -15 0.31 0.33
6 -4 -15 0.03 0.31
-6 4 15 0.31 0.53
5 -4 -15 11.04 0.74
-5 4 15 10.46 0.99
4 -4 -15 10.5 0.7
-4 4 15 9.18 0.92
3 -4 -15 2.41 0.35
-3 4 15 2.25 0.51
2 -4 -15 0.16 0.27
-2 4 15 0.3 0.43
1 -4 -15 -0.25 0.24
-1 4 15 -0.15 0.44
0 -4 -15 2.53 0.4
0 4 15 2.01 0.53
-1 -4 -15 0.15 0.26
1 4 15 -0.66 0.47
2 4 15 1 0.54
3 4 15 6.91 0.98
4 4 15 0.64 0.59
5 4 15 0.74 0.67
6 4 15 0.37 0.74
10 -5 -15 1.38 0.45
9 -5 -15 4.52 0.66
9 -5 -15 7.53 0.83
-9 5 15 3 0.64
8 -5 -15 1.01 0.43
8 -5 -15 0 0.35
-8 5 15 0.45 0.52
7 -5 -15 -0.32 0.36
7 -5 -15 0.26 0.34
-7 5 15 0.07 0.54
6 -5 -15 8.54 0.68
6 -5 -15 6.93 0.64
-6 5 15 6.66 0.92
5 -5 -15 0.62 0.32
-5 5 15 0.77 0.49
4 -5 -15 4.26 0.53
-4 5 15 5.01 0.79
3 -5 -15 11.12 0.71
-3 5 15 9.48 0.98
2 -5 -15 1.1 0.3
-2 5 15 0.1 0.47
1 -5 -15 -0.2 0.25
-1 5 15 0 0.46
0 -5 -15 0.16 0.25
0 5 15 0.21 0.5
-1 -5 -15 0.24 0.26
1 5 15 0.28 0.52
2 5 15 1.79 0.62
3 5 15 0.81 0.6
4 5 15 -0.22 0.6
5 5 15 1.17 0.74
6 5 15 3.55 0.87
9 -6 -15 0.23 0.38
8 -6 -15 3.5 0.48
-8 6 15 2.65 0.57
7 -6 -15 1.75 0.39
-7 6 15 0.83 0.49
6 -6 -15 3.76 0.55
-6 6 15 3.95 0.65
5 -6 -15 2.02 0.38
-5 6 15 1.57 0.56
4 -6 -15 1.22 0.34
-4 6 15 2.05 0.55
3 -6 -15 0.76 0.32
-3 6 15 0.98 0.51
2 -6 -15 1.6 0.33
-2 6 15 1.27 0.53
1 -6 -15 1.28 0.31
-1 6 15 0.42 0.52
0 -6 -15 33.52 1.55
0 6 15 27.66 1.99
-1 -6 -15 0.15 0.25
1 6 15 -1.03 0.52
-2 -6 -15 19.45 0.99
2 6 15 15.19 1.43
3 6 15 0.01 0.6
4 6 15 1.5 0.7
5 6 15 2.56 0.83
9 -7 -15 0.95 0.45
8 -7 -15 5.64 0.67
-8 7 15 2.79 0.64
7 -7 -15 -0.18 0.38
-7 7 15 -0.15 0.43
6 -7 -15 2.35 0.41
-6 7 15 1.45 0.52
5 -7 -15 0.65 0.34
-5 7 15 0.44 0.53
4 -7 -15 0.29 0.33
-4 7 15 0.6 0.54
3 -7 -15 5.78 0.58
-3 7 15 6.24 0.92
2 -7 -15 5.77 0.56
-2 7 15 4.94 0.92
1 -7 -15 8.05 0.61
-1 7 15 5.91 1.01
0 -7 -15 3.03 0.47
0 7 15 2.29 0.66
1 7 15 0.24 0.62
2 7 15 -0.56 0.6
3 7 15 7.34 1.16
4 7 15 4.44 0.88
8 -8 -15 -0.15 0.43
7 -8 -15 1.42 0.44
6 -8 -15 1.13 0.38
-6 8 15 -0.09 0.42
5 -8 -15 1.23 0.37
-5 8 15 0.92 0.52
4 -8 -15 0.84 0.35
-4 8 15 0.87 0.58
3 -8 -15 1.15 0.35
-3 8 15 1 0.6
2 -8 -15 -0.09 0.31
-2 8 15 -0.33 0.59
1 -8 -15 2.64 0.37
-1 8 15 1.14 0.63
0 -8 -15 -0.09 0.29
0 8 15 -0.26 0.61
-1 -8 -15 0.55 0.29
1 8 15 -0.24 0.63
2 8 15 -0.34 0.66
3 8 15 1.62 0.77
4 8 15 0.45 0.82
8 -9 -15 1.32 0.42
7 -9 -15 1.05 0.4
6 -9 -15 1.75 0.41
5 -9 -15 5.5 0.61
-5 9 15 4.06 0.78
4 -9 -15 6.11 0.62
-4 9 15 5.18 0.92
3 -9 -15 0.85 0.35
-3 9 15 0.22 0.63
2 -9 -15 2.11 0.39
-2 9 15 1.54 0.67
1 -9 -15 0.87 0.34
-1 9 15 0.61 0.68
0 -9 -15 3.03 0.5
0 9 15 1.83 0.72
1 9 15 0.52 0.7
2 9 15 -0.52 0.7
3 9 15 4 0.92
7 -10 -15 1.35 0.44
6 -10 -15 1.92 0.45
5 -10 -15 1.06 0.42
-5 10 15 0.47 0.5
4 -10 -15 0.54 0.38
3 -10 -15 2.92 0.43
-3 10 15 1.77 0.66
2 -10 -15 1.62 0.38
-2 10 15 1.27 0.73
1 -10 -15 0.09 0.35
-1 10 15 0.57 0.69
0 -10 -15 2.34 0.39
0 10 15 0.92 0.73
1 10 15 -0.6 0.71
2 10 15 -0.27 0.77
6 -11 -15 1.2 0.46
5 -11 -15 5.74 0.72
4 -11 -15 5.07 0.66
3 -11 -15 5.79 0.65
2 -11 -15 5.95 0.62
-2 11 15 4.93 0.88
1 -11 -15 8.93 0.71
-1 11 15 6.19 1.01
0 11 15 0.53 0.77
3 -12 -15 0.68 0.4
0 -18 16 0.69 0.5
0 -18 16 0.05 0.54
1 -18 16 17.05 1.32
1 -18 16 18.48 1.27
2 -18 16 7.04 1.01
2 -18 16 6.13 0.9
3 -18 16 -0.16 0.57
3 -18 16 0.74 0.53
4 -18 16 0.19 0.61
-2 -17 16 0.68 0.57
-1 -17 16 0.68 0.56
0 -17 16 2.27 0.59
1 -17 16 3.41 0.61
2 -17 16 0.03 0.48
2 -17 16 -0.34 0.54
3 -17 16 0.34 0.55
3 -17 16 0.67 0.52
4 -17 16 0.86 0.6
4 -17 16 -0.24 0.49
5 -17 16 0.67 0.52
5 -17 16 0.68 0.6
6 -17 16 2.45 0.62
6 -17 16 3.64 0.68
-3 -16 16 0.41 0.53
-3 -16 16 -0.06 0.47
-2 -16 16 1.05 0.48
-2 -16 16 1.04 0.56
-1 -16 16 0.15 0.51
-1 -16 16 0.79 0.45
0 -16 16 -0.1 0.5
1 -16 16 5.77 0.84
2 -16 16 1.88 0.55
3 -16 16 3.17 0.6
4 -16 16 0.44 0.5
4 -16 16 -0.6 0.55
5 -16 16 8.44 0.89
5 -16 16 6.94 0.97
6 -16 16 3.55 0.66
6 -16 16 3.57 0.59
7 -16 16 3.3 0.61
7 -16 16 4.15 0.74
-4 -15 16 0.3 0.54
-4 -15 16 0.34 0.52
-3 -15 16 19.52 1.31
-3 -15 16 15.54 1.3
-2 -15 16 0.91 0.52
-2 -15 16 1.76 0.46
-1 -15 16 3.68 0.58
-1 -15 16 3.33 0.52
0 -15 16 0.96 0.5
0 -15 16 -0.16 0.36
1 -15 16 0.7 0.47
2 -15 16 -0.23 0.48
3 -15 16 17.98 1.26
4 -15 16 8.13 0.96
5 -15 16 0.98 0.56
5 -15 16 0.5 0.5
6 -15 16 1.02 0.5
6 -15 16 0.7 0.56
7 -15 16 0.32 0.51
7 -15 16 0.23 0.6
-5 -14 16 5.29 0.91
-4 -14 16 4.85 0.86
-4 -14 16 5.75 0.94
-3 -14 16 -0.01 0.49
-3 -14 16 0.58 0.45
-2 -14 16 0.79 0.49
-2 -14 16 0.99 0.42
-1 -14 16 0.87 0.4
-1 -14 16 -0.03 0.46
0 -14 16 1.52 0.39
0 -14 16 1.06 0.49
1 -14 16 1.76 0.48
1 -14 16 2.97 0.56
2 -14 16 6.02 0.81
3 -14 16 0.89 0.5
4 -14 16 4 0.62
5 -14 16 0.13 0.46
5 -14 16 -0.38 0.52
6 -14 16 0.31 0.53
6 -14 16 0.28 0.48
7 -14 16 -0.19 0.57
7 -14 16 0.61 0.48
8 -14 16 5.18 0.79
8 -14 16 4.74 0.8
-5 -13 16 4.58 0.87
-4 -13 16 1.17 0.5
-4 -13 16 1.4 0.59
-3 -13 16 7.45 0.89
-3 -13 16 9.12 0.93
-2 -13 16 0.41 0.39
-2 -13 16 1.2 0.46
-1 -13 16 -0.39 0.35
-1 -13 16 0.95 0.45
0 -13 16 5.08 0.64
0 -13 16 5.64 0.78
1 -13 16 11.44 0.93
1 -13 16 10.36 0.84
2 -13 16 0.52 0.38
2 -13 16 -0.28 0.43
3 -13 16 9.64 0.9
4 -13 16 0.94 0.51
5 -13 16 1.82 0.54
6 -13 16 2.23 0.57
6 -13 16 2.12 0.52
7 -13 16 1.79 0.6
7 -13 16 2.37 0.5
8 -13 16 2.85 0.68
8 -13 16 2.12 0.52
6 12 -16 0.17 0.42
-6 -12 16 -0.05 0.5
-5 -12 16 -0.09 0.47
-4 -12 16 -0.41 0.44
-3 -12 16 -0.35 0.45
-3 -12 16 0.07 0.41
-2 -12 16 0.3 0.38
-2 -12 16 0.33 0.42
-1 -12 16 23.38 1.52
-1 -12 16 25.73 1.47
0 -12 16 3.66 0.57
0 -12 16 3.07 0.5
1 -12 16 13.69 0.98
1 -12 16 12.37 0.94
2 -12 16 0.77 0.39
2 -12 16 0.43 0.42
3 -12 16 0.23 0.45
4 -12 16 1.22 0.5
5 -12 16 -0.03 0.48
6 -12 16 0.19 0.51
6 -12 16 0.29 0.44
7 -12 16 1.44 0.58
7 -12 16 2.44 0.5
8 -12 16 1.15 0.62
7 11 -16 3.06 0.6
-7 -11 16 2.59 0.65
6 11 -16 0.15 0.43
-6 -11 16 -0.28 0.5
5 11 -16 0.35 0.4
-5 -11 16 0.44 0.47
-4 -11 16 0.04 0.42
-3 -11 16 1.18 0.47
-3 -11 16 1.64 0.44
-2 -11 16 3.36 0.65
-2 -11 16 2.68 0.47
-1 -11 16 3.96 0.63
-1 -11 16 3.93 0.67
0 -11 16 1.34 0.42
0 -11 16 1.35 0.37
1 -11 16 1.32 0.39
1 -11 16 1.32 0.42
2 -11 16 12.42 0.91
2 -11 16 11.77 0.95
3 -11 16 0.44 0.38
3 -11 16 0.75 0.43
4 -11 16 3.32 0.61
4 -11 16 2.67 0.53
5 -11 16 8.35 0.84
6 -11 16 1.85 0.53
7 -11 16 4.2 0.69
7 -11 16 3.37 0.63
8 -11 16 4.65 0.71
9 -11 16 0.74 0.67
7 10 -16 3.03 0.57
-7 -10 16 3.23 0.67
6 10 -16 -0.02 0.43
-6 -10 16 -0.02 0.49
5 10 -16 7.53 0.81
-5 -10 16 7.22 0.89
-4 -10 16 0.37 0.42
-3 -10 16 9.67 0.92
-3 -10 16 10.04 0.89
-2 -10 16 6.62 0.75
-2 -10 16 7.61 0.74
-1 -10 16 1.85 0.41
-1 -10 16 1.78 0.41
0 -10 16 0.89 0.35
0 -10 16 0.8 0.38
1 -10 16 2.93 0.47
1 -10 16 2.72 0.44
2 -10 16 1.18 0.4
2 -10 16 1.12 0.4
3 -10 16 6.6 0.73
3 -10 16 6.12 0.71
4 -10 16 3.36 0.64
4 -10 16 4.11 0.7
5 -10 16 0.73 0.46
6 -10 16 0 0.48
7 -10 16 1.38 0.36
7 -10 16 2.38 0.57
8 -10 16 1.39 0.6
9 -10 16 4.52 0.73
-8 -9 16 0.74 0.62
7 9 -16 8.98 0.9
-7 -9 16 7.65 0.99
6 9 -16 4.08 0.73
-6 -9 16 3.55 0.62
5 9 -16 0.12 0.39
-5 -9 16 -0.27 0.43
4 9 -16 11.47 0.87
-4 -9 16 10.68 0.95
-3 -9 16 6.31 0.75
-2 -9 16 10.8 0.9
-2 -9 16 10.84 0.84
-1 -9 16 3.03 0.57
-1 -9 16 3.82 0.59
0 -9 16 17.25 1.17
0 -9 16 18.4 1.1
1 -9 16 2.64 0.43
1 -9 16 2.7 0.48
2 -9 16 39.13 2.28
2 -9 16 41.25 2.11
3 -9 16 2.19 0.45
3 -9 16 2.42 0.45
4 -9 16 21.75 1.32
4 -9 16 21.77 1.39
5 -9 16 -0.22 0.39
5 -9 16 -0.08 0.43
6 -9 16 0.29 0.48
6 -9 16 0.5 0.43
7 -9 16 0.54 0.53
7 -9 16 0.44 0.29
8 -9 16 3.48 0.66
9 -9 16 1.66 0.64
8 8 -16 5.76 0.84
-8 -8 16 4.89 0.95
7 8 -16 5.14 0.78
-7 -8 16 4.74 0.71
6 8 -16 10.48 0.92
-6 -8 16 10.65 1.02
5 8 -16 1.71 0.44
-5 -8 16 1.66 0.48
4 8 -16 8.64 0.77
-4 -8 16 9.06 0.86
-3 -8 16 0.96 0.4
-2 -8 16 24.03 1.37
-2 -8 16 23.64 1.48
-1 -8 16 2.96 0.55
-1 -8 16 2.07 0.39
0 -8 16 23.55 1.31
0 -8 16 22.35 1.43
1 -8 16 1.92 0.39
1 -8 16 1.49 0.45
2 -8 16 15.69 1
2 -8 16 14.99 1.08
3 -8 16 0.13 0.38
3 -8 16 0.27 0.39
4 -8 16 1.71 0.45
4 -8 16 2.07 0.46
5 -8 16 2.63 0.49
5 -8 16 2.78 0.49
6 -8 16 1.07 0.5
6 -8 16 1.31 0.49
7 -8 16 1.44 0.51
7 -8 16 0.42 0.54
8 -8 16 2.42 0.61
9 -8 16 0.15 0.61
8 7 -16 -0.08 0.49
-8 -7 16 0.5 0.58
7 7 -16 1.54 0.48
-7 -7 16 1.28 0.55
6 7 -16 4.11 0.69
-6 -7 16 3.42 0.59
5 7 -16 -0.01 0.37
-5 -7 16 0.26 0.4
4 7 -16 0.16 0.35
-4 -7 16 -0.13 0.38
-3 -7 16 1.71 0.42
-2 -7 16 2.61 0.42
-2 -7 16 3.07 0.57
-1 -7 16 1.54 0.36
-1 -7 16 1.27 0.37
0 -7 16 6.57 0.73
0 -7 16 7.52 0.67
1 -7 16 0.41 0.39
1 -7 16 0.96 0.36
2 -7 16 0.49 0.36
2 -7 16 0.56 0.38
3 -7 16 0.59 0.42
3 -7 16 0.21 0.38
4 -7 16 31.22 1.68
4 -7 16 29.66 1.82
5 -7 16 5.32 0.76
5 -7 16 4.99 0.7
6 -7 16 4.97 0.76
6 -7 16 6.37 0.83
7 -7 16 0.54 0.51
7 -7 16 -0.85 0.5
8 -7 16 1.24 0.55
9 -7 16 -0.78 0.58
9 6 -16 0.23 0.55
-9 -6 16 0.46 0.62
8 6 -16 0.81 0.52
-8 -6 16 0.59 0.56
7 6 -16 9.91 0.9
-7 -6 16 8.63 0.99
6 6 -16 2.37 0.46
-6 -6 16 2.2 0.51
5 6 -16 0.12 0.37
-5 -6 16 0.32 0.41
4 6 -16 4.14 0.6
-4 -6 16 3.39 0.66
-3 -6 16 0.77 0.37
-2 -6 16 0.33 0.32
-2 -6 16 0.28 0.33
-1 -6 16 2.14 0.41
-1 -6 16 2.04 0.36
0 -6 16 0.38 0.33
0 -6 16 -0.08 0.38
1 -6 16 16.83 1.18
1 -6 16 18.63 1.06
2 -6 16 33.93 1.76
2 -6 16 32.22 1.94
3 -6 16 20.35 1.18
3 -6 16 18.8 1.31
4 -6 16 -0.07 0.41
4 -6 16 -0.15 0.38
5 -6 16 5.82 0.79
5 -6 16 5.53 0.7
6 -6 16 1.37 0.49
6 -6 16 1.71 0.53
7 -6 16 2.18 0.59
7 -6 16 0.84 0.51
8 -6 16 9.15 0.99
8 -6 16 12.58 1.16
9 -6 16 3.67 0.7
9 5 -16 6.25 0.91
-9 -5 16 5.11 1.02
8 5 -16 1.36 0.53
-8 -5 16 0.7 0.55
7 5 -16 14.15 1.06
-7 -5 16 13.76 1.17
6 5 -16 4.53 0.67
-6 -5 16 4.48 0.77
5 5 -16 13.53 0.92
-5 -5 16 12.44 1.04
4 5 -16 2.36 0.41
-4 -5 16 1.83 0.44
-3 -5 16 23.01 1.44
-2 -5 16 0.88 0.33
-2 -5 16 1.11 0.36
-1 -5 16 11.35 0.92
-1 -5 16 12.44 0.81
0 -5 16 1.46 0.36
0 -5 16 1.3 0.43
1 -5 16 48.4 2.37
1 -5 16 44.49 2.61
2 -5 16 4.51 0.69
2 -5 16 5.82 0.61
3 -5 16 21.51 1.47
3 -5 16 24.23 1.32
4 -5 16 2.02 0.43
4 -5 16 2.11 0.49
5 -5 16 16.65 1.09
5 -5 16 16.61 1.23
6 -5 16 1.97 0.55
6 -5 16 0.92 0.5
7 -5 16 17.62 1.3
7 -5 16 13.52 1.09
8 -5 16 1.43 0.57
8 -5 16 2.79 0.68
9 -5 16 7.38 1.1
9 -5 16 3.55 0.7
9 4 -16 2.42 0.63
-9 -4 16 2.56 0.66
8 4 -16 1.99 0.54
-8 -4 16 1.94 0.58
7 4 -16 13.45 1.02
-7 -4 16 13.15 1.14
6 4 -16 7.39 0.74
-6 -4 16 6.16 0.83
5 4 -16 5.66 0.63
-5 -4 16 4.09 0.72
4 4 -16 4.16 0.58
-4 -4 16 3.78 0.64
-3 -4 16 34.43 2
-2 -4 16 10.15 0.86
-2 -4 16 11.61 0.79
-1 -4 16 6.68 0.61
-1 -4 16 6.75 0.73
0 -4 16 2.48 0.38
0 -4 16 1.77 0.42
1 -4 16 13.83 0.87
1 -4 16 12.81 0.99
2 -4 16 4.97 0.58
2 -4 16 4.28 0.69
3 -4 16 7.2 0.81
3 -4 16 8.07 0.68
4 -4 16 -0.51 0.36
4 -4 16 -0.7 0.43
5 -4 16 1.21 0.44
5 -4 16 0.85 0.5
6 -4 16 2.25 0.51
6 -4 16 3.67 0.65
7 -4 16 0.5 0.58
7 -4 16 0.68 0.47
8 -4 16 1.5 0.67
8 -4 16 1.65 0.56
9 -4 16 3.8 0.71
9 -4 16 5.92 1.13
-9 -3 16 2.76 0.66
8 3 -16 1.18 0.5
-8 -3 16 0.75 0.55
7 3 -16 3.17 0.52
-7 -3 16 2.76 0.58
6 3 -16 0.59 0.4
-6 -3 16 0.68 0.46
5 3 -16 0.09 0.34
-5 -3 16 -0.2 0.38
4 3 -16 5.9 0.62
-4 -3 16 5.75 0.69
-3 -3 16 13.33 0.98
-2 -3 16 0.75 0.38
-2 -3 16 0.19 0.31
-1 -3 16 2.15 0.35
-1 -3 16 1.36 0.42
0 -3 16 0.19 0.31
0 -3 16 0.45 0.36
1 -3 16 1.27 0.41
1 -3 16 1.3 0.34
2 -3 16 21.09 1.15
2 -3 16 18.55 1.33
3 -3 16 0.05 0.34
3 -3 16 0.58 0.44
4 -3 16 0.75 0.38
4 -3 16 0.72 0.48
5 -3 16 1.37 0.43
5 -3 16 1.6 0.57
6 -3 16 0.22 0.54
6 -3 16 0.19 0.43
7 -3 16 0.6 0.61
7 -3 16 0.18 0.49
8 -3 16 -0.18 0.53
8 -3 16 0.64 0.68
10 2 -16 6.56 1.02
-10 -2 16 5.51 1.09
-9 -2 16 -0.13 0.57
8 2 -16 0.41 0.49
-8 -2 16 -0.26 0.53
7 2 -16 6.32 0.75
-7 -2 16 5.16 0.85
6 2 -16 1.51 0.42
-6 -2 16 1.69 0.48
5 2 -16 1.39 0.36
-5 -2 16 1.35 0.43
4 2 -16 0.22 0.33
-4 -2 16 0.23 0.37
-3 -2 16 2.93 0.47
-2 -2 16 3.31 0.65
-2 -2 16 4.26 0.54
-1 -2 16 15.02 1.12
-1 -2 16 17.09 0.97
0 -2 16 0.22 0.35
0 -2 16 -0.08 0.29
1 -2 16 1.15 0.43
1 -2 16 2.19 0.35
2 -2 16 -0.72 0.39
2 -2 16 -0.04 0.32
3 -2 16 1.13 0.36
3 -2 16 0.9 0.47
4 -2 16 11.95 0.83
4 -2 16 11.02 1.05
5 -2 16 1.72 0.58
5 -2 16 0.88 0.41
6 -2 16 1.42 0.43
6 -2 16 1.89 0.62
7 -2 16 -0.28 0.44
7 -2 16 0.62 0.65
8 -2 16 0.17 0.7
8 -2 16 0.17 0.5
10 1 -16 1.78 0.62
-10 -1 16 0.75 0.65
9 1 -16 1.13 0.54
-9 -1 16 1.03 0.6
8 1 -16 -0.3 0.48
-8 -1 16 -0.06 0.52
7 1 -16 -0.45 0.39
-7 -1 16 -0.02 0.47
6 1 -16 3.45 0.61
-6 -1 16 3.98 0.72
5 1 -16 7.54 0.67
5 1 -16 7.13 0.63
-5 -1 16 6.97 0.79
4 1 -16 8.6 0.69
-4 -1 16 7.67 0.81
-3 -1 16 1.49 0.44
-2 -1 16 -0.06 0.29
-2 -1 16 -0.08 0.37
-1 -1 16 13.1 0.79
-1 -1 16 11.49 0.94
0 -1 16 9.17 0.64
0 -1 16 8.68 0.81
1 -1 16 15.51 1.11
1 -1 16 14.25 0.86
2 -1 16 32.44 1.75
2 -1 16 37.22 2.07
3 -1 16 6.08 0.81
3 -1 16 4.85 0.46
4 -1 16 -0.24 0.25
4 -1 16 0.18 0.5
5 -1 16 0.77 0.58
5 -1 16 0.05 0.26
6 -1 16 3.97 0.54
6 -1 16 6.7 1.01
7 -1 16 0.58 0.67
7 -1 16 0.71 0.35
8 -1 16 17.73 1.64
10 0 -16 0.47 0.6
-10 0 16 -0.03 0.63
9 0 -16 0.26 0.52
-9 0 16 -0.12 0.57
8 0 -16 0.59 0.42
8 0 -16 0.15 0.47
-8 0 16 0.72 0.52
7 0 -16 -0.38 0.37
7 0 -16 -0.21 0.4
-7 0 16 0.07 0.48
6 0 -16 17.17 1.07
6 0 -16 20.58 1.15
-6 0 16 17.9 1.31
5 0 -16 5.43 0.58
5 0 -16 5.6 0.6
-5 0 16 5.42 0.76
4 0 -16 0.93 0.32
4 0 -16 1.6 0.35
-4 0 16 0.87 0.44
3 0 -16 14.61 0.83
-3 0 16 12.16 1.05
2 0 -16 19.32 0.97
-2 0 16 16.29 1.17
-2 0 16 16.2 0.96
-1 0 16 3.41 0.62
-1 0 16 2.29 0.35
0 0 16 33.64 1.83
0 0 16 27.71 1.53
1 0 16 27.42 1.55
1 0 16 35.42 1.88
2 0 16 2.33 0.54
3 0 16 0.08 0.2
3 0 16 -0.41 0.47
4 0 16 10.19 1.03
4 0 16 8.26 0.6
5 0 16 1.01 0.3
5 0 16 2.2 0.64
6 0 16 8.6 1.1
6 0 16 5.75 0.61
7 0 16 9.82 1.29
8 0 16 1.95 0.84
10 -1 -16 0.53 0.47
-10 1 16 -1 0.6
9 -1 -16 1.99 0.55
9 -1 -16 1.62 0.47
-9 1 16 1.38 0.59
8 -1 -16 4.33 0.77
8 -1 -16 3.51 0.51
-8 1 16 3.33 0.63
7 -1 -16 24.71 1.36
7 -1 -16 21.07 1.25
-7 1 16 21.74 1.54
6 -1 -16 3.53 0.54
6 -1 -16 4.29 0.6
-6 1 16 3.49 0.6
5 -1 -16 0.25 0.3
5 -1 -16 -0.22 0.32
-5 1 16 0.69 0.46
4 -1 -16 -0.03 0.31
4 -1 -16 0.44 0.3
-4 1 16 0.06 0.44
3 -1 -16 3.25 0.46
-3 1 16 3.01 0.51
-3 1 16 2.54 0.39
2 -1 -16 3.61 0.47
-2 1 16 2.23 0.35
-2 1 16 3.95 0.64
1 -1 -16 13.58 0.73
-1 1 16 9.31 0.63
-1 1 16 11.35 0.92
0 1 16 3.68 0.56
1 1 16 5.64 0.77
2 1 16 2.04 0.54
3 1 16 2.71 0.61
4 1 16 -0.39 0.54
5 1 16 4.97 1
6 1 16 3.71 0.78
7 1 16 1.62 0.78
10 -2 -16 -0.3 0.45
-10 2 16 1.15 0.62
9 -2 -16 9.09 0.84
9 -2 -16 11.39 0.99
-9 2 16 9.57 1.11
8 -2 -16 4.03 0.61
8 -2 -16 5.01 0.76
-8 2 16 3.82 0.69
7 -2 -16 0.02 0.39
7 -2 -16 -0.31 0.33
-7 2 16 -0.22 0.5
6 -2 -16 0.03 0.32
6 -2 -16 0.32 0.35
-6 2 16 0.03 0.49
5 -2 -16 8.79 0.65
5 -2 -16 9.7 0.72
-5 2 16 7 0.95
4 -2 -16 4.07 0.49
-4 2 16 3.61 0.59
3 -2 -16 19.76 1.04
-3 2 16 18.66 1.31
2 -2 -16 5.8 0.52
-2 2 16 5.34 0.74
1 -2 -16 2.11 0.33
-1 2 16 1.22 0.46
0 -2 -16 3.93 0.47
0 2 16 3.17 0.55
1 2 16 0.9 0.48
2 2 16 14.06 1.18
3 2 16 -0.38 0.52
4 2 16 1.93 0.64
5 2 16 3.76 0.75
6 2 16 0.9 0.7
7 2 16 0.96 0.77
10 -3 -16 2.84 0.51
-10 3 16 3.47 0.74
9 -3 -16 0.82 0.51
9 -3 -16 0.44 0.4
-9 3 16 0.04 0.59
8 -3 -16 2.72 0.46
8 -3 -16 3.29 0.55
-8 3 16 4.25 0.71
7 -3 -16 2.55 0.45
7 -3 -16 2.09 0.4
-7 3 16 2.01 0.62
6 -3 -16 3.42 0.53
6 -3 -16 4.79 0.62
-6 3 16 3.46 0.67
5 -3 -16 1.9 0.37
5 -3 -16 1.98 0.38
-5 3 16 1.3 0.53
4 -3 -16 -0.23 0.28
-4 3 16 0.81 0.45
3 -3 -16 11.99 0.74
-3 3 16 10.45 0.97
2 -3 -16 0.9 0.29
-2 3 16 0.95 0.46
1 -3 -16 0.82 0.28
-1 3 16 0.74 0.47
0 -3 -16 11.51 0.73
0 3 16 11.46 1.01
1 3 16 0.76 0.51
2 3 16 -0.23 0.53
3 3 16 6.81 1.01
4 3 16 -0.43 0.58
5 3 16 -0.21 0.62
6 3 16 2.05 0.79
9 -4 -16 0.22 0.4
-9 4 16 -0.07 0.63
8 -4 -16 0.39 0.44
8 -4 -16 -0.02 0.36
-8 4 16 -0.17 0.6
7 -4 -16 0.56 0.4
7 -4 -16 -0.09 0.35
-7 4 16 0.03 0.57
6 -4 -16 0.22 0.34
6 -4 -16 0.31 0.35
-6 4 16 0.42 0.54
5 -4 -16 3.33 0.54
-5 4 16 4.62 0.79
4 -4 -16 -0.03 0.31
-4 4 16 0.46 0.47
3 -4 -16 0.68 0.31
-3 4 16 0.67 0.48
2 -4 -16 3.03 0.46
-2 4 16 2.2 0.54
1 -4 -16 4.28 0.48
-1 4 16 3.34 0.59
0 -4 -16 0.01 0.26
0 4 16 -0.04 0.48
-1 -4 -16 14.96 0.82
1 4 16 11.22 1.18
2 4 16 8.27 1.02
3 4 16 -0.36 0.56
4 4 16 1.46 0.67
5 4 16 0.14 0.69
6 4 16 0.37 0.78
9 -5 -16 0.01 0.4
8 -5 -16 4.42 0.62
-8 5 16 3.97 0.77
7 -5 -16 0.89 0.38
-7 5 16 0.77 0.61
6 -5 -16 25.82 1.41
-6 5 16 27.07 1.77
5 -5 -16 0.52 0.34
-5 5 16 0.39 0.51
4 -5 -16 5.16 0.56
-4 5 16 5.29 0.83
3 -5 -16 1.23 0.34
-3 5 16 0.83 0.51
2 -5 -16 0.2 0.3
-2 5 16 -0.22 0.49
1 -5 -16 1.45 0.31
-1 5 16 1.04 0.53
0 -5 -16 23.06 1.17
0 5 16 21.35 1.58
-1 -5 -16 1 0.31
1 5 16 0.5 0.56
2 5 16 1.7 0.66
3 5 16 -0.14 0.61
4 5 16 2.1 0.72
5 5 16 0.2 0.72
9 -6 -16 0.31 0.41
8 -6 -16 1.36 0.41
-8 6 16 0.39 0.52
7 -6 -16 1.98 0.42
-7 6 16 0.97 0.58
6 -6 -16 11.29 0.81
-6 6 16 12.09 1.14
5 -6 -16 0.07 0.33
-5 6 16 -0.41 0.52
4 -6 -16 0.03 0.33
-4 6 16 0.56 0.53
3 -6 -16 -0.07 0.31
-3 6 16 0.01 0.53
2 -6 -16 12.55 0.78
-2 6 16 10.54 1.12
1 -6 -16 7.12 0.6
-1 6 16 6.96 0.99
0 -6 -16 3.6 0.48
0 6 16 1.87 0.64
-1 -6 -16 4.52 0.5
1 6 16 3.35 0.72
2 6 16 0.74 0.62
3 6 16 3.63 0.77
4 6 16 -0.31 0.68
8 -7 -16 0.47 0.42
7 -7 -16 -0.16 0.38
6 -7 -16 0.46 0.38
-6 7 16 1.11 0.55
5 -7 -16 2.5 0.42
-5 7 16 2.46 0.64
4 -7 -16 0.02 0.34
-4 7 16 -0.27 0.55
3 -7 -16 7.08 0.64
-3 7 16 6.76 0.99
2 -7 -16 4.56 0.54
-2 7 16 3.3 0.69
1 -7 -16 3.55 0.51
-1 7 16 2.04 0.67
0 -7 -16 0.35 0.3
0 7 16 -0.49 0.57
-1 -7 -16 0.11 0.28
1 7 16 -0.25 0.62
2 7 16 -0.13 0.65
3 7 16 0.9 0.72
4 7 16 4.33 0.91
8 -8 -16 -0.07 0.42
7 -8 -16 0.76 0.4
6 -8 -16 3.22 0.48
5 -8 -16 0.13 0.36
-5 8 16 1.15 0.59
4 -8 -16 0.32 0.36
-4 8 16 0.13 0.59
3 -8 -16 3.26 0.55
-3 8 16 2.21 0.68
2 -8 -16 0.93 0.35
-2 8 16 0.16 0.63
1 -8 -16 0.58 0.32
-1 8 16 0.77 0.64
0 -8 -16 0.92 0.33
0 8 16 1.33 0.71
1 8 16 0.04 0.67
2 8 16 -0.68 0.69
3 8 16 2.72 0.85
7 -9 -16 2.66 0.53
6 -9 -16 0.16 0.39
5 -9 -16 3.41 0.57
-5 9 16 1.61 0.58
4 -9 -16 7.26 0.69
-4 9 16 6.83 1.07
3 -9 -16 7.13 0.67
-3 9 16 5.98 1.14
2 -9 -16 0.13 0.35
-2 9 16 0.56 0.66
1 -9 -16 1.95 0.39
-1 9 16 1.45 0.74
0 -9 -16 0.5 0.33
0 9 16 1.55 0.72
1 9 16 2.22 0.79
2 9 16 4.66 0.95
6 -10 -16 1.2 0.42
5 -10 -16 2.1 0.44
4 -10 -16 2.68 0.45
3 -10 -16 1.54 0.42
-3 10 16 1.83 0.75
2 -10 -16 -0.09 0.36
-2 10 16 -0.57 0.7
1 -10 -16 1.03 0.37
-1 10 16 0.9 0.73
0 10 16 5.5 0.94
4 -11 -16 0.53 0.4
3 -11 -16 0.52 0.4
-3 11 16 1.03 0.61
2 -11 -16 0.27 0.4
-2 11 16 0.16 0.73
2 -18 17 -0.73 0.59
3 -18 17 -0.19 0.6
-1 -17 17 1.96 0.61
0 -17 17 7.6 1
1 -17 17 0.14 0.55
2 -17 17 0.92 0.59
3 -17 17 0.22 0.56
3 -17 17 0.86 0.52
4 -17 17 0.45 0.61
4 -17 17 1.38 0.56
5 -17 17 4.5 0.75
5 -17 17 6.27 0.89
-2 -16 17 19.02 1.41
-2 -16 17 19.9 1.42
-1 -16 17 0.02 0.54
0 -16 17 1.04 0.56
1 -16 17 1.41 0.55
2 -16 17 1.94 0.58
3 -16 17 0.62 0.55
4 -16 17 18.53 1.45
4 -16 17 24.02 1.37
5 -16 17 1.05 0.61
5 -16 17 0.83 0.54
6 -16 17 1.63 0.63
6 -16 17 1.32 0.55
-4 -15 17 3.01 0.64
-4 -15 17 3.08 0.65
-3 -15 17 1.95 0.56
-3 -15 17 1.03 0.51
-2 -15 17 0.22 0.53
-2 -15 17 0.29 0.45
-1 -15 17 -0.03 0.5
-1 -15 17 0.36 0.41
0 -15 17 22.17 1.42
0 -15 17 20.05 1.35
1 -15 17 7.74 0.91
2 -15 17 0.69 0.53
3 -15 17 2.37 0.58
4 -15 17 -0.42 0.56
5 -15 17 -0.29 0.5
5 -15 17 -0.4 0.56
6 -15 17 0.49 0.53
6 -15 17 0.47 0.57
7 -15 17 6.92 1.06
7 -15 17 7.35 0.88
-4 -14 17 -0.14 0.55
-4 -14 17 0.32 0.5
-3 -14 17 0.67 0.52
-3 -14 17 0.35 0.45
-2 -14 17 0.05 0.5
-2 -14 17 0.05 0.44
-1 -14 17 3.87 0.7
-1 -14 17 3.96 0.6
0 -14 17 0.76 0.5
0 -14 17 0.51 0.37
1 -14 17 3.45 0.61
1 -14 17 2.47 0.52
2 -14 17 0.04 0.49
3 -14 17 1.19 0.54
4 -14 17 -0.37 0.53
5 -14 17 0.8 0.55
6 -14 17 6.3 0.92
6 -14 17 6.39 0.86
7 -14 17 0.81 0.62
7 -14 17 0.57 0.51
-5 -13 17 1.93 0.61
-4 -13 17 0.42 0.49
-4 -13 17 0.41 0.55
-3 -13 17 0.15 0.45
-3 -13 17 -0.08 0.48
-2 -13 17 8.95 0.92
-2 -13 17 10.62 0.96
-1 -13 17 10.05 0.9
-1 -13 17 10.84 0.96
0 -13 17 1.16 0.48
0 -13 17 1.52 0.42
1 -13 17 5.29 0.7
1 -13 17 6.97 0.79
2 -13 17 2.98 0.54
2 -13 17 2.66 0.5
3 -13 17 0.13 0.49
4 -13 17 2.47 0.59
5 -13 17 1.16 0.56
6 -13 17 1.64 0.52
6 -13 17 1.36 0.56
7 -13 17 3.05 0.67
7 -13 17 5.36 0.79
8 -13 17 0.62 0.48
6 12 -17 0.39 0.47
-6 -12 17 -0.1 0.56
-5 -12 17 9.57 1.07
-4 -12 17 0.39 0.48
-4 -12 17 0.4 0.58
-3 -12 17 -0.23 0.46
-3 -12 17 0.55 0.44
-2 -12 17 4.22 0.71
-2 -12 17 3.81 0.55
-1 -12 17 13.13 1.01
-1 -12 17 12.69 0.99
0 -12 17 2.52 0.44
0 -12 17 2.52 0.5
1 -12 17 4.9 0.75
1 -12 17 5.26 0.69
2 -12 17 0.21 0.41
2 -12 17 -0.5 0.43
3 -12 17 6.94 0.82
3 -12 17 6.43 0.73
4 -12 17 -1.39 0.47
5 -12 17 16.32 1.18
6 -12 17 1.51 0.56
7 -12 17 1.45 0.6
7 -12 17 2.28 0.53
8 -12 17 2.85 0.69
6 11 -17 0.27 0.46
-6 -11 17 -0.14 0.53
-5 -11 17 0.38 0.51
-4 -11 17 0.23 0.43
-3 -11 17 9.31 0.91
-3 -11 17 8.14 0.89
-2 -11 17 4.92 0.73
-2 -11 17 4.29 0.7
-1 -11 17 11.61 0.92
-1 -11 17 10.79 0.9
0 -11 17 7.99 0.78
0 -11 17 8.67 0.81
1 -11 17 1.06 0.43
1 -11 17 0.94 0.43
2 -11 17 2.69 0.48
2 -11 17 2.72 0.49
3 -11 17 11.73 0.95
3 -11 17 11.94 0.94
4 -11 17 9.16 0.84
4 -11 17 8.2 0.89
5 -11 17 7.22 0.84
6 -11 17 6.58 0.87
7 -11 17 6.7 0.95
7 -11 17 8.31 0.77
8 -11 17 2.42 0.67
7 10 -17 5.35 0.84
-7 -10 17 3.97 0.75
6 10 -17 0.75 0.46
-6 -10 17 0.55 0.53
5 10 -17 2.54 0.49
-5 -10 17 1.65 0.54
-4 -10 17 9.89 0.95
-3 -10 17 1.15 0.46
-3 -10 17 0.22 0.43
-2 -10 17 13.57 1.08
-2 -10 17 15.06 1.03
-1 -10 17 0.18 0.38
-1 -10 17 0.02 0.35
0 -10 17 5.46 0.68
0 -10 17 5.55 0.69
1 -10 17 -0.15 0.42
1 -10 17 -0.23 0.39
2 -10 17 3.68 0.64
2 -10 17 4.05 0.67
3 -10 17 -0.19 0.39
3 -10 17 -0.32 0.42
4 -10 17 12.07 0.98
4 -10 17 12.34 0.98
5 -10 17 1.9 0.47
5 -10 17 2.27 0.52
6 -10 17 0.37 0.51
7 -10 17 0.09 0.32
7 -10 17 -0.5 0.54
8 -10 17 0.71 0.61
7 9 -17 7.91 0.92
-7 -9 17 8.62 1.06
6 9 -17 3.34 0.55
-6 -9 17 3.19 0.63
5 9 -17 0.71 0.43
-5 -9 17 1.22 0.49
-4 -9 17 5.51 0.8
-3 -9 17 21.02 1.33
-3 -9 17 20.83 1.41
-2 -9 17 0.22 0.38
-2 -9 17 -0.36 0.36
-1 -9 17 6.44 0.71
-1 -9 17 6.49 0.7
0 -9 17 1.07 0.4
0 -9 17 0.8 0.39
1 -9 17 1.63 0.46
1 -9 17 2.61 0.44
2 -9 17 5.54 0.73
2 -9 17 7.17 0.72
3 -9 17 5.68 0.74
3 -9 17 6.24 0.72
4 -9 17 0 0.44
4 -9 17 0.08 0.42
5 -9 17 5.54 0.76
5 -9 17 4.88 0.75
6 -9 17 4.07 0.62
6 -9 17 4.59 0.77
7 -9 17 0.07 0.55
8 -9 17 3.7 0.69
8 8 -17 0.74 0.53
-8 -8 17 -0.03 0.59
7 8 -17 2.49 0.55
-7 -8 17 2.36 0.63
6 8 -17 -0.04 0.44
-6 -8 17 0.18 0.49
5 8 -17 1.69 0.46
-5 -8 17 1.83 0.52
-4 -8 17 0.17 0.43
-3 -8 17 9.41 0.86
-3 -8 17 8.53 0.87
-2 -8 17 10.93 0.84
-2 -8 17 9.53 0.86
-1 -8 17 0.13 0.36
-1 -8 17 0.28 0.36
0 -8 17 4.01 0.68
0 -8 17 4.49 0.63
1 -8 17 11.29 0.99
1 -8 17 13.63 0.9
2 -8 17 14.39 0.96
2 -8 17 13.21 1.03
3 -8 17 9.84 0.85
3 -8 17 11.06 0.93
4 -8 17 3.65 0.69
4 -8 17 3.86 0.69
5 -8 17 1.64 0.49
5 -8 17 1.65 0.5
6 -8 17 -0.43 0.49
6 -8 17 0.56 0.5
7 -8 17 5.93 0.9
7 -8 17 7.72 0.96
8 -8 17 5.05 0.89
9 -8 17 0.88 0.66
8 7 -17 1.61 0.55
-8 -7 17 1.38 0.62
7 7 -17 3.65 0.56
-7 -7 17 1.98 0.6
6 7 -17 0.11 0.44
-6 -7 17 0.57 0.49
5 7 -17 0.47 0.41
-5 -7 17 0.8 0.47
4 7 -17 5.47 0.68
-4 -7 17 5.88 0.77
-3 -7 17 0.11 0.38
-2 -7 17 2.41 0.42
-2 -7 17 1.72 0.42
-1 -7 17 1.08 0.37
-1 -7 17 1.06 0.4
0 -7 17 11.12 0.98
0 -7 17 12.1 0.85
1 -7 17 2.81 0.49
1 -7 17 3.81 0.57
2 -7 17 4.39 0.69
2 -7 17 4.53 0.63
3 -7 17 0.38 0.44
3 -7 17 0.11 0.41
4 -7 17 15.01 1.01
4 -7 17 13.46 1.09
5 -7 17 0.79 0.5
5 -7 17 0.33 0.45
6 -7 17 0.58 0.51
6 -7 17 -0.62 0.48
7 -7 17 14.92 1.21
7 -7 17 12.54 1.1
8 -7 17 0 0.54
9 -7 17 1.51 0.64
8 6 -17 1.14 0.54
-8 -6 17 0.2 0.55
7 6 -17 8.74 0.87
-7 -6 17 7.61 0.98
6 6 -17 0.09 0.41
-6 -6 17 -0.57 0.45
5 6 -17 11.64 0.92
-5 -6 17 11.33 1.02
4 6 -17 3.7 0.61
-4 -6 17 3.58 0.7
-3 -6 17 21.2 1.37
-2 -6 17 0.22 0.37
-2 -6 17 0.26 0.34
-1 -6 17 14.63 1.1
-1 -6 17 15.35 0.97
0 -6 17 2.52 0.43
0 -6 17 2.51 0.5
1 -6 17 1.5 0.44
1 -6 17 2.44 0.41
2 -6 17 0.14 0.38
2 -6 17 0.87 0.43
3 -6 17 0 0.43
3 -6 17 -0.16 0.4
4 -6 17 9.1 0.92
4 -6 17 9.88 0.82
5 -6 17 14.85 1.23
5 -6 17 17.73 1.11
6 -6 17 8.08 0.95
6 -6 17 5.97 0.82
7 -6 17 0.65 0.57
7 -6 17 0.1 0.51
8 -6 17 -0.78 0.53
8 -6 17 0.4 0.64
9 5 -17 5.56 0.91
-9 -5 17 3.34 0.72
8 5 -17 4.05 0.62
-8 -5 17 3.6 0.71
7 5 -17 1.5 0.49
-7 -5 17 1.45 0.57
6 5 -17 -0.05 0.4
-6 -5 17 -0.3 0.46
5 5 -17 0.01 0.39
-5 -5 17 0.12 0.43
4 5 -17 3.49 0.48
-4 -5 17 3.83 0.67
-3 -5 17 36.68 2.14
-2 -5 17 13.49 1.04
-2 -5 17 14.86 0.94
-1 -5 17 1.02 0.35
-1 -5 17 1.08 0.42
0 -5 17 0.11 0.38
0 -5 17 -0.03 0.35
1 -5 17 0.96 0.41
1 -5 17 0.49 0.35
2 -5 17 7.47 0.71
2 -5 17 7.53 0.81
3 -5 17 3.74 0.58
3 -5 17 3.61 0.63
4 -5 17 16.38 1.04
4 -5 17 15.31 1.2
5 -5 17 0.18 0.5
5 -5 17 0.18 0.45
6 -5 17 4.72 0.89
6 -5 17 3.48 0.58
7 -5 17 4.81 0.81
7 -5 17 7.62 1.01
8 -5 17 1.02 0.67
8 -5 17 -0.32 0.54
9 4 -17 0.14 0.55
-9 -4 17 0.66 0.62
8 4 -17 1.36 0.54
-8 -4 17 1.11 0.59
7 4 -17 -0.39 0.43
-7 -4 17 -0.43 0.48
6 4 -17 4.81 0.69
-6 -4 17 4.69 0.8
5 4 -17 2.29 0.45
-5 -4 17 1.81 0.48
4 4 -17 6.42 0.68
-4 -4 17 5.91 0.74
-3 -4 17 1.78 0.44
-2 -4 17 0.97 0.41
-2 -4 17 1.45 0.37
-1 -4 17 6.26 0.63
-1 -4 17 4.9 0.74
0 -4 17 0.82 0.39
0 -4 17 0.53 0.35
1 -4 17 3.9 0.68
1 -4 17 5.49 0.6
2 -4 17 12.57 0.83
2 -4 17 10.7 0.99
3 -4 17 -0.25 0.43
3 -4 17 -0.19 0.37
4 -4 17 1.21 0.42
4 -4 17 0.62 0.52
5 -4 17 9.43 1
5 -4 17 9.53 0.83
6 -4 17 -0.1 0.46
6 -4 17 0.13 0.58
7 -4 17 -0.34 0.47
7 -4 17 0.65 0.62
8 -4 17 0.56 0.7
8 -4 17 0.19 0.56
9 3 -17 0.49 0.55
-9 -3 17 0.51 0.61
8 3 -17 0.32 0.5
-8 -3 17 -0.1 0.54
7 3 -17 0.5 0.46
-7 -3 17 -0.15 0.5
6 3 -17 8.92 0.8
-6 -3 17 8.53 0.93
5 3 -17 4.13 0.64
-5 -3 17 4 0.7
4 3 -17 0.15 0.35
-4 -3 17 0.04 0.38
-3 -3 17 0.08 0.38
-2 -3 17 13.6 0.89
-2 -3 17 12.38 1.04
-1 -3 17 1.04 0.43
-1 -3 17 2.06 0.38
0 -3 17 26.84 1.39
0 -3 17 23.01 1.55
1 -3 17 1.08 0.44
1 -3 17 1.4 0.37
2 -3 17 0.27 0.36
2 -3 17 0.66 0.45
3 -3 17 0.55 0.48
3 -3 17 0.7 0.38
4 -3 17 1.62 0.43
4 -3 17 1.21 0.54
5 -3 17 1.11 0.46
5 -3 17 0.79 0.57
6 -3 17 0 0.44
6 -3 17 1.06 0.62
7 -3 17 0.04 0.65
7 -3 17 -0.36 0.5
8 -3 17 6.92 1.15
8 -3 17 3.34 0.65
-9 -2 17 -0.55 0.57
8 2 -17 0.75 0.5
-8 -2 17 0.64 0.57
7 2 -17 2.88 0.53
-7 -2 17 2.3 0.58
6 2 -17 2.04 0.44
-6 -2 17 1.81 0.51
5 2 -17 0.5 0.38
-5 -2 17 0.14 0.41
4 2 -17 7.66 0.7
-4 -2 17 7.89 0.82
-3 -2 17 13.55 1.07
-2 -2 17 5.93 0.59
-2 -2 17 4.03 0.73
-1 -2 17 0.37 0.37
-1 -2 17 -0.22 0.32
0 -2 17 5.05 0.72
0 -2 17 6.76 0.59
1 -2 17 29.01 1.86
1 -2 17 31.9 1.62
2 -2 17 6.52 0.81
2 -2 17 4.95 0.58
3 -2 17 9.55 0.96
3 -2 17 8.93 0.68
4 -2 17 1.54 0.58
4 -2 17 1.96 0.34
5 -2 17 0.89 0.6
5 -2 17 0.77 0.33
6 -2 17 0.87 0.35
6 -2 17 2.04 0.68
7 -2 17 21.81 1.58
7 -2 17 15.89 1.12
8 -2 17 0.71 0.74
8 -2 17 0.39 0.41
-9 -1 17 3.59 0.73
8 1 -17 3.31 0.58
-8 -1 17 2.73 0.64
7 1 -17 9.84 0.87
-7 -1 17 8.35 0.97
6 1 -17 0.26 0.38
-6 -1 17 0.84 0.48
5 1 -17 3.31 0.47
-5 -1 17 2.78 0.54
4 1 -17 3.67 0.57
-4 -1 17 3.25 0.56
-3 -1 17 9.75 0.76
-3 -1 17 8.35 0.9
-2 -1 17 -0.21 0.39
-2 -1 17 0.19 0.31
-1 -1 17 6.85 0.58
-1 -1 17 8.51 0.79
0 -1 17 1.13 0.27
0 -1 17 1.48 0.45
1 -1 17 10.72 0.92
1 -1 17 8.11 0.59
2 -1 17 7.76 0.86
2 -1 17 6.49 0.52
3 -1 17 2.73 0.59
3 -1 17 2.2 0.37
4 -1 17 -0.31 0.52
4 -1 17 0.02 0.27
5 -1 17 17.63 1.03
6 -1 17 6.81 1.06
6 -1 17 4.08 0.54
7 -1 17 1.06 0.75
8 -1 17 2.5 0.84
-9 0 17 3.37 0.71
8 0 -17 0.51 0.48
8 0 -17 0.13 0.41
-8 0 17 -0.06 0.52
7 0 -17 1.33 0.45
7 0 -17 0.58 0.42
-7 0 17 1.04 0.53
6 0 -17 0.8 0.38
6 0 -17 0.62 0.4
-6 0 17 0.61 0.49
5 0 -17 0.58 0.37
5 0 -17 -0.01 0.33
-5 0 17 0.04 0.46
4 0 -17 0.34 0.32
-4 0 17 0.3 0.46
3 0 -17 20.64 1.05
-3 0 17 17.72 1.31
-3 0 17 17.44 1.05
-2 0 17 8.62 0.82
-2 0 17 7.49 0.56
-1 0 17 2.41 0.48
-1 0 17 1.54 0.26
0 0 17 5.8 0.73
0 0 17 3.1 0.38
1 0 17 5.74 0.48
1 0 17 8.7 0.85
2 0 17 1.11 0.24
2 0 17 1.05 0.51
3 0 17 -0.5 0.5
3 0 17 0.34 0.23
4 0 17 4.92 0.95
5 0 17 0.21 0.62
6 0 17 2.72 0.74
7 0 17 0.27 0.76
9 -1 -17 -0.05 0.44
-9 1 17 0.56 0.61
8 -1 -17 0.49 0.43
-8 1 17 0.67 0.57
7 -1 -17 2.09 0.46
7 -1 -17 2.4 0.48
-7 1 17 1.62 0.58
6 -1 -17 0.3 0.36
6 -1 -17 -0.16 0.37
-6 1 17 0.1 0.51
5 -1 -17 0.5 0.37
5 -1 -17 0.1 0.33
-5 1 17 0.63 0.51
4 -1 -17 5.42 0.57
-4 1 17 4.84 0.82
3 -1 -17 0.11 0.31
-3 1 17 0.08 0.41
-3 1 17 0.32 0.23
2 -1 -17 0.22 0.3
-2 1 17 0.23 0.22
-2 1 17 0.45 0.41
-1 1 17 3.77 0.7
0 1 17 1.78 0.5
1 1 17 0.99 0.48
2 1 17 7.3 0.92
3 1 17 0.56 0.57
4 1 17 0 0.6
5 1 17 6.47 1.1
6 1 17 1.18 0.73
7 1 17 -0.05 0.77
9 -2 -17 1.47 0.48
9 -2 -17 2.53 0.59
-9 2 17 2.14 0.67
8 -2 -17 8.48 0.84
8 -2 -17 7.22 0.73
-8 2 17 6.9 1.05
7 -2 -17 1.34 0.45
7 -2 -17 1.4 0.39
-7 2 17 1.08 0.59
6 -2 -17 8.23 0.69
6 -2 -17 9.71 0.76
-6 2 17 6.93 1.01
5 -2 -17 2.24 0.37
5 -2 -17 1.26 0.39
-5 2 17 0.92 0.55
4 -2 -17 -0.01 0.3
-4 2 17 -0.01 0.46
3 -2 -17 4.63 0.53
-3 2 17 3.73 0.73
2 -2 -17 12.38 0.78
-2 2 17 11.14 1
1 -2 -17 4.98 0.53
-1 2 17 3.88 0.76
0 2 17 -0.12 0.46
1 2 17 0.06 0.48
2 2 17 7.6 0.96
3 2 17 4.66 0.92
4 2 17 10.4 1.18
5 2 17 0.29 0.65
6 2 17 -0.47 0.7
9 -3 -17 1.57 0.46
-9 3 17 1.93 0.71
8 -3 -17 0.42 0.47
8 -3 -17 0.37 0.39
-8 3 17 0.06 0.64
7 -3 -17 0.12 0.36
7 -3 -17 0.78 0.42
-7 3 17 1.21 0.63
6 -3 -17 16.96 1
6 -3 -17 12.78 0.89
-6 3 17 11.55 1.24
5 -3 -17 4.6 0.56
-5 3 17 4.63 0.84
4 -3 -17 12.94 0.79
-4 3 17 10.42 1.05
3 -3 -17 0.87 0.32
-3 3 17 0.81 0.48
2 -3 -17 -0.05 0.28
-2 3 17 0.54 0.47
1 -3 -17 -0.29 0.29
-1 3 17 0.01 0.47
0 -3 -17 8.45 0.63
0 3 17 6.85 0.91
1 3 17 -0.2 0.52
2 3 17 10.47 1.1
3 3 17 -0.32 0.58
4 3 17 -0.08 0.63
5 3 17 2.35 0.76
6 3 17 17.32 1.67
9 -4 -17 0.58 0.43
-9 4 17 0.23 0.68
8 -4 -17 3.19 0.49
-8 4 17 3.21 0.78
7 -4 -17 0.1 0.36
-7 4 17 0.05 0.58
6 -4 -17 0.75 0.37
-6 4 17 0.76 0.57
5 -4 -17 4.5 0.58
-5 4 17 5.74 0.88
4 -4 -17 -0.02 0.32
-4 4 17 0.09 0.5
3 -4 -17 3.4 0.52
-3 4 17 2.78 0.59
2 -4 -17 6.59 0.58
-2 4 17 6.1 0.88
1 -4 -17 7.51 0.59
-1 4 17 5.54 0.88
0 -4 -17 2.37 0.37
0 4 17 1.59 0.57
1 4 17 8.85 1.06
2 4 17 -0.14 0.57
3 4 17 1.04 0.64
4 4 17 13.51 1.4
5 4 17 4.48 0.9
9 -5 -17 6.72 0.73
-9 5 17 7.05 1.02
8 -5 -17 1.05 0.44
-8 5 17 0.14 0.65
7 -5 -17 2.42 0.45
-7 5 17 2.48 0.7
6 -5 -17 2.36 0.43
-6 5 17 2.59 0.65
5 -5 -17 0.51 0.35
-5 5 17 0.04 0.53
4 -5 -17 -0.34 0.33
-4 5 17 0.09 0.52
3 -5 -17 21.44 1.13
-3 5 17 18.39 1.46
2 -5 -17 3.17 0.5
-2 5 17 1.94 0.6
1 -5 -17 0.25 0.3
-1 5 17 -0.24 0.53
0 -5 -17 -0.08 0.3
0 5 17 0.01 0.56
-1 -5 -17 0.54 0.31
1 5 17 -0.23 0.58
2 5 17 -0.36 0.61
3 5 17 13.25 1.36
4 5 17 2 0.75
8 -6 -17 0.19 0.4
7 -6 -17 1.06 0.38
-7 6 17 0.56 0.62
6 -6 -17 0.51 0.37
-6 6 17 0.36 0.6
5 -6 -17 0.33 0.35
-5 6 17 0.17 0.57
4 -6 -17 6.69 0.64
-4 6 17 6.94 0.99
3 -6 -17 1.9 0.39
-3 6 17 2.02 0.63
2 -6 -17 1.02 0.35
-2 6 17 1.38 0.59
1 -6 -17 1.25 0.34
-1 6 17 0.5 0.6
0 -6 -17 1.01 0.32
0 6 17 0.63 0.62
-1 -6 -17 3.66 0.52
1 6 17 2.55 0.73
2 6 17 0.26 0.65
3 6 17 0.65 0.7
4 6 17 0.29 0.74
7 -7 -17 0.18 0.39
6 -7 -17 2.46 0.44
-6 7 17 1.75 0.65
5 -7 -17 2.06 0.42
-5 7 17 2.3 0.67
4 -7 -17 3.58 0.57
-4 7 17 2.55 0.7
3 -7 -17 10.21 0.76
-3 7 17 9.53 1.14
2 -7 -17 0.16 0.33
-2 7 17 -0.5 0.59
1 -7 -17 1.07 0.35
-1 7 17 1.56 0.66
0 -7 -17 -0.1 0.31
0 7 17 -0.74 0.61
1 7 17 -0.02 0.67
2 7 17 -0.46 0.68
3 7 17 2.08 0.8
7 -8 -17 0.23 0.4
6 -8 -17 0.68 0.44
5 -8 -17 3.83 0.62
-5 8 17 3.65 0.75
4 -8 -17 0.03 0.37
-4 8 17 -0.31 0.64
3 -8 -17 1.57 0.4
-3 8 17 0.81 0.65
2 -8 -17 4.2 0.58
-2 8 17 2.95 0.77
1 -8 -17 0.1 0.34
-1 8 17 0.74 0.67
0 -8 -17 0.42 0.33
0 8 17 0.02 0.71
1 8 17 6.2 0.96
2 8 17 0.55 0.77
6 -9 -17 9.68 0.81
5 -9 -17 1.47 0.45
4 -9 -17 1.56 0.42
-4 9 17 0.93 0.7
3 -9 -17 3.88 0.61
-3 9 17 2.79 0.79
2 -9 -17 5.78 0.62
-2 9 17 2.53 0.79
1 -9 -17 5.62 0.63
-1 9 17 3.53 0.87
0 9 17 1.64 0.79
1 9 17 0.41 0.77
5 -10 -17 2.13 0.48
4 -10 -17 0.62 0.46
-4 10 17 0.37 0.59
3 -10 -17 2.16 0.44
-3 10 17 2.07 0.79
2 -10 -17 12.16 0.86
-2 10 17 9.94 1.43
1 -10 -17 1.65 0.41
-1 10 17 1.26 0.81
0 -17 18 0.95 0.6
1 -17 18 -0.49 0.56
2 -17 18 3.8 0.7
3 -17 18 0.93 0.61
3 -17 18 1.08 0.56
4 -17 18 -0.37 0.63
-2 -16 18 5 0.85
-2 -16 18 4.94 0.73
-1 -16 18 1.35 0.59
0 -16 18 0.47 0.58
1 -16 18 9.59 1.03
2 -16 18 -0.63 0.56
3 -16 18 0.42 0.58
4 -16 18 -0.58 0.61
5 -16 18 0.52 0.63
5 -16 18 1.29 0.58
-3 -15 18 0.77 0.56
-3 -15 18 0.44 0.52
-2 -15 18 0.61 0.47
-2 -15 18 0.35 0.56
-1 -15 18 6.41 0.93
-1 -15 18 6.64 0.81
0 -15 18 -0.31 0.52
0 -15 18 0.41 0.44
1 -15 18 -0.13 0.51
2 -15 18 3.97 0.64
3 -15 18 -0.28 0.55
4 -15 18 0.88 0.62
5 -15 18 0.67 0.54
5 -15 18 -0.83 0.57
6 -15 18 -0.47 0.53
6 -15 18 -1.09 0.57
-4 -14 18 -0.2 0.56
-4 -14 18 0.65 0.54
-3 -14 18 -0.17 0.48
-3 -14 18 0.07 0.53
-2 -14 18 0.81 0.47
-2 -14 18 0.52 0.53
-1 -14 18 2.73 0.52
-1 -14 18 1.84 0.55
0 -14 18 0.23 0.39
0 -14 18 0.33 0.51
1 -14 18 0.48 0.41
1 -14 18 -0.28 0.47
2 -14 18 0.46 0.52
3 -14 18 1.67 0.56
4 -14 18 -0.37 0.56
5 -14 18 2.43 0.63
6 -14 18 0.5 0.59
6 -14 18 -0.08 0.53
7 -14 18 1.05 0.7
7 -14 18 1.1 0.54
-5 -13 18 4.68 0.78
-5 -13 18 2.94 0.66
-4 -13 18 0.46 0.5
-4 -13 18 0.51 0.56
-3 -13 18 0.54 0.52
-3 -13 18 -0.14 0.47
-2 -13 18 6.2 0.89
-2 -13 18 6.48 0.83
-1 -13 18 8.1 0.91
-1 -13 18 8.2 0.84
0 -13 18 4.67 0.8
0 -13 18 3.59 0.66
1 -13 18 1.09 0.48
1 -13 18 0.95 0.45
2 -13 18 5.04 0.81
2 -13 18 4.73 0.72
3 -13 18 5.98 0.86
4 -13 18 22.75 1.48
5 -13 18 -0.07 0.54
6 -13 18 5.08 0.92
6 -13 18 8.91 0.87
7 -13 18 0.91 0.61
7 -13 18 -0.04 0.52
-5 -12 18 0.37 0.53
-4 -12 18 16.99 1.33
-4 -12 18 17.28 1.32
-3 -12 18 3.35 0.59
-3 -12 18 3.39 0.59
-2 -12 18 3.97 0.74
-2 -12 18 4.57 0.8
-1 -12 18 0.52 0.4
-1 -12 18 1.26 0.49
0 -12 18 1.01 0.41
0 -12 18 0.63 0.47
1 -12 18 0.61 0.44
1 -12 18 0.59 0.44
2 -12 18 12.59 0.99
2 -12 18 11.82 0.99
3 -12 18 4.63 0.8
3 -12 18 5.07 0.72
4 -12 18 3.65 0.61
5 -12 18 -0.11 0.52
6 -12 18 1.04 0.57
7 -12 18 0.09 0.58
7 -12 18 -0.74 0.5
6 11 -18 6.64 0.85
-6 -11 18 5.04 0.98
-5 -11 18 1.31 0.55
-4 -11 18 4.8 0.85
-4 -11 18 5.06 0.92
-3 -11 18 0.31 0.45
-3 -11 18 0.48 0.48
-2 -11 18 4.51 0.76
-2 -11 18 3.63 0.71
-1 -11 18 0.18 0.38
-1 -11 18 0.1 0.43
0 -11 18 4.02 0.68
0 -11 18 3.84 0.55
1 -11 18 19.72 1.21
1 -11 18 17.54 1.32
2 -11 18 -0.04 0.41
2 -11 18 0.13 0.45
3 -11 18 0 0.47
3 -11 18 0.69 0.44
4 -11 18 -0.36 0.5
4 -11 18 0.08 0.44
5 -11 18 2.83 0.58
6 -11 18 0.15 0.54
7 -11 18 4.7 0.71
7 -11 18 4.7 0.66
8 -11 18 -0.6 0.62
6 10 -18 2.01 0.53
-6 -10 18 1.99 0.6
-5 -10 18 0.9 0.53
-4 -10 18 2.81 0.58
-3 -10 18 0.25 0.47
-3 -10 18 0.68 0.46
-2 -10 18 0.81 0.43
-2 -10 18 0.65 0.42
-1 -10 18 -0.01 0.41
-1 -10 18 0.38 0.41
0 -10 18 2.42 0.48
0 -10 18 2.24 0.48
1 -10 18 2.76 0.53
1 -10 18 3.15 0.48
2 -10 18 3.96 0.7
2 -10 18 5.48 0.72
3 -10 18 -0.21 0.42
3 -10 18 -0.17 0.45
4 -10 18 -0.63 0.43
4 -10 18 -0.3 0.48
5 -10 18 0.85 0.47
5 -10 18 0.86 0.52
6 -10 18 2.16 0.59
7 -10 18 0.28 0.59
8 -10 18 3.42 0.71
7 9 -18 -0.06 0.51
-7 -9 18 -0.08 0.56
6 9 -18 1.15 0.5
-6 -9 18 0.9 0.56
5 9 -18 12.74 1
-5 -9 18 12.14 1.13
-4 -9 18 1.26 0.5
-3 -9 18 1.93 0.5
-3 -9 18 2.77 0.52
-2 -9 18 7.15 0.76
-2 -9 18 5.67 0.75
-1 -9 18 0.28 0.41
-1 -9 18 -0.2 0.39
0 -9 18 0.28 0.42
0 -9 18 0.18 0.41
1 -9 18 6.01 0.79
1 -9 18 6.49 0.71
2 -9 18 7.78 0.83
2 -9 18 8.85 0.8
3 -9 18 24.64 1.48
3 -9 18 25.64 1.6
4 -9 18 4.34 0.75
4 -9 18 3.99 0.74
5 -9 18 1.01 0.52
5 -9 18 0.95 0.5
6 -9 18 0.16 0.53
6 -9 18 -0.31 0.5
7 -9 18 6.66 0.93
8 -9 18 0.09 0.6
7 8 -18 20.34 1.38
-7 -8 18 19.78 1.53
6 8 -18 1.83 0.51
-6 -8 18 1.1 0.55
5 8 -18 9.46 0.88
-5 -8 18 8.42 0.98
-4 -8 18 4.72 0.79
-3 -8 18 7.45 0.83
-3 -8 18 8.25 0.84
-2 -8 18 0.17 0.38
-2 -8 18 0.22 0.4
-1 -8 18 13.28 0.93
-1 -8 18 11.55 0.99
0 -8 18 3.05 0.55
0 -8 18 3.37 0.49
1 -8 18 6.73 0.7
1 -8 18 6.17 0.78
2 -8 18 7.36 0.75
2 -8 18 7.06 0.8
3 -8 18 2.04 0.48
3 -8 18 1.3 0.49
4 -8 18 8.46 0.91
4 -8 18 10.31 0.88
5 -8 18 14.12 1.05
5 -8 18 13.95 1.15
6 -8 18 -0.08 0.52
6 -8 18 0.73 0.54
7 -8 18 9.49 1.02
8 -8 18 6.68 0.96
8 7 -18 1.42 0.56
-8 -7 18 1.02 0.61
7 7 -18 2.94 0.6
-7 -7 18 2.74 0.65
6 7 -18 5.52 0.82
-6 -7 18 4.61 0.71
5 7 -18 6.05 0.77
-5 -7 18 5.22 0.83
-4 -7 18 1.73 0.5
-3 -7 18 3.37 0.68
-3 -7 18 3.97 0.7
-2 -7 18 2.31 0.48
-2 -7 18 2.79 0.45
-1 -7 18 6.54 0.69
-1 -7 18 4.59 0.74
0 -7 18 6.3 0.83
0 -7 18 7.08 0.72
1 -7 18 36.75 1.87
1 -7 18 32.72 2.05
2 -7 18 9.64 0.92
2 -7 18 10.79 0.84
3 -7 18 1.01 0.49
3 -7 18 1.25 0.46
4 -7 18 16.1 1.08
4 -7 18 14.73 1.17
5 -7 18 4.29 0.73
5 -7 18 3.4 0.62
6 -7 18 2.42 0.57
6 -7 18 2.16 0.61
7 -7 18 3.04 0.63
7 -7 18 3.65 0.7
8 -7 18 4.02 0.68
8 6 -18 16.8 1.25
-8 -6 18 15.64 1.4
7 6 -18 2.36 0.55
-7 -6 18 1.05 0.58
6 6 -18 4.13 0.75
-6 -6 18 2.46 0.6
5 6 -18 1.32 0.45
-5 -6 18 1.45 0.51
-4 -6 18 8.93 0.89
-3 -6 18 2.9 0.51
-3 -6 18 2.24 0.49
-2 -6 18 12.4 0.9
-2 -6 18 11.47 0.98
-1 -6 18 6.9 0.82
-1 -6 18 6.72 0.7
0 -6 18 3.16 0.46
0 -6 18 2.61 0.53
1 -6 18 1.91 0.48
1 -6 18 2.08 0.43
2 -6 18 2.24 0.51
2 -6 18 2.36 0.46
3 -6 18 -0.06 0.47
3 -6 18 -0.24 0.43
4 -6 18 2.1 0.53
4 -6 18 0.97 0.47
5 -6 18 0.53 0.47
5 -6 18 0.58 0.53
6 -6 18 1.04 0.58
6 -6 18 0.76 0.51
7 -6 18 1.06 0.56
7 -6 18 1.46 0.66
8 -6 18 0.56 0.67
8 -6 18 0.3 0.58
8 5 -18 0.64 0.53
-8 -5 18 1.29 0.61
7 5 -18 16.7 1.16
-7 -5 18 14.08 1.28
6 5 -18 0.17 0.45
-6 -5 18 0.26 0.5
5 5 -18 0.31 0.42
-5 -5 18 -0.46 0.43
-4 -5 18 2.34 0.5
-3 -5 18 1.03 0.44
-3 -5 18 0.52 0.42
-2 -5 18 0.63 0.42
-2 -5 18 1.09 0.39
-1 -5 18 8.93 0.93
-1 -5 18 10.3 0.79
0 -5 18 -0.38 0.36
0 -5 18 -0.19 0.4
1 -5 18 13.3 1.06
1 -5 18 13.7 0.93
2 -5 18 0.52 0.46
2 -5 18 0.54 0.4
3 -5 18 0.1 0.47
3 -5 18 -0.24 0.42
4 -5 18 5.35 0.85
4 -5 18 5.58 0.71
5 -5 18 -0.34 0.45
5 -5 18 -0.52 0.51
6 -5 18 -1.12 0.47
6 -5 18 0.32 0.58
7 -5 18 0.68 0.53
7 -5 18 1.59 0.67
8 -5 18 1.34 0.74
8 -5 18 0.67 0.6
-9 -4 18 0.68 0.67
8 4 -18 1.48 0.55
-8 -4 18 0.9 0.6
7 4 -18 -0.09 0.46
-7 -4 18 -0.11 0.53
6 4 -18 -0.19 0.43
-6 -4 18 -0.02 0.48
5 4 -18 0.44 0.41
-5 -4 18 -0.06 0.44
-4 -4 18 4.47 0.72
-3 -4 18 0.41 0.42
-3 -4 18 0.23 0.41
-2 -4 18 0.51 0.36
-2 -4 18 0 0.43
-1 -4 18 1.08 0.38
-1 -4 18 1.24 0.49
0 -4 18 0.75 0.37
0 -4 18 1.07 0.44
1 -4 18 0.66 0.39
1 -4 18 0.31 0.43
2 -4 18 39.37 2.38
2 -4 18 41.81 2.12
3 -4 18 4.88 0.65
3 -4 18 3.54 0.62
4 -4 18 1.65 0.58
4 -4 18 1.98 0.45
5 -4 18 2.87 0.51
5 -4 18 1.53 0.6
6 -4 18 -0.11 0.61
6 -4 18 -0.54 0.47
7 -4 18 1.89 0.71
7 -4 18 2.7 0.58
8 -4 18 8.65 0.98
8 -4 18 7.98 1.27
9 3 -18 2.81 0.65
-9 -3 18 2.62 0.72
8 3 -18 4.06 0.62
-8 -3 18 3 0.7
7 3 -18 0.43 0.45
-7 -3 18 0.39 0.54
6 3 -18 3.53 0.52
-6 -3 18 2.72 0.58
5 3 -18 11.52 0.91
-5 -3 18 11.11 1
-4 -3 18 -0.13 0.41
-3 -3 18 0.97 0.46
-3 -3 18 1.38 0.42
-2 -3 18 -0.45 0.43
-2 -3 18 0.38 0.35
-1 -3 18 0.72 0.37
-1 -3 18 -0.16 0.41
0 -3 18 17.73 1.31
0 -3 18 21.07 1.15
1 -3 18 34.48 1.79
1 -3 18 33.01 2.03
2 -3 18 -0.22 0.37
2 -3 18 -0.45 0.46
3 -3 18 1.01 0.4
3 -3 18 0.66 0.53
4 -3 18 0.99 0.58
4 -3 18 1.55 0.44
5 -3 18 3.78 0.54
5 -3 18 4.92 0.77
6 -3 18 6.59 1.07
6 -3 18 4.71 0.7
7 -3 18 15.32 1.1
8 -3 18 3.72 0.85
8 -3 18 1.59 0.54
-9 -2 18 0.88 0.66
8 2 -18 2.1 0.55
-8 -2 18 0.74 0.59
7 2 -18 23.37 1.38
-7 -2 18 20.57 1.54
6 2 -18 5.88 0.74
-6 -2 18 4.95 0.82
5 2 -18 1.15 0.43
-5 -2 18 1.53 0.5
-4 -2 18 1.72 0.51
-3 -2 18 6.38 0.68
-3 -2 18 5.39 0.82
-2 -2 18 4.41 0.58
-2 -2 18 3.32 0.57
-1 -2 18 28.23 1.43
-1 -2 18 22.98 1.61
0 -2 18 8.31 0.66
0 -2 18 7.87 0.84
1 -2 18 6 0.56
1 -2 18 6.91 0.83
2 -2 18 0.72 0.29
2 -2 18 0.95 0.51
3 -2 18 0.13 0.26
3 -2 18 0.25 0.52
4 -2 18 3.91 0.48
4 -2 18 3.74 0.7
5 -2 18 7.59 0.65
5 -2 18 11.03 1.14
6 -2 18 4.67 0.81
6 -2 18 3.73 0.54
7 -2 18 0.24 0.72
-9 -1 18 4.03 0.74
8 1 -18 10.29 0.98
-8 -1 18 7.13 1.03
7 1 -18 -0.01 0.44
-7 -1 18 0.53 0.53
6 1 -18 4.72 0.73
-6 -1 18 4.33 0.84
5 1 -18 -0.15 0.39
-5 -1 18 -0.21 0.47
-4 -1 18 2.71 0.58
-3 -1 18 2.09 0.55
-3 -1 18 4.82 0.57
-2 -1 18 27.08 1.67
-2 -1 18 26.32 1.43
-1 -1 18 2.67 0.42
-1 -1 18 3.92 0.68
0 -1 18 -0.21 0.23
0 -1 18 -0.17 0.44
1 -1 18 1.28 0.5
1 -1 18 0.43 0.25
2 -1 18 1.45 0.28
2 -1 18 2.27 0.56
3 -1 18 -0.97 0.51
3 -1 18 0.26 0.24
4 -1 18 8.98 1.04
4 -1 18 7.01 0.59
5 -1 18 1.93 0.34
5 -1 18 2.5 0.7
6 -1 18 -0.52 0.66
7 -1 18 1.62 0.79
9 0 -18 1.05 0.55
-9 0 18 1.5 0.65
8 0 -18 0.4 0.52
-8 0 18 0.69 0.58
7 0 -18 0.37 0.44
7 0 -18 0.23 0.41
-7 0 18 -0.11 0.52
6 0 -18 5.85 0.66
6 0 -18 7.55 0.76
-6 0 18 5.39 0.92
5 0 -18 0.17 0.39
5 0 -18 1.07 0.38
-5 0 18 0.05 0.5
4 0 -18 11.11 0.77
-4 0 18 9.78 1.03
-3 0 18 2.16 0.52
-3 0 18 1.89 0.31
-2 0 18 0.46 0.24
-2 0 18 0.25 0.43
-1 0 18 1.08 0.47
-1 0 18 0.22 0.22
0 0 18 0.68 0.23
0 0 18 0.56 0.48
1 0 18 -0.16 0.47
2 0 18 2.7 0.59
3 0 18 6.83 0.98
4 0 18 3.31 0.72
5 0 18 -0.19 0.65
6 0 18 -0.87 0.66
7 0 18 1.12 0.82
9 -1 -18 1.6 0.59
9 -1 -18 1.82 0.52
-9 1 18 0.39 0.66
8 -1 -18 2.61 0.55
8 -1 -18 2.28 0.5
-8 1 18 3.06 0.71
7 -1 -18 0.52 0.42
7 -1 -18 0.11 0.43
-7 1 18 0.28 0.57
6 -1 -18 -0.21 0.41
6 -1 -18 0.29 0.39
-6 1 18 -0.21 0.54
5 -1 -18 -0.12 0.35
5 -1 -18 0.37 0.39
-5 1 18 -0.5 0.51
4 -1 -18 7.17 0.65
-4 1 18 6 0.88
3 -1 -18 -0.16 0.32
-3 1 18 0.15 0.22
-3 1 18 -0.19 0.44
2 -1 -18 0.32 0.32
-2 1 18 0.06 0.43
-1 1 18 0.1 0.45
0 1 18 0.34 0.48
1 1 18 -0.41 0.47
2 1 18 17.84 1.38
3 1 18 0.12 0.58
4 1 18 -0.54 0.61
5 1 18 -0.3 0.65
6 1 18 0.32 0.74
9 -2 -18 2.29 0.53
-9 2 18 2.92 0.75
8 -2 -18 0 0.43
8 -2 -18 -0.02 0.48
-8 2 18 0.34 0.62
7 -2 -18 0.03 0.43
7 -2 -18 0.06 0.39
-7 2 18 0.25 0.6
6 -2 -18 1.95 0.47
6 -2 -18 2.05 0.42
-6 2 18 2.25 0.66
5 -2 -18 11.51 0.79
-5 2 18 10.22 1.09
4 -2 -18 13.21 0.83
-4 2 18 10.89 1.07
3 -2 -18 0.63 0.34
-3 2 18 -0.25 0.46
2 -2 -18 0.04 0.32
-2 2 18 -0.57 0.45
1 -2 -18 0.01 0.31
-1 2 18 0.32 0.5
0 2 18 22.72 1.56
1 2 18 24.45 1.66
2 2 18 1.02 0.6
3 2 18 1.69 0.65
4 2 18 0.92 0.66
5 2 18 0.72 0.71
6 2 18 0.62 0.79
9 -3 -18 1.26 0.47
-9 3 18 0.73 0.7
8 -3 -18 5.84 0.7
-8 3 18 7.08 1.14
7 -3 -18 5.75 0.65
-7 3 18 5.85 1.08
6 -3 -18 0.71 0.37
-6 3 18 0.81 0.6
5 -3 -18 0.56 0.35
-5 3 18 0.5 0.54
4 -3 -18 0.8 0.34
-4 3 18 0.35 0.51
3 -3 -18 2.22 0.38
-3 3 18 1.47 0.54
2 -3 -18 3.29 0.43
-2 3 18 3.28 0.62
1 -3 -18 11.48 0.77
-1 3 18 10.06 1.06
0 3 18 0.46 0.53
1 3 18 0.89 0.58
2 3 18 0.72 0.61
3 3 18 -0.22 0.62
4 3 18 -0.4 0.68
5 3 18 9.72 1.31
8 -4 -18 0.34 0.41
-8 4 18 0 0.68
7 -4 -18 1.88 0.43
-7 4 18 1.62 0.68
6 -4 -18 -0.01 0.36
-6 4 18 -0.22 0.57
5 -4 -18 1.16 0.38
-5 4 18 0.31 0.53
4 -4 -18 1.05 0.36
-4 4 18 0.29 0.53
3 -4 -18 6.91 0.62
-3 4 18 5.14 0.9
2 -4 -18 -0.09 0.31
-2 4 18 -0.12 0.53
1 -4 -18 1.59 0.36
-1 4 18 1.5 0.57
0 -4 -18 0.34 0.33
0 4 18 0.38 0.56
1 4 18 0.41 0.6
2 4 18 -0.33 0.59
3 4 18 -0.92 0.62
4 4 18 -0.03 0.69
8 -5 -18 0.3 0.39
-8 5 18 -0.16 0.67
7 -5 -18 0.42 0.39
-7 5 18 -0.11 0.64
6 -5 -18 2.79 0.46
-6 5 18 1.73 0.65
5 -5 -18 0.05 0.36
-5 5 18 0.09 0.6
4 -5 -18 1.2 0.38
-4 5 18 0.3 0.56
3 -5 -18 1.19 0.37
-3 5 18 0.6 0.57
2 -5 -18 2.94 0.41
-2 5 18 2.42 0.63
1 -5 -18 8.88 0.65
-1 5 18 5.21 1
0 -5 -18 0.24 0.32
0 5 18 -0.9 0.57
1 5 18 0.07 0.6
2 5 18 2.91 0.76
3 5 18 1.53 0.74
4 5 18 0 0.71
7 -6 -18 0.77 0.41
-7 6 18 0.72 0.66
6 -6 -18 1.04 0.4
-6 6 18 1.31 0.68
5 -6 -18 4.53 0.62
-5 6 18 2.15 0.68
4 -6 -18 6.58 0.68
-4 6 18 6.35 1.02
3 -6 -18 0.22 0.36
-3 6 18 0.34 0.59
2 -6 -18 0.25 0.33
-2 6 18 -0.49 0.58
1 -6 -18 4.94 0.56
-1 6 18 2.57 0.71
0 -6 -18 0.66 0.34
0 6 18 -0.25 0.63
-1 -6 -18 5.32 0.57
1 6 18 2.35 0.77
2 6 18 9.3 1.26
3 6 18 -0.1 0.69
7 -7 -18 1.13 0.42
-7 7 18 -0.13 0.54
6 -7 -18 8.71 0.76
-6 7 18 8.08 1.17
5 -7 -18 0.36 0.41
-5 7 18 0.08 0.64
4 -7 -18 4.29 0.6
-4 7 18 1.75 0.7
3 -7 -18 0.71 0.39
-3 7 18 0.16 0.63
2 -7 -18 1.09 0.38
-2 7 18 1.3 0.65
1 -7 -18 2.07 0.39
-1 7 18 0.54 0.67
0 -7 -18 9.72 0.73
0 7 18 7.89 1.21
1 7 18 1.59 0.77
2 7 18 0.84 0.75
6 -8 -18 0.29 0.41
-6 8 18 0.07 0.54
5 -8 -18 4.17 0.64
-5 8 18 3.92 0.81
4 -8 -18 0.69 0.42
-4 8 18 0.57 0.7
3 -8 -18 0.58 0.39
-3 8 18 -0.05 0.66
2 -8 -18 6.31 0.66
-2 8 18 5.63 0.9
1 -8 -18 1.36 0.38
-1 8 18 0.96 0.73
0 -8 -18 0.15 0.36
0 8 18 0.59 0.75
1 8 18 1.81 0.82
5 -9 -18 -0.21 0.41
4 -9 -18 1.12 0.43
-4 9 18 0.49 0.72
3 -9 -18 0.22 0.39
-3 9 18 -0.85 0.69
2 -9 -18 2.86 0.46
-2 9 18 2.94 0.81
1 -9 -18 0.13 0.37
-1 9 18 0.44 0.77
1 -17 19 -1.02 0.59
2 -17 19 1.82 0.69
-1 -16 19 0.49 0.61
0 -16 19 0.21 0.58
1 -16 19 0.17 0.57
2 -16 19 0.09 0.6
3 -16 19 0.13 0.59
4 -16 19 2.63 0.7
5 -16 19 2.63 0.7
-3 -15 19 5.39 0.93
-2 -15 19 0.39 0.5
-2 -15 19 0.6 0.59
-1 -15 19 8.45 0.9
-1 -15 19 8.31 1.03
0 -15 19 5.89 0.96
1 -15 19 2.31 0.61
2 -15 19 -0.24 0.56
3 -15 19 0.03 0.57
4 -15 19 -0.55 0.6
5 -15 19 4.89 0.74
6 -15 19 3.32 0.68
-4 -14 19 0.55 0.57
-3 -14 19 3.1 0.62
-3 -14 19 3.81 0.67
-2 -14 19 4.89 0.67
-2 -14 19 3.02 0.59
-1 -14 19 -0.25 0.44
-1 -14 19 -0.99 0.5
0 -14 19 0.72 0.54
0 -14 19 0.98 0.47
1 -14 19 0.95 0.47
1 -14 19 0.06 0.51
2 -14 19 -0.39 0.52
3 -14 19 3.46 0.63
4 -14 19 3.86 0.69
5 -14 19 -0.38 0.58
6 -14 19 2.26 0.64
6 -14 19 2.97 0.63
-4 -13 19 8.4 1.05
-4 -13 19 9.25 1.09
-3 -13 19 1.78 0.55
-3 -13 19 1.93 0.59
-2 -13 19 3.81 0.63
-2 -13 19 4.33 0.79
-1 -13 19 6.59 0.89
-1 -13 19 6.57 0.81
0 -13 19 2.66 0.53
0 -13 19 2.4 0.57
1 -13 19 0.37 0.5
1 -13 19 0.6 0.48
2 -13 19 3.38 0.55
2 -13 19 3.1 0.59
3 -13 19 9.51 0.98
4 -13 19 0.15 0.57
5 -13 19 3.44 0.65
6 -13 19 -0.46 0.57
7 -13 19 2.91 0.62
-5 -12 19 9.71 1.08
-5 -12 19 7.43 1.12
-4 -12 19 1.13 0.59
-4 -12 19 1.15 0.55
-3 -12 19 1.21 0.52
-3 -12 19 1.22 0.54
-2 -12 19 0.04 0.49
-2 -12 19 0.27 0.45
-1 -12 19 0.91 0.46
-1 -12 19 0.44 0.49
0 -12 19 1.72 0.52
0 -12 19 1.27 0.48
1 -12 19 4.14 0.81
1 -12 19 6 0.8
2 -12 19 9.54 0.9
2 -12 19 7.67 0.86
3 -12 19 3.24 0.56
3 -12 19 4.19 0.61
4 -12 19 -1.15 0.53
5 -12 19 -0.08 0.55
6 -12 19 1.25 0.59
7 -12 19 0.39 0.54
7 -12 19 0.63 0.63
-6 -11 19 0.54 0.59
-5 -11 19 2.53 0.64
-4 -11 19 -0.09 0.51
-4 -11 19 -0.07 0.54
-3 -11 19 2.88 0.59
-3 -11 19 3.12 0.58
-2 -11 19 0.8 0.45
-2 -11 19 0.91 0.49
-1 -11 19 1.61 0.48
-1 -11 19 1.04 0.48
0 -11 19 4.04 0.75
0 -11 19 4.45 0.75
1 -11 19 10.15 0.98
1 -11 19 10.42 0.92
2 -11 19 0.76 0.48
2 -11 19 0.06 0.47
3 -11 19 3.06 0.56
3 -11 19 2.58 0.56
4 -11 19 7.19 0.9
4 -11 19 7.8 0.88
5 -11 19 0.37 0.54
6 -11 19 3.1 0.65
7 -11 19 10.3 1.11
6 10 -19 1.07 0.52
-6 -10 19 1.7 0.63
-5 -10 19 0.58 0.54
-4 -10 19 0.76 0.55
-4 -10 19 0.12 0.49
-3 -10 19 8.05 0.92
-3 -10 19 9.04 0.93
-2 -10 19 0.71 0.44
-2 -10 19 0.76 0.45
-1 -10 19 9.44 0.91
-1 -10 19 9.4 0.89
0 -10 19 1.62 0.51
0 -10 19 1.43 0.47
1 -10 19 0.93 0.51
1 -10 19 1.65 0.47
2 -10 19 0.04 0.46
2 -10 19 -0.24 0.44
3 -10 19 2.44 0.53
3 -10 19 1.68 0.53
4 -10 19 0.47 0.49
4 -10 19 0.42 0.52
5 -10 19 11.39 1.07
5 -10 19 13.12 1.05
6 -10 19 0 0.56
7 -10 19 2.22 0.66
6 9 -19 0.28 0.48
-6 -9 19 0.19 0.56
-5 -9 19 0.84 0.54
-4 -9 19 -0.62 0.53
-4 -9 19 -0.02 0.49
-3 -9 19 2.4 0.53
-3 -9 19 3.12 0.54
-2 -9 19 16.74 1.1
-2 -9 19 14.46 1.16
-1 -9 19 4.15 0.73
-1 -9 19 5.52 0.77
0 -9 19 7.15 0.89
0 -9 19 6.73 0.78
1 -9 19 2 0.53
1 -9 19 2.92 0.49
2 -9 19 10.86 0.97
2 -9 19 11.07 0.92
3 -9 19 1.27 0.5
3 -9 19 1.77 0.53
4 -9 19 19.66 1.34
4 -9 19 17.88 1.25
5 -9 19 -0.02 0.51
5 -9 19 -0.3 0.5
6 -9 19 13.86 1.24
6 -9 19 11.74 1.1
7 -9 19 0.44 0.6
8 -9 19 -0.1 0.64
7 8 -19 1.32 0.56
-7 -8 19 0.56 0.61
6 8 -19 -0.31 0.48
-6 -8 19 0.55 0.56
-5 -8 19 1 0.54
-4 -8 19 12 1.08
-3 -8 19 1.82 0.49
-3 -8 19 1.62 0.49
-2 -8 19 14.31 1.14
-2 -8 19 15.74 1.06
-1 -8 19 0.4 0.42
-1 -8 19 -0.75 0.41
0 -8 19 -0.24 0.41
0 -8 19 -0.01 0.48
1 -8 19 6.4 0.72
1 -8 19 4.91 0.76
2 -8 19 2.5 0.53
2 -8 19 2.24 0.5
3 -8 19 -0.43 0.48
3 -8 19 -0.34 0.47
4 -8 19 2.98 0.6
4 -8 19 4.07 0.75
5 -8 19 0.02 0.5
5 -8 19 0.2 0.54
6 -8 19 -0.54 0.56
6 -8 19 0.32 0.55
7 -8 19 4.65 0.73
8 -8 19 0.38 0.62
7 7 -19 -0.91 0.5
-7 -7 19 0.71 0.6
6 7 -19 -0.29 0.48
-6 -7 19 -0.18 0.52
5 7 -19 0.07 0.43
-5 -7 19 -0.38 0.5
-4 -7 19 5.42 0.8
-3 -7 19 0.08 0.43
-3 -7 19 0.33 0.44
-2 -7 19 0.09 0.44
-2 -7 19 0.5 0.41
-1 -7 19 2.51 0.56
-1 -7 19 3.01 0.49
0 -7 19 0.62 0.48
0 -7 19 0.34 0.42
1 -7 19 0.58 0.47
1 -7 19 0.57 0.41
2 -7 19 7.46 0.78
2 -7 19 6.62 0.84
3 -7 19 0.04 0.49
3 -7 19 -0.15 0.46
4 -7 19 1.8 0.57
4 -7 19 2.22 0.52
5 -7 19 4.93 0.79
5 -7 19 5.43 0.9
6 -7 19 6.73 0.9
6 -7 19 6.77 1.03
7 -7 19 1.19 0.61
7 -7 19 2.04 0.66
8 -7 19 0.53 0.61
8 6 -19 1.21 0.58
-8 -6 19 0.32 0.66
7 6 -19 0.16 0.52
-7 -6 19 -0.23 0.55
6 6 -19 0.87 0.5
-6 -6 19 0.44 0.55
5 6 -19 14.71 1.05
-5 -6 19 12.79 1.15
-4 -6 19 1.23 0.49
-3 -6 19 0.08 0.43
-3 -6 19 -0.1 0.43
-2 -6 19 5.82 0.82
-2 -6 19 6.82 0.73
-1 -6 19 2.98 0.6
-1 -6 19 3.77 0.64
0 -6 19 2.25 0.45
0 -6 19 2.23 0.53
1 -6 19 2.17 0.53
1 -6 19 2.5 0.46
2 -6 19 0.55 0.49
2 -6 19 0.39 0.44
3 -6 19 1.72 0.5
3 -6 19 2.5 0.57
4 -6 19 4.49 0.74
4 -6 19 4.97 0.84
5 -6 19 3.4 0.67
5 -6 19 4.1 0.75
6 -6 19 0.59 0.53
6 -6 19 0.13 0.63
7 -6 19 1.52 0.69
7 -6 19 1.97 0.59
8 5 -19 -0.1 0.53
-8 -5 19 0.54 0.61
7 5 -19 0.75 0.53
-7 -5 19 0.65 0.59
6 5 -19 0.86 0.49
-6 -5 19 0.61 0.54
5 5 -19 13.13 0.98
-5 -5 19 10.75 1.06
-4 -5 19 7.5 0.86
-3 -5 19 23.34 1.32
-3 -5 19 19.51 1.45
-2 -5 19 2.72 0.46
-2 -5 19 2.02 0.54
-1 -5 19 9.52 0.79
-1 -5 19 8.09 0.94
0 -5 19 -0.09 0.44
0 -5 19 0.19 0.39
1 -5 19 18.17 1.1
1 -5 19 15.72 1.23
2 -5 19 3.27 0.6
2 -5 19 3.99 0.65
3 -5 19 29.31 1.86
3 -5 19 29.3 1.64
4 -5 19 0.47 0.54
4 -5 19 0.05 0.44
5 -5 19 3.98 0.72
5 -5 19 5.42 0.77
6 -5 19 1.73 0.65
6 -5 19 0.24 0.52
7 -5 19 12.36 1.28
7 -5 19 9.36 0.99
8 4 -19 0.99 0.55
-8 -4 19 0.49 0.62
7 4 -19 9.73 0.95
-7 -4 19 8.01 1.04
6 4 -19 3.86 0.57
-6 -4 19 3.22 0.63
5 4 -19 3.47 0.53
-5 -4 19 2.58 0.58
-4 -4 19 2.35 0.54
-3 -4 19 1.29 0.46
-3 -4 19 1.38 0.51
-2 -4 19 3.63 0.63
-2 -4 19 2.69 0.59
-1 -4 19 29.94 1.58
-1 -4 19 26.86 1.78
0 -4 19 9.17 0.93
0 -4 19 10.48 0.8
1 -4 19 2.49 0.46
1 -4 19 1.82 0.53
2 -4 19 2.13 0.58
2 -4 19 2.49 0.47
3 -4 19 4.09 0.66
3 -4 19 4.53 0.69
4 -4 19 1.11 0.44
4 -4 19 0.69 0.59
5 -4 19 9.48 0.85
5 -4 19 7.66 1.06
6 -4 19 1.4 0.53
6 -4 19 1.11 0.69
7 -4 19 -0.4 0.5
7 -4 19 -0.06 0.68
8 3 -19 5.45 0.86
-8 -3 19 3.59 0.73
7 3 -19 0.59 0.48
-7 -3 19 -0.25 0.52
6 3 -19 -0.52 0.45
-6 -3 19 0.6 0.51
5 3 -19 9.81 0.88
-5 -3 19 9.54 0.99
-4 -3 19 1.53 0.52
-3 -3 19 0.3 0.49
-3 -3 19 0.97 0.42
-2 -3 19 1.66 0.54
-2 -3 19 2.54 0.45
-1 -3 19 1.96 0.41
-1 -3 19 1.05 0.48
0 -3 19 3.35 0.58
0 -3 19 2.01 0.53
1 -3 19 1.08 0.51
1 -3 19 1.13 0.41
2 -3 19 0.26 0.37
2 -3 19 -0.07 0.51
3 -3 19 0.77 0.55
3 -3 19 -0.02 0.34
4 -3 19 12.48 0.89
4 -3 19 15.82 1.26
5 -3 19 0.38 0.36
5 -3 19 -0.5 0.6
6 -3 19 0.49 0.37
6 -3 19 -0.94 0.67
7 -3 19 1.34 0.76
8 2 -19 11.18 1.05
-8 -2 19 8.46 1.1
7 2 -19 0.33 0.48
-7 -2 19 0.07 0.54
6 2 -19 0.17 0.45
-6 -2 19 0.24 0.52
5 2 -19 2.02 0.46
-5 -2 19 1.14 0.54
-4 -2 19 18.06 1.37
-3 -2 19 4.9 0.67
-3 -2 19 3.69 0.65
-2 -2 19 -0.49 0.36
-2 -2 19 0.05 0.45
-1 -2 19 3.24 0.56
-1 -2 19 3.41 0.51
0 -2 19 0.13 0.46
0 -2 19 -0.41 0.27
1 -2 19 6.41 0.84
1 -2 19 4.42 0.49
2 -2 19 1.65 0.56
2 -2 19 0.99 0.28
3 -2 19 0.42 0.27
3 -2 19 0.68 0.58
4 -2 19 1.49 0.65
4 -2 19 0.97 0.31
5 -2 19 2.47 0.73
5 -2 19 1.65 0.35
6 -2 19 4.25 0.86
7 -2 19 1.17 0.81
8 1 -19 0.98 0.55
-8 -1 19 1.03 0.62
7 1 -19 0.58 0.48
-7 -1 19 0.94 0.59
6 1 -19 -0.12 0.45
-6 -1 19 0.69 0.56
5 1 -19 1.06 0.43
-5 -1 19 1.27 0.57
-4 -1 19 3.06 0.65
-3 -1 19 11.08 1.03
-3 -1 19 10.31 0.75
-2 -1 19 6.03 0.56
-2 -1 19 7.35 0.83
-1 -1 19 -0.01 0.24
-1 -1 19 -0.16 0.45
0 -1 19 0.09 0.47
0 -1 19 -0.37 0.23
1 -1 19 8.09 0.89
1 -1 19 4.43 0.47
2 -1 19 1.91 0.59
2 -1 19 0.75 0.27
3 -1 19 6.51 0.97
3 -1 19 4.71 0.48
4 -1 19 7.56 1.08
5 -1 19 0.27 0.66
6 -1 19 -0.38 0.7
8 0 -19 3 0.59
-8 0 19 1.64 0.68
7 0 -19 -0.04 0.47
-7 0 19 0.18 0.6
6 0 -19 0.51 0.46
-6 0 19 0.18 0.57
-5 0 19 -0.01 0.56
-4 0 19 18.04 1.04
-4 0 19 15.73 1.33
-3 0 19 0.81 0.5
-3 0 19 0.91 0.28
-2 0 19 -0.31 0.23
-2 0 19 0.13 0.46
-1 0 19 0.78 0.49
0 0 19 5.14 0.84
1 0 19 -0.26 0.49
2 0 19 17.64 1.38
3 0 19 2.79 0.7
4 0 19 0.26 0.64
5 0 19 -0.16 0.69
6 0 19 7.25 1.27
8 -1 -19 3.58 0.57
8 -1 -19 6.36 0.81
-8 1 19 4.12 0.82
7 -1 -19 0.88 0.45
7 -1 -19 1.9 0.51
-7 1 19 1.94 0.68
6 -1 -19 8.37 0.82
6 -1 -19 4.44 0.66
-6 1 19 5.72 1.03
5 -1 -19 16.04 0.98
-5 1 19 13.35 1.29
4 -1 -19 5.21 0.61
-4 1 19 4.64 0.83
-4 1 19 4.25 0.51
3 -1 -19 -0.02 0.35
-3 1 19 0.38 0.48
-2 1 19 0.1 0.48
-1 1 19 2.07 0.56
0 1 19 2.39 0.58
1 1 19 3.03 0.64
2 1 19 0.68 0.59
3 1 19 0.77 0.64
4 1 19 1.95 0.74
5 1 19 6.88 1.22
6 1 19 0.05 0.8
8 -2 -19 3.18 0.55
8 -2 -19 2.28 0.54
-8 2 19 2.82 0.78
7 -2 -19 11.53 0.93
7 -2 -19 8.1 0.8
-7 2 19 7.93 1.21
6 -2 -19 -0.05 0.43
6 -2 -19 -0.09 0.39
-6 2 19 0.49 0.61
5 -2 -19 -0.55 0.36
-5 2 19 0.06 0.55
4 -2 -19 2.71 0.44
-4 2 19 2.5 0.6
3 -2 -19 12.92 0.85
-3 2 19 11.12 1.09
2 -2 -19 10.67 0.78
-2 2 19 10.45 1.04
-1 2 19 5.3 0.88
0 2 19 1.52 0.57
1 2 19 0.35 0.56
2 2 19 0.1 0.6
3 2 19 2.01 0.7
4 2 19 9.28 1.26
5 2 19 -0.33 0.72
8 -3 -19 1.25 0.48
-8 3 19 1.54 0.76
7 -3 -19 -0.2 0.38
-7 3 19 0.47 0.66
6 -3 -19 1.7 0.41
-6 3 19 0.61 0.61
5 -3 -19 3.18 0.45
-5 3 19 1.45 0.6
4 -3 -19 3.69 0.57
-4 3 19 3.49 0.65
3 -3 -19 0.19 0.37
-3 3 19 -0.34 0.51
2 -3 -19 0.28 0.35
-2 3 19 0.24 0.55
1 -3 -19 9.28 0.71
-1 3 19 7.16 0.99
0 3 19 0.4 0.56
1 3 19 -0.17 0.58
2 3 19 0.83 0.63
3 3 19 -0.24 0.68
4 3 19 -0.73 0.7
-8 4 19 -0.51 0.68
7 -4 -19 1.09 0.42
-7 4 19 0.72 0.68
6 -4 -19 3.57 0.48
-6 4 19 3.46 0.72
5 -4 -19 1.36 0.4
-5 4 19 0.6 0.58
4 -4 -19 0.27 0.36
-4 4 19 -0.03 0.56
3 -4 -19 0.99 0.37
-3 4 19 0.63 0.57
2 -4 -19 0.3 0.36
-2 4 19 0.22 0.57
1 -4 -19 0.14 0.34
-1 4 19 0.37 0.57
0 4 19 0.46 0.58
1 4 19 -0.04 0.62
2 4 19 -0.04 0.63
3 4 19 0.17 0.67
4 4 19 1.52 0.78
7 -5 -19 0.96 0.41
-7 5 19 0.35 0.67
6 -5 -19 2.61 0.46
-6 5 19 2.61 0.71
5 -5 -19 1.29 0.41
-5 5 19 1.03 0.62
4 -5 -19 14.81 0.92
-4 5 19 12.25 1.26
3 -5 -19 0.3 0.36
-3 5 19 0.14 0.59
2 -5 -19 1.25 0.37
-2 5 19 0.61 0.58
1 -5 -19 0.03 0.35
-1 5 19 0.34 0.61
0 -5 -19 0.21 0.36
0 5 19 -0.73 0.61
1 5 19 -0.93 0.62
2 5 19 1.98 0.76
3 5 19 -0.35 0.72
-7 6 19 0.04 0.71
6 -6 -19 0.74 0.42
-6 6 19 0.04 0.66
5 -6 -19 3.28 0.5
-5 6 19 2.59 0.72
4 -6 -19 9.12 0.77
-4 6 19 8.54 1.14
3 -6 -19 0.1 0.36
-3 6 19 0.24 0.63
2 -6 -19 0.27 0.36
-2 6 19 0.02 0.61
1 -6 -19 1.01 0.37
-1 6 19 0.5 0.67
0 -6 -19 4.69 0.61
0 6 19 2.92 0.78
1 6 19 2.91 0.8
2 6 19 3.28 0.83
-6 7 19 0.27 0.69
5 -7 -19 -0.01 0.4
-5 7 19 0.04 0.66
4 -7 -19 0.28 0.4
-4 7 19 -0.48 0.63
3 -7 -19 1.75 0.43
-3 7 19 0.77 0.69
2 -7 -19 0.45 0.38
-2 7 19 -0.54 0.67
1 -7 -19 3.6 0.58
-1 7 19 1.85 0.76
0 -7 -19 1.45 0.41
0 7 19 1.29 0.75
1 7 19 0.82 0.76
5 -8 -19 2.07 0.51
4 -8 -19 2.08 0.48
-4 8 19 0.97 0.73
3 -8 -19 -0.33 0.39
-3 8 19 -0.17 0.68
2 -8 -19 -0.34 0.37
-2 8 19 -0.33 0.69
1 -8 -19 4.42 0.62
-1 8 19 2.1 0.8
0 -16 20 18.82 1.45
1 -16 20 -0.09 0.62
2 -16 20 3.04 0.7
3 -16 20 0.43 0.64
-2 -15 20 3.37 0.63
-1 -15 20 2.43 0.64
-1 -15 20 2.79 0.56
0 -15 20 2.35 0.62
1 -15 20 -0.22 0.58
2 -15 20 16.33 1.3
3 -15 20 10.02 1.07
4 -15 20 1.45 0.66
-3 -14 20 1.25 0.63
-3 -14 20 0.55 0.55
-2 -14 20 -0.12 0.5
-2 -14 20 0.15 0.57
-1 -14 20 1.61 0.52
-1 -14 20 1.2 0.58
0 -14 20 0.42 0.55
0 -14 20 0.28 0.49
1 -14 20 6.5 0.94
2 -14 20 -0.42 0.55
3 -14 20 0.28 0.57
4 -14 20 2.12 0.66
5 -14 20 -0.26 0.59
-4 -13 20 0.38 0.57
-4 -13 20 0.22 0.66
-3 -13 20 1.72 0.59
-3 -13 20 3 0.65
-2 -13 20 2.44 0.57
-2 -13 20 3.14 0.62
-1 -13 20 1.83 0.57
-1 -13 20 2.13 0.54
0 -13 20 10.14 0.99
0 -13 20 10.25 1
1 -13 20 3.46 0.6
1 -13 20 3.07 0.61
2 -13 20 0 0.47
2 -13 20 0.74 0.55
3 -13 20 2.52 0.61
4 -13 20 1.61 0.62
5 -13 20 0.18 0.6
6 -13 20 1.19 0.63
-5 -12 20 2.01 0.66
-4 -12 20 -0.15 0.57
-4 -12 20 0.22 0.56
-3 -12 20 9.91 1.04
-3 -12 20 8.95 1.01
-2 -12 20 4.02 0.79
-2 -12 20 4.4 0.64
-1 -12 20 -0.21 0.48
-1 -12 20 0.5 0.46
0 -12 20 0.25 0.5
0 -12 20 0.18 0.5
1 -12 20 2.2 0.58
1 -12 20 2.64 0.55
2 -12 20 0.49 0.52
2 -12 20 0.02 0.48
3 -12 20 7.56 0.91
3 -12 20 7.28 0.88
4 -12 20 -0.32 0.56
5 -12 20 0.01 0.58
6 -12 20 -0.17 0.61
-5 -11 20 0.31 0.58
-5 -11 20 -0.29 0.63
-4 -11 20 0.24 0.53
-4 -11 20 1.01 0.58
-3 -11 20 -0.01 0.5
-3 -11 20 -0.72 0.47
-2 -11 20 0.21 0.5
-2 -11 20 -0.07 0.46
-1 -11 20 8.89 0.91
-1 -11 20 9.1 0.93
0 -11 20 0.35 0.48
0 -11 20 1.22 0.53
1 -11 20 8.76 0.96
1 -11 20 10.55 0.94
2 -11 20 1.19 0.51
2 -11 20 1.94 0.53
3 -11 20 0.78 0.5
3 -11 20 1.08 0.54
4 -11 20 5.13 0.68
4 -11 20 4.9 0.85
5 -11 20 0.9 0.58
6 -11 20 4.54 0.71
7 -11 20 4.66 0.77
-6 -10 20 14.02 1.32
-5 -10 20 8.99 1.07
-4 -10 20 2.37 0.6
-4 -10 20 2.95 0.61
-3 -10 20 2.38 0.57
-3 -10 20 3.21 0.57
-2 -10 20 12.32 0.99
-2 -10 20 10.66 1.02
-1 -10 20 0.29 0.47
-1 -10 20 -0.42 0.45
0 -10 20 3.01 0.63
0 -10 20 5.54 0.76
1 -10 20 1.32 0.52
1 -10 20 1.76 0.5
2 -10 20 7.63 0.87
2 -10 20 7.5 0.88
3 -10 20 0.2 0.51
3 -10 20 0.05 0.49
4 -10 20 2.19 0.57
4 -10 20 2.26 0.58
5 -10 20 1.64 0.59
5 -10 20 1.4 0.61
6 -10 20 1.54 0.62
7 -10 20 1.09 0.65
-6 -9 20 0.16 0.59
-5 -9 20 0.45 0.56
-4 -9 20 4.36 0.65
-4 -9 20 3.31 0.64
-3 -9 20 -0.43 0.47
-3 -9 20 0.15 0.48
-2 -9 20 2.95 0.54
-2 -9 20 2.9 0.56
-1 -9 20 15.94 1.11
-1 -9 20 14.87 1.22
0 -9 20 1.35 0.56
0 -9 20 0.89 0.47
1 -9 20 9.31 0.88
1 -9 20 9.16 0.93
2 -9 20 0.18 0.48
2 -9 20 0.12 0.48
3 -9 20 5.57 0.86
3 -9 20 5.42 0.82
4 -9 20 0.98 0.54
4 -9 20 0.29 0.52
5 -9 20 2.21 0.59
5 -9 20 2.45 0.63
6 -9 20 0.49 0.59
7 -9 20 3.47 0.71
6 8 -20 -0.13 0.49
-6 -8 20 -0.15 0.57
-5 -8 20 7.13 0.96
-4 -8 20 0.99 0.52
-4 -8 20 0.46 0.55
-3 -8 20 2.25 0.54
-3 -8 20 2.19 0.53
-2 -8 20 0.15 0.47
-2 -8 20 0.7 0.45
-1 -8 20 4.42 0.72
-1 -8 20 2.99 0.62
0 -8 20 2.28 0.49
0 -8 20 1.84 0.56
1 -8 20 3.09 0.59
1 -8 20 3.3 0.53
2 -8 20 0.75 0.5
2 -8 20 0.43 0.49
3 -8 20 3.58 0.65
3 -8 20 4.23 0.78
4 -8 20 8.57 0.96
4 -8 20 7.82 0.9
5 -8 20 1.65 0.55
5 -8 20 0.2 0.57
6 -8 20 0 0.61
6 -8 20 0.31 0.57
7 -8 20 1.89 0.67
7 7 -20 0.71 0.57
-7 -7 20 0.1 0.6
6 7 -20 3.29 0.6
-6 -7 20 3.1 0.68
-5 -7 20 1.74 0.58
-4 -7 20 -0.01 0.53
-4 -7 20 0.16 0.49
-3 -7 20 0.13 0.48
-3 -7 20 -0.03 0.45
-2 -7 20 3.09 0.51
-2 -7 20 2.36 0.56
-1 -7 20 1.38 0.46
-1 -7 20 1.28 0.58
0 -7 20 1.28 0.53
0 -7 20 1.73 0.47
1 -7 20 9.37 0.94
1 -7 20 9.31 0.86
2 -7 20 4.38 0.81
2 -7 20 4.47 0.75
3 -7 20 0.65 0.53
3 -7 20 0.06 0.49
4 -7 20 -0.21 0.51
4 -7 20 0.26 0.54
5 -7 20 0.68 0.53
5 -7 20 0.35 0.6
6 -7 20 2.88 0.73
6 -7 20 2.66 0.61
7 -7 20 3.79 0.78
7 -7 20 1.61 0.64
7 6 -20 0.55 0.56
-7 -6 20 0.33 0.61
6 6 -20 0.19 0.51
-6 -6 20 -0.33 0.53
-5 -6 20 0.7 0.54
-4 -6 20 0.58 0.48
-4 -6 20 -0.24 0.51
-3 -6 20 9.18 1
-3 -6 20 11.99 0.93
-2 -6 20 0.05 0.5
-2 -6 20 0.32 0.43
-1 -6 20 5.09 0.86
-1 -6 20 6.24 0.72
0 -6 20 0.55 0.49
0 -6 20 1 0.44
1 -6 20 24.31 1.39
1 -6 20 22.27 1.55
2 -6 20 2.33 0.51
2 -6 20 2.07 0.56
3 -6 20 0.03 0.49
3 -6 20 0.54 0.53
4 -6 20 0.54 0.5
4 -6 20 0.85 0.57
5 -6 20 -0.29 0.59
5 -6 20 0.12 0.51
6 -6 20 1.44 0.57
6 -6 20 1.85 0.73
7 -6 20 5.36 0.88
7 -6 20 6.43 0.91
8 5 -20 6.2 0.95
7 5 -20 2.41 0.59
-7 -5 20 2.15 0.65
6 5 -20 12.16 1.04
-6 -5 20 9.75 1.08
-5 -5 20 -0.4 0.49
-4 -5 20 2.22 0.57
-4 -5 20 2.65 0.58
-3 -5 20 -0.01 0.44
-3 -5 20 0.21 0.49
-2 -5 20 3.11 0.49
-2 -5 20 2.77 0.62
-1 -5 20 8.11 0.94
-1 -5 20 9 0.8
0 -5 20 6.52 0.88
0 -5 20 7.83 0.76
1 -5 20 0.83 0.51
1 -5 20 1.29 0.44
2 -5 20 1.08 0.46
2 -5 20 0.98 0.56
3 -5 20 0.19 0.53
3 -5 20 0.54 0.46
4 -5 20 4.03 0.7
4 -5 20 3.28 0.69
5 -5 20 2.07 0.53
5 -5 20 1.69 0.68
6 -5 20 21.44 1.69
6 -5 20 21.99 1.42
7 -5 20 -0.16 0.7
7 -5 20 1.05 0.55
8 4 -20 14.64 1.18
-8 -4 20 12.65 1.32
7 4 -20 0.19 0.53
-7 -4 20 0.24 0.57
6 4 -20 0.89 0.5
-6 -4 20 0.43 0.54
-5 -4 20 -0.07 0.52
-4 -4 20 14.56 1.29
-4 -4 20 18.6 1.18
-3 -4 20 1.01 0.55
-3 -4 20 2.38 0.49
-2 -4 20 5.78 0.7
-2 -4 20 3.96 0.68
-1 -4 20 0.24 0.42
-1 -4 20 0.34 0.48
0 -4 20 2.91 0.58
0 -4 20 3.01 0.48
1 -4 20 12.73 0.92
1 -4 20 11.19 1.08
2 -4 20 0.16 0.43
2 -4 20 -0.34 0.52
3 -4 20 0.11 0.44
3 -4 20 -0.35 0.54
4 -4 20 2.72 0.5
4 -4 20 2.8 0.68
5 -4 20 0.3 0.65
5 -4 20 -0.86 0.46
6 -4 20 1.55 0.75
6 -4 20 0.21 0.46
7 -4 20 2.89 0.83
7 -4 20 1.95 0.51
8 3 -20 0.94 0.55
-8 -3 20 -0.09 0.61
7 3 -20 0.69 0.53
-7 -3 20 0.88 0.59
6 3 -20 0.98 0.51
-6 -3 20 0.94 0.57
-5 -3 20 0.34 0.53
-4 -3 20 20.05 1.54
-4 -3 20 22.26 1.35
-3 -3 20 -0.31 0.42
-3 -3 20 -0.67 0.51
-2 -3 20 -0.06 0.41
-2 -3 20 -0.19 0.48
-1 -3 20 0 0.48
-1 -3 20 0.31 0.4
0 -3 20 -0.01 0.49
0 -3 20 0.28 0.37
1 -3 20 0.12 0.34
1 -3 20 0.65 0.53
2 -3 20 17.19 1.27
2 -3 20 13.85 0.93
3 -3 20 0.3 0.58
3 -3 20 -0.24 0.3
4 -3 20 0.47 0.32
4 -3 20 0.88 0.65
5 -3 20 -0.07 0.35
5 -3 20 -0.62 0.65
6 -3 20 1.33 0.76
8 2 -20 2.76 0.64
-8 -2 20 1.07 0.66
7 2 -20 -0.12 0.5
-7 -2 20 -0.17 0.58
6 2 -20 0.4 0.49
-6 -2 20 0.3 0.56
-5 -2 20 2.88 0.65
-4 -2 20 6.13 0.78
-4 -2 20 3.95 0.72
-3 -2 20 1.37 0.56
-3 -2 20 1.07 0.41
-2 -2 20 1.03 0.35
-2 -2 20 0.9 0.49
-1 -2 20 0.12 0.28
-1 -2 20 0.57 0.49
0 -2 20 0.77 0.31
0 -2 20 1.19 0.53
1 -2 20 -0.42 0.26
1 -2 20 -0.32 0.51
2 -2 20 6.64 0.92
2 -2 20 4.06 0.49
3 -2 20 12.82 0.87
3 -2 20 18.77 1.33
4 -2 20 0.31 0.67
4 -2 20 0.43 0.28
5 -2 20 0.25 0.7
6 -2 20 0.87 0.76
8 1 -20 0.9 0.55
-8 -1 20 0.6 0.66
7 1 -20 4.56 0.83
-7 -1 20 2.89 0.73
6 1 -20 4.24 0.79
-6 -1 20 3.41 0.71
-5 -1 20 8.87 1.1
-4 -1 20 0.98 0.58
-4 -1 20 1.27 0.35
-3 -1 20 1.46 0.55
-3 -1 20 0.33 0.3
-2 -1 20 0.09 0.27
-2 -1 20 0.07 0.48
-1 -1 20 8.9 0.9
-1 -1 20 6.08 0.56
0 -1 20 1.91 0.31
0 -1 20 3.16 0.61
1 -1 20 19.11 1.43
2 -1 20 2.27 0.64
3 -1 20 2.47 0.7
4 -1 20 2.14 0.71
5 -1 20 0.1 0.7
6 -1 20 1.11 0.77
8 0 -20 -0.04 0.52
-8 0 20 -0.3 0.64
7 0 -20 10.14 0.97
-7 0 20 5.71 1.1
6 0 -20 0.94 0.49
-6 0 20 0.56 0.63
-5 0 20 0.44 0.59
-4 0 20 0.7 0.32
-4 0 20 1.22 0.58
-3 0 20 -0.12 0.49
-3 0 20 -0.76 0.24
-2 0 20 0.08 0.49
-1 0 20 25.55 1.7
0 0 20 6.66 0.92
1 0 20 0.11 0.53
2 0 20 1.19 0.62
3 0 20 7.44 1.09
4 0 20 2.53 0.76
5 0 20 3.05 0.83
-8 1 20 1.94 0.76
7 -1 -20 -0.3 0.49
7 -1 -20 0.28 0.44
-7 1 20 -0.01 0.66
6 -1 -20 0.66 0.46
6 -1 -20 0.58 0.42
-6 1 20 -0.23 0.63
5 -1 -20 0.69 0.39
-5 1 20 -0.57 0.56
4 -1 -20 0.53 0.38
-4 1 20 0.27 0.53
-3 1 20 0.14 0.51
-2 1 20 0.54 0.52
-1 1 20 0.18 0.54
0 1 20 -0.42 0.53
1 1 20 0.1 0.56
2 1 20 2.3 0.68
3 1 20 3.53 0.76
4 1 20 2.3 0.78
5 1 20 0.6 0.77
8 -2 -20 0.98 0.51
-8 2 20 0.87 0.77
7 -2 -20 1.9 0.49
-7 2 20 1.97 0.76
6 -2 -20 2.07 0.45
-6 2 20 2.41 0.7
5 -2 -20 0.59 0.4
-5 2 20 0.16 0.57
4 -2 -20 2.31 0.44
-4 2 20 1.34 0.59
3 -2 -20 0.98 0.4
-3 2 20 0.63 0.55
-2 2 20 0.17 0.55
-1 2 20 1 0.58
0 2 20 2.13 0.62
1 2 20 3.79 0.72
2 2 20 1.92 0.69
3 2 20 -0.1 0.67
4 2 20 8.11 1.26
7 -3 -20 -0.01 0.43
-7 3 20 0.15 0.69
6 -3 -20 2.45 0.48
-6 3 20 2.11 0.71
5 -3 -20 0.28 0.41
-5 3 20 -0.14 0.56
4 -3 -20 13.19 0.91
-4 3 20 11.88 1.2
3 -3 -20 5.95 0.65
-3 3 20 3.22 0.69
2 -3 -20 5.82 0.64
-2 3 20 3.54 0.71
-1 3 20 0.88 0.58
0 3 20 0.07 0.58
1 3 20 0.56 0.63
2 3 20 7.93 1.13
3 3 20 -0.13 0.7
7 -4 -20 -0.11 0.41
-7 4 20 -0.52 0.68
6 -4 -20 5.27 0.67
-6 4 20 4.48 0.81
5 -4 -20 -0.2 0.37
-5 4 20 -0.26 0.61
4 -4 -20 0.83 0.41
-4 4 20 -0.13 0.59
3 -4 -20 -0.06 0.39
-3 4 20 0.44 0.61
2 -4 -20 0.2 0.37
-2 4 20 -0.33 0.58
1 -4 -20 1.28 0.4
-1 4 20 0.19 0.6
0 4 20 7.4 1.09
1 4 20 5.28 1.05
2 4 20 -0.35 0.67
3 4 20 2.87 0.81
6 -5 -20 0.11 0.4
-6 5 20 -0.49 0.66
5 -5 -20 4.64 0.63
-5 5 20 4.48 0.81
4 -5 -20 5.29 0.66
-4 5 20 4.83 0.82
3 -5 -20 0.75 0.4
-3 5 20 1.1 0.65
2 -5 -20 1.31 0.42
-2 5 20 1.13 0.64
1 -5 -20 18 1.04
-1 5 20 14.24 1.43
0 5 20 1.94 0.74
1 5 20 0.62 0.7
2 5 20 0.49 0.74
-6 6 20 -0.34 0.69
5 -6 -20 0.32 0.42
-5 6 20 0.17 0.67
4 -6 -20 1.18 0.43
-4 6 20 -0.19 0.67
3 -6 -20 0.53 0.4
-3 6 20 -0.81 0.63
2 -6 -20 6.69 0.69
-2 6 20 5.21 0.85
1 -6 -20 2.81 0.46
-1 6 20 2.67 0.77
0 -6 -20 0.43 0.39
0 6 20 -0.55 0.66
1 6 20 -0.35 0.72
4 -7 -20 3.05 0.49
-4 7 20 1.86 0.76
3 -7 -20 0.29 0.41
-3 7 20 1.02 0.69
2 -7 -20 0.68 0.41
-2 7 20 -0.5 0.7
1 -7 -20 3.93 0.66
-1 7 20 2.64 0.81
-1 -15 21 0.59 0.55
0 -15 21 0.18 0.6
1 -15 21 2.11 0.66
2 -15 21 2.08 0.66
3 -15 21 2 0.67
-2 -14 21 0.92 0.61
-2 -14 21 0.52 0.53
-1 -14 21 -0.61 0.55
-1 -14 21 -0.01 0.49
0 -14 21 -0.05 0.53
0 -14 21 -0.24 0.56
1 -14 21 13.27 1.17
2 -14 21 0.06 0.59
3 -14 21 0.61 0.6
4 -14 21 -0.69 0.6
-3 -13 21 1.96 0.64
-3 -13 21 2.16 0.61
-2 -13 21 0.21 0.57
-2 -13 21 0.61 0.54
-1 -13 21 5.83 0.93
-1 -13 21 6.33 0.88
0 -13 21 2.99 0.62
0 -13 21 3.3 0.65
1 -13 21 2.3 0.6
1 -13 21 2.8 0.61
2 -13 21 0.17 0.56
3 -13 21 -0.84 0.55
4 -13 21 3.52 0.69
5 -13 21 5.43 0.96
-4 -12 21 -0.23 0.57
-4 -12 21 0.49 0.6
-3 -12 21 0.67 0.55
-3 -12 21 1.19 0.57
-2 -12 21 10.58 1.06
-2 -12 21 10.47 1.05
-1 -12 21 3.17 0.62
-1 -12 21 2.51 0.58
0 -12 21 9.7 0.96
0 -12 21 9.33 1.08
1 -12 21 0.12 0.52
1 -12 21 0.4 0.53
2 -12 21 1.02 0.52
2 -12 21 0.16 0.55
3 -12 21 1.16 0.57
4 -12 21 6 0.93
5 -12 21 1.58 0.63
-5 -11 21 2.77 0.7
-4 -11 21 4.47 0.71
-4 -11 21 3.91 0.7
-3 -11 21 2.87 0.61
-3 -11 21 3.34 0.63
-2 -11 21 2.1 0.58
-2 -11 21 2.96 0.59
-1 -11 21 0.03 0.52
-1 -11 21 -0.2 0.49
0 -11 21 0.17 0.57
0 -11 21 0.87 0.5
1 -11 21 0.58 0.52
1 -11 21 0.22 0.53
2 -11 21 7.79 0.93
2 -11 21 8.76 0.93
3 -11 21 8.72 0.98
3 -11 21 9.43 0.97
4 -11 21 0.66 0.58
5 -11 21 0.44 0.59
6 -11 21 0.27 0.62
-5 -10 21 3.43 0.72
-5 -10 21 4.14 0.75
-4 -10 21 1.16 0.59
-4 -10 21 0.45 0.56
-3 -10 21 -0.19 0.51
-3 -10 21 -0.36 0.49
-2 -10 21 0.26 0.5
-2 -10 21 1.28 0.53
-1 -10 21 5.54 0.91
-1 -10 21 6.14 0.82
0 -10 21 0.59 0.57
0 -10 21 1.07 0.49
1 -10 21 0.47 0.5
1 -10 21 0.66 0.5
2 -10 21 -0.43 0.51
2 -10 21 0.16 0.52
3 -10 21 2.69 0.6
3 -10 21 2.87 0.62
4 -10 21 3.82 0.64
4 -10 21 2.64 0.61
5 -10 21 -0.44 0.55
6 -10 21 -0.53 0.61
-6 -9 21 1.26 0.71
-5 -9 21 0.89 0.67
-5 -9 21 0.19 0.59
-4 -9 21 1.1 0.57
-4 -9 21 0.54 0.54
-3 -9 21 8.16 0.98
-3 -9 21 9.31 0.94
-2 -9 21 0.85 0.54
-2 -9 21 1.14 0.51
-1 -9 21 0.57 0.56
-1 -9 21 0.16 0.47
0 -9 21 0.02 0.53
0 -9 21 0.42 0.47
1 -9 21 0.35 0.53
1 -9 21 1.77 0.51
2 -9 21 0.17 0.51
2 -9 21 0.33 0.51
3 -9 21 1.37 0.59
3 -9 21 0.69 0.55
4 -9 21 2.8 0.65
4 -9 21 3.22 0.61
5 -9 21 9.35 1.09
5 -9 21 10.1 1
6 -9 21 3.17 0.68
-6 -8 21 -0.18 0.57
-5 -8 21 10.41 1.11
-4 -8 21 11.39 1.05
-4 -8 21 10.5 1.07
-3 -8 21 12.51 1.15
-3 -8 21 13.86 1.08
-2 -8 21 4.7 0.89
-2 -8 21 6.04 0.81
-1 -8 21 0.68 0.59
-1 -8 21 0.83 0.47
0 -8 21 -0.03 0.46
0 -8 21 -0.37 0.51
1 -8 21 11.04 0.93
1 -8 21 10.4 1.03
2 -8 21 -0.05 0.5
2 -8 21 0.67 0.55
3 -8 21 12.7 1.16
3 -8 21 13.03 1.08
4 -8 21 3.12 0.61
4 -8 21 2.53 0.64
5 -8 21 -0.4 0.57
5 -8 21 -0.96 0.52
6 -8 21 4.31 0.81
6 -8 21 4.23 0.7
-6 -7 21 2.49 0.68
-5 -7 21 6.49 0.94
-4 -7 21 2.61 0.6
-4 -7 21 2.28 0.6
-3 -7 21 5.39 0.81
-3 -7 21 5.63 0.89
-2 -7 21 1.31 0.59
-2 -7 21 1.31 0.49
-1 -7 21 1.32 0.49
-1 -7 21 1.64 0.58
0 -7 21 1.51 0.5
0 -7 21 2.04 0.57
1 -7 21 9.13 0.98
1 -7 21 9.27 0.89
2 -7 21 6.07 0.81
2 -7 21 5.47 0.89
3 -7 21 14.75 1.26
3 -7 21 16.3 1.16
4 -7 21 7.13 0.98
4 -7 21 6.93 0.87
5 -7 21 3.27 0.61
5 -7 21 2.61 0.72
6 -7 21 6.54 0.93
6 -7 21 6.06 1.11
7 6 -21 1.66 0.62
-7 -6 21 0.75 0.67
6 6 -21 7.3 0.89
-6 -6 21 5.18 0.97
-5 -6 21 3.46 0.66
-4 -6 21 5.73 0.92
-4 -6 21 6.9 0.88
-3 -6 21 0.1 0.48
-3 -6 21 0.15 0.52
-2 -6 21 5.97 0.99
-2 -6 21 7.33 0.8
-1 -6 21 5.29 0.88
-1 -6 21 5.05 0.74
0 -6 21 4.92 0.85
0 -6 21 5.78 0.73
1 -6 21 1.66 0.5
1 -6 21 1.3 0.56
2 -6 21 7.85 0.82
2 -6 21 7.39 0.97
3 -6 21 -0.39 0.55
3 -6 21 0.13 0.5
4 -6 21 5.95 0.8
4 -6 21 6.21 1
5 -6 21 -0.86 0.6
5 -6 21 0 0.53
6 -6 21 0.08 0.57
6 -6 21 -0.09 0.69
7 5 -21 -0.06 0.58
-7 -5 21 -0.15 0.6
6 5 -21 0.61 0.5
-6 -5 21 0.99 0.58
-5 -5 21 2.74 0.65
-4 -5 21 2.4 0.56
-4 -5 21 1.73 0.6
-3 -5 21 2.27 0.65
-3 -5 21 2.33 0.51
-2 -5 21 2.49 0.63
-2 -5 21 2.31 0.51
-1 -5 21 0.14 0.44
-1 -5 21 0.21 0.52
0 -5 21 0.05 0.43
0 -5 21 0.16 0.51
1 -5 21 2.67 0.51
1 -5 21 1.87 0.58
2 -5 21 0.54 0.57
2 -5 21 1.06 0.49
3 -5 21 6.1 0.95
3 -5 21 6.26 0.8
4 -5 21 -0.64 0.6
4 -5 21 -0.05 0.47
5 -5 21 -0.1 0.64
5 -5 21 -0.49 0.51
6 -5 21 3.18 0.64
6 -5 21 5.91 1.13
7 4 -21 1.27 0.61
-7 -4 21 1.26 0.63
6 4 -21 0.57 0.5
-6 -4 21 0.46 0.59
-5 -4 21 2.56 0.66
-4 -4 21 0.18 0.57
-4 -4 21 0.06 0.49
-3 -4 21 1.16 0.62
-3 -4 21 0.52 0.47
-2 -4 21 4.17 0.7
-2 -4 21 4.94 0.72
-1 -4 21 -0.5 0.49
-1 -4 21 0.05 0.43
0 -4 21 1.6 0.46
0 -4 21 1 0.55
1 -4 21 0.14 0.53
1 -4 21 0.17 0.44
2 -4 21 0.09 0.43
2 -4 21 0.92 0.59
3 -4 21 2.16 0.66
3 -4 21 0.65 0.42
4 -4 21 25.3 1.67
4 -4 21 19.77 1.27
5 -4 21 2.07 0.72
5 -4 21 0.61 0.39
6 -4 21 -0.08 0.38
6 -4 21 0.84 0.76
7 3 -21 0.28 0.57
-7 -3 21 -0.01 0.61
6 3 -21 3.13 0.56
-6 -3 21 2.05 0.66
-5 -3 21 0.06 0.57
-4 -3 21 10.31 0.92
-4 -3 21 7.87 1.1
-3 -3 21 11.31 0.89
-3 -3 21 8.46 1.08
-2 -3 21 0.56 0.54
-2 -3 21 -0.22 0.43
-1 -3 21 2.27 0.4
-1 -3 21 2.09 0.57
0 -3 21 1.75 0.56
0 -3 21 0.48 0.34
1 -3 21 -0.29 0.3
1 -3 21 0.29 0.57
2 -3 21 2.72 0.48
2 -3 21 3.32 0.67
3 -3 21 5.72 0.98
3 -3 21 3.25 0.5
4 -3 21 0.75 0.32
4 -3 21 0.56 0.67
5 -3 21 0.84 0.73
6 -3 21 0.9 0.79
7 2 -21 0.62 0.55
-7 -2 21 0.99 0.65
6 2 -21 0.64 0.49
-6 -2 21 0.13 0.61
-5 -2 21 3.81 0.73
-4 -2 21 5.41 0.73
-4 -2 21 4.84 0.79
-3 -2 21 0.01 0.54
-3 -2 21 0.1 0.33
-2 -2 21 -0.27 0.3
-2 -2 21 -0.14 0.52
-1 -2 21 1.76 0.57
-1 -2 21 0.78 0.31
0 -2 21 -0.38 0.28
0 -2 21 0.22 0.54
1 -2 21 8.43 0.68
1 -2 21 12.68 1.1
2 -2 21 0.83 0.6
2 -2 21 0.18 0.31
3 -2 21 3.83 0.76
4 -2 21 -0.26 0.65
5 -2 21 0.97 0.78
7 1 -21 5.3 0.93
-7 -1 21 2.7 0.77
-6 -1 21 6.16 1.1
-5 -1 21 -0.65 0.6
-4 -1 21 1.33 0.35
-4 -1 21 0.88 0.6
-3 -1 21 -0.21 0.29
-3 -1 21 -0.17 0.52
-2 -1 21 2.74 0.6
-2 -1 21 1.48 0.33
-1 -1 21 0.89 0.55
-1 -1 21 -0.02 0.29
0 -1 21 12.08 1.16
1 -1 21 5.69 0.95
2 -1 21 0.47 0.6
3 -1 21 -0.06 0.65
4 -1 21 1.95 0.76
5 -1 21 0.51 0.76
7 0 -21 0.88 0.56
-7 0 21 1.1 0.72
-6 0 21 -0.2 0.65
-5 0 21 -0.17 0.59
-5 0 21 1.24 0.38
-4 0 21 5.27 0.92
-3 0 21 0.78 0.55
-2 0 21 0.91 0.56
-1 0 21 0.68 0.55
0 0 21 -0.3 0.55
1 0 21 2.7 0.66
2 0 21 0.64 0.63
3 0 21 0.29 0.68
4 0 21 1.01 0.76
5 0 21 9.33 1.38
-7 1 21 0.44 0.72
-6 1 21 -0.26 0.64
-5 1 21 -0.01 0.61
-4 1 21 -0.12 0.55
-3 1 21 0.18 0.55
-2 1 21 3.2 0.65
-1 1 21 -0.32 0.55
0 1 21 0.58 0.58
1 1 21 0.04 0.6
2 1 21 -0.08 0.64
3 1 21 0.87 0.7
4 1 21 4.65 0.91
7 -2 -21 3.37 0.56
-7 2 21 4.81 0.88
6 -2 -21 0.38 0.43
-6 2 21 0.25 0.67
5 -2 -21 0.75 0.43
-5 2 21 -0.3 0.61
4 -2 -21 0.92 0.42
-4 2 21 0.51 0.6
-3 2 21 11.44 1.16
-2 2 21 -0.46 0.56
-1 2 21 -0.22 0.59
0 2 21 0.45 0.59
1 2 21 -0.25 0.61
2 2 21 5.11 0.85
3 2 21 3.8 0.86
6 -3 -21 3.04 0.51
-6 3 21 1.04 0.71
5 -3 -21 11.17 0.88
-5 3 21 9.77 1.19
4 -3 -21 0.45 0.42
-4 3 21 0.28 0.6
3 -3 -21 1.58 0.44
-3 3 21 -0.15 0.58
-2 3 21 1.09 0.64
-1 3 21 3.37 0.69
0 3 21 0.46 0.61
1 3 21 9.15 1.19
2 3 21 -0.62 0.65
-6 4 21 1.37 0.7
5 -4 -21 1.18 0.47
-5 4 21 1.74 0.7
4 -4 -21 3.05 0.51
-4 4 21 1.29 0.67
3 -4 -21 0.14 0.42
-3 4 21 0.06 0.62
2 -4 -21 0.5 0.41
-2 4 21 0.05 0.62
-1 4 21 3.71 0.77
0 4 21 -0.47 0.65
1 4 21 1.62 0.75
5 -5 -21 0.31 0.42
-5 5 21 -0.37 0.65
4 -5 -21 5.24 0.71
-4 5 21 4.13 0.82
3 -5 -21 0.03 0.43
-3 5 21 -0.05 0.66
2 -5 -21 0.56 0.42
-2 5 21 0.35 0.66
1 -5 -21 0.2 0.4
-1 5 21 0.51 0.68
0 5 21 1.51 0.75
4 -6 -21 -0.02 0.43
-4 6 21 -0.48 0.69
3 -6 -21 4.78 0.69
-3 6 21 2.14 0.76
2 -6 -21 2.63 0.49
-2 6 21 1.62 0.75
1 -6 -21 0.42 0.42
-1 6 21 -1.14 0.69
-1 -14 22 2.62 0.64
0 -14 22 2.95 0.65
0 -14 22 3.84 0.74
1 -14 22 -0.9 0.57
2 -14 22 -0.14 0.61
3 -14 22 0.07 0.63
-2 -13 22 8.47 1.02
-2 -13 22 7.73 1
-1 -13 22 0.71 0.57
-1 -13 22 0.25 0.57
0 -13 22 2.65 0.63
0 -13 22 3.01 0.72
1 -13 22 0.19 0.58
1 -13 22 0.46 0.59
2 -13 22 -0.2 0.58
3 -13 22 0.74 0.6
4 -13 22 -0.4 0.61
-3 -12 22 7 1.01
-3 -12 22 7.38 1.01
-2 -12 22 0.78 0.57
-2 -12 22 -0.33 0.56
-1 -12 22 1.35 0.57
-1 -12 22 1.14 0.59
0 -12 22 -0.18 0.57
0 -12 22 0.11 0.54
1 -12 22 1.97 0.6
1 -12 22 2.05 0.6
2 -12 22 1.39 0.57
2 -12 22 1.82 0.61
3 -12 22 -0.03 0.58
4 -12 22 0.62 0.61
5 -12 22 0.13 0.63
-4 -11 22 1.11 0.6
-4 -11 22 0.3 0.6
-3 -11 22 10.75 1.13
-3 -11 22 12.56 1.13
-2 -11 22 -0.03 0.54
-2 -11 22 0.13 0.54
-1 -11 22 0.03 0.58
-1 -11 22 0.75 0.53
0 -11 22 1.03 0.53
0 -11 22 0.43 0.58
1 -11 22 -0.12 0.53
1 -11 22 0.54 0.55
2 -11 22 0.63 0.55
2 -11 22 -0.15 0.56
3 -11 22 3.78 0.67
3 -11 22 4.29 0.69
4 -11 22 0.47 0.59
5 -11 22 -0.91 0.59
-5 -10 22 10.36 1.24
-4 -10 22 0.34 0.57
-4 -10 22 0.67 0.58
-3 -10 22 0.61 0.56
-3 -10 22 0.56 0.56
-2 -10 22 0.72 0.57
-2 -10 22 0.52 0.54
-1 -10 22 4.7 0.65
-1 -10 22 6.02 1.01
0 -10 22 0.55 0.6
0 -10 22 0.93 0.52
1 -10 22 15.74 1.14
1 -10 22 13.69 1.21
2 -10 22 -0.37 0.54
2 -10 22 -0.29 0.53
3 -10 22 2.07 0.61
3 -10 22 2.41 0.64
4 -10 22 0.15 0.59
4 -10 22 1.11 0.59
5 -10 22 -0.09 0.58
-5 -9 22 1.45 0.66
-5 -9 22 0.11 0.6
-4 -9 22 0.7 0.57
-4 -9 22 0.18 0.57
-3 -9 22 0.28 0.53
-3 -9 22 0.84 0.56
-2 -9 22 0.74 0.58
-2 -9 22 -0.02 0.51
-1 -9 22 1.06 0.62
-1 -9 22 0.94 0.52
0 -9 22 8.74 0.9
0 -9 22 6.92 0.98
1 -9 22 3.44 0.64
1 -9 22 2.51 0.58
2 -9 22 2.74 0.59
2 -9 22 2.41 0.62
3 -9 22 -0.62 0.54
3 -9 22 -0.12 0.58
4 -9 22 0.12 0.58
4 -9 22 0.02 0.57
5 -9 22 -0.11 0.63
5 -9 22 -0.05 0.57
6 -9 22 4.41 0.73
-5 -8 22 0.82 0.6
-5 -8 22 -0.57 0.59
-4 -8 22 0.91 0.59
-4 -8 22 0.2 0.57
-3 -8 22 -0.17 0.56
-3 -8 22 0.25 0.52
-2 -8 22 10.87 1.22
-2 -8 22 13.66 1.06
-1 -8 22 -0.16 0.47
-1 -8 22 0.28 0.59
0 -8 22 13.1 1.02
0 -8 22 11.87 1.14
1 -8 22 0.37 0.52
1 -8 22 0.63 0.54
2 -8 22 -0.07 0.56
2 -8 22 -0.16 0.52
3 -8 22 2.31 0.61
3 -8 22 3.73 0.68
4 -8 22 -0.07 0.6
4 -8 22 -0.05 0.55
5 -8 22 -0.06 0.63
5 -8 22 -0.17 0.57
6 -8 22 3.46 0.8
6 -8 22 3.25 0.7
-6 -7 22 2.34 0.68
-5 -7 22 0.99 0.6
-5 -7 22 1.76 0.66
-4 -7 22 2.08 0.6
-4 -7 22 2.03 0.63
-3 -7 22 1.08 0.52
-3 -7 22 0.97 0.6
-2 -7 22 2.48 0.7
-2 -7 22 3.9 0.58
-1 -7 22 0.27 0.48
-1 -7 22 1.09 0.6
0 -7 22 -0.52 0.52
0 -7 22 -0.06 0.47
1 -7 22 2.81 0.63
1 -7 22 2.81 0.56
2 -7 22 0.33 0.51
2 -7 22 0.06 0.56
3 -7 22 1.87 0.65
3 -7 22 1.92 0.57
4 -7 22 6.73 1.03
4 -7 22 6.26 0.88
5 -7 22 -0.03 0.65
5 -7 22 -0.27 0.55
6 -7 22 0.22 0.71
6 -7 22 0.08 0.6
-6 -6 22 0.4 0.6
-5 -6 22 -0.17 0.58
-5 -6 22 -0.03 0.61
-4 -6 22 0.8 0.54
-4 -6 22 0.81 0.6
-3 -6 22 6.75 1.06
-3 -6 22 7.42 0.87
-2 -6 22 -0.81 0.57
-2 -6 22 0.38 0.49
-1 -6 22 4.46 0.74
-1 -6 22 2.79 0.65
0 -6 22 2.71 0.54
0 -6 22 3.12 0.64
1 -6 22 4.74 0.75
1 -6 22 2.38 0.64
2 -6 22 0.33 0.6
2 -6 22 -0.06 0.49
3 -6 22 -0.3 0.6
3 -6 22 0.05 0.51
4 -6 22 2.27 0.69
4 -6 22 1.94 0.55
5 -6 22 0 0.56
5 -6 22 0.78 0.68
6 -6 22 1.34 0.62
6 -6 22 3.95 0.85
-6 -5 22 0.73 0.63
-5 -5 22 0.95 0.63
-5 -5 22 0.09 0.59
-4 -5 22 1.97 0.59
-4 -5 22 2.28 0.68
-3 -5 22 12.42 1.33
-3 -5 22 16.65 1.11
-2 -5 22 3.92 0.72
-2 -5 22 5.17 0.76
-1 -5 22 3.09 0.53
-1 -5 22 2.63 0.63
0 -5 22 0.13 0.54
0 -5 22 0.11 0.46
1 -5 22 2.25 0.52
1 -5 22 1.13 0.61
2 -5 22 -0.21 0.57
2 -5 22 -1.01 0.46
3 -5 22 9.57 1.1
3 -5 22 9.29 0.91
4 -5 22 1.15 0.5
4 -5 22 0.6 0.68
5 -5 22 2.89 0.56
5 -5 22 2.63 0.77
7 4 -22 2.61 0.65
-6 -4 22 1.29 0.66
-5 -4 22 6.78 1.08
-5 -4 22 8.92 1
-4 -4 22 2.58 0.72
-4 -4 22 2.75 0.59
-3 -4 22 2.99 0.55
-3 -4 22 2.07 0.67
-2 -4 22 0.5 0.47
-2 -4 22 0.42 0.57
-1 -4 22 0.8 0.57
-1 -4 22 1.27 0.47
0 -4 22 0.45 0.55
0 -4 22 0.25 0.43
1 -4 22 19.28 1.21
1 -4 22 21.67 1.53
2 -4 22 1.69 0.41
2 -4 22 1.97 0.65
3 -4 22 -0.61 0.35
3 -4 22 0.01 0.62
4 -4 22 1.29 0.4
4 -4 22 0.57 0.69
5 -4 22 0.67 0.73
7 3 -22 3.24 0.67
-6 -3 22 3.55 0.76
-5 -3 22 0.49 0.58
-5 -3 22 0.16 0.64
-4 -3 22 0.16 0.62
-4 -3 22 0.63 0.53
-3 -3 22 8.52 1.06
-3 -3 22 8.23 0.83
-2 -3 22 0.84 0.57
-2 -3 22 0.95 0.37
-1 -3 22 1.2 0.37
-1 -3 22 1.69 0.59
0 -3 22 11.14 1.06
0 -3 22 7.99 0.7
1 -3 22 0.15 0.6
1 -3 22 -0.64 0.3
2 -3 22 1.96 0.66
2 -3 22 1.39 0.34
3 -3 22 0.32 0.31
3 -3 22 1.2 0.68
4 -3 22 0.9 0.72
5 -3 22 2.78 0.84
7 2 -22 2.2 0.61
-7 -2 22 1.17 0.75
-6 -2 22 1.32 0.72
-5 -2 22 -0.76 0.63
-5 -2 22 0.36 0.47
-4 -2 22 -0.62 0.57
-4 -2 22 -0.04 0.36
-3 -2 22 -0.95 0.53
-3 -2 22 -0.65 0.31
-2 -2 22 8.52 0.99
-2 -2 22 6.34 0.62
-1 -2 22 1.92 0.37
-1 -2 22 4.77 0.86
0 -2 22 0.68 0.59
0 -2 22 -0.21 0.29
1 -2 22 2 0.65
2 -2 22 0.27 0.62
3 -2 22 -0.05 0.66
4 -2 22 3.17 0.82
5 -2 22 0.23 0.78
-7 -1 22 2.36 0.81
-6 -1 22 1.48 0.75
-5 -1 22 1.37 0.69
-4 -1 22 0.88 0.63
-4 -1 22 0.74 0.35
-3 -1 22 0.39 0.33
-3 -1 22 0.76 0.59
-2 -1 22 0.55 0.56
-1 -1 22 2.34 0.66
0 -1 22 3.86 0.73
1 -1 22 -0.33 0.57
2 -1 22 0.04 0.63
3 -1 22 2.4 0.77
4 -1 22 -0.46 0.7
-6 0 22 2.06 0.77
-5 0 22 0.31 0.66
-4 0 22 1.16 0.63
-3 0 22 -0.74 0.56
-2 0 22 7.03 0.98
-1 0 22 0.12 0.58
0 0 22 0.13 0.6
1 0 22 0.2 0.62
2 0 22 1.01 0.69
3 0 22 1.51 0.74
-6 1 22 4.81 0.88
-5 1 22 1.83 0.7
-4 1 22 6.88 1.02
-3 1 22 5.96 0.99
-2 1 22 0.3 0.6
-1 1 22 0.08 0.59
0 1 22 1.5 0.64
1 1 22 8.34 1.13
2 1 22 0.13 0.69
3 1 22 -0.22 0.7
-6 2 22 1.82 0.76
-5 2 22 12.67 1.3
-4 2 22 1.79 0.67
-3 2 22 -0.01 0.62
-2 2 22 4.02 0.76
-1 2 22 3.99 0.75
0 2 22 1.93 0.7
1 2 22 2.83 0.74
2 2 22 0.35 0.7
5 -3 -22 0.3 0.44
-5 3 22 -0.18 0.66
4 -3 -22 0.49 0.45
-4 3 22 -0.03 0.66
-3 3 22 0.04 0.65
-2 3 22 5.52 1.05
-1 3 22 -0.46 0.62
0 3 22 0.6 0.67
1 3 22 5.78 1.12
4 -4 -22 2.74 0.5
-4 4 22 0.9 0.72
3 -4 -22 0.07 0.44
-3 4 22 -1.13 0.64
-2 4 22 0.5 0.65
-1 4 22 -0.24 0.66
0 4 22 -0.12 0.7
2 -5 -22 6.18 0.71
-2 5 22 3.06 0.81
-1 -13 23 1.14 0.65
0 -13 23 0.09 0.57
0 -13 23 1.47 0.63
1 -13 23 4.12 0.68
1 -13 23 2.11 0.65
2 -13 23 5.38 0.96
-2 -12 23 0.81 0.62
-2 -12 23 -0.47 0.56
-1 -12 23 12.28 1.27
-1 -12 23 14.04 1.16
0 -12 23 1.2 0.58
0 -12 23 1.87 0.66
1 -12 23 0.45 0.58
1 -12 23 -0.24 0.57
2 -12 23 -0.1 0.6
2 -12 23 -0.12 0.56
3 -12 23 2.97 0.68
4 -12 23 0.09 0.65
-3 -11 23 0.41 0.6
-3 -11 23 0.2 0.59
-2 -11 23 -0.61 0.55
-2 -11 23 0.94 0.62
-1 -11 23 0.37 0.66
-1 -11 23 0.69 0.56
0 -11 23 1.37 0.57
0 -11 23 2.17 0.65
1 -11 23 3.11 0.68
1 -11 23 3.95 0.65
2 -11 23 1.01 0.59
2 -11 23 0.1 0.59
3 -11 23 9.17 1.05
3 -11 23 9.44 1.09
4 -11 23 -0.14 0.6
-4 -10 23 11.7 1.26
-4 -10 23 14.37 1.2
-3 -10 23 1.47 0.65
-3 -10 23 0.91 0.6
-2 -10 23 4.91 0.88
-2 -10 23 4.02 0.79
-1 -10 23 3.09 0.75
-1 -10 23 3.24 0.61
0 -10 23 -0.1 0.58
0 -10 23 0.84 0.54
1 -10 23 0.61 0.6
1 -10 23 -0.82 0.54
2 -10 23 3.3 0.67
2 -10 23 3.05 0.64
3 -10 23 1.44 0.62
3 -10 23 1.63 0.66
4 -10 23 9.45 1.1
4 -10 23 9.31 1.05
-4 -9 23 0.07 0.6
-4 -9 23 0.33 0.58
-3 -9 23 0.1 0.62
-3 -9 23 0.06 0.55
-2 -9 23 2.76 0.61
-2 -9 23 3.44 0.75
-1 -9 23 0.59 0.64
-1 -9 23 0.01 0.52
0 -9 23 4.03 0.72
0 -9 23 5.49 0.82
1 -9 23 4.78 0.85
1 -9 23 5.34 0.92
2 -9 23 -0.14 0.57
2 -9 23 0.1 0.57
3 -9 23 2.8 0.69
3 -9 23 4.62 0.69
4 -9 23 1.59 0.62
4 -9 23 1.36 0.66
5 -9 23 3 0.75
5 -9 23 2.59 0.66
-5 -8 23 2.63 0.74
-5 -8 23 2.99 0.7
-4 -8 23 0.3 0.63
-4 -8 23 0.75 0.6
-3 -8 23 7.56 0.93
-3 -8 23 6.58 1.07
-2 -8 23 1.43 0.56
-2 -8 23 1.59 0.69
-1 -8 23 0.09 0.51
-1 -8 23 -0.54 0.58
0 -8 23 -0.26 0.5
0 -8 23 0.32 0.58
1 -8 23 2.69 0.65
1 -8 23 2.42 0.58
2 -8 23 1.32 0.62
2 -8 23 0.74 0.56
3 -8 23 0.77 0.64
3 -8 23 0.68 0.58
4 -8 23 1.13 0.66
4 -8 23 0.48 0.58
5 -8 23 0.42 0.68
5 -8 23 0.31 0.59
-5 -7 23 1.15 0.66
-5 -7 23 1.32 0.66
-4 -7 23 8.04 1.12
-4 -7 23 8.39 1
-3 -7 23 2.56 0.71
-3 -7 23 1.43 0.56
-2 -7 23 1.38 0.53
-2 -7 23 1.4 0.67
-1 -7 23 -0.02 0.58
-1 -7 23 0.2 0.5
0 -7 23 -0.19 0.49
0 -7 23 0.4 0.58
1 -7 23 5.28 0.93
1 -7 23 4.74 0.82
2 -7 23 0.37 0.62
2 -7 23 0.18 0.53
3 -7 23 5.42 0.87
3 -7 23 7.39 1.03
4 -7 23 0.55 0.67
4 -7 23 0.76 0.56
5 -7 23 1.02 0.73
5 -7 23 1.12 0.59
-5 -6 23 0.56 0.64
-5 -6 23 -0.15 0.62
-4 -6 23 1.24 0.68
-4 -6 23 1.64 0.6
-3 -6 23 0.42 0.66
-3 -6 23 0.28 0.53
-2 -6 23 0.75 0.51
-2 -6 23 1.01 0.65
-1 -6 23 -0.54 0.58
-1 -6 23 0.25 0.5
0 -6 23 0.22 0.58
0 -6 23 1.35 0.52
1 -6 23 3.43 0.59
1 -6 23 3.44 0.71
2 -6 23 0.49 0.62
2 -6 23 0.14 0.52
3 -6 23 5.7 1.03
3 -6 23 7.75 0.89
4 -6 23 1.91 0.74
4 -6 23 3.23 0.59
5 -6 23 2.82 0.81
5 -6 23 3.94 0.66
-5 -5 23 2.99 0.76
-5 -5 23 4.33 0.72
-4 -5 23 9.81 1.01
-4 -5 23 9.37 1.22
-3 -5 23 1.29 0.68
-3 -5 23 2.25 0.55
-2 -5 23 1.62 0.52
-2 -5 23 0.35 0.62
-1 -5 23 0.05 0.57
-1 -5 23 0.19 0.48
0 -5 23 5.7 0.78
0 -5 23 3.73 0.72
1 -5 23 3.95 0.73
1 -5 23 3.74 0.6
2 -5 23 2.57 0.7
2 -5 23 2.04 0.54
3 -5 23 -0.8 0.44
3 -5 23 0.4 0.66
4 -5 23 1.1 0.43
4 -5 23 0.85 0.71
5 -5 23 -0.09 0.71
-5 -4 23 0.48 0.7
-5 -4 23 0.18 0.59
-4 -4 23 -0.32 0.65
-4 -4 23 0.47 0.55
-3 -4 23 3.48 0.61
-3 -4 23 3.12 0.74
-2 -4 23 7.5 0.84
-2 -4 23 6.86 1.01
-1 -4 23 3.07 0.5
-1 -4 23 2.92 0.68
0 -4 23 9.49 1.06
0 -4 23 7.5 0.73
1 -4 23 0.15 0.36
1 -4 23 1.13 0.64
2 -4 23 0.35 0.63
3 -4 23 3.05 0.76
4 -4 23 0.78 0.73
-6 -3 23 0.93 0.8
-5 -3 23 1.71 0.62
-5 -3 23 1.1 0.72
-4 -3 23 -0.57 0.62
-4 -3 23 0.34 0.47
-3 -3 23 0.13 0.39
-3 -3 23 0.6 0.61
-2 -3 23 3.21 0.69
-2 -3 23 2.78 0.44
-1 -3 23 0.09 0.33
-1 -3 23 0.79 0.6
0 -3 23 2.02 0.65
0 -3 23 0.64 0.36
1 -3 23 0.37 0.63
1 -3 23 0.06 0.35
2 -3 23 -0.44 0.62
3 -3 23 0.01 0.69
4 -3 23 1.08 0.76
-6 -2 23 0.32 0.75
-5 -2 23 1.33 0.72
-4 -2 23 -0.34 0.63
-3 -2 23 0.24 0.35
-3 -2 23 0.71 0.61
-2 -2 23 1.51 0.62
-1 -2 23 0.5 0.61
0 -2 23 1.73 0.66
1 -2 23 -0.49 0.61
2 -2 23 -0.1 0.66
3 -2 23 -0.1 0.69
4 -2 23 8.83 1.27
-6 -1 23 0.7 0.78
-5 -1 23 3.91 0.8
-4 -1 23 3.99 0.76
-3 -1 23 7.48 1.05
-2 -1 23 0.65 0.6
-1 -1 23 0.74 0.62
0 -1 23 0.27 0.62
1 -1 23 3.83 0.76
2 -1 23 1.62 0.72
3 -1 23 10.31 1.3
-5 0 23 12.13 1.29
-4 0 23 -0.05 0.63
-3 0 23 1.23 0.64
-2 0 23 0.19 0.62
-1 0 23 -0.12 0.61
0 0 23 0.02 0.63
1 0 23 15.72 1.42
2 0 23 1.72 0.75
-5 1 23 0.01 0.68
-4 1 23 0.37 0.64
-3 1 23 0.15 0.65
-2 1 23 1.39 0.68
-1 1 23 0.16 0.64
0 1 23 0.05 0.63
1 1 23 0.48 0.68
-4 2 23 0.12 0.66
-3 2 23 1.05 0.68
-2 2 23 3.73 0.78
-1 2 23 0.1 0.62
0 2 23 0.27 0.66
-3 3 23 0.96 0.71
-2 3 23 3.57 0.79
-1 3 23 1.87 0.74
-1 -12 24 1.37 0.72
0 -12 24 7.61 1.06
0 -12 24 5.63 0.96
1 -12 24 3.58 0.69
1 -12 24 3.17 0.7
2 -12 24 10.34 1.14
2 -12 24 11.23 1.16
-2 -11 24 7.07 1.15
-2 -11 24 6.24 0.99
-1 -11 24 5.63 0.93
-1 -11 24 3.69 0.78
0 -11 24 1.78 0.61
0 -11 24 1.21 0.66
1 -11 24 -0.42 0.6
1 -11 24 -0.35 0.58
2 -11 24 -0.63 0.59
2 -11 24 -1.09 0.58
3 -11 24 -0.34 0.62
3 -11 24 -0.51 0.62
-3 -10 24 9.78 1.07
-3 -10 24 8.97 1.21
-2 -10 24 0.36 0.71
-2 -10 24 -0.27 0.55
-1 -10 24 0.28 0.65
-1 -10 24 0.67 0.57
0 -10 24 -0.36 0.6
0 -10 24 -0.47 0.55
1 -10 24 8.41 1.06
1 -10 24 9.42 1
2 -10 24 -0.78 0.59
2 -10 24 -0.03 0.59
3 -10 24 -0.91 0.6
3 -10 24 -0.67 0.6
-3 -9 24 -0.57 0.58
-3 -9 24 0.31 0.68
-2 -9 24 0.99 0.75
-2 -9 24 1.58 0.58
-1 -9 24 -0.02 0.64
-1 -9 24 0.33 0.55
0 -9 24 0.97 0.57
0 -9 24 0.63 0.64
1 -9 24 0.55 0.58
1 -9 24 -0.65 0.59
2 -9 24 -0.42 0.59
2 -9 24 0.08 0.57
3 -9 24 -0.48 0.63
3 -9 24 0 0.6
4 -9 24 -0.35 0.6
4 -9 24 -0.93 0.63
-4 -8 24 1.33 0.71
-4 -8 24 0.27 0.62
-3 -8 24 2.81 0.78
-3 -8 24 2.82 0.65
-2 -8 24 3.47 0.63
-2 -8 24 3.28 0.78
-1 -8 24 9.82 1.18
-1 -8 24 10.94 1
0 -8 24 0.7 0.56
0 -8 24 0.81 0.64
1 -8 24 0.99 0.58
1 -8 24 0.4 0.62
2 -8 24 -0.99 0.6
2 -8 24 0.29 0.56
3 -8 24 6.4 1.05
3 -8 24 6.57 0.93
4 -8 24 0.1 0.68
4 -8 24 -1.21 0.58
-4 -7 24 1.85 0.63
-4 -7 24 0.53 0.7
-3 -7 24 2.18 0.78
-3 -7 24 2.63 0.61
-2 -7 24 0.32 0.54
-2 -7 24 0.08 0.66
-1 -7 24 7.96 0.9
-1 -7 24 6.08 1.06
0 -7 24 1.74 0.57
0 -7 24 1.98 0.66
1 -7 24 1.39 0.66
1 -7 24 0.87 0.57
2 -7 24 1.66 0.69
2 -7 24 1.33 0.58
3 -7 24 1.66 0.6
3 -7 24 1.99 0.71
4 -7 24 1.18 0.72
4 -7 24 1.73 0.59
-4 -6 24 6.27 1.15
-4 -6 24 5.35 0.92
-3 -6 24 1.98 0.73
-3 -6 24 2.49 0.6
-2 -6 24 0.87 0.67
-2 -6 24 0.68 0.56
-1 -6 24 3.86 0.62
-1 -6 24 3.02 0.73
0 -6 24 6.53 0.86
0 -6 24 6.06 1
1 -6 24 1.9 0.69
1 -6 24 1.93 0.57
2 -6 24 2.08 0.72
2 -6 24 2.06 0.59
3 -6 24 -0.31 0.56
3 -6 24 0.16 0.67
4 -6 24 0.99 0.74
4 -6 24 1.07 0.55
-5 -5 24 -0.1 0.62
-4 -5 24 0.31 0.59
-4 -5 24 0.04 0.71
-3 -5 24 0.64 0.55
-3 -5 24 0.94 0.68
-2 -5 24 -0.23 0.52
-2 -5 24 -0.16 0.64
-1 -5 24 2.3 0.69
-1 -5 24 2.21 0.55
0 -5 24 0.68 0.62
0 -5 24 0.69 0.52
1 -5 24 -0.03 0.44
1 -5 24 -0.22 0.64
2 -5 24 -0.1 0.66
2 -5 24 -0.38 0.45
3 -5 24 0.32 0.68
-5 -4 24 1.23 0.65
-4 -4 24 0.01 0.68
-4 -4 24 -0.1 0.57
-3 -4 24 2.65 0.58
-3 -4 24 2.07 0.72
-2 -4 24 1.11 0.43
-2 -4 24 0.4 0.64
-1 -4 24 -0.21 0.37
-1 -4 24 -0.45 0.6
0 -4 24 6.49 1.04
1 -4 24 -0.21 0.65
2 -4 24 -0.18 0.65
3 -4 24 1.37 0.74
-5 -3 24 6.83 0.9
-4 -3 24 1.68 0.72
-3 -3 24 0.34 0.65
-2 -3 24 1.16 0.64
-1 -3 24 -0.41 0.36
-1 -3 24 0.53 0.64
0 -3 24 -0.64 0.63
1 -3 24 4.67 0.82
2 -3 24 1.85 0.74
3 -3 24 0.33 0.72
-4 -2 24 0.1 0.67
-3 -2 24 0.69 0.67
-2 -2 24 1.45 0.66
-1 -2 24 -0.01 0.64
0 -2 24 0.15 0.64
1 -2 24 1.08 0.66
2 -2 24 -0.1 0.69
-4 -1 24 7.93 1.17
-3 -1 24 0.29 0.63
-2 -1 24 1.32 0.68
-1 -1 24 1.78 0.71
0 -1 24 3.51 0.77
1 -1 24 -0.52 0.65
-4 0 24 -0.56 0.67
-3 0 24 -0.93 0.61
-2 0 24 7.78 1.14
-1 0 24 2.57 0.73
0 0 24 1.26 0.68
-3 1 24 -0.26 0.71
-2 1 24 -0.51 0.68
-1 1 24 0.99 0.72
-1 -10 25 0.17 0.68
-1 -10 25 0.14 0.58
0 -10 25 -0.18 0.65
0 -10 25 -0.16 0.59
1 -10 25 -0.16 0.63
1 -10 25 0.19 0.6
-2 -9 25 2 0.77
-2 -9 25 1.42 0.62
-1 -9 25 1.22 0.6
-1 -9 25 1.44 0.72
0 -9 25 0.1 0.64
0 -9 25 -0.19 0.58
1 -9 25 1.17 0.66
1 -9 25 0.59 0.6
2 -9 25 1.82 0.62
2 -9 25 0.63 0.67
-2 -8 25 0.25 0.59
-2 -8 25 0.45 0.73
-1 -8 25 0 0.66
-1 -8 25 1.19 0.6
0 -8 25 9.8 1.17
0 -8 25 9.87 1.01
1 -8 25 -0.25 0.65
1 -8 25 -1.08 0.57
2 -8 25 10.09 1.2
2 -8 25 10.32 1.07
-3 -7 25 1.96 0.77
-3 -7 25 2.53 0.64
-2 -7 25 0.18 0.57
-2 -7 25 0.8 0.7
-1 -7 25 0.12 0.68
-1 -7 25 0.48 0.56
0 -7 25 2.67 0.64
0 -7 25 3.52 0.76
1 -7 25 -0.1 0.57
1 -7 25 -0.35 0.64
2 -7 25 -0.16 0.66
2 -7 25 -0.8 0.56
-3 -6 25 1.47 0.75
-3 -6 25 0.33 0.59
-2 -6 25 -0.01 0.66
-2 -6 25 2.03 0.59
-1 -6 25 2.99 0.75
-1 -6 25 2.92 0.62
0 -6 25 -0.44 0.64
0 -6 25 -0.35 0.54
1 -6 25 4.16 0.65
1 -6 25 2.84 0.77
2 -6 25 0.33 0.55
2 -6 25 -0.06 0.68
-3 -5 25 -0.26 0.56
-3 -5 25 0.47 0.71
-2 -5 25 2.73 0.61
-2 -5 25 2.8 0.77
-1 -5 25 3.85 0.77
-1 -5 25 2.79 0.56
0 -5 25 1.34 0.71
0 -5 25 0.15 0.45
1 -5 25 2.78 0.77
2 -5 25 -0.11 0.67
-3 -4 25 2.51 0.51
-3 -4 25 3.04 0.78
-2 -4 25 -0.44 0.64
-1 -4 25 2.79 0.74
0 -4 25 1.38 0.7
1 -4 25 1.62 0.73
2 -4 25 -0.76 0.68
-3 -3 25 1.21 0.78
-2 -3 25 0.1 0.66
-1 -3 25 3.21 0.77
0 -3 25 0.6 0.7
1 -3 25 1 0.71
-2 -2 25 0.36 0.68
-1 -2 25 1.36 0.73
0 -2 25 3.29 0.85
