#------------------------------------------------------------------------------
#$Date: 2016-03-26 13:42:56 +0200 (Sat, 26 Mar 2016) $
#$Revision: 180233 $
#$URL: svn://www.crystallography.net/cod/cif/7/11/19/7111935.cif $
#------------------------------------------------------------------------------
#
# This file is available in the Crystallography Open Database (COD),
# http://www.crystallography.net/
#
# All data on this site have been placed in the public domain by the
# contributors.
#
data_7111935
loop_
_publ_author_name
'Dinesh G. (Dan) Patel'
'Ian M. Walton'
'Jordan M. Cox'
'Cody J. Gleason'
'David R. Butzer'
'Jason B. Benedict'
_publ_section_title
;
 Photoresponsive porous materials: the design and synthesis of
 photochromic diarylethene-based linkers and a metal-organic framework
;
_journal_name_full               Chem.Commun.
_journal_page_first              2653
_journal_paper_doi               10.1039/c3cc49666j
_journal_volume                  50
_journal_year                    2014
_chemical_formula_moiety         '0.13(C384 O104 Zn32)'
_chemical_formula_sum            'C48 H42 O13 Zn4'
_chemical_formula_weight         1088.30
_chemical_name_systematic
;
 ?
;
_space_group_crystal_system      cubic
_space_group_IT_number           225
_space_group_name_Hall           '-F 4 2 3'
_space_group_name_H-M_alt        'F m -3 m'
_symmetry_space_group_name_Hall  '-F 4 2 3'
_symmetry_space_group_name_H-M   'F m -3 m'
_atom_sites_solution_primary     direct
_audit_creation_date             2013-11-15
_audit_creation_method
;
Olex2 1.2
(compiled 2013.11.15 svn.r2834 for OlexSys, GUI svn.r4707)
;
_cell_angle_alpha                90
_cell_angle_beta                 90
_cell_angle_gamma                90
_cell_formula_units_Z            8
_cell_length_a                   34.250(19)
_cell_length_b                   34.250(19)
_cell_length_c                   34.250(19)
_cell_measurement_reflns_used    9168
_cell_measurement_temperature    90
_cell_measurement_theta_max      14.521
_cell_measurement_theta_min      2.378
_cell_volume                     40177(4)
_computing_data_reduction        'SAINT v8.27A (Bruker, 2012)'
_computing_molecular_graphics    'Olex2 (Dolomanov et al., 2009)'
_computing_publication_material  'Olex2 (Dolomanov et al., 2009)'
_computing_structure_refinement  'XL (Sheldrick, 2008)'
_computing_structure_solution    'ShelXS (Sheldrick, 2008)'
_diffrn_ambient_temperature      90.0
_diffrn_detector                 'Bruker APEX2 area detector'
_diffrn_detector_area_resol_mean 7.9
_diffrn_detector_type            'CCD area detector'
_diffrn_measured_fraction_theta_full 0.221
_diffrn_measured_fraction_theta_max 0.998
_diffrn_measurement_device       'three-circle diffractometer'
_diffrn_measurement_device_type  'Bruker SMART APEX2 area detector'
_diffrn_measurement_method       '\w and \f scans'
_diffrn_radiation_monochromator  'mirror optics'
_diffrn_radiation_probe          x-ray
_diffrn_radiation_type           MoK\a
_diffrn_radiation_wavelength     0.71073
_diffrn_reflns_av_R_equivalents  0.1136
_diffrn_reflns_av_unetI/netI     0.0168
_diffrn_reflns_Laue_measured_fraction_full 0.221
_diffrn_reflns_Laue_measured_fraction_max 0.998
_diffrn_reflns_limit_h_max       24
_diffrn_reflns_limit_h_min       -24
_diffrn_reflns_limit_k_max       24
_diffrn_reflns_limit_k_min       -24
_diffrn_reflns_limit_l_max       24
_diffrn_reflns_limit_l_min       -24
_diffrn_reflns_number            46698
_diffrn_reflns_point_group_measured_fraction_full 0.221
_diffrn_reflns_point_group_measured_fraction_max 0.998
_diffrn_reflns_theta_full        26.000
_diffrn_reflns_theta_max         14.723
_diffrn_reflns_theta_min         1.682
_diffrn_source                   'microfocus rotating anode'
_diffrn_source_type              'Incoatec I\ms'
_exptl_absorpt_coefficient_mu    0.487
_exptl_absorpt_correction_T_max  0.7438
_exptl_absorpt_correction_T_min  0.5712
_exptl_absorpt_correction_type   multi-scan
_exptl_absorpt_process_details
;
SADABS-2012/1 (Bruker,2012) was used for absorption correction.
wR2(int) was 0.1095 before and 0.0922 after correction.
The Ratio of minimum to maximum transmission is 0.7679.
The \l/2 correction factor is 0.0015.
;
_exptl_crystal_colour            'clear yellowish colourless'
_exptl_crystal_colour_lustre     clear
_exptl_crystal_colour_modifier   yellowish
_exptl_crystal_colour_primary    colourless
_exptl_crystal_density_diffrn    0.360
_exptl_crystal_description       block
_exptl_crystal_F_000             4432
_exptl_crystal_recrystallization_method
'Crystallized out of hydrothermal synthesis reaction in dimethylformamide'
_exptl_crystal_size_max          0.25
_exptl_crystal_size_mid          0.25
_exptl_crystal_size_min          0.25
_refine_diff_density_max         0.625
_refine_diff_density_min         -0.649
_refine_diff_density_rms         0.125
_refine_ls_extinction_coef       0.0005(3)
_refine_ls_extinction_expression Fc^*^=kFc[1+0.001xFc^2^\l^3^/sin(2\q)]^-1/4^
_refine_ls_extinction_method     SHELXL
_refine_ls_goodness_of_fit_ref   2.901
_refine_ls_hydrogen_treatment    undef
_refine_ls_matrix_type           full
_refine_ls_number_parameters     28
_refine_ls_number_reflns         444
_refine_ls_number_restraints     0
_refine_ls_restrained_S_all      2.901
_refine_ls_R_factor_all          0.2123
_refine_ls_R_factor_gt           0.1937
_refine_ls_shift/su_max          0.000
_refine_ls_shift/su_mean         0.000
_refine_ls_structure_factor_coef Fsqd
_refine_ls_weighting_details
'w=1/[\s^2^(Fo^2^)+(0.2000P)^2^] where P=(Fo^2^+2Fc^2^)/3'
_refine_ls_weighting_scheme      calc
_refine_ls_wR_factor_gt          0.5153
_refine_ls_wR_factor_ref         0.5539
_reflns_Friedel_coverage         0.000
_reflns_number_gt                364
_reflns_number_total             444
_reflns_threshold_expression     'I > 2\s(I)'
_iucr_refine_instructions_details
;
TITL IMW_061303_0m in Fm-3m #225
CELL 0.71073 34.2496 34.2496 34.2496 90 90 90
ZERR 8 0.0192 0.0192 0.0192 0 0 0
LATT 4
SYMM -Y,+X,+Z
SYMM -X,-Y,+Z
SYMM +Y,-X,+Z
SYMM +X,-Z,+Y
SYMM +X,-Y,-Z
SYMM +X,+Z,-Y
SYMM +Z,+Y,-X
SYMM -X,+Y,-Z
SYMM -Z,+Y,+X
SYMM +Z,+X,+Y
SYMM +Y,+Z,+X
SYMM -Y,-Z,+X
SYMM +Z,-X,-Y
SYMM -Y,+Z,-X
SYMM -Z,-X,+Y
SYMM -Z,+X,-Y
SYMM +Y,-Z,-X
SYMM +Y,+X,-Z
SYMM -Y,-X,-Z
SYMM -X,+Z,+Y
SYMM -X,-Z,-Y
SYMM +Z,-Y,+X
SYMM -Z,-Y,-X
 
SFAC C H O Zn
UNIT 384 336 104.00064 32.00064
 
L.S. 5
PLAN  10
TEMP -183.15
REM reset to Fm-3m #225
BOND
MORE -1
fmap 2
acta 52
CONF
REM <HKL>E:/frames/Ian/IMW_061303/work/IMW_061303_0m.hkl</HKL>
 
WGHT    0.200000
EXTI    0.000452
FVAR       0.02979
ZN1   4    0.282921    0.217079    0.217079    10.16667    0.10885    0.10885 =
         0.10885    0.00034   -0.00034   -0.00034
O1    3    0.250000    0.250000    0.250000    10.04167    0.11383    0.11383 =
         0.11383    0.00000    0.00000    0.00000
O2    3    0.272554    0.227446    0.162998    10.50000    0.14337    0.14337 =
         0.10649    0.01983   -0.01983   -0.00469
C3    1    0.271406    0.228594    0.083200    10.50000    0.25242
C2    1    0.250000    0.250000    0.100162    10.25000    0.18813
C1    1    0.250000    0.250000    0.144967    10.25000    0.11296
C5    1    0.250000    0.250000    0.019247    10.25000    0.17332
C4    1    0.273312    0.226688    0.047258    10.50000    0.23588
C6    1    0.307629    0.219644    0.027106    10.25000    0.18261
HKLF 4
 
REM  IMW_061303_0m in Fm-3m #225
REM R1 =  0.1937 for     364 Fo > 4sig(Fo)  and  0.2123 for all     444 data
REM     28 parameters refined using      0 restraints
 
END  
     
WGHT      0.2000      0.0000 

REM Highest difference peak  0.625,  deepest hole -0.649,  1-sigma level  0.125
Q1    1   0.4061  0.1769  0.0939  10.50000  0.05    0.62
Q2    1   0.4085  0.1890  0.0915  10.50000  0.05    0.62
Q3    1   0.3335  0.3335  0.1665  10.16667  0.05    0.53
Q4    1   0.2792  0.2792  0.1522  10.50000  0.05    0.45
Q5    1   0.2872  0.2128  0.1607  10.50000  0.05    0.43
Q6    1   0.3348  0.3348  0.0000  10.25000  0.05    0.42
Q7    1   0.3394  0.3270  0.0000  10.50000  0.05    0.41
Q8    1   0.2625  0.2779  0.0312  11.00000  0.05    0.36
Q9    1   0.2188  0.2188  0.1430  10.50000  0.05    0.35
Q10   1   0.2692  0.2692  0.0965  10.50000  0.05    0.35

REM The information below was added by Olex2.
REM
REM R1 = 0.1937 for 364 Fo > 4sig(Fo) and 0.2123 for all 46698 data
REM n/a parameters refined using n/a restraints
REM Highest difference peak 0.62, deepest hole -0.65
REM Mean Shift 0, Max Shift 0.

REM +++ Tabular Listing of Refinement Information +++
REM R1_all = 0.2123
REM R1_gt = 0.1937
REM wR_ref = 0.5539
REM GOOF = 2.901
REM Shift_max = 0
REM Shift_mean = 0
REM Reflections_all = 46698
REM Reflections_gt = 364
REM Parameters = n/a
REM Hole = -0.65
REM Peak = 0.62
REM Flack = n/a

;
_cod_data_source_file            c3cc49666j.txt
_cod_data_source_block           BMOF-1
_cod_original_cell_volume        40176(68)
_cod_database_code               7111935
#BEGIN Tags that were not found in dictionaries:
_shelxl_version_number           2013-3
_shelx_space_group_comment
;
The symmetry employed for this shelxl refinement is uniquely defined
by the following loop, which should always be used as a source of
symmetry information in preference to the above space-group names.
They are only intended as comments.
;
_olex2_refinement_description
;
1. Others
 Fixed Sof: C6(0.25)
;
#END Tags that were not found in dictionaries
loop_
_space_group_symop_operation_xyz
'x, y, z'
'-y, x, z'
'-x, -y, z'
'y, -x, z'
'x, -z, y'
'x, -y, -z'
'x, z, -y'
'z, y, -x'
'-x, y, -z'
'-z, y, x'
'z, x, y'
'y, z, x'
'-y, -z, x'
'z, -x, -y'
'-y, z, -x'
'-z, -x, y'
'-z, x, -y'
'y, -z, -x'
'y, x, -z'
'-y, -x, -z'
'-x, z, y'
'-x, -z, -y'
'z, -y, x'
'-z, -y, -x'
'x, y+1/2, z+1/2'
'-y, x+1/2, z+1/2'
'-x, -y+1/2, z+1/2'
'y, -x+1/2, z+1/2'
'x, -z+1/2, y+1/2'
'x, -y+1/2, -z+1/2'
'x, z+1/2, -y+1/2'
'z, y+1/2, -x+1/2'
'-x, y+1/2, -z+1/2'
'-z, y+1/2, x+1/2'
'z, x+1/2, y+1/2'
'y, z+1/2, x+1/2'
'-y, -z+1/2, x+1/2'
'z, -x+1/2, -y+1/2'
'-y, z+1/2, -x+1/2'
'-z, -x+1/2, y+1/2'
'-z, x+1/2, -y+1/2'
'y, -z+1/2, -x+1/2'
'y, x+1/2, -z+1/2'
'-y, -x+1/2, -z+1/2'
'-x, z+1/2, y+1/2'
'-x, -z+1/2, -y+1/2'
'z, -y+1/2, x+1/2'
'-z, -y+1/2, -x+1/2'
'x+1/2, y, z+1/2'
'-y+1/2, x, z+1/2'
'-x+1/2, -y, z+1/2'
'y+1/2, -x, z+1/2'
'x+1/2, -z, y+1/2'
'x+1/2, -y, -z+1/2'
'x+1/2, z, -y+1/2'
'z+1/2, y, -x+1/2'
'-x+1/2, y, -z+1/2'
'-z+1/2, y, x+1/2'
'z+1/2, x, y+1/2'
'y+1/2, z, x+1/2'
'-y+1/2, -z, x+1/2'
'z+1/2, -x, -y+1/2'
'-y+1/2, z, -x+1/2'
'-z+1/2, -x, y+1/2'
'-z+1/2, x, -y+1/2'
'y+1/2, -z, -x+1/2'
'y+1/2, x, -z+1/2'
'-y+1/2, -x, -z+1/2'
'-x+1/2, z, y+1/2'
'-x+1/2, -z, -y+1/2'
'z+1/2, -y, x+1/2'
'-z+1/2, -y, -x+1/2'
'x+1/2, y+1/2, z'
'-y+1/2, x+1/2, z'
'-x+1/2, -y+1/2, z'
'y+1/2, -x+1/2, z'
'x+1/2, -z+1/2, y'
'x+1/2, -y+1/2, -z'
'x+1/2, z+1/2, -y'
'z+1/2, y+1/2, -x'
'-x+1/2, y+1/2, -z'
'-z+1/2, y+1/2, x'
'z+1/2, x+1/2, y'
'y+1/2, z+1/2, x'
'-y+1/2, -z+1/2, x'
'z+1/2, -x+1/2, -y'
'-y+1/2, z+1/2, -x'
'-z+1/2, -x+1/2, y'
'-z+1/2, x+1/2, -y'
'y+1/2, -z+1/2, -x'
'y+1/2, x+1/2, -z'
'-y+1/2, -x+1/2, -z'
'-x+1/2, z+1/2, y'
'-x+1/2, -z+1/2, -y'
'z+1/2, -y+1/2, x'
'-z+1/2, -y+1/2, -x'
'-x, -y, -z'
'y, -x, -z'
'x, y, -z'
'-y, x, -z'
'-x, z, -y'
'-x, y, z'
'-x, -z, y'
'-z, -y, x'
'x, -y, z'
'z, -y, -x'
'-z, -x, -y'
'-y, -z, -x'
'y, z, -x'
'-z, x, y'
'y, -z, x'
'z, x, -y'
'z, -x, y'
'-y, z, x'
'-y, -x, z'
'y, x, z'
'x, -z, -y'
'x, z, y'
'-z, y, -x'
'z, y, x'
'-x, -y+1/2, -z+1/2'
'y, -x+1/2, -z+1/2'
'x, y+1/2, -z+1/2'
'-y, x+1/2, -z+1/2'
'-x, z+1/2, -y+1/2'
'-x, y+1/2, z+1/2'
'-x, -z+1/2, y+1/2'
'-z, -y+1/2, x+1/2'
'x, -y+1/2, z+1/2'
'z, -y+1/2, -x+1/2'
'-z, -x+1/2, -y+1/2'
'-y, -z+1/2, -x+1/2'
'y, z+1/2, -x+1/2'
'-z, x+1/2, y+1/2'
'y, -z+1/2, x+1/2'
'z, x+1/2, -y+1/2'
'z, -x+1/2, y+1/2'
'-y, z+1/2, x+1/2'
'-y, -x+1/2, z+1/2'
'y, x+1/2, z+1/2'
'x, -z+1/2, -y+1/2'
'x, z+1/2, y+1/2'
'-z, y+1/2, -x+1/2'
'z, y+1/2, x+1/2'
'-x+1/2, -y, -z+1/2'
'y+1/2, -x, -z+1/2'
'x+1/2, y, -z+1/2'
'-y+1/2, x, -z+1/2'
'-x+1/2, z, -y+1/2'
'-x+1/2, y, z+1/2'
'-x+1/2, -z, y+1/2'
'-z+1/2, -y, x+1/2'
'x+1/2, -y, z+1/2'
'z+1/2, -y, -x+1/2'
'-z+1/2, -x, -y+1/2'
'-y+1/2, -z, -x+1/2'
'y+1/2, z, -x+1/2'
'-z+1/2, x, y+1/2'
'y+1/2, -z, x+1/2'
'z+1/2, x, -y+1/2'
'z+1/2, -x, y+1/2'
'-y+1/2, z, x+1/2'
'-y+1/2, -x, z+1/2'
'y+1/2, x, z+1/2'
'x+1/2, -z, -y+1/2'
'x+1/2, z, y+1/2'
'-z+1/2, y, -x+1/2'
'z+1/2, y, x+1/2'
'-x+1/2, -y+1/2, -z'
'y+1/2, -x+1/2, -z'
'x+1/2, y+1/2, -z'
'-y+1/2, x+1/2, -z'
'-x+1/2, z+1/2, -y'
'-x+1/2, y+1/2, z'
'-x+1/2, -z+1/2, y'
'-z+1/2, -y+1/2, x'
'x+1/2, -y+1/2, z'
'z+1/2, -y+1/2, -x'
'-z+1/2, -x+1/2, -y'
'-y+1/2, -z+1/2, -x'
'y+1/2, z+1/2, -x'
'-z+1/2, x+1/2, y'
'y+1/2, -z+1/2, x'
'z+1/2, x+1/2, -y'
'z+1/2, -x+1/2, y'
'-y+1/2, z+1/2, x'
'-y+1/2, -x+1/2, z'
'y+1/2, x+1/2, z'
'x+1/2, -z+1/2, -y'
'x+1/2, z+1/2, y'
'-z+1/2, y+1/2, -x'
'z+1/2, y+1/2, x'
loop_
_atom_site_label
_atom_site_type_symbol
_atom_site_fract_x
_atom_site_fract_y
_atom_site_fract_z
_atom_site_U_iso_or_equiv
_atom_site_adp_type
_atom_site_occupancy
_atom_site_site_symmetry_order
_atom_site_calc_flag
_atom_site_refinement_flags_posn
_atom_site_refinement_flags_adp
_atom_site_refinement_flags_occupancy
Zn1 Zn 0.28292(11) 0.21708(11) 0.21708(11) 0.109(7) Uani 1 6 d S T P
O1 O 0.2500 0.2500 0.2500 0.11(2) Uani 1 24 d S T P
O2 O 0.2726(5) 0.2274(5) 0.1630(6) 0.131(10) Uani 1 2 d S T P
C3 C 0.2714(16) 0.2286(16) 0.083(2) 0.25(3) Uiso 1 2 d S T P
C2 C 0.2500 0.2500 0.100(3) 0.19(3) Uiso 1 4 d S T P
C1 C 0.2500 0.2500 0.145(2) 0.113(19) Uiso 1 4 d S T P
C5 C 0.2500 0.2500 0.0192(12) 0.17(2) Uiso 1 4 d S T P
C4 C 0.2733(13) 0.2267(13) 0.047(2) 0.24(2) Uiso 1 2 d S T P
C6 C 0.308(4) 0.220(3) 0.027(3) 0.18(5) Uiso 0.25 1 d . . P
loop_
_atom_site_aniso_label
_atom_site_aniso_U_11
_atom_site_aniso_U_22
_atom_site_aniso_U_33
_atom_site_aniso_U_23
_atom_site_aniso_U_13
_atom_site_aniso_U_12
Zn1 0.109(7) 0.109(7) 0.109(7) 0.000(2) 0.000(2) 0.000(2)
O1 0.11(2) 0.11(2) 0.11(2) 0.000 0.000 0.000
O2 0.143(13) 0.143(13) 0.11(2) 0.020(11) -0.020(11) -0.005(14)
loop_
_atom_type_symbol
_atom_type_description
_atom_type_scat_dispersion_real
_atom_type_scat_dispersion_imag
_atom_type_scat_source
C C 0.0033 0.0016 'International Tables Vol C Tables 4.2.6.8 and 6.1.1.4'
H H 0.0000 0.0000 'International Tables Vol C Tables 4.2.6.8 and 6.1.1.4'
O O 0.0106 0.0060 'International Tables Vol C Tables 4.2.6.8 and 6.1.1.4'
Zn Zn 0.2839 1.4301 'International Tables Vol C Tables 4.2.6.8 and 6.1.1.4'
loop_
_geom_angle_atom_site_label_1
_geom_angle_atom_site_label_2
_geom_angle_atom_site_label_3
_geom_angle
_geom_angle_site_symmetry_1
_geom_angle_site_symmetry_3
O2 Zn1 O1 110.1(8) 88 .
O2 Zn1 O1 110.1(8) 63 .
O2 Zn1 O1 110.1(8) . .
O2 Zn1 O2 108.8(8) 88 63
O2 Zn1 O2 108.8(8) 88 .
O2 Zn1 O2 108.8(8) 63 .
Zn1 O1 Zn1 109.5 . 75
Zn1 O1 Zn1 109.471(1) 148 75
Zn1 O1 Zn1 109.5 122 75
Zn1 O1 Zn1 109.471(2) . 148
Zn1 O1 Zn1 109.471(1) . 122
Zn1 O1 Zn1 109.5 148 122
C1 O2 Zn1 135(4) . .
C2 C3 C4 124(10) . .
C3 C2 C3 121(10) 75 .
C3 C2 C1 119(6) . .
C3 C2 C1 119(7) 75 .
O2 C1 O2 121(6) . 75
O2 C1 C2 119(3) 75 .
O2 C1 C2 119(3) . .
C5 C5 C4 130(4) 169 75
C5 C5 C4 130(4) 169 .
C4 C5 C4 99(7) . 75
C3 C4 C5 126(8) . .
C3 C4 C6 123(7) . 187
C3 C4 C6 123(7) . .
C6 C4 C5 103(6) 187 .
C6 C4 C5 103(6) . .
C6 C4 C6 57(8) . 187
C4 C6 C6 120(5) . 99
C6 C6 C4 62(4) 187 .
C6 C6 C6 89.996(13) 187 99
loop_
_geom_bond_atom_site_label_1
_geom_bond_atom_site_label_2
_geom_bond_distance
_geom_bond_site_symmetry_2
Zn1 O1 1.953(6) .
Zn1 O2 1.92(2) .
Zn1 O2 1.92(2) 88
Zn1 O2 1.92(2) 63
O1 Zn1 1.953(6) 75
O1 Zn1 1.953(6) 122
O1 Zn1 1.953(6) 148
O2 C1 1.25(3) .
C3 C2 1.19(7) .
C3 C4 1.23(7) .
C2 C3 1.19(7) 75
C2 C1 1.53(6) .
C1 O2 1.26(3) 75
C5 C5 1.32(8) 169
C5 C4 1.48(5) 75
C5 C4 1.48(5) .
C4 C6 1.38(12) 187
C4 C6 1.38(12) .
C6 C6 1.9(2) 99
C6 C6 1.3(2) 187
loop_
_geom_torsion_atom_site_label_1
_geom_torsion_atom_site_label_2
_geom_torsion_atom_site_label_3
_geom_torsion_atom_site_label_4
_geom_torsion
_geom_torsion_site_symmetry_1
_geom_torsion_site_symmetry_4
Zn1 O2 C1 O2 0.000(11) . 75
Zn1 O2 C1 C2 180.000(7) . .
C3 C2 C1 O2 180.000(6) . 75
C3 C2 C1 O2 0.000(5) . .
C3 C2 C1 O2 180.000(6) 75 .
C3 C2 C1 O2 0.000(6) 75 75
C3 C4 C6 C6 -177(4) . 99
C3 C4 C6 C6 111(6) . 187
C2 C3 C4 C5 -0.001(12) . .
C2 C3 C4 C6 145(6) . .
C2 C3 C4 C6 -145(6) . 187
C5 C5 C4 C3 180.000(7) 169 .
C5 C5 C4 C6 -29(4) 169 187
C5 C5 C4 C6 29(4) 169 .
C5 C4 C6 C6 -26(4) . 99
C5 C4 C6 C6 -97(4) . 187
C4 C3 C2 C3 0.000(12) . 75
C4 C3 C2 C1 180.000(6) . .
C4 C5 C4 C3 0.000(8) 75 .
C4 C5 C4 C6 151(4) 75 187
C4 C5 C4 C6 -151(4) 75 .
C6 C4 C6 C6 72(4) 187 99
loop_
_refln_index_h
_refln_index_k
_refln_index_l
_refln_F_squared_meas
_refln_F_squared_sigma
-2 -2 0 573.52 44.98
-2 -2 0 550.89 48.22
-2 -2 0 602.86 49.14
-2 0 -2 535.59 44.22
-2 0 2 586.62 45.01
-2 0 2 547.49 44.2
-2 0 2 485.29 48.28
-2 0 2 597.47 49.19
-2 2 0 503.1 44.93
-2 2 0 614.82 48.23
-2 2 0 645.65 48.35
-2 2 0 590.51 49.18
0 -2 -2 562.47 44.98
0 -2 -2 634.23 48.34
0 -2 -2 600.12 49.15
0 -2 2 504.25 48.2
0 -2 2 591.02 48.31
0 -2 2 551.65 49.18
0 2 -2 502.03 44.2
0 2 -2 489.53 48.2
0 2 -2 596.55 49.2
0 2 2 597.93 44.99
0 2 2 635.89 48.19
0 2 2 638.87 48.34
2 -2 0 627.82 48.34
2 -2 0 563.19 49.17
2 0 -2 545.72 44.99
2 0 -2 545.7 44.19
2 0 2 562.44 44.24
2 0 2 608.08 48.24
2 2 0 597.57 45
2 2 0 542.72 44.2
2 2 0 569.8 48.22
-2 -2 -2 63.05 5.66
-2 -2 -2 70.46 5.6
-2 -2 -2 80.8 6.13
2 -2 2 69.51 6.26
2 2 -2 67.25 5.59
2 2 -2 65.25 6.05
-2 2 2 74.23 6.35
-2 2 2 73.2 6.1
2 -2 2 70.9 6.18
-2 2 2 64.24 5.72
-2 2 -2 71.32 6.29
-2 2 -2 64.69 6.13
-2 2 -2 61.68 5.58
2 -2 -2 62.14 5.71
2 -2 -2 77.53 6.14
2 -2 -2 72.52 6.3
-2 -2 2 73 6.33
-2 -2 2 65.83 5.68
-2 -2 2 67.28 5.63
-2 -2 2 67.51 6.07
2 2 2 68.69 5.7
2 2 2 69.73 5.64
2 2 2 83.58 6.14
-3 -1 -1 26.52 2.43
-3 -1 -1 23.22 2.5
-3 -1 -1 27.4 2.87
-3 -1 -1 26.39 2.7
-1 3 1 24.05 2.44
1 -1 3 25.53 2.59
1 -1 3 26.6 2.69
1 -1 3 31.44 2.77
1 -1 3 30.8 2.87
1 1 -3 25.33 2.51
1 1 -3 25.19 2.46
3 -1 1 26.3 2.8
3 -1 1 28.55 2.75
-3 1 1 25.76 2.56
-3 1 1 27.26 2.43
-3 1 1 22.88 2.69
-3 1 1 25.69 2.61
-3 1 1 23.88 2.87
-1 -3 -1 23.46 2.47
-1 -3 -1 30.22 2.59
-1 -3 -1 28.55 2.69
1 -3 1 29.93 2.61
1 -3 1 27.83 2.87
1 1 -3 26.4 2.97
-1 -1 -3 25.85 2.44
-1 -1 -3 27.55 2.48
-1 -1 -3 30.12 2.82
-1 -1 -3 31 2.75
3 -1 1 21.21 2.67
3 1 -1 31.27 2.49
3 1 -1 24.75 2.44
3 1 -1 24.68 2.68
-1 3 1 33.7 2.65
1 -3 1 26.65 2.75
-1 3 1 29.34 2.92
-1 1 3 26.01 2.58
-1 1 3 26.85 2.42
-1 1 3 26.14 2.6
-1 1 3 28.37 2.91
1 3 -1 25.04 2.64
-1 3 1 27.82 2.59
1 3 -1 25.68 2.49
1 3 -1 26.62 2.36
-1 3 -1 26.9 2.65
-1 1 -3 22.9 2.5
-1 1 -3 29.38 2.88
1 -3 -1 24.76 2.43
1 -3 -1 31.09 2.69
1 -3 -1 25.52 2.76
-1 3 -1 25.25 2.93
-3 -1 1 26.23 2.47
-1 3 -1 25.1 2.3
1 -1 -3 25.7 2.54
1 -1 -3 24.76 2.4
1 -1 -3 32 3.03
-3 -1 1 25.15 2.52
-3 -1 1 24.91 2.73
-3 -1 1 27.04 2.8
-3 1 -1 24.27 2.29
-3 1 -1 21.6 2.45
-3 1 -1 29.87 2.92
-1 -3 1 27.3 2.85
1 1 3 29.13 2.54
1 1 3 29.26 2.6
1 1 3 30.59 2.72
-1 1 -3 24.36 2.65
-1 -3 1 25.19 2.45
-1 -3 1 25.86 2.75
1 3 1 23.64 2.49
1 3 1 32.6 2.66
1 3 1 29.55 2.57
3 -1 -1 23.87 2.53
3 -1 -1 25.65 2.4
3 -1 -1 26.37 2.71
3 -1 -1 23.82 2.58
3 -1 -1 25.77 2.79
-3 1 -1 31.01 2.84
-3 1 -1 26.53 2.67
-1 -1 3 25.08 2.54
-1 -1 3 27.28 2.56
-1 -1 3 28.06 2.93
-1 1 -3 24.52 2.34
3 1 1 27.21 2.76
3 1 1 30.55 2.73
-3 -3 -1 23.55 2.51
-3 -3 -1 22.45 2.46
-3 -3 -1 20.56 2.86
-3 -3 -1 21.18 2.49
1 3 -3 20.75 2.47
1 3 -3 20.48 2.6
1 3 -3 21.97 3.14
3 -1 3 19.1 2.62
-3 -1 -3 19.81 2.34
-3 -1 -3 21.16 2.61
-3 -1 -3 27.97 2.9
-3 -1 -3 30.78 2.95
3 1 -3 21.52 2.51
3 1 -3 22.88 3.17
1 -3 3 22.67 2.77
3 -3 1 19.73 2.31
3 -3 1 23.47 2.9
3 3 -1 23.46 2.55
3 3 -1 24.52 2.53
-3 1 3 24.1 2.71
-3 1 3 21.06 2.36
-3 1 3 19.78 2.5
-3 1 3 25.07 3.15
3 -1 3 22.87 2.92
3 -1 3 27.11 3.05
3 -1 3 20.24 2.74
3 1 -3 25.25 2.69
-3 3 1 18.19 2.44
-3 3 1 24.57 2.66
-3 3 1 27.33 2.71
-3 3 1 23.53 2.94
-1 -3 -3 24.98 2.5
-1 -3 -3 27.51 2.38
-1 -3 -3 26.47 2.7
-1 -3 -3 24.95 2.66
1 -3 3 22.11 3.07
3 -3 1 26.73 2.81
3 -3 1 21.78 2.87
1 -3 3 20.14 2.71
3 3 -1 22.82 2.7
1 -3 3 19.99 2.44
-1 3 3 23.36 2.54
-1 3 3 19.87 2.58
-1 3 3 29.31 2.64
-1 -3 3 20.95 2.51
1 -3 -3 26.12 2.72
1 -3 -3 19.33 2.92
-1 3 -3 19.7 3.08
-1 3 -3 20.88 2.65
-3 -1 3 23.88 3.19
-1 -3 3 21.22 2.6
-3 -3 1 23.18 2.6
1 -3 -3 21.34 2.56
-3 -3 1 21.77 2.77
1 3 3 26.1 2.53
1 3 3 24.58 2.39
1 3 3 26.12 2.58
1 3 3 25.37 2.72
1 3 3 23.56 2.62
3 -3 -1 20.47 2.44
3 -3 -1 20.46 2.92
-3 1 -3 21.49 2.55
-3 1 -3 25.94 3
-1 -3 3 23.43 3.19
-1 3 -3 20.94 2.43
3 -1 -3 24.51 2.66
3 -1 -3 24.24 2.39
-3 -3 1 25.56 2.9
-3 3 -1 17.69 2.29
-3 3 -1 24.99 2.79
-3 3 -1 28.36 2.82
-3 3 -1 23.82 2.91
-3 -1 3 22.63 2.77
-3 -1 3 22.47 2.52
3 1 3 23.83 2.62
3 1 3 26.02 2.84
3 1 3 29.42 3.02
-3 1 -3 27.8 3.05
-3 1 -3 19.89 2.66
-3 -3 1 23.06 2.54
-1 -3 3 24.8 2.41
3 3 1 24.68 2.54
3 3 1 21.94 2.53
3 3 1 22.84 2.81
3 3 1 22.78 2.53
-3 -3 -3 47.08 4.11
-3 -3 -3 46.7 4.14
-3 -3 -3 46.16 4.56
-3 -3 -3 49.63 4.48
3 -3 3 41.23 4.6
3 -3 3 49.95 4.64
3 -3 3 41.35 4.76
3 3 -3 43.24 4.1
3 3 -3 41.64 4.32
3 3 -3 41.9 4.75
-3 3 3 48.66 4.83
3 -3 3 38.59 4.02
-3 3 3 48 4.2
-3 3 3 47.54 4.41
-3 3 -3 51.42 4.68
3 -3 -3 46.75 4.2
3 -3 -3 41.32 4.2
3 -3 -3 49.33 4.44
3 -3 -3 42.31 4.73
-3 3 -3 36.59 4.62
-3 -3 3 49.63 4.15
-3 -3 3 42.73 4.13
-3 -3 3 38.05 4.29
-3 -3 3 48.14 4.89
-3 3 -3 41.86 4.1
-3 3 -3 40.56 4.56
3 3 3 45.56 4.15
3 3 3 49.51 4.13
3 3 3 49.23 4.53
3 3 3 52.67 4.48
-4 0 0 880.63 70.78
-4 0 0 858.35 69.6
-4 0 0 893.05 75.93
-4 0 0 930.78 76.07
-4 0 0 848.64 77.35
0 -4 0 881.02 75.91
0 -4 0 944.84 76.07
0 -4 0 896.16 77.41
0 0 -4 860.79 70.79
0 0 -4 864.89 69.6
0 0 -4 942.01 76.09
0 0 -4 1000 77.44
0 0 4 873.53 69.6
0 0 4 955.95 76.1
0 0 4 995.8 77.44
0 4 0 908.73 75.91
0 4 0 943.86 76.06
0 4 0 840.12 77.4
4 0 0 843.91 69.6
4 0 0 911.18 75.93
4 0 0 942.33 76.07
4 0 0 838.01 77.35
2 0 4 455.93 38.97
2 0 4 478.32 38.39
2 0 4 484.18 41.82
2 0 4 566.06 42.63
4 -2 0 491.57 38.98
4 -2 0 533.56 41.95
4 -2 0 469.5 42.64
4 2 0 504.03 39.03
4 2 0 482.8 38.37
4 2 0 501.74 41.86
0 4 -2 487.56 41.87
0 4 -2 496.73 42.69
0 4 2 481.76 39.02
0 4 2 556.92 41.83
0 4 2 429.02 42.62
2 0 -4 494.61 39.05
2 0 -4 476.77 38.35
2 0 -4 530.69 42.74
0 -4 2 475.42 41.84
0 -4 2 444.07 41.88
0 -4 2 518.35 42.72
0 4 -2 488.54 38.97
0 4 -2 476.73 38.32
0 4 -2 446.55 41.82
-2 0 4 542.86 42.76
0 -4 -2 466.97 39.01
0 -4 -2 567.85 41.94
0 -4 -2 498.38 42.65
0 -4 2 432.28 38.96
-2 0 4 488.9 39.05
-2 0 4 478.61 38.35
-2 0 4 484.79 41.88
-2 0 -4 484.9 38.39
-2 0 -4 558.92 42
-2 0 -4 560.39 42.62
-4 2 0 481.03 42.64
-2 0 -4 465.35 38.97
-4 2 0 523.2 41.87
-4 2 0 545.29 41.95
-4 2 0 508 38.99
-4 2 0 477.18 38.33
-4 -2 0 495.73 38.39
-4 -2 0 480.64 41.86
-4 -2 0 531.44 39.05
4 0 2 442.61 38.47
4 0 2 513.48 41.98
4 0 -2 480.18 42.78
4 0 2 484.66 39.06
4 0 -2 479.87 38.43
4 0 -2 503.64 41.91
2 4 0 515.39 41.94
4 0 -2 508.4 39.15
2 -4 0 550.25 42.03
2 -4 0 489.59 42.78
2 4 0 476.12 39.1
2 4 0 502.15 38.41
0 2 4 537.07 42.78
2 -4 0 421.49 39.04
2 -4 0 549.43 41.95
0 2 -4 487.53 38.46
0 2 -4 436.47 41.86
0 2 -4 520.78 42.8
0 2 4 491.12 39.12
0 2 4 516.49 38.42
0 2 4 529.67 42.04
0 -2 4 505.67 39.08
0 -2 4 464.45 38.46
0 -2 4 459.39 41.87
0 -2 4 537.2 42.04
0 -2 4 511.91 42.8
0 2 -4 511.47 39.08
-2 -4 0 490.46 41.94
-2 -4 0 525.36 42.75
-2 4 0 538.14 41.94
-2 4 0 557.54 42.03
-2 4 0 496.83 42.78
0 -2 -4 495.46 39.12
0 -2 -4 511.23 38.42
0 -2 -4 532.69 42.04
-4 0 -2 470.48 39.05
-4 0 -2 461.41 38.46
-4 0 -2 524.65 41.99
-4 0 2 475.71 39.14
-4 0 2 474.77 38.43
-4 0 2 497.25 41.9
-4 0 2 428.72 41.97
-4 0 2 450.6 41.95
-4 0 2 546.28 42.81
-2 -4 0 486.72 39.11
-4 -2 -2 149.82 12.49
-4 -2 -2 151.72 12.37
-4 -2 -2 158.59 13.53
-4 -2 -2 173.13 13.47
2 4 -2 160.47 12.3
2 4 -2 151.16 13.41
2 4 -2 163.38 13.8
2 -2 4 142.27 12.37
2 -2 4 150.97 13.44
2 -2 4 175.68 13.57
2 -2 4 161.37 13.77
2 2 -4 147.65 12.54
-4 2 2 145.83 12.55
-4 2 2 158.44 12.23
-4 2 2 169.24 13.4
-4 2 2 160.02 13.45
-4 2 2 152.6 13.76
-2 -4 -2 153.56 12.53
-2 -4 -2 160.12 12.27
-2 -4 -2 171.65 13.46
-2 -4 -2 169.61 13.41
2 -4 2 132.63 12.23
2 -4 2 149.53 13.45
2 -4 2 173.92 13.49
2 2 -4 152.19 12.33
-2 -2 -4 149.66 12.5
-2 -2 -4 156.31 12.32
-2 -2 -4 163.64 13.5
4 -2 2 137.53 12.3
4 -2 2 179.4 13.57
4 -2 2 139.11 13.66
4 2 -2 147.66 12.32
4 2 -2 145.57 13.4
-2 4 2 176.66 13.46
2 2 -4 154.66 13.81
-2 2 4 157.89 12.58
-2 2 4 149.58 12.23
-2 2 4 156.72 13.43
-2 2 4 153.94 13.78
2 4 -2 154.56 12.5
-2 4 2 151.72 13.75
2 -4 2 165.45 13.82
-2 4 2 172.31 13.36
-2 4 2 138.96 12.49
-2 4 -2 157.32 13.77
-2 2 -4 177.7 13.57
-2 4 -2 155.41 13.44
2 -4 -2 140.38 12.51
2 -4 -2 178.34 13.5
2 -4 -2 150.54 13.74
-2 -4 2 155.61 12.53
-2 -4 2 154.42 12.31
-2 -4 2 139.17 13.4
-2 4 -2 177.59 13.48
2 -2 -4 147.54 12.58
2 -2 -4 151.01 12.23
2 -2 -4 159.58 13.46
-4 -2 2 157.46 13.75
-4 2 -2 142.09 12.31
-4 2 -2 157.78 13.52
-4 2 -2 184.77 13.6
-4 2 -2 136.74 13.64
-2 -4 2 159.68 13.83
-2 2 -4 163.58 13.75
2 2 4 149.66 12.5
2 2 4 166.78 12.35
2 2 4 171.3 13.42
2 2 4 175.51 13.51
-2 4 -2 152.21 12.26
-4 -2 2 154.47 12.54
-4 -2 2 142.71 12.32
-4 -2 2 143.18 13.4
2 4 2 150.72 12.52
2 4 2 171.92 13.43
2 4 2 170.03 13.41
4 -2 -2 148.24 12.54
4 -2 -2 154.41 12.23
4 -2 -2 150.45 13.74
-2 -2 4 159.31 12.57
-2 -2 4 150.27 12.34
-2 -2 4 156.61 13.84
-2 2 -4 151.77 12.35
-2 2 -4 145.73 13.42
4 2 2 153.36 12.5
4 2 2 150.65 12.35
4 2 2 164.73 13.49
-4 -4 0 505.76 38.73
-4 -4 0 463.31 38.04
-4 -4 0 460.46 41.51
-4 0 -4 463.14 38.08
-4 0 -4 526.03 41.56
-4 0 -4 542.51 41.68
-4 0 4 492.01 38.77
-4 0 4 482.45 38.04
-4 0 4 426.61 41.5
-4 0 4 482.21 42.41
-4 4 0 444.97 38.62
-4 4 0 525.69 41.52
-4 4 0 549.39 41.62
-4 4 0 496.54 42.35
0 -4 -4 520.11 38.74
0 -4 -4 544.62 41.44
0 -4 -4 530.31 41.61
0 -4 -4 503.53 42.32
0 -4 4 484.21 38.64
0 -4 4 475.4 38.65
0 -4 4 478.96 38.06
0 -4 4 435.22 41.46
0 -4 4 482.52 41.57
0 -4 4 502.95 42.42
0 4 -4 477.35 38.04
0 4 -4 430.24 41.45
0 4 -4 491.56 41.56
0 4 -4 512.91 42.4
0 4 4 519.86 38.74
0 4 4 561.02 41.45
0 4 4 538.82 41.61
4 -4 0 420.04 38.62
4 -4 0 503.07 41.53
4 -4 0 548.56 41.62
4 -4 0 467.83 42.33
4 0 -4 476.65 38.76
4 0 -4 476.97 38.03
4 0 -4 428.48 41.51
4 0 -4 490.61 42.4
4 0 4 434.27 38.62
4 0 4 461.38 38.1
4 0 4 510.06 41.54
4 0 4 559.48 41.69
4 4 0 523.48 38.74
4 4 0 497.44 38.06
4 4 0 481.54 41.52
-4 -4 -2 45.77 4.35
-4 -4 -2 43.65 4.33
-4 -4 -2 47.01 4.79
-4 -4 -2 45.51 4.47
4 -2 4 38.06 4.41
4 -2 4 51.33 5.01
4 -2 4 38.74 4.85
4 2 -4 45.69 4.55
-4 -2 -4 44.75 4.21
-4 -2 -4 47.56 4.36
-4 -2 -4 50.85 4.82
-4 -2 -4 56.32 4.81
4 -4 2 44.9 4.82
4 -4 2 52.67 4.78
4 4 -2 45.24 4.28
4 4 -2 42.23 4.24
4 4 -2 39.85 4.59
-4 2 4 49.75 4.48
-4 2 4 47.15 4.01
-4 2 4 44.97 4.48
-4 2 4 47.7 5.07
4 2 -4 44.24 4.31
4 2 -4 44.15 4.41
4 2 -4 45.88 5.19
2 4 -4 49.35 5.13
-4 4 2 44.48 4.31
-4 4 2 47.52 4.52
-4 4 2 52.19 4.64
-4 4 2 43 4.94
-2 -4 -4 49.85 4.36
-2 -4 -4 48.29 4.2
-2 -4 -4 43.22 4.58
2 -4 4 45.57 4.87
4 -4 2 40.35 4.94
2 4 -4 38.74 4.25
2 4 -4 38.83 4.54
2 -4 4 40.52 4.66
2 -4 4 41.44 5.3
2 -4 4 42.2 4.31
-2 4 4 43.13 5.05
-2 4 4 45.12 4.33
-2 4 4 51 4.62
-2 4 -4 41.91 5.1
2 -4 -4 48.06 4.44
2 -4 -4 50.38 4.63
2 -4 -4 41.47 5
-2 4 -4 46.31 4.8
-2 4 -4 41.91 4.26
-2 -4 4 49.3 4.3
-2 4 -4 40.38 4.65
-2 -4 4 34.08 4.44
-2 -4 4 51.77 5.29
-4 4 -2 43.77 4.85
2 4 4 50.13 4.29
2 4 4 49.8 4.18
2 4 4 51.37 4.61
2 4 4 47.46 4.65
4 -4 -2 42.51 4.3
4 -4 -2 44.05 5.08
-4 -2 4 43.38 4.58
-4 -2 4 44.85 4.28
-4 -2 4 48.38 5.25
-2 -4 4 40.85 4.31
4 -2 -4 46.23 4.51
4 -2 -4 47.68 4.09
4 -2 -4 41.73 4.57
-4 -4 2 49.79 4.42
-4 -4 2 42.76 4.22
-4 -4 2 41.46 4.61
-4 -4 2 53.12 5.02
-4 4 -2 40.25 4.14
-4 4 -2 48.8 4.78
-4 4 -2 52.73 4.78
4 2 4 44.47 4.11
4 2 4 47.62 4.38
4 2 4 53.82 4.83
4 2 4 57.91 4.9
-4 2 -4 44.29 4.4
-4 2 -4 42.56 4.84
-4 2 -4 53.99 5.04
-4 2 -4 36.34 4.7
4 4 2 45.33 4.33
4 4 2 49.8 4.75
4 4 2 47.69 4.51
-4 -4 -4 33.78 3.58
-4 -4 -4 29.09 3.53
-4 -4 -4 29.16 3.89
-4 -4 -4 35.21 3.82
4 -4 4 28.78 4.16
4 -4 4 29.23 3.55
4 4 -4 29.91 3.49
4 4 -4 29.16 3.6
4 4 -4 28.76 4.2
-4 4 4 36.32 3.73
4 -4 4 25.32 3.55
4 -4 4 27.83 3.44
-4 4 4 33.06 3.69
-4 4 4 30.84 4.41
-4 4 -4 28.6 3.99
4 -4 -4 33.95 3.7
4 -4 -4 32.07 3.76
4 -4 -4 26.72 3.53
-4 4 -4 33.62 4.24
-4 4 -4 29.4 3.46
-4 -4 4 29.13 3.64
-4 -4 4 29.04 3.57
-4 -4 4 28.05 3.58
-4 -4 4 37.02 4.52
-4 4 -4 26.94 3.46
4 4 4 32.52 3.47
4 4 4 36.73 3.61
4 4 4 30.46 3.85
4 4 4 29.57 3.8
-5 -1 -1 12.85 1.55
-5 -1 -1 11.55 1.66
-5 -1 -1 10.66 1.7
-5 -1 -1 12.05 1.93
-5 -1 -1 10.26 1.75
5 -1 1 10.57 1.86
5 -1 1 7.82 1.63
5 1 -1 14.57 1.72
5 1 -1 9.75 1.76
5 1 -1 11.23 1.71
1 5 -1 9.19 1.5
1 5 -1 10.22 1.4
1 5 -1 9.68 1.65
1 5 -1 10.59 1.99
-5 1 1 11.88 1.68
-5 1 1 11.9 1.61
-5 1 1 10.36 1.74
-5 1 1 10.14 1.59
-5 1 1 11.37 1.81
-1 -5 -1 11.63 1.67
-1 -5 -1 7.93 1.6
-1 -5 -1 9.86 1.5
-1 -5 -1 8.22 1.85
5 -1 1 10.76 1.67
5 -1 1 10.74 1.91
-1 1 5 12.67 1.58
1 -1 5 10.58 1.49
-1 -1 -5 11.2 1.55
-1 -1 -5 11.9 1.67
-1 -1 -5 11.37 1.86
-1 -1 -5 13.97 1.88
1 1 -5 9.81 1.65
1 1 -5 10.22 2.02
-1 5 1 11.45 1.62
1 -5 1 8.82 1.68
1 -1 5 8.85 1.69
1 -1 5 12.95 2.03
1 -1 5 14.24 2.04
1 1 -5 12.4 1.66
-1 1 5 14.05 1.71
1 -5 1 8.09 2.04
-1 1 5 10.57 1.67
-1 1 5 12.8 2.07
-1 5 1 13.35 1.64
-1 5 1 11.3 1.9
1 -5 1 8.88 1.57
-1 5 1 6.81 1.39
-1 -5 1 8.77 1.62
-1 -1 5 9.64 1.63
-1 5 -1 7.73 1.32
-1 5 -1 10.01 1.6
1 -5 -1 7.13 1.49
1 -5 -1 10.03 1.65
1 -5 -1 12.31 1.7
1 -5 -1 8.8 1.9
-1 -1 5 11.48 2.06
-1 1 -5 11.65 1.51
-1 5 -1 9.35 1.4
-1 5 -1 8.47 2.03
1 -1 -5 14.65 1.78
1 -1 -5 13.57 1.58
1 -1 -5 11.84 1.67
1 -1 -5 13.82 2.03
-1 -5 1 8.58 2.04
-1 1 -5 12.04 1.68
-1 1 -5 10.49 1.56
-1 1 -5 13.92 1.92
-1 1 -5 11.39 1.87
-1 -1 5 13.17 1.58
-1 -1 5 12.21 1.68
1 1 5 11.41 1.46
1 1 5 12.39 1.64
1 1 5 11.07 1.84
1 1 5 13.39 1.94
-5 1 -1 11.71 1.69
-5 1 -1 10.6 1.89
-5 1 -1 10.27 1.85
-5 1 -1 15.52 2.09
1 5 1 9.56 1.53
1 5 1 12.49 1.66
1 5 1 9.36 1.5
5 -1 -1 12.53 1.76
5 -1 -1 11.25 1.55
5 -1 -1 12.2 1.8
5 -1 -1 9.8 1.63
5 -1 -1 10.16 1.82
-1 -5 1 7.9 1.55
-1 -5 1 9.58 1.42
-5 -1 1 11.45 1.6
-5 -1 1 12.55 1.65
-5 -1 1 10.08 1.77
-5 -1 1 9.83 1.77
-5 1 -1 12.88 1.4
5 1 1 10.1 1.4
5 1 1 12.22 1.93
5 1 1 9.67 1.82
-5 3 1 5.65 1.59
-5 3 1 4.35 1.75
-3 -1 -5 7.85 1.39
1 -5 3 6.49 1.61
1 -5 3 5.08 1.7
1 -5 3 2.36 2.15
1 5 -3 5.67 1.27
1 5 -3 6.74 1.48
1 5 -3 5.38 1.53
1 5 -3 8.35 2.1
-5 -3 -1 5.28 1.5
-5 -3 -1 5.8 1.67
-5 -3 -1 5.54 1.83
-5 -3 -1 1.06 1.48
-3 1 5 8.19 1.75
-3 1 5 8.09 1.45
-3 1 5 9.12 1.45
-3 1 5 7.5 2.06
3 -1 5 4.98 1.2
3 -1 5 6.44 1.7
3 -1 5 6.86 1.71
3 -1 5 9.41 2.05
3 -1 5 7.29 1.93
3 1 -5 7.05 1.7
3 1 -5 6.87 1.63
3 1 -5 4.1 1.29
3 1 -5 4.26 2.02
-3 -1 -5 8.13 1.63
-1 5 3 6.17 1.48
-1 5 3 9.89 1.42
-1 5 3 9.37 1.62
-1 5 3 5.98 1.75
5 -3 1 6.38 1.85
5 -3 1 6.71 1.72
5 3 -1 7.36 1.49
5 3 -1 8.08 1.58
5 3 -1 5.74 1.72
5 3 -1 6.56 1.66
-5 3 1 6.99 1.68
-1 -5 -3 7.59 1.66
-5 3 1 7.01 1.46
-5 3 1 8.66 1.38
-1 -5 -3 9.1 1.61
-1 -5 -3 7.07 1.52
-1 -5 -3 6.5 1.5
-3 -1 -5 6.96 1.82
5 3 1 6.22 1.55
3 1 5 8.16 1.61
5 3 1 5.89 1.75
-1 -5 3 6.48 2.22
-1 5 -3 7.1 1.36
-1 5 -3 5.99 1.51
-1 5 -3 1.96 1.92
3 1 5 8.54 1.96
5 -3 -1 6.29 1.51
5 -3 -1 6.4 1.63
5 -3 -1 5.2 1.85
-1 -5 3 3.57 1.43
3 -1 -5 6.52 1.75
3 -1 -5 7.38 1.46
3 -1 -5 2.79 1.04
3 1 5 8.44 1.76
-1 -5 3 5.72 1.48
-1 -5 3 5.19 1.6
-3 -1 5 7.01 1.84
-3 -1 5 5.77 1.6
-3 -1 5 9 1.32
-3 -1 5 3.62 2.15
-3 1 -5 5.2 1.13
-3 1 -5 5.03 1.68
-3 1 -5 5.81 1.52
-3 1 -5 10.87 2
-3 1 -5 10.81 1.72
-5 3 -1 6.61 1.82
-5 3 -1 6.03 1.72
-5 3 -1 4.82 1.69
5 3 1 4.94 1.8
3 -1 -5 5.58 1.98
1 -5 -3 8.03 1.53
5 3 1 8.24 1.61
1 -5 -3 8.19 1.6
1 -5 -3 5.1 1.82
-5 -3 1 7.88 1.65
-5 -3 1 5.01 1.68
-5 -3 1 9.46 1.71
-5 3 -1 4 1.39
-5 -3 1 6.35 1.62
1 5 3 7.66 1.54
1 5 3 3.17 1.07
1 5 3 8.86 1.49
1 5 3 7.96 1.59
-5 1 3 5.89 1.47
-5 1 3 4.31 1.35
5 1 -3 7.05 1.86
-5 1 3 5.73 1.4
5 1 -3 6.81 1.61
5 1 -3 5.97 1.52
5 1 -3 8.2 1.81
5 -1 3 6.16 1.25
5 -1 3 5.78 1.67
5 -1 3 6.23 1.84
5 -1 3 4.24 2.02
1 3 -5 6.6 1.51
1 3 -5 3.86 1.58
-3 -5 -1 6.01 1.64
-3 -5 -1 4.22 1.29
-3 -5 -1 5.23 1.73
-1 3 5 6.66 1.54
-1 3 5 5.47 1.88
-3 5 1 4.11 1.33
-3 5 1 7.91 1.57
-3 5 1 9.95 1.64
-3 5 1 5.91 1.86
-1 -3 -5 8.6 1.56
-1 -3 -5 7.84 1.53
3 -5 1 8.2 1.73
3 -5 1 9.23 1.75
3 -5 1 7.88 2.05
3 5 -1 8.14 1.52
3 5 -1 7.21 1.54
3 5 -1 4.99 1.63
1 3 -5 7.87 2.02
-5 -1 -3 8.83 1.98
-5 -1 -3 9.4 1.86
-5 -1 -3 7.51 1.35
-5 -1 -3 8.4 1.75
-1 3 5 6.85 1.51
-1 3 5 7.18 1.36
1 3 -5 6.84 1.55
-5 1 3 8.96 1.75
-5 1 3 6.33 2.11
-5 1 3 6.81 1.91
-3 -5 -1 7.25 1.6
1 -3 5 6.67 1.61
1 -3 5 6.04 1.55
1 -3 5 5.44 1.96
1 -3 5 5.87 2.28
-1 -3 -5 7.03 1.68
-1 -3 -5 6.97 1.43
1 3 -5 3.48 1.25
-1 3 -5 10.87 2.09
1 3 5 8.62 1.56
1 3 5 8.4 1.45
-5 -1 3 7.52 1.87
-5 -1 3 7.52 1.55
-5 -1 3 7.59 1.49
-5 -1 3 5.97 2.03
3 5 1 6.05 1.51
-5 1 -3 5.48 1.64
-5 1 -3 6.08 1.87
-5 1 -3 6.59 2
5 -1 -3 8.26 1.47
5 1 3 7.53 1.69
5 1 3 8.87 1.95
5 1 3 10.04 1.97
1 -3 -5 8.37 1.72
1 -3 -5 6.15 1.35
1 -3 -5 6.29 1.53
3 5 1 7.49 1.64
3 5 1 5.11 1.34
3 5 1 5.2 1.67
5 -1 -3 7.79 1.66
-3 -5 1 6.6 1.52
-3 -5 1 6.24 1.46
-3 -5 1 6.24 1.64
-3 -5 1 5.62 1.98
-3 5 -1 6.49 1.63
-3 5 -1 9.99 1.7
-3 5 -1 7.83 1.91
1 3 5 6.58 1.44
1 3 5 5.62 1.72
1 3 5 6.51 1.65
3 -5 -1 5.34 1.42
3 -5 -1 5.34 1.61
3 -5 -1 6.88 1.9
3 5 1 6.11 1.45
-5 1 -3 5.04 1.12
-1 -3 5 5.95 1.63
-1 -3 5 3.83 1.36
-1 -3 5 7.61 1.63
-1 -3 5 11.85 2.25
-1 3 -5 4.88 1.52
-1 3 -5 4.96 1.5
-1 3 -5 7.54 1.59
-5 -3 -3 12.02 1.9
-5 -3 -3 12.39 2.19
-5 -3 -3 13.05 2.33
-5 -3 -3 16.23 2.16
3 5 -3 15.58 1.92
3 5 -3 11.58 1.99
3 5 -3 19.83 2.53
3 -3 5 13.6 2.13
3 -3 5 10.72 2.19
3 -3 5 13.63 2.47
3 -3 5 13.55 2.58
3 3 -5 15.51 2.2
-5 3 3 14.17 2.1
-5 3 3 14.93 2.03
-5 3 3 13.28 2.01
-5 3 3 15.69 2.46
-3 -5 -3 13.24 2.02
-3 -5 -3 15.12 1.97
-3 -5 -3 14.58 2.08
-3 -5 -3 14.47 1.99
-3 5 3 13.57 1.93
3 -5 3 11.08 2.16
3 -5 3 16.55 2.37
-3 -3 -5 11.85 1.94
-3 -3 -5 14.72 2.05
-3 -3 -5 17.65 2.3
5 -3 3 9.61 2
5 -3 3 16.78 2.49
5 -3 3 12.82 2.24
5 3 -3 13.29 2
5 3 -3 12.64 2
5 3 -3 12.2 2.32
3 3 -5 14.92 2.47
-3 3 5 14.56 2.16
-3 3 5 14.95 2.03
-3 3 5 16.38 2.5
-3 5 3 18.15 2.12
3 5 -3 11.62 1.83
3 3 -5 14.47 2.03
3 -5 3 16.64 2.67
-3 5 3 15.12 2.33
-3 5 3 16.62 1.84
-3 5 -3 13.1 1.81
-3 -5 3 9.61 1.98
3 -5 -3 11.55 2.03
3 -5 -3 15.03 1.8
3 -5 -3 17.61 2.22
3 -5 -3 13.14 2.44
-3 -5 3 13.46 2.06
-3 -5 3 11.91 1.99
-3 -5 3 15.53 2.63
-3 5 -3 13.17 2.43
3 -3 -5 13.8 2.16
3 -3 -5 15.17 2.04
3 -3 -5 14.99 2.5
-5 -3 3 13.88 2.46
-5 3 -3 11.81 2
-5 3 -3 15.63 2.28
-5 3 -3 16.6 2.52
-5 3 -3 10.86 2.2
-3 5 -3 18.09 2.32
-3 3 -5 15.28 2.44
3 3 5 14.21 1.96
3 3 5 16.06 1.99
3 3 5 15.39 2.08
3 3 5 13.75 2.22
-3 5 -3 15.3 2.25
-5 -3 3 12.38 2.05
-5 -3 3 13.12 1.98
-5 -3 3 9.99 1.93
3 5 3 15.06 1.94
3 5 3 14.44 2.13
3 5 3 14.94 2.07
5 -3 -3 15.27 2.2
5 -3 -3 12.49 2.05
5 -3 -3 12.22 2.3
-3 -3 5 13.78 2.28
-3 -3 5 11.73 2.06
-3 -3 5 13.25 2.63
-3 3 -5 13.94 2.02
-3 3 -5 13.22 2.18
-3 3 -5 18.3 2.56
5 3 3 12.02 1.96
5 3 3 11.78 2.05
5 3 3 11.71 2.15
5 3 3 16.55 2.32
-5 -5 -1 20.15 2.45
-5 -5 -1 18.8 2.5
-5 -5 -1 14.35 2.58
1 -5 5 11.76 3.1
1 5 -5 19.17 2.32
1 5 -5 16.18 2.29
5 -1 5 11.68 2.47
-5 -1 -5 16.77 2.18
-5 -1 -5 16.84 2.5
-5 -1 -5 18.4 2.75
-5 -1 -5 21.51 2.78
5 1 -5 14.52 2.86
1 -5 5 18.25 2.38
1 -5 5 15.26 2.5
1 -5 5 13.4 2.72
5 -5 1 19.98 2.66
5 5 -1 21.47 2.38
-5 1 5 18.84 2.53
-5 1 5 19.09 2.28
-5 1 5 15.1 2.22
-5 1 5 17.8 3.07
-1 5 5 27.94 2.77
5 -1 5 19.07 2.74
5 -1 5 16.92 2.96
-5 5 1 14.18 2.18
-5 5 1 21.25 2.54
-5 5 1 23.53 2.61
-5 5 1 16.79 2.64
-1 -5 -5 20.98 2.36
-1 -5 -5 19.88 2.18
-1 -5 -5 15.02 2.09
-1 -5 -5 20.94 2.5
-1 -5 -5 20.18 2.59
5 5 -1 16.34 2.54
5 5 -1 31.82 3.55
5 5 -1 22.86 2.35
5 1 -5 16.77 2.6
5 1 -5 18.41 2.33
5 -5 1 19.34 2.88
5 -5 1 23 2.67
1 5 -5 32.23 4.12
-1 5 5 19.53 2.82
-1 5 5 22.65 2.45
-1 5 5 23.09 2.5
-5 5 -1 19.01 2.62
-1 -5 5 18.63 2.41
1 -5 -5 22.91 2.53
1 -5 -5 24 2.77
1 -5 -5 19.63 2.51
1 -5 -5 16.63 2.69
-1 5 -5 17.13 2.4
-5 -1 5 16.27 3.09
-5 1 -5 13.85 2.48
-1 5 -5 19.48 3.05
-5 -5 1 21.14 2.43
-5 -5 1 15.92 2.49
1 5 5 21.54 2.32
1 5 5 24.25 2.2
1 5 5 21.04 2.39
1 5 5 21.55 2.54
1 5 5 23.43 2.55
5 -5 -1 16.51 2.22
5 -5 -1 20 2.56
5 -5 -1 16.49 2.79
-5 1 -5 16.37 2.66
-5 -1 5 17.52 2.37
-1 5 -5 19.19 2.26
5 -1 -5 18.24 2.54
5 -1 -5 18.28 2.36
-5 -5 1 27.56 3.63
-5 5 -1 25.77 2.72
-5 5 -1 20.7 2.77
-1 -5 5 14.67 2.37
-1 -5 5 21.11 3.23
-5 -1 5 15.19 2.63
5 1 5 17.97 2.15
5 1 5 15.01 2.44
5 1 5 16.53 2.62
5 1 5 23.07 2.9
-5 1 -5 21.87 2.83
-5 -5 1 20.94 2.49
-1 -5 5 19.32 2.27
-1 -5 5 21.58 2.47
5 5 1 19.8 2.38
5 5 1 21.39 2.46
5 5 1 16.35 2.56
-5 -5 -3 259.14 19.3
-5 -5 -3 254.41 19.01
-5 -5 -3 244.79 20.72
-5 -5 -3 243.36 20.62
3 -5 5 249.81 21.24
3 5 -5 234.84 18.94
3 5 -5 220.59 20.57
3 5 -5 242.72 21.22
-5 -3 -5 223.62 19.19
-5 -3 -5 247.16 19
-5 -3 -5 262.48 20.75
-5 -3 -5 255.77 20.75
5 3 -5 234.39 18.95
5 3 -5 223.63 20.51
5 3 -5 240.22 21.22
3 -5 5 262.26 20.82
5 -5 3 236.05 20.73
5 -5 3 257.85 20.79
5 -5 3 240.56 21.13
5 5 -3 231.33 19.22
5 5 -3 235.33 18.94
-5 3 5 229.56 19.3
-5 3 5 240.91 18.79
-5 3 5 230.22 20.62
-5 3 5 239.12 21.22
5 -3 5 241.44 21.11
5 3 -5 233.75 19.34
-3 -5 -5 251.82 20.62
5 -3 5 212.29 18.99
-5 5 3 245.71 19.28
-5 5 3 249.75 20.56
-5 5 3 250.76 20.69
-5 5 3 238.32 21.16
-3 -5 -5 244.62 19.25
-3 -5 -5 256.91 18.92
3 -5 5 210.57 18.95
-3 -5 -5 248.34 20.69
5 5 -3 238.26 21.1
-3 5 5 265.51 20.72
5 5 -3 229.61 20.62
3 -5 5 218.36 20.67
-3 5 5 258.56 21.25
-3 5 5 233.57 19.28
5 -3 5 253.45 20.87
-3 5 -5 265.33 20.83
-5 5 -3 270.39 20.8
-3 -5 5 224.9 18.96
-3 5 -5 225.79 18.93
-3 5 -5 227.46 20.65
3 -5 -5 259.47 20.71
-5 5 -3 236.01 21.11
-3 -5 5 211.34 20.53
-3 -5 5 250.51 21.32
-5 -3 5 226.08 21.23
-5 -5 3 241.32 19.3
-5 -5 3 228.64 18.98
-5 -5 3 219.7 20.6
-5 -5 3 257.71 21.2
3 -5 -5 232.29 21.14
3 5 5 267.75 18.94
3 5 5 266.37 20.64
3 5 5 258.53 20.71
5 -5 -3 237.1 19.25
5 -5 -3 220.64 20.52
5 -5 -3 249.14 20.71
5 -5 -3 241.33 21.21
-5 3 -5 223.22 19
-5 3 -5 233.24 20.72
-5 3 -5 246.03 20.74
5 -3 -5 232.24 19.34
5 -3 -5 244.37 18.81
5 -3 -5 231.3 20.66
5 -3 -5 224.61 21.19
-3 5 -5 232.76 21.14
3 5 5 244.8 19.26
-5 5 -3 231.6 18.88
-5 5 -3 252.42 20.71
-5 -3 5 232.01 19.36
-5 -3 5 237.92 18.98
-5 -3 5 207.46 20.49
5 3 5 244.99 19.23
5 3 5 248.92 19.01
5 3 5 249.71 20.69
5 3 5 267.56 20.81
-5 3 -5 256.66 20.87
-5 3 -5 228.54 21.03
3 -5 -5 229.43 19.31
-3 -5 5 251.8 19.23
5 5 3 242.68 19.26
5 5 3 255.54 20.72
5 5 3 251.07 20.64
-5 -5 -5 513.06 39.89
-5 -5 -5 528.9 39.24
-5 -5 -5 539.57 42.81
-5 -5 -5 524.04 42.86
5 -5 5 538.98 42.98
5 -5 5 508 43.67
5 5 -5 489.45 39.23
5 5 -5 463.09 42.68
5 5 -5 478.05 43.67
-5 5 5 530.52 42.87
5 -5 5 457.81 39.22
5 -5 5 482.38 42.82
-5 5 5 503.15 39.93
-5 5 5 503.35 43.73
-5 5 -5 482.71 42.81
5 -5 -5 492.18 39.91
5 -5 -5 495.27 42.87
5 -5 -5 494.2 43.68
-5 5 -5 544.85 42.99
-5 5 -5 493.9 43.62
-5 -5 5 527.31 39.92
-5 -5 5 488.25 39.24
-5 -5 5 457.39 42.67
-5 -5 5 476.24 43.72
-5 5 -5 478.43 39.21
5 5 5 524.38 39.9
5 5 5 547.71 39.25
5 5 5 561.15 42.82
5 5 5 529.73 42.89
-6 0 0 528.26 40.84
-6 0 0 524.98 40.21
-6 0 0 527.49 43.88
-6 0 0 555.69 43.91
-6 0 0 508.56 44.62
0 -6 0 432.3 40.81
0 -6 0 514.19 43.83
0 -6 0 540.07 43.88
0 -6 0 497.32 44.71
0 0 -6 509.54 40.86
0 0 -6 510.75 40.19
0 0 -6 515.02 43.93
0 0 -6 576.09 44.76
0 0 6 470.7 40.84
0 0 6 497.5 40.19
0 0 6 537.26 43.94
0 0 6 560.53 44.76
0 6 0 542.48 43.83
0 6 0 542.1 43.88
0 6 0 522.88 44.72
6 0 0 505.84 40.2
6 0 0 521.86 43.85
6 0 0 532.93 43.9
6 0 0 488.86 44.61
6 -2 0 349.49 29.57
6 -2 0 333.68 30.05
6 2 0 345.02 27.49
6 2 0 328.89 27.06
6 2 0 336.65 29.53
-2 0 6 365.82 30.24
0 -6 -2 339.16 27.5
0 -6 -2 376.99 29.48
0 -6 -2 382.56 29.54
0 -6 -2 355.3 30.09
0 -6 2 298.97 27.4
0 -6 2 340.45 26.97
0 -6 2 329.09 29.49
0 -6 2 346.93 29.46
0 -6 2 353.16 30.18
0 6 -2 303.2 27.4
0 6 -2 349.9 26.95
0 6 -2 322.63 29.47
0 6 -2 350.67 29.46
0 6 -2 343.54 30.15
0 6 2 332.31 27.48
0 6 2 403.05 29.5
0 6 2 348.78 30.07
2 0 -6 348.13 27.55
2 0 -6 350.51 27.06
2 0 -6 366.26 30.21
2 0 6 340.76 27.09
2 0 6 367.18 29.45
2 0 6 379.6 29.66
2 0 6 386.3 30.09
6 -2 0 329.02 27.47
6 -2 0 353.49 29.56
-6 -2 0 365.8 27.53
-6 -2 0 339.75 27.08
-6 -2 0 324.54 29.54
-6 2 0 347.33 27.46
-6 2 0 309.29 27.03
-6 2 0 353.57 27.02
-6 2 0 349.3 29.55
-6 2 0 359.99 29.57
-6 2 0 311.66 30.01
-2 0 -6 346.39 27.46
-2 0 -6 335.27 27.08
-2 0 -6 361.65 29.45
-2 0 -6 378.9 29.64
-2 0 -6 393.98 30.08
-2 0 6 339.14 27.53
-2 0 6 337.73 27.04
-2 0 6 336.17 29.51
4 0 -6 252.99 24.04
4 0 -6 270.16 24.73
4 0 6 242.99 22.36
4 0 6 276.84 22.2
4 0 6 289.34 24.15
4 0 6 303.57 24.31
6 -4 0 281.46 22.41
6 -4 0 290.1 22.04
6 -4 0 300.11 24.21
6 -4 0 294.92 24.19
6 -4 0 283.42 24.63
6 4 0 280.85 22.52
6 4 0 280.83 22.14
6 4 0 269.53 24.15
-6 4 0 273.77 22.38
-6 4 0 274.86 22.05
-6 4 0 310.9 24.2
-6 4 0 318.61 24.21
-6 4 0 289.87 24.63
-4 0 -6 261.63 22.38
-4 0 -6 285.99 22.2
-4 0 -6 309.45 24.14
-4 0 -6 316.59 24.31
-4 0 6 283.68 22.58
-4 0 6 276.36 22.11
-4 0 6 267.04 24.04
-4 0 6 302.05 24.86
0 -6 -4 282.8 22.51
0 -6 -4 316.81 24.19
0 6 -4 277.08 24.74
0 6 4 285.39 22.49
0 6 4 324.88 24.19
0 6 4 292.36 24.55
4 0 -6 288.61 22.58
4 0 -6 285.59 22.12
0 -6 4 285.79 24.11
0 -6 4 280.09 24.79
-6 -4 0 280.43 22.53
-6 -4 0 281.18 22.16
-6 -4 0 270.84 24.19
0 6 -4 279.63 24.11
0 6 -4 261.32 22.34
0 6 -4 277.77 22.07
0 6 -4 254.51 24.08
0 -6 4 262.2 24.11
0 -6 4 272.4 22.09
0 -6 4 258.71 22.38
0 -6 -4 285.51 24.61
0 -2 6 304.27 27.58
0 -2 -6 374.28 30.31
0 -2 -6 332.23 29.73
2 6 0 371.51 29.69
6 0 -2 343.11 27.7
-2 6 0 347.49 30.29
0 -2 -6 378.13 27.71
0 -2 -6 364.69 27.19
-2 6 0 404.95 29.72
0 2 6 374.02 29.77
0 2 6 370.83 30.31
2 -6 0 307.1 27.58
2 -6 0 380.67 29.7
2 -6 0 347.46 30.31
2 6 0 345.7 27.64
2 6 0 353.26 27.11
-6 0 2 346.22 27.2
-6 0 2 350.34 29.67
-6 0 2 322.12 29.63
-6 0 2 349.96 30.28
-6 0 2 341.39 30.25
-2 -6 0 331.96 27.65
-2 -6 0 351.22 27.11
-2 -6 0 339.12 29.66
-2 -6 0 337.27 29.61
-2 -6 0 372 30.28
6 0 -2 325.71 27.17
-2 6 0 365.44 29.65
-2 6 0 395.15 29.72
6 0 -2 307.98 29.61
6 0 2 345.34 27.59
6 0 2 333.36 27.26
6 0 2 358.26 29.74
6 0 2 381.71 29.79
-6 0 -2 341.36 29.75
0 -2 6 324.39 27.23
0 -2 6 357.2 29.78
0 -2 6 355.83 30.37
0 2 -6 355.57 27.63
0 2 -6 327.04 27.21
0 2 -6 351.49 30.32
0 2 6 358.31 27.67
0 2 6 345.51 27.18
-6 0 -2 349.94 27.6
-6 0 -2 326.15 27.26
6 0 -2 336.45 29.65
-6 0 -2 365.64 29.79
-6 0 2 349.67 27.72
-6 -2 -2 3.3 1.54
-6 -2 -2 4.06 1.75
-6 -2 -2 4.48 1.94
2 -2 6 2.8 1.74
6 -2 2 2.53 1.65
6 -2 2 2.97 1.99
2 -2 6 5.12 2.1
2 -2 6 6.5 2.25
2 2 -6 2.78 1.69
2 2 -6 5.05 1.59
2 2 -6 3.65 1.5
2 2 -6 4.1 2.05
-2 -6 -2 2.9 1.59
-2 -6 -2 3.66 1.41
-2 -6 -2 2.84 1.63
-2 2 6 5 1.75
-2 2 6 3.91 1.46
2 6 -2 5.56 1.44
2 6 -2 4.02 1.64
2 6 -2 0.96 2.05
-2 -2 -6 5.5 1.58
-2 -2 -6 4.5 1.59
-2 6 2 5.1 1.44
-2 6 2 5.93 1.51
-6 -2 -2 1.31 1.71
2 -6 2 0.62 2.23
6 -2 2 4.12 1.62
6 2 -2 5.98 1.57
6 2 -2 3 1.65
2 -2 6 4.4 1.28
-2 -2 -6 5.12 1.65
-6 2 2 1.31 1.94
6 2 -2 1.78 1.15
2 -6 2 4.15 1.39
-2 -2 -6 6.23 1.6
-2 -2 -6 1.49 1.78
-2 -6 -2 4.93 1.79
-6 2 2 3.84 1.71
-2 6 2 5.11 1.62
-2 6 2 1.4 1.91
6 -2 2 1.26 2.01
2 -6 2 7.65 1.72
-2 2 6 6.45 1.6
-2 2 6 4.71 2.19
-6 2 2 4.41 1.41
-6 2 2 1.58 1.7
2 -6 2 4.45 1.7
-6 2 2 3.15 1.55
-2 -6 -2 2.21 1.42
2 6 2 3.18 1.67
-2 2 -6 4.62 2.03
-2 2 -6 6.74 1.92
-2 -2 6 2.63 1.58
-2 6 -2 3.43 1.6
2 -6 -2 7.18 1.7
2 -6 -2 2.2 1.99
-2 -2 6 2.87 1.61
2 2 6 4.41 1.8
-2 6 -2 6 1.66
-2 6 -2 1.68 2.07
-2 -2 6 0.81 1.82
2 2 6 7.38 1.52
2 2 6 4.77 1.69
2 2 6 4.08 1.65
2 6 2 4.92 1.5
-2 2 -6 3.3 1.68
-2 2 -6 6.32 1.67
-2 -6 2 3.21 1.64
-2 -6 2 4.2 2.33
2 6 2 6.17 1.54
2 6 2 6.98 1.72
-2 -2 6 6.07 2.28
-2 2 -6 5.88 1.26
-6 2 -2 5.12 1.59
-6 2 -2 4.21 2.02
-6 2 -2 5.63 2.08
-6 2 -2 4.71 1.49
-2 -6 2 3.25 1.47
2 -6 -2 2.76 1.56
2 -6 -2 5.38 1.57
-6 -2 2 2.71 1.91
-6 2 -2 3.24 1.19
-6 -2 2 2.18 1.66
6 -2 -2 4.74 1.65
6 -2 -2 3.97 1.48
6 -2 -2 2.03 1.72
6 -2 -2 2.11 1.95
-6 -2 2 5.61 1.75
-6 -2 2 4.14 1.68
2 2 6 4.12 1.86
2 -2 -6 5.3 1.8
2 -2 -6 6.2 1.56
2 -2 -6 4.03 1.55
-2 6 -2 5.24 1.3
6 2 2 3.22 1.56
6 2 2 6.1 1.92
6 2 2 7.86 1.95
2 -6 4 107.61 9.31
2 -6 4 90.66 9.79
2 6 -4 111.72 8.44
2 6 -4 105.63 8.43
2 6 -4 92.09 9.19
2 6 -4 99.65 9.75
-4 2 6 99.85 8.31
-6 4 2 96.9 8.52
-6 4 2 109.51 9.21
-6 4 2 105.98 9.15
6 4 -2 99.69 8.45
6 4 -2 91.94 9.27
-2 -6 -4 109.55 8.61
-2 -6 -4 109.56 9.17
-6 4 2 99.09 9.54
-4 -2 -6 101.04 8.49
-4 -2 -6 101.36 8.53
-4 -2 -6 98.79 9.12
-4 -2 -6 106.86 9.37
-4 2 6 95.76 9.09
-4 2 6 94.17 9.77
-6 -4 -2 112.36 8.62
-6 -4 -2 98.19 8.56
-6 -4 -2 100.66 9.39
-6 -4 -2 100.28 9.12
-2 -6 -4 107.24 9.16
6 -4 2 111.15 9.38
6 -4 2 99.88 9.49
6 4 -2 110.89 8.58
4 -2 6 83.57 9.52
4 2 -6 94.78 8.73
-2 -6 -4 101.38 9.28
6 4 -2 91.98 9.27
4 2 -6 98.75 8.47
4 -2 6 85.72 8.55
-2 6 4 101.38 8.57
-2 6 4 120.16 9.24
-2 6 4 99.65 9.52
4 2 -6 91.19 9.7
-4 2 6 102.66 8.69
2 -6 4 92.59 9.22
4 -2 6 103.91 9.57
-2 6 -4 105.09 9.25
6 -4 -2 106.01 8.6
-6 -4 2 114.29 8.7
-6 -4 2 99.65 8.45
-6 -4 2 90.47 9.18
-6 -4 2 114.8 9.52
-6 4 -2 99.02 8.39
2 -6 -4 89.02 9.52
-2 -6 4 87.34 9.13
-2 -6 4 96.51 9.84
2 -6 -4 110.86 9.22
2 6 4 114.28 9.18
2 6 4 110.2 9.16
2 6 4 108.66 9.32
4 -2 -6 101.77 8.76
4 -2 -6 103.38 8.38
6 -4 -2 99.53 9.69
-2 6 -4 95.04 8.35
-2 -6 4 106.59 8.56
-2 -6 4 98.11 8.49
-6 4 -2 113.78 9.39
-6 4 -2 93.23 9.39
2 6 4 114.94 8.34
2 -6 -4 98.89 8.6
4 2 6 102.56 8.57
4 2 6 110.86 9.28
4 2 6 119.06 9.48
-6 4 -2 106.54 9.38
-4 -2 6 87.52 9.8
-4 2 -6 95.47 8.55
6 4 2 109.58 8.6
6 4 2 104.35 9.37
6 4 2 120.69 9.26
-2 6 -4 95.2 9.61
2 -6 -4 101.87 8.96
2 6 4 111.54 8.6
-4 2 -6 100.67 9.31
-2 6 -4 92.43 9.2
4 -2 -6 86.28 9.07
-4 2 -6 104.43 9.46
-4 -2 6 98.74 8.77
-4 -2 6 98.12 8.49
-4 2 -6 102.51 9.44
-4 2 -6 95.97 9.33
0 4 6 291.02 22.64
0 4 -6 258.08 24.13
0 -4 6 241.78 24.14
0 -4 6 270.74 24.32
0 4 -6 256.37 24.2
0 4 -6 288.42 24.84
0 -4 -6 290.42 22.64
0 -4 -6 304 22.16
0 -4 6 293.22 24.95
0 4 -6 281.5 22.53
0 4 -6 264.58 22.23
0 -4 6 263.19 22.25
-4 6 0 286.95 24.78
-6 0 -4 259.22 22.47
-6 0 -4 269.62 22.29
-6 0 -4 298.82 24.37
-6 0 -4 327.81 24.44
-6 0 4 273.2 22.69
-6 0 4 281.27 22.21
4 -6 0 246.34 22.47
-4 6 0 328.99 24.32
4 -6 0 311.08 24.29
4 -6 0 317.64 24.31
4 -6 0 291.4 24.82
4 6 0 287.59 22.64
4 6 0 293.92 22.2
4 6 0 279.07 24.25
4 6 0 303.1 24.73
6 0 -4 271.93 22.69
6 0 -4 283.86 22.21
6 0 -4 261.21 24.17
6 0 -4 276.16 24.83
6 0 4 260.03 22.5
6 0 4 264.48 22.28
6 0 4 312.27 24.36
6 0 4 319.72 24.46
0 -4 -6 283.99 24.29
0 -4 -6 294.53 24.75
0 -4 6 284.87 22.56
-6 0 4 245.22 24.14
-6 0 4 289.3 24.89
-4 -6 0 278.85 22.62
-4 -6 0 276.53 22.18
-4 -6 0 270.78 24.25
-4 -6 0 309.56 24.73
-4 6 0 318.92 24.27
0 4 6 295.06 24.3
0 4 6 305.24 22.15
-4 6 2 116.74 9.1
-2 -4 -6 110.43 8.61
-2 -4 -6 110.8 8.43
-2 -4 -6 105.98 9.02
6 -2 4 83.55 8.53
6 -2 4 95.88 9.36
6 -2 4 101.21 9.44
6 -2 4 88.45 9.27
6 2 -4 96.78 8.47
6 2 -4 95.68 9.08
6 2 -4 93.69 9.64
-6 2 4 88.18 9.03
-6 2 4 94.43 9.61
-4 -6 -2 114.1 8.65
-4 -6 -2 103.56 9.24
-4 6 2 118.51 9.23
-4 6 2 103.9 9.51
4 6 -2 100.13 9.4
-6 -2 -4 102.23 8.5
-6 -2 -4 101.12 8.57
2 -4 6 94.08 8.52
2 -4 6 97.09 9.2
2 -4 6 98.63 9.39
2 -4 6 92.74 9.76
2 4 -6 107.43 8.6
2 4 -6 96.25 8.49
2 4 -6 84.94 8.97
2 4 -6 102.71 9.7
-2 4 6 102.21 9.55
-6 2 4 103.77 8.65
-6 2 4 100.08 8.24
4 6 -2 93.33 9.17
-6 -2 -4 100.35 9.37
-6 -2 -4 111.14 9.3
-2 -4 -6 102.18 9.25
-4 -6 -2 95.73 9.02
4 -6 2 88.55 8.29
4 -6 2 102.97 9.24
4 -6 2 113.83 9.24
4 -6 2 101.29 9.59
4 6 -2 115.11 8.58
4 6 -2 107.06 8.4
-2 4 6 106.69 8.65
-4 6 2 91.42 8.43
-2 4 6 105.55 9.21
-2 4 -6 93.53 8.49
-2 4 -6 108.49 9.41
-2 4 -6 110.32 9.68
-2 4 -6 94.97 9.12
2 4 6 110.06 8.55
2 -4 -6 109.28 8.71
2 -4 -6 105.56 9.21
2 -4 -6 96.89 9.59
6 2 4 102.1 8.55
-2 -4 6 107.65 9.85
-6 -2 4 97.79 8.77
-6 -2 4 95.27 8.47
-6 -2 4 84.54 9
-6 -2 4 96.56 9.77
-6 2 -4 86.08 8.54
-6 2 -4 95.94 9.41
-6 2 -4 109.31 9.49
2 4 6 112.1 8.41
2 4 6 115.43 9.14
2 4 6 111.4 9.24
2 4 6 109.43 9.28
4 -6 -2 96.79 8.53
4 -6 -2 105.59 9.09
4 -6 -2 98.31 9.56
-4 -6 2 112.31 8.67
-4 -6 2 104.57 8.43
-4 -6 2 90.43 9.17
-4 -6 2 103.48 9.68
-4 6 -2 104.57 9.24
-4 6 -2 117.32 9.26
-4 6 -2 95.11 9.49
6 2 4 104.3 9.36
4 6 2 110.03 8.57
4 6 2 106.39 9.24
4 6 2 101.62 9.07
6 -2 -4 97.35 8.65
6 -2 -4 100.49 8.33
6 2 4 115.78 9.42
-2 -4 6 102.22 8.55
-2 -4 6 87.46 8.98
-6 -4 -4 67.61 5.86
-6 -4 -4 64.61 5.99
-6 -4 -4 63.35 6.47
-6 -4 -4 66.13 6.28
4 6 -4 61.91 5.77
4 6 -4 59.7 6.21
4 6 -4 69.96 6.8
4 -4 6 55.89 5.93
4 -4 6 67.55 6.45
4 -4 6 62.03 6.77
4 -4 6 54.14 6.89
4 4 -6 61.14 5.78
-6 4 4 64.66 5.87
-6 4 4 65.17 6.05
-6 4 4 62.35 6.18
-6 4 4 65.63 6.82
-4 -6 -4 63.24 5.86
-4 -6 -4 72.13 5.78
-4 -6 -4 66.68 6.28
-4 -6 -4 61.73 6.09
-4 4 6 65.27 5.95
-4 6 4 57.56 5.8
4 -6 4 66.28 6.47
4 -6 4 68.49 6.42
-4 -4 -6 63.1 5.81
-4 -4 -6 64.15 5.78
-4 -4 -6 72.58 6.35
-4 -4 -6 74.92 6.42
-4 6 4 66.84 5.95
6 -4 4 47.34 5.84
6 -4 4 63.34 6.58
6 -4 4 59.58 6.57
6 4 -4 60.25 5.78
6 4 -4 56.34 6.17
6 4 -4 60.87 6.63
-4 6 4 57.55 6.64
4 -6 4 63.98 6.87
-4 4 6 58.99 6.15
-4 4 6 68 6.77
4 6 -4 60.6 5.66
4 4 -6 62.93 5.98
4 4 -6 60.6 6.72
-4 6 4 70.03 6.24
-4 -6 4 65.22 5.86
-4 -4 6 61.62 6.03
-4 -6 4 55.06 5.88
-4 4 -6 58.45 6.67
4 -6 -4 62.83 5.94
4 -6 -4 66.17 6.02
4 -6 -4 66.62 6.27
4 -6 -4 63.25 6.81
-4 -6 4 56.88 6.15
-4 -6 4 61.28 7.01
-4 6 -4 57.83 6.67
4 -4 -6 64.45 5.92
4 -4 -6 60.06 6.21
4 -4 -6 56.45 6.7
-6 -4 4 63.41 6.91
-6 4 -4 55.52 5.81
-6 4 -4 59.34 6.48
-6 4 -4 69.69 6.62
-6 4 -4 52.06 6.39
-4 6 -4 64.52 6.37
-4 6 -4 66.9 6.4
4 4 6 60.81 5.77
4 4 6 62.46 5.81
4 4 6 68.35 6.25
4 4 6 70.76 6.39
-4 6 -4 60.41 5.65
-6 -4 4 64.65 5.93
-6 -4 4 61.37 5.8
-6 -4 4 52.3 6.1
4 6 4 65.51 5.8
4 6 4 68.5 6.29
4 6 4 73.32 6.19
6 -4 -4 62.26 6.01
6 -4 -4 61.69 6.1
6 -4 -4 66.03 6.34
6 -4 -4 60.97 6.72
-4 -4 6 58.85 5.81
-4 -4 6 55.2 5.93
-4 -4 6 66.39 7.02
-4 4 -6 61.18 5.84
-4 4 -6 59.61 6.39
-4 4 -6 64.53 6.59
6 4 4 62.97 5.76
6 4 4 63.84 5.92
6 4 4 67.93 6.44
6 4 4 75.1 6.43
-6 -6 0 310.27 23.49
-6 -6 0 298.1 23.07
-6 -6 0 268.29 25.14
-6 0 -6 264.54 23.27
-6 0 -6 267.33 23.12
-6 0 -6 304.26 25.23
-6 0 -6 327.91 25.36
-6 0 6 283.55 23.56
-6 0 6 289.28 23.02
-6 0 6 281.39 25.87
-6 6 0 287.35 23.28
-6 6 0 316.04 25.17
-6 6 0 323.42 25.2
-6 6 0 316.27 25.75
0 -6 -6 312.25 23.5
0 -6 -6 315.65 25.02
0 -6 -6 300.15 25.18
0 -6 -6 308.68 25.66
0 -6 6 294.89 23.29
0 -6 6 283.85 23.35
0 -6 6 288.33 23.09
0 -6 6 261.96 25.08
0 -6 6 292.4 25.18
0 -6 6 287.81 25.87
0 6 -6 297.59 23.05
0 6 -6 273.04 25.05
0 6 -6 299.78 25.17
0 6 -6 307.09 25.82
0 6 6 318.47 23.49
0 6 6 334.8 25.03
0 6 6 304.15 25.2
6 -6 0 277.76 23.3
6 -6 0 323.84 25.22
6 -6 0 295.87 25.18
6 -6 0 296.68 25.71
6 0 -6 285.99 23.53
6 0 -6 288.6 23.03
6 0 -6 250.55 25.03
6 0 -6 276.6 25.78
6 0 6 272.33 23.3
6 0 6 264.05 23.12
6 0 6 302.45 25.21
6 0 6 297.77 25.35
6 6 0 306.64 23.49
6 6 0 301.53 23.06
6 6 0 276.37 25.17
-6 -6 -2 4.56 1.9
-6 -6 -2 0.14 1.99
-6 -6 -2 2.81 1.99
-6 -6 -2 1.92 1.69
6 -6 2 7.74 2.23
6 -6 2 8.85 2.59
2 6 -6 4.61 1.96
2 6 -6 2.35 1.63
-6 -2 -6 4.97 1.68
-6 -2 -6 6.01 2.08
-6 -2 -6 5.9 2.25
-6 -2 -6 8.19 2.3
6 2 -6 4.59 1.95
6 2 -6 0.21 2.44
2 -6 6 5.93 1.98
2 -6 6 4.78 2
2 -6 6 -3.45 2.31
6 6 -2 4.17 1.74
-6 2 6 6.01 2.07
-6 2 6 2.23 1.63
-6 2 6 5.49 1.59
-6 2 6 0.02 2.69
-6 2 6 5.08 2.45
6 6 -2 6.52 1.89
6 -2 6 1.29 1.96
6 -2 6 3.68 2.63
6 2 -6 3.39 2.12
-6 6 2 -1.75 1.66
-6 6 2 3.58 1.84
-6 6 2 7.11 1.96
-6 6 2 5.36 1.96
-6 6 2 2.47 2.12
-2 -6 -6 8.43 2
-2 -6 -6 6.25 1.72
-2 -6 -6 3.66 1.87
-2 -6 -6 5.18 1.94
-2 6 6 2.85 2.3
6 -6 2 0.49 1.68
6 -6 2 5.1 2.15
6 6 -2 3.97 1.7
-2 6 6 5.74 1.89
2 6 -6 7.85 2.48
2 -6 6 -3.7 2.79
6 6 -2 4.54 1.94
-2 6 6 5.65 1.78
-6 6 -2 -0.41 1.55
-2 -6 6 5.23 2.78
-2 -6 6 4.14 1.79
2 -6 -6 4.66 1.99
-2 6 -6 0.78 2.07
2 -6 -6 2.53 2.21
-6 -2 6 3.01 2.82
-6 2 -6 -1 2.01
-6 2 -6 2.33 2.28
-2 6 -6 5.18 1.9
-2 -6 6 1.4 1.79
-6 -6 2 9.87 2.47
-2 6 -6 6.36 1.84
2 6 6 7.22 1.72
2 6 6 5.83 1.66
2 6 6 4.59 1.86
2 -6 -6 4.52 1.78
2 6 6 4.93 1.89
6 -6 -2 4.29 1.78
6 -6 -2 3.11 1.87
6 -6 -2 1.9 2.38
-2 -6 6 6.6 0.62
-2 -6 6 0.51 1.98
-6 -6 2 5.89 2.03
-6 -6 2 6.62 1.9
6 -2 -6 4.63 2.09
6 -2 -6 4.36 1.69
6 -2 -6 2.69 1.43
-6 6 -2 3.87 2.15
-6 6 -2 6.4 2.05
-6 6 -2 4.49 2.12
-6 -2 6 4.26 2.25
-6 -2 6 3.17 1.96
6 2 6 6.47 2
6 2 6 5.76 2.29
6 2 6 7.67 2.4
-6 2 -6 4.1 2.46
-2 6 -6 1.78 2.5
2 6 6 6.02 2
-6 -6 2 4.49 1.92
6 6 2 1.64 1.8
6 6 2 1.39 1.98
6 6 2 2.49 1.83
-6 -6 -4 8.36 2.03
-6 -6 -4 11.8 2.2
-6 -6 -4 7.37 2.25
-6 -6 -4 7.31 2.13
4 6 -6 9 2.12
4 6 -6 9.52 1.99
4 6 -6 9.92 2.63
6 -4 6 5.52 2.1
-6 -4 -6 8.41 1.98
-6 -4 -6 9.11 2.2
-6 -4 -6 9.09 2.36
-6 -4 -6 7.27 2.19
6 4 -6 9.05 2.56
4 -6 6 6.58 2.28
4 -6 6 5.77 2.64
6 -6 4 6.81 2.36
6 6 -4 6.6 1.81
6 6 -4 10.19 2.23
6 6 -4 8.35 1.99
-6 4 6 9.33 2.2
-6 4 6 7.92 2.01
-6 4 6 9.64 2.64
6 -4 6 7.77 2.64
6 -4 6 6.86 2.53
6 4 -6 8.68 2.05
6 4 -6 9.14 1.81
-6 6 4 5.62 1.98
-6 6 4 4.16 1.88
-6 6 4 11.19 2.04
-6 6 4 8.2 2.55
-4 -6 -6 8.62 2.13
-4 -6 -6 10.5 2.04
-4 -6 -6 10.67 2.1
-4 -6 -6 7.44 2.11
6 6 -4 10.1 2.51
-4 6 6 7.33 2.02
4 -6 6 3.09 2.86
6 -6 4 10.81 2.58
6 -6 4 10.59 2.71
-4 6 6 6.47 2.58
-4 6 6 9.41 2.08
4 -6 6 8.39 2.12
-4 6 -6 7.85 2.45
-4 -6 6 10.04 2.46
-4 6 -6 7.63 2.14
-4 6 -6 9.94 2.08
4 -6 -6 7.87 2.19
4 -6 -6 10.17 2.18
4 -6 -6 8.61 2.47
-4 6 -6 6.36 2.54
-6 -4 6 8.68 2.13
-6 -4 6 5.9 1.81
-4 -6 6 8.29 2.13
-6 -6 4 6.59 2.19
-6 -6 4 8.84 2.09
-6 -6 4 7.32 2.02
4 6 6 10.11 2
4 6 6 9.52 2.02
4 6 6 10.66 2.21
4 6 6 8.45 2.23
6 -6 -4 6.94 2.05
6 -6 -4 6.93 1.93
6 -6 -4 11.85 2.26
6 -6 -4 6.72 2.56
-6 -4 6 7.27 2.79
-6 4 -6 4.03 2.14
-4 -6 6 6.12 1.78
-4 -6 6 10.9 2.92
6 -4 -6 9.58 2.29
6 -4 -6 9.67 2.07
6 -4 -6 7.33 2.6
-6 -6 4 14.37 2.79
-6 6 -4 10.1 1.86
-6 6 -4 9.98 2.27
-6 6 -4 11.21 2.53
-6 6 -4 9.48 2.45
-6 -4 6 7.5 2.41
6 4 6 9.57 2.01
6 4 6 8.47 2.16
6 4 6 10.13 2.31
6 4 6 8.01 2.56
-6 4 -6 6.83 2.31
-6 4 -6 8.77 2.67
-6 4 -6 7.19 2.23
-4 -6 6 6.2 2.12
6 6 4 9.87 1.97
6 6 4 9.2 2.34
6 6 4 7.44 2.21
-6 -6 -6 35.51 3.96
-6 -6 -6 32.83 4.18
-6 -6 -6 31.16 4.56
-6 -6 -6 32.32 4.33
6 -6 6 29.58 3.81
6 -6 6 31.79 4.02
6 -6 6 32.15 4.16
6 6 -6 29.49 3.95
6 6 -6 31.42 4.14
6 6 -6 30.59 3.95
-6 6 6 29.56 4.29
6 -6 6 27.63 3.45
-6 6 6 32.45 4.12
-6 6 6 31.62 4.07
-6 6 -6 29.42 3.7
-6 6 -6 30.31 3.88
6 -6 -6 29.95 4.08
6 -6 -6 30.82 4.24
6 -6 -6 33.59 4.87
-6 6 -6 34.08 4.05
-6 -6 6 33.95 4.13
-6 -6 6 33.83 3.82
-6 -6 6 33.45 4.14
-6 -6 6 30.7 4.03
-6 -6 6 39.74 5.46
-6 6 -6 26.91 3.32
6 6 6 37.6 3.96
6 6 6 32.71 4.03
6 6 6 38 4.66
6 6 6 33.63 4.52
-7 -1 -1 124.39 9.13
-7 -1 -1 103.55 9.05
-7 -1 -1 110.1 10.04
-7 -1 -1 114.67 9.79
7 -1 1 112.06 9.87
7 -1 1 106.42 9.9
7 1 -1 114.49 9
7 1 -1 111.77 9.93
7 1 -1 102.88 9.64
1 7 -1 100.39 8.98
1 7 -1 108.46 8.76
1 7 -1 108.43 9.84
1 7 -1 105.38 9.58
1 7 -1 95.45 10.07
-7 1 1 109.88 9.09
-7 1 1 117.5 9.01
-7 1 1 104.73 9.87
-7 1 1 104.55 9.7
-7 1 1 108.96 9.96
-1 -7 -1 100.36 9.09
-1 -7 -1 100.31 9.75
-1 -7 -1 110.19 9.65
-1 -7 -1 102.35 10.07
7 -1 1 112 9.96
1 -1 7 94.12 8.93
1 -1 7 112.45 9.11
1 -1 7 115.65 9.99
-1 -1 -7 118.81 9.12
-1 -1 -7 110.07 9.01
-1 -1 -7 111.23 9.87
-1 -1 -7 124.74 10.15
1 1 -7 114.1 10.25
-1 7 1 108.96 9.76
1 -7 1 107.05 9.82
1 -7 1 99.45 10.26
1 -1 7 118.41 10.27
1 1 -7 111.49 9.16
1 1 -7 104.12 8.99
-1 1 7 123.79 9.23
-1 1 7 109.95 8.96
-1 1 7 108.41 9.76
-1 1 7 116.36 10.34
-1 7 1 118.2 9.7
-1 7 1 106.78 10.12
-1 7 -1 93.7 9.51
-1 -1 7 110.27 9.04
-1 7 -1 88.68 8.89
-1 7 -1 116.04 9.77
1 -7 -1 94.19 9.03
1 -7 -1 111.67 9.77
1 -7 -1 122.65 9.81
1 -7 -1 103.43 10.23
-1 -1 7 108.59 9.84
-1 -1 7 106.41 10.28
-1 1 -7 114.93 9.03
1 -1 -7 124.89 9.21
1 -1 -7 108.69 8.97
1 -1 -7 105.38 9.79
1 -1 -7 118.88 10.21
-1 -7 1 109.27 8.84
-1 -7 1 97.62 9.78
-1 -7 1 109.04 10.22
-1 1 -7 106.67 9.05
-1 1 -7 113.51 9.92
-1 1 -7 116.64 10.11
-1 7 -1 100.05 10.19
-1 -1 7 109.3 9.12
1 1 7 114.64 9.06
1 1 7 115.23 9.02
1 1 7 109.92 9.89
1 1 7 122.66 10.18
-7 1 -1 114.53 8.94
-7 1 -1 98.37 9.02
-7 1 -1 105.54 9.99
-7 1 -1 112.7 9.85
-7 1 -1 109.49 9.8
1 7 1 103.12 9.04
1 7 1 114.17 9.74
1 7 1 111.6 9.67
1 7 1 102.31 10
7 -1 -1 112.61 9.18
7 -1 -1 109.16 8.96
7 -1 -1 113.89 9.93
7 -1 -1 101.67 9.7
7 -1 -1 102.15 9.99
-1 -7 1 100.18 9.06
-7 -1 1 113.05 9.11
-7 -1 1 116.35 9.03
-7 -1 1 107.33 9.87
-7 -1 1 103.84 9.7
-7 -1 1 107.22 10.01
7 1 1 106.81 8.97
7 1 1 114.95 10
7 1 1 104.62 9.8
1 7 -3 138.51 12.93
1 7 -3 136.71 13.62
1 -7 3 144.84 13.1
-7 3 1 159.93 12.22
-7 3 1 168.26 11.98
-7 3 1 157.26 13.24
-3 1 7 157.59 12.33
-3 1 7 152.85 12.02
-3 1 7 136.77 13.05
3 -1 7 139.11 12.09
3 -1 7 144.15 12.15
3 -1 7 161.29 13.4
3 -1 7 169.05 13.5
3 1 -7 156.59 12.32
3 1 -7 142.59 12.07
3 1 -7 130.65 12.97
3 1 -7 152.02 13.69
-3 -1 -7 156.67 13.07
-3 -1 -7 154.7 13.28
-7 3 1 152.36 13.11
-7 3 1 144.02 13.42
-3 -1 -7 152.32 12.16
-3 -1 -7 144.63 12.1
7 -3 1 148.33 12.11
7 -3 1 161.91 13.25
7 -3 1 139.47 13.39
7 3 -1 153.66 12.24
7 3 -1 150.65 12.09
7 3 -1 144.26 13.2
7 3 -1 158.04 13.4
-3 1 7 158.12 13.73
-1 -7 -3 151.37 12.24
-1 -7 -3 155.4 13.11
-1 -7 -3 163.93 13.08
-1 -7 -3 152.94 13.41
1 -7 3 149.19 13.2
-1 7 3 167.55 13.18
1 -7 3 144.31 13.67
-7 -3 -1 146.07 12.14
-7 -3 -1 140.53 13.28
-7 -3 -1 141.19 13.03
-7 -3 -1 156.91 12.3
-1 7 3 139.48 12.19
-1 7 3 173.33 13.11
1 -7 3 141.08 11.94
-1 7 3 148.66 13.49
1 7 -3 152.52 12.14
1 7 -3 145.93 11.95
1 7 -3 134.59 13.08
1 -7 -3 143.58 13.46
-1 -7 3 133.45 13.11
-1 -7 3 131.03 12.11
1 7 3 145.97 12.22
-1 -7 3 139.51 13.68
1 -7 -3 130.89 12.2
1 -7 -3 165.06 13.07
1 -7 -3 156.03 13.12
3 1 7 157.71 13.38
7 -3 -1 154.24 12.25
7 -3 -1 153.93 13.17
7 -3 -1 157.54 13.53
3 1 7 142.93 12.11
3 1 7 155.24 13.13
-3 -1 7 146 12.32
-3 -1 7 148.72 12.08
-3 -1 7 139.96 13.02
-3 -1 7 150.78 13.79
-3 1 -7 147.62 12.1
-3 1 -7 143.35 12.17
-3 1 -7 161 13.3
-3 1 -7 154.38 13.41
3 -1 -7 154.34 12.01
3 -1 -7 131.82 13.03
3 -1 -7 154.88 13.65
7 3 1 156.63 12.26
7 3 1 151.68 12.14
-1 7 -3 132.11 12.01
-1 7 -3 147.21 11.93
-1 7 -3 143.96 13.09
-7 -3 1 164.11 12.32
-7 -3 1 152.15 12.1
-7 -3 1 144.64 13.24
-7 -3 1 143.98 13.34
-7 3 -1 157.54 12.12
-7 3 -1 147.68 12.02
-7 3 -1 160.95 13.35
-7 3 -1 159.9 13.26
-7 3 -1 142.29 13.33
1 7 3 172.28 13.16
1 7 3 171.55 13.11
3 -1 -7 151.79 12.38
7 3 1 149.51 13.1
7 3 1 143.58 13.23
-1 7 -3 142.2 13.61
-7 5 1 173.75 15.27
-5 -1 -7 184.24 14.96
1 -7 5 169.89 13.63
1 -7 5 164.01 14.89
1 -7 5 157.99 14.89
1 -7 5 157.64 15.55
1 7 -5 168.6 13.67
-5 -1 -7 156.54 13.73
-5 -1 -7 167.13 13.75
-1 7 5 181.67 15.26
7 -5 1 180.32 14.98
7 -5 1 170.2 15.24
7 5 -1 175.97 13.91
-5 1 7 162 14.76
-5 1 7 166.47 15.49
-1 -7 -5 188.28 13.96
5 -1 7 146.62 13.66
5 -1 7 156.66 13.77
5 -1 7 166.87 14.96
5 -1 7 177.66 15.2
5 1 -7 172.24 14
5 1 -7 174.53 13.66
5 1 -7 140.21 14.7
5 1 -7 166.29 15.47
-1 -7 -5 190.6 14.92
-1 7 5 177.21 13.91
1 7 -5 166.61 13.63
-7 -5 -1 172.85 13.93
-7 -5 -1 169.87 13.78
-7 -5 -1 154.28 15.01
7 5 -1 175.23 15.14
-5 -1 -7 179.04 15.07
7 5 -1 171.04 13.68
7 5 -1 158.03 14.92
-7 5 1 183.23 14.91
-5 1 7 169.91 13.99
-5 1 7 171.46 13.61
-7 5 1 171.82 13.76
-7 5 1 190.9 14.95
-1 7 5 198.94 14.77
7 -5 1 158.79 13.58
7 -5 1 172.14 15.03
1 7 -5 182.03 15.45
-1 -7 -5 177.77 15.16
1 7 -5 146.65 14.83
-5 -1 7 176.17 14.04
1 7 5 183.85 14.91
-7 -5 1 156.58 14.93
-7 -5 1 200.65 15.18
7 5 1 165.16 13.71
7 5 1 161.11 15.01
-5 1 -7 144.64 13.64
5 1 7 191.7 15.19
5 1 7 179.4 13.79
7 -5 -1 182.33 14.98
-7 5 -1 153.83 13.56
-7 5 -1 190.76 15.03
5 -1 -7 167.74 14.01
5 -1 -7 177.89 13.63
5 -1 -7 162.16 15.41
5 1 7 155.94 13.73
-7 -5 1 171.87 13.71
7 5 1 168.34 13.92
7 -5 -1 163.14 14.9
-5 -1 7 174.76 15.61
7 -5 -1 164.18 15.31
-5 1 -7 161.18 13.78
-5 1 -7 184.23 15
-5 1 -7 192.89 15.19
-7 5 -1 189.6 14.99
1 -7 -5 188.36 14.92
1 -7 -5 175.53 15.28
-5 -1 7 166.55 13.65
7 -5 -1 171.3 13.83
-1 -7 5 165.5 14.74
-7 -5 1 172.21 13.97
-7 5 -1 175.19 15.24
1 -7 -5 180.38 13.93
1 -7 -5 143.51 14.63
-1 7 -5 161.94 15.43
1 7 5 199.24 14.85
-1 -7 5 175.24 15.54
-1 7 -5 170.82 13.59
-1 7 -5 160.95 14.82
-1 -7 5 157.63 13.77
-1 -7 5 172.73 13.68
-1 -7 5 157.69 14.86
1 7 5 173.43 13.84
5 1 7 177.5 14.97
-5 -1 7 149.98 14.69
7 1 -3 145.45 12.06
-7 1 3 135.52 13.02
7 -1 3 130.44 12.16
7 -1 3 153.2 13.33
7 -1 3 159.44 13.33
3 7 -1 151.59 13.21
-7 1 3 152.86 13.55
-3 -7 -1 149.37 12.31
-3 -7 -1 147.37 11.93
7 -1 3 154.78 12.1
-7 1 3 152.62 13.03
3 7 -1 152.34 11.98
-7 1 3 149.69 12.4
3 7 -1 146.23 13.46
7 1 -3 125.48 13.38
-7 -1 -3 150.51 13.39
-7 1 3 152.36 13.18
3 -7 1 164.29 13.17
3 -7 1 149.13 13.64
3 7 -1 145.12 12.25
-3 7 1 154.77 13.13
-3 7 1 174.43 13.22
-3 7 1 148.48 13.53
-7 -1 -3 164.06 13.29
1 -3 7 145.87 12.14
-3 7 1 132.31 12.12
1 -3 7 145.53 13.08
3 -7 1 152.21 13.22
1 -3 7 147.4 13.28
1 -3 7 151.7 13.69
1 3 -7 150.28 12.24
1 3 -7 147.63 12.09
1 3 -7 146.01 13.07
1 3 -7 147.86 13.59
-1 -3 -7 161.02 12.29
-1 -3 -7 160.52 12.08
-1 -3 -7 147.1 13.21
-1 3 7 149.38 13.2
-1 3 7 158.51 13.65
-3 -7 -1 141.62 13.18
-3 -7 -1 142 12.98
-3 -7 -1 155.4 13.44
-1 3 7 150.81 12.31
7 1 -3 142.98 13.17
-7 1 3 146.16 12
-1 3 7 161.07 12.01
1 -3 7 144.49 12.17
-7 -1 -3 144.94 12.22
-7 -1 -3 160.81 12.18
3 -7 -1 150.05 13.6
3 7 1 156.64 11.97
1 3 7 171.18 13.53
-7 -1 3 147.18 12.4
3 -7 -1 129.52 12.16
1 3 7 160.78 12.31
1 3 7 165.2 12.06
1 3 7 158.91 13.24
-7 1 -3 135.01 12.18
-7 1 -3 153.35 13.39
-7 1 -3 166.47 13.38
-7 -1 3 151.68 13.59
-7 1 -3 143.61 12.07
3 7 1 147.75 12.25
-1 3 -7 157.86 13.62
-1 3 -7 141.22 13.03
3 -7 -1 162.74 13.19
-1 -3 7 148.68 12.17
-1 -3 7 156.99 13.26
1 -3 -7 160.42 12.39
1 -3 -7 158.26 12
1 -3 -7 148.95 13.18
3 7 1 150.12 13.18
3 7 1 146.12 13
3 7 1 133.45 13.33
7 -1 -3 152.08 12.4
7 -1 -3 144.31 12.01
7 -1 -3 146.54 13.16
-1 -3 7 156.04 13.77
-1 3 -7 157.54 12.16
-1 3 -7 143.93 12.1
-3 -7 1 144.47 12.28
-3 -7 1 133.04 13.15
-3 -7 1 143.95 13.57
-3 7 -1 159.63 13.2
-3 7 -1 165.8 13.13
-3 7 -1 151.42 13.56
-7 -1 3 145.25 12.08
-7 -1 3 139.54 13.1
7 1 3 161.46 13.37
7 1 3 160.32 13.35
-1 3 -7 154.48 13.29
7 1 3 136.03 12.19
-7 -3 -3 225.92 18.61
-3 -7 -3 228.59 16.96
7 3 -3 194.42 18.55
-3 3 7 204.94 19.15
-3 3 7 224.42 19.13
3 -7 3 212.85 16.94
-3 7 3 194.04 17.25
3 7 -3 226.68 17.28
3 7 -3 214.19 16.98
3 7 -3 210.22 18.56
-7 3 3 212.76 17.34
-7 3 3 227.14 16.91
-7 3 3 228.26 18.51
-7 3 3 221.82 18.58
-7 3 3 210.88 18.56
-7 3 3 209.62 18.52
-7 3 3 218.15 19.09
-3 -7 -3 226.78 17.36
7 -3 3 199.32 18.89
-3 -7 -3 225.27 16.94
-3 -7 -3 219.38 18.56
-3 -7 -3 216.57 18.49
-3 -7 -3 230.11 18.87
7 3 -3 196.34 17.01
3 -3 7 201.93 17.11
3 7 -3 223.71 19.11
3 -3 7 213.72 19.1
-3 -3 -7 219.22 17.29
-3 -3 -7 231.61 17.09
-3 -3 -7 211.82 18.46
-3 -3 -7 219.86 18.67
3 3 -7 211.22 17.38
-3 3 7 215.42 16.92
7 -3 3 185.86 17.03
7 -3 3 217.21 18.72
3 -7 3 205.34 18.6
-7 -3 -3 216.02 17.28
-7 -3 -3 208.8 17.13
-7 -3 -3 215.85 18.71
-3 7 3 216.76 19.01
-3 3 7 204.7 18.55
3 -3 7 220.03 18.81
3 -7 3 223.41 19.15
3 3 -7 214.09 17.09
-3 3 7 213.22 17.4
3 3 -7 205.08 19.1
3 -7 3 219.08 18.6
-3 7 3 238.99 18.62
-3 7 3 243.05 18.5
-3 7 -3 212.31 19.07
-3 -7 3 220.83 17.32
3 -7 -3 192.13 17.27
3 -7 -3 239.63 18.65
-3 -3 7 223.82 17.4
-7 -3 3 220.05 19.04
-7 3 -3 202.05 17.06
-3 3 -7 203.25 17.09
-7 -3 3 179.08 18.5
3 -3 -7 208.85 17.37
3 -3 -7 210.97 16.93
3 -3 -7 205 18.56
-3 -7 3 216.67 17.01
-7 -3 3 209.29 17.05
-3 -7 3 210.81 19.14
-3 7 -3 208.63 16.89
3 -7 -3 207.75 19.01
-3 -3 7 205.06 19.21
3 3 7 224.6 17.29
3 3 7 228.21 17.06
3 3 7 228.97 18.53
3 3 7 212.74 18.68
-7 3 -3 228.64 18.75
-7 3 -3 244.33 18.79
-7 3 -3 193.55 18.82
-3 -7 3 179.91 18.51
3 7 3 227.69 17.32
3 7 3 235.26 18.58
3 7 3 222.84 18.52
3 7 3 228.34 18.86
7 -3 -3 210.02 17.36
7 -3 -3 214.99 16.92
-3 7 -3 204.89 18.58
-3 -3 7 210.22 17.1
-3 3 -7 207.71 18.55
-3 3 -7 216.46 18.76
-3 7 -3 235.16 18.61
-7 -3 3 225.33 17.37
7 3 3 224.52 17.31
7 3 3 218.12 18.67
7 3 3 238.97 18.66
7 -3 -3 194.24 19.02
-3 3 -7 219.06 18.99
3 7 -5 144.91 11.54
3 -7 5 128.57 13.06
-7 -5 -3 147.53 11.72
-5 3 7 143.46 11.32
5 -3 7 130.07 11.62
5 -3 7 154.86 12.95
5 -3 7 135.72 12.94
5 3 -7 141.28 11.85
5 3 -7 142.6 11.53
5 3 -7 137.12 13.08
-3 -7 -5 147.92 12.48
-7 5 3 131.02 11.64
-7 5 3 144.26 12.47
-7 5 3 142.99 12.58
-7 5 3 139.22 12.51
-7 5 3 133.62 12.96
-5 -3 -7 151.41 11.65
-5 -3 -7 141.01 11.55
-5 -3 -7 165.09 12.59
-3 7 5 132.76 11.64
-7 -5 -3 134.77 11.59
-7 -5 -3 134.65 11.6
3 7 -5 139.22 11.5
-7 -5 -3 133.61 12.66
-5 3 7 144 11.8
7 -5 3 137.56 12.72
7 -5 3 145.65 12.69
7 -5 3 133.53 12.89
7 5 -3 129.13 11.61
7 5 -3 132.98 11.49
7 5 -3 128.31 12.49
-5 3 7 132.42 13.16
-5 3 7 141.06 13.04
-3 -7 -5 143.3 11.68
-3 -7 -5 158.09 11.41
-3 -7 -5 152.45 12.53
-5 3 7 139.7 12.44
-7 -5 -3 137.92 12.44
-5 -3 -7 147.99 12.63
-3 7 5 164.25 12.34
-3 7 5 157.25 12.53
-3 7 5 150.14 12.95
3 -7 5 131.92 12.6
3 7 -5 127.85 12.5
3 7 -5 144.48 13.02
3 -7 5 146.66 12.62
3 -7 -5 130.54 11.71
3 -7 -5 136.44 12.97
3 7 5 153.23 12.49
3 7 5 149.98 12.51
3 7 5 160.04 12.64
3 -7 -5 150.45 12.38
3 -7 -5 145.73 12.55
3 7 5 145.24 11.67
-3 -7 5 136.91 11.54
-5 -3 7 138.83 11.84
-5 -3 7 139.52 11.52
-5 -3 7 134.07 13.15
-5 3 -7 133.26 11.56
-3 -7 5 117.94 12.44
-3 -7 5 148.57 13.29
-3 7 -5 130.78 11.39
-5 3 -7 149.15 12.84
5 -3 -7 145.74 11.35
5 -3 -7 137.1 12.49
5 3 7 148.29 11.66
7 5 3 138.62 11.69
7 5 3 140.42 12.65
7 5 3 149.36 12.53
5 3 7 146.82 12.79
7 -5 -3 139.98 11.71
-5 3 -7 143.93 12.63
-5 3 -7 141.81 12.65
-5 3 -7 144.15 12.76
-3 7 -5 134.24 12.94
3 7 5 159.75 11.43
-7 5 -3 130.56 11.42
-7 5 -3 145.88 12.66
7 -5 -3 136.96 12.95
-3 7 -5 127.56 12.49
-3 7 -5 149.22 12.65
5 3 7 154.43 12.62
-7 5 -3 155.57 12.73
-7 5 -3 135.7 12.8
5 3 7 148.16 11.58
-7 -5 3 150.01 12.97
5 -3 -7 139.23 11.82
-3 -7 5 134.35 11.65
-7 -5 3 133.12 11.76
-7 -5 3 132.05 11.54
-7 -5 3 123.21 12.49
-7 -1 -5 176.67 15.25
1 -5 7 144.68 14.97
1 -5 7 161.35 15.15
1 5 -7 174.32 15.04
1 5 -7 177.7 15.59
5 7 -1 168.15 15.08
1 5 -7 145.08 14.89
-1 -5 -7 167.82 15.12
-1 -5 -7 183.78 15.39
1 -5 7 164.11 15.73
1 5 -7 169.63 13.98
1 5 -7 159.68 13.83
1 -5 7 177.92 13.89
1 -5 7 164.75 13.92
7 -1 5 149.23 13.91
7 -1 5 178.75 15.22
7 -1 5 173.27 15.31
5 -7 1 174.14 15.1
-1 5 7 182.4 15.54
-7 1 5 161.53 13.75
5 7 -1 178.48 13.78
-5 7 1 190.12 15.55
7 1 -5 165.59 14.2
-7 1 5 172 15.69
-5 -7 -1 174.91 14.08
-5 -7 -1 166.72 13.76
-1 5 7 174.28 14.08
7 1 -5 172.62 15.59
-1 5 7 176.12 15.08
-1 -5 -7 180.29 14.89
7 1 -5 170.65 13.86
-5 7 1 152.9 13.88
5 -7 1 191.55 15.13
5 -7 1 183.43 15.56
5 7 -1 178.95 14.07
-7 -1 -5 168.96 13.92
-7 -1 -5 171.58 13.92
-5 7 1 199.59 15.1
-7 -1 -5 194.26 15.29
5 7 -1 159.36 15.3
-1 -5 -7 192.98 13.75
7 -1 5 163.02 13.85
-5 7 1 195.72 15.12
-7 1 5 171.76 14.19
-1 -5 -7 181.57 14.1
-5 -7 -1 168.77 15.13
7 -1 -5 142.23 14.94
1 -5 -7 174.21 14.14
-7 -1 5 169.6 14.21
5 -7 -1 179.32 15.09
5 -7 -1 175.76 15.5
1 5 7 194.93 13.76
1 -5 -7 169.36 15.08
-7 1 -5 176.69 15.27
-7 1 -5 183.78 15.34
1 5 7 191.71 14.1
7 1 5 180.54 15.17
7 1 5 190.66 15.33
5 7 1 178.42 14.08
5 7 1 179.2 13.79
5 7 1 165.53 15.1
7 -1 -5 170.8 13.76
-5 -7 1 173.17 14.1
-5 -7 1 177.1 13.78
-5 -7 1 164.63 15.08
-5 -7 1 172.48 15.42
-5 7 -1 184.98 15.13
-5 7 -1 197.3 15.13
-5 7 -1 182.73 15.47
1 -5 -7 177.4 15.51
5 -7 -1 162.09 13.96
7 1 5 170.55 13.92
7 1 5 171.53 13.95
7 -1 -5 175.84 14.16
-7 -1 5 169.72 13.84
-7 -1 5 178.33 15.73
-7 1 -5 161.54 13.79
-7 1 -5 160.48 13.92
-1 -5 7 182.63 14.01
-1 -5 7 165.11 13.89
-1 -5 7 147.62 14.92
-1 -5 7 169.68 15.09
-1 -5 7 175.16 15.76
-1 5 -7 168.9 13.88
-1 5 -7 165.07 13.82
-1 5 -7 151.24 14.95
-1 5 -7 173.43 15.58
5 7 1 175.34 15.34
1 5 7 166.73 15.26
1 5 7 177.39 14.91
1 5 7 173.27 15.1
-7 3 5 134.23 12.28
-5 -7 -3 138.01 12.44
-5 -7 -3 135.65 12.25
-3 -5 -7 151.42 11.38
7 -3 5 126.89 11.48
7 -3 5 144.53 12.69
7 -3 5 137.04 12.63
7 3 -5 142.41 11.47
7 3 -5 127.85 12.3
7 3 -5 138.77 12.91
-3 5 7 138.51 12.39
-3 5 7 143.29 12.91
-5 7 3 152.29 12.44
-3 5 7 133 11.63
-7 3 5 134.58 12.89
-5 -7 -3 143 11.62
-7 -3 -5 139.26 11.5
-7 -3 -5 137.38 11.52
-7 -3 -5 149.51 12.61
-7 -3 -5 152.51 12.57
3 5 -7 137.94 12.91
-7 3 5 144.66 11.7
5 -7 3 128.44 11.3
5 -7 3 143.55 12.5
5 -7 3 156 12.56
5 -7 3 146.66 12.91
5 7 -3 137.26 11.54
5 7 -3 137.64 11.39
5 7 -3 135.12 12.4
5 7 -3 150.47 12.81
3 -5 7 125.48 11.49
-5 7 3 130.44 11.48
-5 7 3 161.95 12.28
3 -5 7 129.35 12.94
-5 7 3 127.48 12.72
-3 -5 -7 146.71 11.58
-7 3 5 140.34 11.19
-3 -5 -7 143.59 12.5
3 -5 7 145.05 12.7
3 -5 7 131.66 12.45
3 5 -7 136.6 11.4
3 5 -7 123.83 12.23
-3 -5 7 135.89 11.46
5 -7 -3 141.71 12.89
7 -3 -5 135.76 12.92
-3 5 -7 142.88 12.87
7 3 5 153.13 12.64
7 3 5 140.98 11.51
7 3 5 139.44 11.5
3 -5 -7 137.2 11.69
3 -5 -7 140.17 12.41
3 -5 -7 138.39 12.83
-5 7 -3 147.89 12.84
-3 5 -7 127.04 11.44
-3 -5 7 138.08 11.66
7 3 5 149.28 12.61
-3 -5 7 119.61 12.23
-3 -5 7 148.65 13.13
5 -7 -3 143.75 12.4
3 5 7 142.99 11.55
3 5 7 156.52 11.39
3 5 7 149.88 12.37
3 5 7 141.12 12.49
5 -7 -3 141.59 11.58
-7 -3 5 135.46 11.77
-7 -3 5 142.38 11.41
-7 -3 5 133.38 12.97
-7 3 -5 133.27 11.5
-7 3 -5 150.14 12.67
-7 3 -5 144.17 12.65
-7 3 -5 122.39 12.59
-3 5 -7 123.2 12.36
-3 5 -7 150.65 12.64
5 7 3 142.24 11.57
5 7 3 147.04 12.47
5 7 3 139.58 12.28
7 -3 -5 143.09 11.72
7 -3 -5 137.38 11.24
7 -3 -5 138.33 12.43
-5 -7 3 139.02 11.65
-5 -7 3 147.17 11.41
-5 -7 3 129.32 12.38
-5 -7 3 144.34 12.94
-5 7 -3 147.37 11.25
-5 7 -3 144.85 12.48
-5 7 -3 156.56 12.52
-7 -5 -5 176.61 14.09
-7 -5 -5 184.21 13.99
-7 -5 -5 188.23 15.27
-7 -5 -5 173.91 15.08
5 7 -5 168.39 13.85
5 7 -5 159.27 15.04
5 7 -5 183.68 15.63
5 -5 7 152.9 13.91
5 -5 7 166.05 15.21
5 -5 7 174.78 15.38
5 -5 7 176.69 15.6
5 5 -7 168.04 13.89
-7 5 5 165.75 14.13
-7 5 5 172.34 14.91
-7 5 5 179.29 15.1
-7 5 5 175.03 15.65
-5 -7 -5 177.59 14.12
-5 -7 -5 188.47 13.91
-5 -7 -5 174.16 15.11
-5 -7 -5 170 15.02
-5 5 7 170.25 14.16
-5 7 5 151.27 14.02
5 -7 5 155.19 15.16
5 -7 5 189.78 15.32
-5 -5 -7 176.69 14.06
-5 -5 -7 192.17 13.9
-5 -5 -7 191.47 15.13
-5 -5 -7 182.29 15.16
-5 7 5 169.45 14.87
7 -5 5 152.99 13.89
7 -5 5 201.17 15.38
7 -5 5 169.77 15.49
7 5 -5 169.01 13.88
7 5 -5 161.38 15.01
7 5 -5 164.1 15.53
-5 7 5 166.81 15.55
5 -7 5 183.5 15.66
-5 5 7 169.97 15.09
-5 5 7 168.66 15.61
5 7 -5 160.17 13.96
5 5 -7 163.7 14.91
5 5 -7 168.2 15.58
-5 7 5 187.31 15.14
-5 -7 5 168.33 13.88
-5 -5 7 171.46 14.16
-5 -7 5 158.6 14.09
-5 5 -7 177.09 15.51
5 -7 -5 169.24 14.14
5 -7 -5 171.37 14.92
5 -7 -5 175.62 15.14
5 -7 -5 175.51 15.59
-5 -7 5 153.14 14.99
-5 -7 5 169.98 15.68
-5 7 -5 168.53 15.48
5 -5 -7 163.28 14.13
5 -5 -7 166.08 15.08
5 -5 -7 166.07 15.59
-7 -5 5 173.47 15.65
-7 5 -5 161.54 13.88
-7 5 -5 178.67 15.23
-7 5 -5 184.4 15.35
-7 5 -5 166.38 15.41
-5 7 -5 162.94 15.12
-5 7 -5 187.14 15.29
5 5 7 181.03 14.05
5 5 7 196.63 13.92
5 5 7 188.88 15.14
5 5 7 187.12 15.27
-5 7 -5 161.85 13.8
-7 -5 5 173.92 14.14
-7 -5 5 168.38 13.87
-7 -5 5 163.17 15
5 7 5 180.04 14.1
5 7 5 184.03 15.13
5 7 5 171.76 15.06
7 -5 -5 159.44 14.12
7 -5 -5 177.54 14.96
7 -5 -5 169.81 15.18
7 -5 -5 169.12 15.59
-5 -5 7 171.38 13.89
-5 -5 7 152.35 14.89
-5 -5 7 165.6 15.75
-5 5 -7 165.42 13.9
-5 5 -7 162.08 15.14
-5 5 -7 179.58 15.31
7 5 5 173.68 14.04
7 5 5 186.28 13.95
7 5 5 175.78 15.16
7 5 5 183.28 15.2
-7 -7 -1 139.35 11.5
-7 -7 -1 133.27 11.29
-7 -7 -1 124.86 12.32
7 -7 1 139.03 12.67
1 -7 7 133.7 12.9
1 7 -7 133.78 11.21
1 7 -7 122.93 12.11
-7 -1 -7 127 11.22
-7 -1 -7 134.32 11.38
-7 -1 -7 145.26 12.48
-7 -1 -7 147.28 12.46
7 -1 7 143.91 12.64
7 1 -7 130.6 11.63
7 1 -7 137.35 11.25
7 1 -7 123.28 12.75
1 -7 7 125.39 12.34
7 -7 1 142.57 12.37
7 -7 1 139.9 12.31
-7 1 7 139.18 11.57
-7 1 7 142.38 11.18
-7 1 7 116.39 12.01
-7 1 7 128.23 12.87
7 7 -1 153 12.52
7 -1 7 125.88 11.16
7 -1 7 124.86 11.41
-7 7 1 122.91 11.21
-7 7 1 162.81 12.32
-7 7 1 148.69 12.28
-7 7 1 145.34 12.66
-1 -7 -7 144.57 11.48
-1 -7 -7 143.97 12.08
-1 -7 -7 144.79 12.25
-1 -7 -7 152.02 12.51
-1 7 7 145.87 12.28
7 7 -1 139.59 11.43
7 7 -1 138.66 11.26
7 7 -1 129.08 12.31
7 -1 7 130.99 12.43
-1 7 7 148.5 12.61
1 -7 7 137.04 11.3
1 -7 7 126.62 12.24
1 7 -7 135.9 12.19
1 7 -7 144.07 12.82
-1 7 7 142.36 11.44
-1 7 7 160.42 12.03
-1 -7 7 135.34 11.26
-1 -7 7 141.06 13
1 -7 -7 144.82 11.51
1 -7 -7 146.92 12.02
1 -7 -7 152.08 12.3
1 -7 -7 146.1 12.62
-1 7 -7 131.6 11.22
-1 7 -7 124.16 12.16
-7 1 -7 129.99 11.35
-7 -7 1 136.46 11.24
-7 -7 1 126.39 12.3
-7 -7 1 150.74 12.62
-1 7 -7 145.64 12.77
1 7 7 148.95 11.4
1 7 7 149.32 12.11
1 7 7 139.9 12.27
7 -7 -1 133.43 11.3
7 -7 -1 144.6 12.32
7 -7 -1 140.25 12.71
-7 1 -7 137.51 12.49
-7 1 -7 141.32 12.55
-7 -7 1 139.79 11.5
7 -1 -7 133.18 11.59
7 -1 -7 139.51 11.17
7 -1 -7 112.76 12.05
7 -1 -7 133.33 12.81
-7 7 -1 154.42 12.33
-7 7 -1 140.5 12.59
-1 -7 7 134.31 12.2
-7 -1 7 135.04 11.59
-7 -1 7 138.95 11.27
-7 -1 7 132.08 12.99
-7 1 -7 116.2 11.07
7 1 7 125.84 11.26
7 1 7 133.69 11.35
7 1 7 140.66 12.42
7 1 7 141.29 12.55
-1 -7 7 133.77 11.39
-1 -7 7 135.49 11.3
-1 -7 7 127.58 12.17
-7 7 -1 146.91 12.34
7 7 1 139.87 11.47
7 7 1 136.95 11.3
7 7 1 127.97 12.32
-7 -7 -3 151.09 11.98
-7 -7 -3 146.79 11.82
-7 -7 -3 139.51 12.85
-7 -7 -3 140.2 12.63
7 -7 3 143.59 13.24
3 -7 7 145.29 13.5
3 7 -7 144.49 11.78
3 7 -7 134.78 12.69
-7 -3 -7 136.87 11.81
-7 -3 -7 148.71 11.86
-7 -3 -7 152.41 12.92
-7 -3 -7 149.35 12.94
7 3 -7 140.81 11.74
7 3 -7 133.11 13.31
3 -7 7 134.74 11.8
3 -7 7 124.35 12.74
7 -7 3 123.57 11.66
7 -7 3 149.41 12.95
7 7 -3 136.13 11.88
-7 3 7 129.86 12
-7 3 7 128.46 11.53
-7 3 7 133.6 12.62
-7 3 7 141.08 13.46
-7 3 7 140.24 13.34
7 -3 7 137.55 13.05
7 -3 7 134.73 13.02
7 3 -7 132.85 12.05
7 -7 3 154.84 12.99
-7 7 3 138.72 11.86
-7 7 3 162.07 12.69
-7 7 3 158.11 12.84
-7 7 3 158.01 12.82
-7 7 3 146.29 13.17
-3 -7 -7 150.73 11.95
-3 -7 -7 160.92 11.66
-3 -7 -7 153.01 12.8
-3 7 7 154.39 13.26
3 -7 7 145.35 12.98
-3 7 7 155.16 12.81
7 7 -3 132.38 12.76
3 7 -7 146.63 13.31
7 7 -3 142.79 11.74
7 -3 7 129.75 11.85
-3 7 7 134.1 11.91
-3 7 -7 149.78 13.35
-7 7 -3 144.3 13.11
-3 -7 7 143.84 11.87
3 -7 -7 143.48 12.01
3 -7 -7 146.9 12.82
3 -7 -7 152.27 13.22
-7 -3 7 133.16 13.42
-7 3 -7 135.2 11.86
-3 7 -7 135.03 12.75
-3 -7 7 125.92 12.68
-3 -7 7 146.93 13.49
-3 7 -7 138.89 11.69
3 7 7 154.32 11.91
3 7 7 169.88 11.66
3 7 7 161.63 12.74
3 7 7 151.22 12.83
3 7 7 161.05 12.87
7 -7 -3 133.27 11.87
7 -7 -3 142.5 13.26
-7 3 -7 160.2 13.05
-7 3 -7 145.89 13.09
-3 -7 7 147.04 11.81
-7 -7 3 140.01 12.04
7 -3 -7 132.73 12.01
7 -3 -7 140.68 11.56
7 -3 -7 135.56 12.73
-3 7 -7 149.42 12.91
-7 7 -3 144.64 11.62
-7 7 -3 150.94 12.88
-7 7 -3 160.42 12.93
-7 -3 7 133.69 12.06
-7 -3 7 144.12 11.77
7 3 7 139.93 11.81
7 3 7 146.49 11.85
7 3 7 149.96 12.96
7 3 7 148.95 13.06
-7 3 -7 142.68 13
-7 -7 3 142.41 11.75
-7 -7 3 131.41 12.76
-7 -7 3 155.84 13.31
7 7 3 137.26 11.9
7 7 3 149.06 12.9
7 7 3 151.72 12.72
-7 -7 -5 208.66 16.27
-7 -7 -5 212.55 16.09
-7 -7 -5 211.29 17.51
-7 -7 -5 204.79 17.38
5 -7 7 201.25 17.98
5 7 -7 195.22 15.98
5 7 -7 190.01 17.32
7 -5 7 177.74 16.03
-7 -5 -7 191.86 16.15
-7 -5 -7 211.11 16.05
-7 -5 -7 214.46 17.52
-7 -5 -7 203.23 17.48
7 5 -7 191.72 17.94
5 -7 7 188.67 16.07
5 -7 7 193.73 17.5
5 -7 7 203.35 17.58
7 -7 5 197.36 17.55
7 7 -5 192.57 16.16
7 7 -5 199.07 16.03
7 7 -5 183.02 17.32
7 7 -5 196.2 17.88
-7 5 7 185.26 16.29
-7 5 7 195.91 17.41
-7 5 7 194.27 18.01
7 -5 7 214.38 17.9
7 5 -7 196.11 15.98
7 5 -7 184.06 17.24
7 -7 5 198.57 17.93
-7 7 5 187.44 16.22
-7 7 5 197.52 17.22
-7 7 5 207.71 17.45
-7 7 5 201.89 17.97
-5 -7 -7 197.89 16.24
-5 -7 -7 223 15.98
-5 -7 -7 217.11 17.41
-5 -7 -7 204.8 17.43
-5 7 7 205.19 17.95
-5 7 7 197.74 16.25
7 -7 5 206.35 17.6
5 7 -7 208.39 18.03
-5 7 7 208.29 17.45
7 -5 7 202.54 17.65
-7 7 -5 200.83 17.83
-5 7 -7 206.87 17.62
-5 7 -7 194.93 17.46
-5 -7 7 209.75 16.38
-5 -7 7 192.17 18.07
-5 -7 7 201.48 16.24
5 -7 -7 196.19 16.3
5 -7 -7 187.21 17.42
5 -7 -7 200.07 17.92
-7 -5 7 203.36 16.43
-7 -5 7 203.59 16.02
-7 -5 7 189.87 17.23
-7 -7 5 193.3 16.29
-7 -7 5 192.73 15.99
-7 -7 5 182.44 17.33
-5 7 -7 183.56 15.96
5 7 7 207.73 16.21
5 7 7 233.74 16.02
5 7 7 220.81 17.44
5 7 7 203.62 17.47
7 -7 -5 198.6 16.29
7 -7 -5 201.29 17.28
7 -7 -5 197.53 17.5
7 -7 -5 194.09 17.94
-7 -5 7 194.51 18.04
-5 -7 7 200.1 16.01
-5 -7 7 170.74 17.22
7 -5 -7 200.17 16.38
7 -5 -7 196.17 17.43
7 -5 -7 182.04 17.95
-7 -7 5 195.04 17.99
-5 7 -7 205.39 17.85
-7 7 -5 204.31 15.93
-7 7 -5 196.28 17.46
-7 7 -5 211.09 17.6
-7 -5 7 194.96 16.27
7 5 7 206.58 16.22
7 5 7 215.11 16.1
7 5 7 203.87 17.46
7 5 7 204.25 17.61
-7 5 -7 179.63 16.02
-7 5 -7 193.19 17.51
-7 5 -7 204.12 17.66
-7 5 -7 197.24 17.72
7 7 5 204.89 16.22
7 7 5 208.96 17.48
7 7 5 215.66 17.46
-7 -7 -7 285.38 21.74
-7 -7 -7 297.07 21.45
-7 -7 -7 294.08 23.42
-7 -7 -7 280.05 23.37
7 -7 7 265.53 23.43
7 -7 7 277.6 23.51
7 -7 7 274.61 23.94
7 7 -7 267.76 21.39
7 7 -7 251.6 23.18
7 7 -7 264.23 23.93
-7 7 7 270.6 23.36
7 -7 7 247.76 21.42
-7 7 7 270.36 23.96
-7 7 7 256.11 21.77
-7 7 -7 270.12 23.4
-7 7 -7 267.39 23.79
7 -7 -7 251.67 21.76
7 -7 -7 256.18 23.34
7 -7 -7 261.88 23.95
-7 7 -7 278.26 23.53
-7 -7 7 271.73 21.79
-7 -7 7 267.06 21.88
-7 -7 7 265.12 21.43
-7 -7 7 243.14 23.16
-7 -7 7 265.63 24.08
-7 7 -7 251.58 21.37
7 7 7 291.33 21.76
7 7 7 295.13 21.48
7 7 7 284.06 23.36
7 7 7 290.87 23.47
-8 0 0 361.01 27.06
-8 0 0 339.73 26.68
-8 0 0 332.56 29.14
-8 0 0 357.15 29.11
-8 0 0 343.48 29.54
0 -8 0 291.24 27.03
0 -8 0 322.94 29.05
0 -8 0 343.22 29.73
0 0 -8 362.04 27.11
0 0 -8 337.59 26.65
0 0 -8 338.31 29.15
0 0 -8 382.86 29.78
0 0 8 348.35 27.11
0 0 8 337.06 26.7
0 0 8 339.24 29.18
0 0 8 362.96 29.78
0 8 0 285.76 26.99
0 8 0 349.58 29.06
0 8 0 354.54 29.04
0 8 0 321.08 29.69
8 0 0 353.59 29.14
8 0 0 341.08 29.09
8 0 0 335.25 29.55
2 0 8 62.62 6.08
8 -2 0 51.48 5.87
8 -2 0 48.74 5.67
8 -2 0 55.42 5.8
8 2 0 57.12 5.17
8 2 0 53.54 5.29
8 2 0 53.64 5.91
8 2 0 47.82 5.42
-8 2 0 55.1 5.09
-8 2 0 45.76 5.88
-8 2 0 50.74 5.6
-8 2 0 52.51 5.59
-2 0 -8 53.11 5.13
-2 0 -8 58.13 5.4
-2 0 -8 53.63 5.76
-2 0 -8 56.05 5.9
-2 0 8 56.02 5.27
-2 0 8 51.4 5.2
-2 0 8 51.87 5.53
-2 0 8 56.22 6.52
0 -8 -2 46.16 5.22
0 -8 -2 58.41 5.63
0 -8 -2 58.75 5.48
0 -8 -2 54.73 6.01
0 -8 2 43.82 4.99
0 -8 2 56.71 4.94
0 -8 2 51.91 5.64
0 -8 2 50.29 6.22
0 8 -2 45.13 4.9
0 8 -2 57.77 4.85
0 8 -2 51.88 5.64
0 8 -2 50.1 5.22
0 8 -2 47.4 6.05
0 8 2 45.24 5.09
0 8 2 62.53 5.68
0 8 2 60.3 5.52
0 8 2 49.59 5.86
2 0 -8 57.63 5.48
2 0 -8 55.14 5.2
2 0 -8 47.93 5.45
2 0 -8 56.84 6.21
2 0 8 57.12 5.39
2 0 8 56 6.01
-8 2 0 52.62 5.09
-8 2 0 50.75 5.08
-8 -2 0 56.54 5.25
-8 -2 0 53.37 5.38
-8 -2 0 50.24 5.94
-8 -2 0 65.24 5.47
4 0 8 96.54 8.38
4 0 8 104.63 8.19
8 -4 0 83.69 7.34
8 -4 0 87.65 7.93
8 -4 0 81.78 8.26
8 4 0 97.04 7.43
8 4 0 87.64 7.38
8 4 0 81.27 8.15
0 8 -4 76.79 7.91
-8 -4 0 82.63 8.16
-8 -4 0 94.46 7.48
-8 -4 0 85.74 7.39
4 0 -8 86.05 8.49
4 0 8 75.82 7.21
4 0 8 78.62 7.47
4 0 8 88.46 8
4 0 -8 92.33 7.67
4 0 -8 84.2 7.3
-8 4 0 76.33 8.03
-4 0 -8 82.38 7.22
-4 0 -8 79.64 7.43
-4 0 -8 89.43 8.23
-4 0 8 88.3 7.6
-4 0 8 81.4 7.24
-4 0 8 75.89 7.77
-4 0 8 83.56 8.77
0 -8 -4 89.68 7.51
0 -8 -4 92.26 7.83
0 -8 -4 89.86 7.92
0 -8 -4 76.93 8.14
0 -8 4 69.38 7.14
0 -8 4 72.18 7.96
0 -8 4 72.83 7.74
0 -8 4 73.08 8.54
0 8 -4 80.89 7.09
0 8 -4 76.84 7.12
-8 4 0 83.57 7.22
0 8 -4 74.24 7.77
0 8 -4 72.98 8.43
0 8 4 86.82 7.28
0 8 4 98.34 7.85
0 8 4 94.69 7.9
0 8 4 83.42 8.17
-8 4 0 85.86 7.99
-8 4 0 86.46 8.06
-8 4 0 90.62 8.14
-8 4 0 88.58 7.22
8 -6 0 16.38 3.16
8 -6 0 24.55 3.01
-8 6 0 31.3 2.89
-8 -6 0 15.75 2.91
-8 -6 0 20 2.74
6 0 8 23.08 3.13
6 0 8 25.32 3.41
8 6 0 19.5 3.02
8 -6 0 16.26 2.46
8 -6 0 20.93 3.03
-6 0 -8 17.96 2.44
-6 0 -8 18.63 2.89
-6 0 -8 24.24 3.08
-6 0 -8 24 3.18
-6 0 8 22.56 2.93
-6 0 8 20.29 2.64
-6 0 8 23.86 3.12
-6 0 8 17.42 3.56
0 -8 -6 21.67 2.75
0 -8 -6 21.11 2.83
0 -8 -6 23.1 3.2
0 -8 6 13.06 2.45
0 -8 6 20.86 2.73
0 -8 6 17.5 2.82
0 -8 6 12.24 2.91
0 -8 6 15.38 3.54
0 8 -6 20.87 2.59
0 8 -6 18.51 2.67
0 8 -6 16.55 2.86
0 8 -6 18.2 3.33
0 8 6 22.45 2.59
0 8 6 30.44 3.46
0 8 6 25.97 2.99
0 8 6 22.01 2.92
6 0 -8 19.95 2.87
6 0 -8 20.25 2.72
6 0 8 19.1 2.45
6 0 8 19.96 2.87
-8 6 0 18.41 3.03
-8 -6 0 22.29 2.85
6 0 -8 22.29 3.3
8 -6 0 18.37 2.56
-8 6 0 22.47 3.05
-8 6 0 20.65 2.84
8 6 0 21.02 2.65
8 6 0 22.87 2.77
-2 -8 0 60.73 6.05
-2 -8 0 52.38 5.69
-2 -8 0 49.97 5.27
-2 8 0 61.2 5.53
-2 -8 0 54.84 5.3
-8 0 2 49.12 5.75
-8 0 2 48.24 5.39
-8 0 2 52.19 5.97
-8 0 2 57.3 5.81
8 0 -2 53.12 5.22
8 0 -2 48.75 5.68
8 0 -2 46.08 5.4
8 0 2 45.24 4.82
8 0 2 55.88 5.94
8 0 2 52.35 5.88
-2 8 0 55.07 5.63
-2 8 0 60.2 5.6
-8 0 -2 46.88 5.77
-2 8 0 59.19 6.08
0 -2 -8 57.82 5.35
-2 -8 0 59.56 4.89
0 -2 -8 57.34 5.68
0 -2 -8 58.39 6.08
0 -2 8 51.23 5.3
0 -2 8 53.15 5.9
0 -2 8 56.11 6.31
0 2 -8 59.03 5.21
0 2 -8 50.9 5.26
0 2 -8 54.26 5.63
0 2 -8 52.26 6.1
0 2 8 57.81 5.28
0 2 8 63.66 5.18
0 2 8 57.25 5.74
0 2 8 58.6 6.36
2 -8 0 41.94 5.05
2 -8 0 53.55 5.71
2 -8 0 52.81 6.18
2 8 0 51.36 5.11
2 8 0 57.99 4.9
2 8 0 58.09 5.68
2 8 0 50.2 5.32
2 8 0 56.22 6.07
-8 0 -2 54.49 4.97
-8 0 -2 50.17 5.42
-8 0 -2 54.53 6.09
0 -2 -8 58.47 5.21
-8 0 2 50.44 5.35
-8 0 2 50.68 5.21
-2 2 8 83.15 8
-2 2 8 86.52 8.54
2 -2 8 77.88 7.46
2 -2 8 92.99 8.3
2 -2 8 99.37 8.6
-8 -2 -2 100.29 7.48
-2 8 2 69.16 7.22
-2 8 2 90.33 7.93
-2 8 2 98.05 8.01
-2 8 2 82.78 8.29
8 2 -2 82.74 8.06
8 2 -2 86.54 8.18
-8 -2 -2 81.2 7.57
2 8 -2 84.29 7.31
2 8 -2 86.66 7.14
2 8 -2 80.4 8.02
-8 2 2 82.61 7.44
-8 2 2 92.18 7.2
-8 2 2 83.29 8.05
-8 2 2 75.48 7.79
-8 2 2 84.45 8.18
-2 -8 -2 82.81 7.45
-2 -8 -2 81.38 7.99
-2 -8 -2 87.25 7.8
-2 -8 -2 85.11 8.21
-8 -2 -2 87.09 8.26
-8 -2 -2 81.37 7.94
8 -2 2 83.53 8.2
8 -2 2 75.93 8
-2 -2 -8 91 7.42
-2 -2 -8 87.63 7.42
-2 -2 -8 86.76 8.12
-2 -2 -8 99.11 8.2
2 2 -8 83.18 7.39
2 2 -8 77.49 7.72
2 2 -8 82.74 8.51
2 -8 2 67.54 7.11
2 -2 8 76.91 7.19
2 -8 2 85.73 7.87
2 -8 2 74.96 8.55
8 -2 2 73.14 7.42
8 -2 2 89.33 8.25
-2 2 8 93.25 7.57
-2 2 8 87.54 7.22
8 2 -2 87.07 7.39
2 2 -8 88.05 7.51
2 8 -2 76.42 8.37
2 -8 2 82.73 8.06
-8 -2 -2 86.69 7.53
2 2 8 100.05 8.33
-8 -2 2 80.94 8.27
-2 -8 2 80.01 7.35
-8 2 -2 92.3 7.17
-8 -2 2 95.63 7.5
2 -8 -2 74.86 7.38
2 -8 -2 94.25 7.98
2 -8 -2 98.56 7.99
2 -8 -2 73.26 8.35
-2 -2 8 80.6 8.61
8 2 2 91.02 7.39
-2 2 -8 88.29 7.43
-2 2 -8 85.77 7.86
2 -2 -8 88.85 7.52
2 -2 -8 86.05 7.29
2 -2 -8 81.17 7.94
2 -2 -8 89.42 8.46
-2 2 -8 88.32 7.26
-2 8 -2 73.23 7.06
-2 8 -2 87.19 7.94
-2 8 -2 89.16 7.87
8 2 2 85.2 8.24
-2 -2 8 86.73 7.52
-2 -2 8 85.37 7.43
-2 -2 8 81.92 8.01
2 2 8 91.41 7.39
2 2 8 94.35 7.37
2 2 8 84.01 8.17
-8 2 -2 80.46 7.41
-8 2 -2 84.98 8.26
-8 2 -2 87.87 8.19
-8 2 -2 83.34 7.91
2 8 2 84.65 7.42
2 8 2 93.07 8.08
2 8 2 88.21 7.81
8 -2 -2 88.12 7.52
8 -2 -2 91.35 7.3
8 -2 -2 87.66 8.16
8 -2 -2 75.23 7.89
8 -2 -2 81.89 8.29
-2 2 -8 86.97 8.17
-2 2 -8 87.46 8.27
-2 -8 2 76.56 7.98
-2 -8 2 73.17 8.5
-2 8 -2 82.61 8.41
-8 -2 2 93.76 7.44
-8 -2 2 74.25 8.08
8 2 2 92.29 8.09
-2 8 4 21.02 2.7
2 8 -4 20.83 2.9
-8 4 2 21.96 2.91
-8 4 2 23.42 2.92
2 8 -4 23.71 2.68
-4 -2 -8 23.96 2.69
-4 -2 -8 25.28 3.02
-4 -2 -8 29.09 3.85
8 4 -2 25.27 2.82
8 4 -2 22.44 3.06
8 4 -2 24.05 3.07
2 8 -4 23.55 3.47
8 -4 2 19.42 2.99
8 4 -2 26.24 2.76
-2 8 4 31.63 3.43
-2 8 4 26.4 3.66
-2 8 4 20.17 3.05
-8 4 2 32.41 3.16
-4 2 8 26.45 3.01
-4 2 8 26.36 3.14
-4 2 8 18.78 2.77
-4 2 8 22.05 3.56
-2 -8 -4 27.33 2.94
-2 -8 -4 24.95 2.9
-2 -8 -4 23.43 2.85
-2 -8 -4 23.2 3
-8 4 2 22.44 2.7
-8 -4 -2 19.26 2.82
-8 -4 -2 17.59 3.09
-8 -4 -2 15.78 2.8
2 8 -4 23.96 3.1
2 -8 4 21.24 2.95
8 -4 2 24.13 3.23
4 2 -8 27.7 2.88
4 -2 8 18.51 2.38
4 -2 8 21.59 2.85
4 -2 8 26.59 3.47
4 -2 8 27.09 3.44
4 2 -8 27.1 2.94
-8 4 2 21.67 2.9
-8 4 2 21.69 3.23
2 -8 4 25.15 3.18
4 2 -8 17.95 2.64
2 -8 4 20.56 3.04
2 -8 4 17.94 3.45
4 2 -8 19.56 3.37
-8 -4 -2 21.69 2.76
4 -2 -8 27.69 3.34
-2 -8 4 20.35 2.7
-2 -8 4 18.62 2.9
-2 8 -4 21.34 2.86
-2 8 -4 22.72 2.53
-8 4 -2 27.86 3.23
-8 4 -2 19.03 2.89
-2 -8 4 17.33 2.64
2 8 4 27.84 3.47
4 -2 -8 25.79 3.01
2 -8 -4 18.7 2.77
2 8 4 26.23 2.74
2 8 4 25.21 2.86
-4 -2 8 24.57 3.06
-4 -2 8 24.78 2.9
-4 -2 8 23.7 3.3
8 4 2 22.51 2.76
8 4 2 23.7 3.12
8 4 2 22.9 3.02
8 -4 -2 22.18 2.99
8 -4 -2 24.07 3.24
-8 -4 2 20.9 3
-4 2 -8 29.88 3.93
4 -2 -8 22.49 3.48
-2 -8 4 15.68 3.48
2 8 4 25.64 2.9
4 2 8 17.89 2.41
4 2 8 24.21 2.85
4 2 8 27.12 3.05
4 2 8 24.33 3.37
-4 2 -8 22.57 2.93
-4 2 -8 25.32 3.41
-2 8 -4 23.17 2.87
-2 8 -4 19.47 3.32
2 -8 -4 28.37 3.69
2 -8 -4 21.85 3.31
4 -2 -8 21.33 2.86
-4 -2 8 17.05 3.56
-4 2 -8 22.53 2.5
-4 2 -8 21.03 2.84
-8 -4 2 25.11 2.93
-8 -4 2 24.75 2.84
-8 4 -2 23.71 3.22
-8 -4 2 36.52 3.86
-8 4 -2 21.38 2.69
-8 4 -2 24.84 3.1
8 -4 -2 23.9 2.86
2 -8 6 3.85 2.14
8 -6 2 6.83 2.51
8 -6 2 5.27 2.47
2 -8 6 -1.13 2.39
8 6 -2 6.35 2
8 6 -2 4.34 2.06
8 6 -2 6.05 2.15
-6 2 8 4.98 1.79
8 -6 2 4.95 2.3
-8 6 2 4.87 1.99
2 -8 6 5.9 1.97
6 2 -8 1.27 2.51
-8 6 2 3.8 2.25
-6 -2 -8 5.45 1.82
-2 8 6 3.87 1.79
-2 8 6 9.15 1.74
-2 8 6 8.51 1.97
-2 8 6 5.1 2.28
8 -6 2 3.13 1.79
-8 6 2 3.71 1.77
-8 6 2 8.08 2.02
2 8 -6 3.16 1.88
-8 -6 -2 3.52 2.02
-8 -6 -2 4.63 2.16
6 2 -8 5.06 2.3
6 2 -8 4.4 2.03
-8 -6 -2 3.42 2.26
-8 -6 -2 3.73 1.83
-6 2 8 4.7 2.88
-6 -2 -8 5.24 2.08
-6 -2 -8 4.85 2.23
-6 -2 -8 6.8 2.24
-2 -8 -6 5.18 2.17
-6 2 8 7.34 2.18
-6 2 8 6.55 1.8
6 -2 8 0.5 2.05
2 -8 6 -0.06 2.93
2 8 -6 5.63 1.49
8 6 -2 5.68 1.84
2 8 -6 4.22 1.84
2 8 -6 5.96 2.68
6 -2 8 0.6 2.38
6 -2 8 4.48 2.74
-2 -8 -6 4.61 1.9
-2 -8 -6 7.78 2.03
-2 -8 -6 4.73 1.87
-6 -2 8 6.33 1.97
2 -8 -6 8.36 2.09
-6 -2 8 3.59 2.21
2 -8 -6 5.19 2.08
2 -8 -6 7.13 1.76
8 6 2 5.18 1.99
8 6 2 5.62 2.31
8 -6 -2 6.66 2.08
-8 -6 2 4.72 2.1
-8 -6 2 11.07 2.47
-8 6 -2 1.59 1.7
-8 6 -2 4.47 2.26
8 -6 -2 2.18 2.47
-8 6 -2 8.97 2.25
-2 -8 6 5.88 1.96
-2 -8 6 5.17 2.12
-2 -8 6 5.08 1.96
-2 -8 6 0.64 2.81
-2 8 -6 4.43 1.77
6 -2 -8 2.94 2.12
6 -2 -8 6.76 1.91
-6 2 -8 3.96 2.46
-6 2 -8 6.59 2.14
-8 -6 2 6.3 2
2 8 6 7.7 1.86
2 8 6 3.98 1.86
-8 -6 2 5.06 2.22
2 8 6 7.56 1.94
-6 2 -8 2.58 2.31
-8 6 -2 7.64 2.32
6 -2 -8 0.24 1.77
-2 8 -6 3.03 2.59
-6 -2 8 3.87 3.01
2 8 6 4.23 2.05
-2 8 -6 1.63 1.54
6 2 8 8.81 2.68
8 -6 -2 5.13 2.03
-6 2 -8 2.29 2.2
6 2 8 3.79 2.35
-2 8 -6 3.36 1.87
2 -8 -6 0.65 2.53
6 2 8 1.78 2.1
0 -4 -8 90.77 7.44
-4 8 0 87.72 7.84
-4 8 0 92.8 7.84
0 -4 8 73.3 7.62
-4 8 0 66.94 6.96
-4 -8 0 82.87 7.34
-4 -8 0 78.81 7.88
-4 8 0 81.82 8.22
8 0 4 90.82 8.19
-8 0 4 66.28 7.54
-8 0 -4 86.54 7.06
-8 0 -4 74.64 7.4
-8 0 -4 94.25 8.25
-4 -8 0 75.91 8.16
8 0 4 92.16 8.13
0 -4 -8 93.69 7.2
0 -4 -8 81.21 7.89
-8 0 4 82.83 8.42
0 4 8 94 7.36
0 4 8 92.75 7.13
0 4 8 87.11 7.96
0 4 8 89.53 8.32
4 -8 0 66.15 7.08
4 -8 0 82.64 7.94
4 -8 0 86.51 8.38
4 8 0 86.62 7.3
4 8 0 86.41 7.1
4 8 0 78.01 7.92
8 0 -4 80.32 7.54
8 0 -4 79.08 7.18
8 0 -4 81.25 7.8
8 0 4 89.38 7.15
8 0 4 81.21 7.38
0 -4 8 87.43 8.61
0 4 -8 92.42 7.23
0 4 -8 88.17 8.46
0 4 -8 82.8 7.25
-8 0 -4 92.91 8.2
-8 0 4 80.34 7.5
-8 0 4 76.16 7.17
-8 0 4 82.22 7.78
0 -4 8 93.08 7.25
0 -4 8 87.61 7.36
0 4 -8 72.9 7.62
0 -4 8 78.98 8.04
-2 -4 -8 28.1 2.9
-8 2 4 19.71 2.77
-2 -4 -8 23.18 2.8
-2 4 8 24.03 2.93
-2 4 8 28.29 2.7
-2 4 8 22.33 3
-2 4 8 28.36 3.71
-2 4 8 29.24 3.4
-8 2 4 23.43 3.35
-4 -8 -2 22.68 2.95
-4 -8 -2 23.25 2.65
2 -4 8 25.79 2.88
2 -4 8 24.01 3.02
2 -4 8 22.81 2.99
4 -8 2 22.18 3.57
2 4 -8 26.5 3.44
-8 2 4 20.14 2.78
2 -4 8 23.51 3.76
2 4 -8 26.56 2.93
2 4 -8 24.84 2.91
2 4 -8 27.23 3.53
-4 -8 -2 23.78 3.13
4 -8 2 25.38 3.14
-8 -2 -4 26.61 3.33
-8 2 4 22.94 3.07
-8 2 4 24.24 2.66
-8 2 4 23.45 2.99
4 8 -2 23.61 2.82
4 8 -2 29.19 2.79
4 8 -2 22.04 3
4 8 -2 23.67 3.43
8 2 -4 19.01 2.91
8 2 -4 24.66 3.32
-4 8 2 17.74 2.61
-4 8 2 25.15 3.59
-4 8 2 29.52 3.14
-4 8 2 25.33 3.4
-2 -4 -8 26.31 2.96
4 -8 2 25 3.13
8 2 -4 24.94 2.9
-2 -4 -8 24.81 3.13
8 -2 4 23.45 3.43
2 -4 8 22.84 3.45
-8 -2 -4 27.44 3.26
-8 -2 -4 26.7 3.04
-4 -8 -2 22.36 3.05
-8 -2 -4 26.74 3.34
-4 -8 -2 18.87 2.69
8 -2 4 24.65 3.34
8 -2 4 21.76 2.92
8 2 4 27.93 3.45
-8 2 -4 20.04 3.27
-2 4 -8 32.95 4.41
-4 -8 2 25.11 2.77
-8 -2 4 23.72 2.86
2 -4 -8 25.12 3.18
2 -4 -8 20.14 2.91
-8 2 -4 24.57 3.45
-8 -2 4 22.84 3.17
-8 2 -4 23.86 3.1
-4 -8 2 19.91 2.79
4 8 2 24.59 3.15
8 -2 -4 24.77 3.02
8 -2 -4 25.08 2.7
8 -2 -4 20.57 2.96
-8 -2 4 15.74 2.83
2 -4 -8 28.68 3.11
4 -8 -2 19.82 3.3
-4 8 -2 27.6 3.71
-4 8 -2 28.06 3.4
8 2 4 23.53 3.04
8 2 4 30.88 3.46
-4 -8 2 22.47 2.98
-4 -8 2 19.46 3.47
-4 8 -2 24.53 3.06
4 8 2 26.61 2.87
4 8 2 27.2 2.82
4 8 2 22.87 3.04
4 8 2 23.8 3.35
2 4 8 24.42 3.03
4 -8 -2 16.12 2.75
4 -8 -2 25.08 3
-2 -4 8 21.83 3.68
-8 -2 4 25.88 3.59
-2 4 -8 25.86 3.64
-2 4 -8 26.92 3.34
2 4 8 28.5 2.9
2 4 8 27.71 2.83
2 4 8 23.2 2.89
2 4 8 23.88 3.2
2 4 8 29.36 3.26
-2 -4 8 31.79 3.77
-2 4 -8 23.45 2.88
-2 -4 8 22.4 2.86
-8 -4 -4 45.53 4.79
8 4 -4 37 4.91
-8 -4 -4 42.14 4.45
4 -8 4 36.78 4.41
-8 -4 -4 45.11 5.34
4 -4 8 40.58 5.67
-4 -4 -8 43.31 4.45
4 -4 8 42.13 4.8
-4 -4 -8 49.2 5.05
-4 4 8 47.46 4.1
4 8 -4 40.56 5.66
-4 4 8 37.46 5.68
-8 4 4 39.6 4.61
-8 4 4 44.52 4.79
-8 4 4 48.19 4.87
-8 4 4 47.11 4.7
-8 4 4 41.94 4.6
8 -4 4 42.86 5.31
8 -4 4 37.08 5.08
-4 -8 -4 46.26 4.45
-4 -8 -4 43.3 4.31
4 -4 8 38.37 5.69
4 4 -8 40.64 4.74
-8 -4 -4 38.9 4.95
4 -8 4 37.21 5.71
4 8 -4 40.9 4.36
4 -8 4 35.69 5.02
-4 8 4 35.95 4.39
-4 8 4 50.1 4.82
-4 8 4 40.6 5.13
4 -4 8 42.04 5.1
-8 4 4 42.69 5.46
8 4 -4 33.22 4.93
-4 4 8 45.9 5.49
-4 -8 -4 41.02 4.59
4 8 -4 38.22 4.29
-4 -8 -4 44.26 4.66
4 8 -4 39.37 4.89
4 -8 4 44.74 5.07
-4 -4 -8 41 4.59
8 -4 4 33.71 4.52
8 4 -4 42.21 4.59
4 4 -8 40.92 4.64
4 4 -8 41.73 5.43
-4 4 8 46.38 4.73
-4 -8 -4 42.15 4.85
-4 4 8 37.22 4.79
-8 4 -4 27.82 4.8
-8 -4 4 29.53 4.75
-4 8 -4 40.52 4.23
-4 -8 4 37.97 4.57
-8 -4 4 43.43 4.5
-4 -8 4 38.46 4.81
-4 -8 4 32.54 4.74
-8 -4 4 49.69 5.52
-8 -4 4 39.45 4.69
-8 4 -4 47.93 5.19
4 -8 -4 34.95 4.59
4 -8 -4 46.21 4.91
4 -8 -4 36.31 5.37
-4 4 -8 41.58 4.76
-4 4 -8 42.34 4.94
-4 4 -8 42.54 5.22
-4 4 -8 51.13 5.39
-4 -4 8 43.06 5.87
8 4 4 45.24 4.47
4 4 8 43.7 4.36
4 4 8 42.86 4.64
4 4 8 47.84 4.89
4 4 8 45.3 5.13
-4 8 -4 38.32 4.92
-4 8 -4 45.84 4.98
-4 8 -4 35.76 5.41
-8 4 -4 45.33 5.37
4 8 4 44.41 4.52
4 8 4 42.61 4.87
4 8 4 44.16 4.6
8 -4 -4 42.75 4.7
8 -4 -4 47.59 4.18
8 -4 -4 38.55 5.42
-4 -8 4 43.13 4.52
-4 -4 8 40.63 4.54
-8 4 -4 43.42 4.56
-8 4 -4 44.06 5.27
4 -4 -8 44.56 4.71
4 -4 -8 42.97 4.24
4 -4 -8 33.25 4.81
8 4 4 44.29 5.17
8 4 4 48.78 5.16
-4 -4 8 45.6 4.82
-8 6 4 8.9 2.18
-8 6 4 3.23 2.05
-8 6 4 9.26 2.16
-8 6 4 9.1 2.23
6 -4 8 8.7 2.86
6 -4 8 7.09 2.85
-6 -4 -8 6.78 2.32
-6 -4 -8 9.9 2.48
-6 -4 -8 10.26 2.39
-4 8 6 13.8 1.87
6 -4 8 4.27 2.21
4 -8 6 8.68 2.08
4 -8 6 7.88 2.32
4 -8 6 7.27 2.68
4 -8 6 5.73 2.85
4 8 -6 11.86 1.8
4 8 -6 9.68 2.11
-6 4 8 8.47 2.28
-6 4 8 9.38 1.81
-6 4 8 6.08 2.08
-6 4 8 4.45 3.02
-6 4 8 8.11 2.7
-4 -8 -6 12.35 2.26
-4 -8 -6 10.53 2.12
-8 -6 -4 9.55 2.15
-8 -6 -4 13.96 2.47
-8 6 4 8.16 2.65
-6 -4 -8 13.23 2.21
-4 8 6 8.69 2.03
6 4 -8 9.06 2.31
6 4 -8 9.92 2.22
6 4 -8 9.23 2.68
-8 -6 -4 9.78 2.27
-8 -6 -4 6.7 2.39
-8 -6 -4 6.45 2.15
8 6 -4 12.31 2.04
8 6 -4 4.92 1.96
-4 -8 -6 9.1 2.14
-4 8 6 9.25 2.11
-4 8 6 8.23 2.46
-4 -8 -6 8.53 2.16
8 6 -4 7.79 2.16
8 6 -4 7.54 2.25
4 8 -6 9.75 2.76
4 8 -6 8.86 2.06
8 -6 4 7.07 2.67
8 -6 4 9.68 2.75
8 -6 4 7.94 2.56
-6 4 -8 7.43 2.52
-6 4 -8 8.57 2.21
-6 -4 8 9.19 3.05
4 -8 -6 9.72 2.72
-8 6 -4 10.41 2.5
-6 -4 8 6.56 2.46
4 8 6 9.36 2.25
4 8 6 8.81 2.32
6 -4 -8 9.78 2.5
6 -4 -8 8.07 1.94
6 -4 -8 6.71 2.17
-6 -4 8 9.85 2.24
6 4 8 9.94 2.05
6 4 8 8.4 2.22
-8 -6 4 8.5 2.14
-8 6 -4 9.5 2.51
4 -8 -6 11.1 2.25
-8 6 -4 8.74 2.33
4 -8 -6 7.57 2.31
4 -8 -6 11.36 1.95
8 6 4 6.6 2.38
-6 4 -8 7.1 2.59
-6 4 -8 8.29 2.5
-8 -6 4 9.44 2.29
4 8 6 10.77 1.99
4 8 6 9.99 2.04
-4 -8 6 9.81 2.31
-4 -8 6 10.29 2.26
-4 -8 6 7.24 2.03
8 -6 -4 9.92 2.43
-4 8 -6 10.61 2.08
-4 8 -6 6.27 2.25
-4 8 -6 7.45 2.53
-4 8 -6 7.69 2.53
8 6 4 9.63 2.04
8 6 4 8.82 2.39
-4 -8 6 4.44 3.22
-8 -6 4 5.03 2.14
-8 -6 4 9.9 2.9
-8 6 -4 12.19 2.1
8 -6 -4 8.11 2.08
-6 4 -8 10.07 2.47
6 4 8 8.54 2.76
6 4 8 11.53 2.49
8 -6 -4 7.73 2.73
6 8 0 23.28 3.08
0 -6 -8 23.59 2.85
-8 0 -6 24.11 3.22
0 -6 -8 20.84 2.91
-6 8 0 20.81 2.99
-6 8 0 23.34 2.83
-6 8 0 24.06 3.14
-8 0 -6 19.35 3.14
-8 0 6 17.62 2.93
-8 0 6 21.99 2.67
-8 0 -6 23.28 2.99
0 -6 -8 22.2 3.2
0 -6 8 20.96 2.64
0 -6 8 21.52 2.8
0 -6 8 18.06 2.78
0 -6 8 16.87 3.05
0 -6 8 20.07 3.7
0 6 -8 21.68 2.69
0 6 -8 17.19 2.56
0 6 -8 20.63 2.95
0 6 -8 23.56 3.33
0 6 8 24.32 2.72
0 6 8 24.67 3.08
0 6 8 22.78 2.93
6 -8 0 14.96 2.49
6 -8 0 21.72 2.97
6 -8 0 24.13 2.98
6 -8 0 18.35 3.26
6 8 0 21.56 2.73
6 8 0 28.11 3.43
6 8 0 18.9 2.86
-6 -8 0 23.32 2.71
8 0 -6 20.84 3.18
8 0 -6 22.36 2.81
8 0 -6 15.88 2.6
8 0 -6 17.2 3.26
8 0 6 21.39 2.47
8 0 6 17.79 2.79
8 0 6 23.07 3.16
8 0 6 21.7 3.44
-6 -8 0 21.6 2.9
-8 0 6 18 3.41
-6 -8 0 18.95 2.9
-6 -8 0 17.24 3.16
-8 2 6 7.06 2.56
6 8 -2 5.05 1.99
-6 8 2 4.18 2.33
-2 -6 -8 5.66 1.98
-6 8 2 8.02 1.94
-2 -6 -8 4.61 1.75
-8 2 6 5.88 2.15
-6 -8 -2 5.04 2.11
6 8 -2 6.31 1.87
-8 -2 -6 5.26 2.39
-8 2 6 3.02 1.58
-8 2 6 1.87 2.77
-8 -2 -6 5.48 1.74
-8 -2 -6 4.09 2.12
-6 -8 -2 4.33 1.98
-6 -8 -2 3.46 2.09
-2 -6 -8 4.15 1.91
8 -2 6 5.39 2.13
8 -2 6 7.66 2.54
8 -2 6 2.33 2.69
8 2 -6 5.18 2.35
8 2 -6 5.84 2.17
8 2 -6 5.29 1.82
8 2 -6 2.26 2.39
-2 6 8 5.66 2.01
-6 8 2 9.73 2.24
-6 8 2 4.4 2.04
-8 2 6 -0.72 1.62
2 6 -8 7.07 2.56
2 -6 8 4.5 2.1
2 -6 8 6.33 2.04
2 -6 8 3.08 2.56
2 -6 8 1.09 2.95
2 6 -8 4.84 2.02
2 6 -8 4.3 1.8
-8 -2 -6 4.17 2.38
-6 8 2 3.49 1.64
-2 -6 -8 3.33 2.24
6 -8 2 3.58 2.17
6 -8 2 6.28 2.29
6 -8 2 5.92 2.81
6 8 -2 4.64 1.8
-2 6 8 4.25 1.91
-2 6 8 5.87 2.46
-2 -6 -8 5.75 2.06
2 6 8 5.03 1.95
-8 -2 6 3.95 2.28
2 6 8 3.94 2.23
-8 -2 6 -1.46 2.82
-8 2 -6 1.64 2.11
-8 2 -6 7.91 2.65
6 8 2 3.08 1.85
6 -8 -2 2.77 2.47
-2 -6 8 5.13 2.04
-2 -6 8 4.32 1.84
-2 -6 8 9.17 3.16
-2 6 -8 3.97 1.87
-2 6 -8 6.81 1.93
-2 6 -8 4.97 2.32
-2 6 -8 7.57 2.61
6 -8 -2 3.28 1.95
-8 2 -6 2.42 2.3
-8 -2 6 6.12 1.95
2 -6 -8 7.07 2.12
2 -6 -8 3.45 1.98
2 -6 -8 3.45 2.58
6 8 2 5.9 2.07
6 8 2 2.98 2.14
6 8 2 3.91 1.77
8 -2 -6 5.18 2.21
8 -2 -6 3.98 1.89
-6 -8 2 4.37 2.05
2 6 8 5.18 2.12
2 6 8 5.67 1.76
2 6 8 3.83 1.84
-6 8 -2 5.78 2.17
-6 8 -2 5.33 2.16
-6 8 -2 5.33 2.32
6 -8 -2 6.13 2.03
8 2 6 6.24 2.12
8 2 6 4.01 2.46
8 2 6 6.75 2.59
-6 -8 2 7.1 1.93
-6 -8 2 4.64 2.06
-6 -8 2 -1.12 2.53
8 -4 6 9.41 2.81
8 -4 6 8.71 2.7
8 4 -6 9.13 2.32
8 4 -6 6.73 2.08
8 4 -6 8.46 2.64
-6 8 4 12.7 1.93
-6 8 4 11.34 2.19
-6 8 4 6.55 2.37
-4 -6 -8 9.03 2.15
-6 -8 -4 15.24 2.45
-6 8 4 8.38 1.99
8 -4 6 4.85 2.23
6 8 -4 9.49 2.17
6 8 -4 7.89 2.57
-6 -8 -4 10.53 2.27
-6 -8 -4 10.56 2.04
-6 -8 -4 7.46 2.21
-6 -8 -4 7.49 2
-8 4 6 9.59 2.66
-8 -4 -6 10.33 2.61
-8 -4 -6 9.7 2.48
6 -8 4 7.28 2.37
6 -8 4 8.94 2.66
6 -8 4 8.2 2.89
6 8 -4 9.61 1.95
6 8 -4 7.81 2.18
-8 -4 -6 10.41 2.13
-8 -4 -6 8.59 2.31
-4 6 8 6.6 2.67
4 -6 8 7.31 2.28
4 -6 8 9.32 2.41
-8 4 6 9.45 2.32
-8 4 6 8.76 1.64
-8 4 6 7.69 1.9
4 -6 8 6.11 2.71
4 -6 8 1.55 3
4 6 -8 9.7 2.17
4 6 -8 7.07 1.83
4 6 -8 5.12 2.57
-4 -6 -8 9.25 2.32
-4 6 8 7 2.1
-4 -6 -8 8.18 2.23
-4 -6 -8 4.28 1.36
-4 6 8 6.35 2.14
6 -8 4 8.64 2.01
-6 8 -4 8.21 2.37
-6 8 -4 10.43 2.44
-6 8 -4 12.84 1.91
-6 -8 4 6.56 2.36
8 4 6 9.94 2.04
8 4 6 10.04 2.26
8 4 6 8.25 2.46
8 4 6 10.12 2.73
-8 4 -6 7.52 2.58
-8 4 -6 4.21 2.19
8 -4 -6 6.66 2.29
-4 -6 8 8.54 2.44
-4 -6 8 10.22 2.18
-4 -6 8 6.2 1.9
-4 -6 8 10.45 3.18
-4 6 -8 8.81 2.18
-4 6 -8 7.51 2.18
-4 6 -8 8.99 2.65
-4 6 -8 8.48 2.63
8 -4 -6 7.26 2.68
-6 -8 4 9.79 3.1
-8 4 -6 8.69 2.55
4 -6 -8 9.89 2.37
4 -6 -8 5.53 2.19
4 -6 -8 8.96 2.76
-6 -8 4 8.62 2.13
-6 -8 4 9.72 2.12
8 -4 -6 8.15 1.91
8 -4 -6 7.22 2.28
6 8 4 8.6 2.07
6 8 4 8.1 2.39
6 8 4 6.32 2.21
4 6 8 9.12 2.01
4 6 8 7.77 2.15
4 6 8 9.54 2.29
4 6 8 8.64 2.49
6 -8 -4 7.14 2.18
6 -8 -4 10.63 2.3
6 -8 -4 8.06 2.72
-6 8 -4 7.81 2.59
-8 -4 6 11.39 2.32
-8 -4 6 10.09 2.52
-8 -4 6 6.33 2.1
-8 -4 6 9.99 2.94
-8 4 -6 5.69 2.25
-8 4 -6 9.95 2.54
-8 -6 -6 8.05 2.22
-8 -6 -6 4.02 2.24
-8 -6 -6 5.87 2.42
-8 -6 -6 3.48 2.21
6 -8 6 2.29 2.4
6 -8 6 6.77 2.7
6 8 -6 8.34 1.8
6 8 -6 4.6 1.99
6 8 -6 4.68 1.97
6 8 -6 5.68 2.68
6 -6 8 6.65 2.19
6 -6 8 5.23 2.52
6 -6 8 1.94 2.68
-8 6 6 7.16 2.22
-8 6 6 5.97 2
-8 6 6 4.79 2.03
-8 6 6 4.42 2.72
-6 -8 -6 5.84 2.13
-6 -8 -6 8.26 2.19
-6 -8 -6 6.96 2.25
-6 -8 -6 3.33 2.07
8 6 -6 3.64 2.14
8 6 -6 6.6 2.52
-6 8 6 6.92 2.06
6 -8 6 2.73 1.74
-6 -6 -8 7.35 2.17
-6 -6 -8 7.79 2.29
-6 -6 -8 5.6 2.21
-6 -6 -8 7.04 2.39
6 -6 8 3.7 2.97
-6 8 6 5.38 1.72
-6 8 6 6.94 2.1
8 -6 6 3.03 2.11
8 -6 6 6.89 2.76
8 -6 6 5.44 2.84
8 6 -6 5.24 2.32
6 6 -8 4.95 1.82
6 6 -8 4.82 2.49
-6 6 8 7.37 2.18
-6 6 8 1.14 2.09
-6 6 8 4.35 2.65
6 -8 6 5.21 2.96
6 6 -8 5.47 2.18
-6 8 6 4.29 2.49
-6 -6 8 7.62 2.33
-6 8 -6 7.2 2.57
-6 -6 8 4.32 2.43
-6 -6 8 4.99 2.19
-6 -8 6 6.25 1.96
6 -8 -6 6.04 2.32
6 -8 -6 6.65 1.87
6 -8 -6 6.54 2.19
6 -8 -6 4.81 2.77
-6 -8 6 6.97 3.09
-8 -6 6 6.86 2.32
-8 -6 6 5.83 2.6
-6 8 -6 5.37 2.45
6 -6 -8 6.07 2.28
6 -6 -8 3.05 2.19
6 -6 -8 3.76 2.78
-8 6 -6 5.71 2.44
-8 6 -6 6.44 2.65
-8 6 -6 3.25 2.41
-6 8 -6 8.27 2.12
-6 8 -6 4.89 2.27
-6 6 -8 2.79 2.6
-6 6 -8 3.88 2.4
6 6 8 6.88 1.96
6 6 8 5.45 2.15
6 6 8 5 2.22
6 6 8 7.28 2.48
-8 -6 6 4.71 2.1
-8 -6 6 2.73 1.97
-8 -6 6 6.18 3
-8 6 -6 2.38 2.22
6 8 6 8.92 2.09
6 8 6 6.46 2.32
6 8 6 5.16 2.34
8 -6 -6 3.46 2.32
8 -6 -6 3.55 1.88
8 -6 -6 4.32 2.24
8 -6 -6 3.46 2.63
-6 -6 8 5.19 1.79
-6 -6 8 4.59 3.09
-6 6 -8 4.1 2.08
-6 6 -8 6.62 2.37
-6 -8 6 4.22 2.28
-6 -8 6 5.72 2.27
8 6 6 9.4 2.03
8 6 6 6.65 2.19
8 6 6 7.67 2.34
8 6 6 6.32 2.59
-8 -8 0 18.21 2.88
-8 -8 0 19.89 2.78
-8 -8 0 19.17 2.96
-8 0 -8 20.68 2.47
-8 0 -8 20.51 2.95
-8 0 -8 20.45 3.24
-8 0 -8 21.94 3.36
-8 0 8 17.54 3.03
-8 0 8 21.36 2.77
-8 0 8 21.11 3.82
-8 8 0 16.08 2.35
-8 8 0 23.73 3.13
-8 8 0 21.97 2.94
-8 8 0 17.53 3.12
0 -8 -8 20.68 2.9
0 -8 -8 25.51 3.41
0 -8 -8 23.62 2.99
0 -8 -8 25.43 3.16
0 -8 8 16.29 2.52
0 -8 8 19.22 2.76
0 -8 8 18.81 2.81
0 -8 8 16.38 2.83
0 -8 8 15.5 3.12
0 -8 8 15.24 3.58
0 8 -8 21.88 2.79
0 8 -8 18.18 2.68
0 8 -8 20.24 3.02
0 8 -8 18.17 3.45
0 8 8 24.59 2.8
0 8 8 27.35 3.49
0 8 8 25.45 3.07
0 8 8 23.62 3.08
8 -8 0 19.83 2.58
8 -8 0 22.9 3.13
8 -8 0 22.25 3.05
8 -8 0 21.69 3.36
8 0 -8 21.22 2.95
8 0 -8 20.19 2.69
8 0 -8 16.73 2.66
8 0 -8 21.21 3.35
8 0 8 21.78 2.58
8 0 8 17.73 2.93
8 0 8 22.06 3.22
8 0 8 19.6 3.5
8 8 0 22.86 2.82
8 8 0 23.12 2.81
8 8 0 20.1 3.03
-8 -8 -2 -0.17 1.88
-8 -8 -2 -1.36 2.06
-8 -8 -2 -1.02 2.05
2 8 -8 -0.32 1.9
2 8 -8 -1.5 1.82
2 8 -8 1.26 2.52
8 -2 8 -0.23 2.13
-8 -2 -8 1.38 1.74
-8 -2 -8 0.22 2.21
-8 -2 -8 0.4 2.34
-8 -2 -8 -0.85 2.36
8 2 -8 0.41 2.44
2 -8 8 -1.75 2.06
2 -8 8 -4.23 2.5
8 -8 2 -0.12 1.7
8 -8 2 -0.73 2.27
8 8 -2 2.2 1.84
-8 2 8 -1.46 2.14
-8 2 8 0.54 1.84
-8 2 8 0.94 1.57
-8 2 8 2.35 2.88
-8 2 8 1.38 2.54
8 -2 8 -1.61 2.45
8 -2 8 2.11 2.81
8 2 -8 0.54 2.21
-8 8 2 3.21 2.01
-8 8 2 1.1 1.89
-8 8 2 -0.85 1.96
-8 8 2 -0.48 2.07
-2 -8 -8 -0.02 1.96
-2 -8 -8 -0.8 1.8
-2 -8 -8 -0.83 1.16
-2 -8 -8 1.47 1.94
-2 -8 -8 -0.87 2.06
8 8 -2 -1 2.27
-2 8 8 0.06 1.78
2 -8 8 -0.91 3.08
8 2 -8 0.91 1.93
8 -8 2 0.05 2.57
8 -8 2 0.55 2.27
-2 8 8 0.87 2.06
8 8 -2 1.6 1.88
8 8 -2 0.33 2.12
2 -8 8 2.25 1.94
-2 8 8 -0.05 2.34
-2 8 -8 -0.76 1.83
2 -8 -8 -0.86 2.08
2 -8 -8 0.38 1.8
2 -8 -8 0.79 2.34
-2 -8 8 -0.63 2.19
-2 8 -8 1.01 1.8
-8 -2 8 -2.28 3.03
-2 -8 8 -1.13 1.97
-2 8 -8 -2.05 1.53
-2 8 -8 -1.35 2.45
-8 -8 2 -1.93 2.04
2 8 8 0.83 1.67
2 8 8 -2.04 1.72
2 8 8 -1.27 1.88
2 8 8 -0.74 2.07
2 8 8 -2.37 1.95
8 -8 -2 -0.08 1.92
8 -8 -2 -1.27 2.08
8 -8 -2 1.8 2.56
-8 2 -8 0.5 2.23
-8 2 -8 -3.09 2.26
-8 -2 8 -0.73 2.02
-2 -8 8 -1.49 3.14
8 -2 -8 2.11 2.1
8 -2 -8 0.74 1.83
8 -2 -8 -0.38 0.25
-8 -8 2 1.42 2.63
-8 8 -2 0.47 2.18
-8 8 -2 1.27 2.06
-8 8 -2 2.34 2.2
-2 -8 8 0.06 1.96
-8 -2 8 0.31 2.19
8 2 8 2.79 1.53
8 2 8 2.74 2.12
8 2 8 0.48 2.06
8 2 8 0.92 2.64
-8 2 -8 -2.16 2.33
-8 -8 2 0.62 1.91
-8 -8 2 1.77 1.95
-2 -8 8 -3.23 1.93
8 8 2 0.83 1.92
8 8 2 -0.48 2.15
8 8 2 1.93 2.25
-8 -8 -4 -3.82 1.99
-8 -8 -4 -4.15 2.09
-8 -8 -4 0.05 2.11
-8 -8 -4 0.3 2.13
-8 -8 -4 -4 1.86
8 -8 4 -0.11 2.74
4 -8 8 -4.14 2.88
4 8 -8 -1.84 1.96
4 8 -8 0 1.94
-8 -4 -8 0.38 1.85
-8 -4 -8 -3.86 2.15
-8 -4 -8 -3.97 2.24
-8 -4 -8 0.81 2.29
8 4 -8 -0.99 2.04
8 4 -8 -0.1 2.48
4 -8 8 -0.8 2.12
4 -8 8 0.46 2.21
8 -8 4 -3.64 1.83
8 -8 4 -3.03 2.2
8 8 -4 -0.46 1.68
8 8 -4 -2.73 1.97
-8 4 8 -1.44 2.1
-8 4 8 -0.17 1.71
-8 4 8 -0.13 2.88
-8 4 8 0.5 2.57
8 -4 8 -3.34 2.65
8 -4 8 -3.55 2.42
8 4 -8 -2.39 2.1
8 -8 4 -0.56 2.56
-8 8 4 -1.81 1.88
-8 8 4 -3.41 1.84
-8 8 4 -0.26 2.05
-8 8 4 -0.98 1.98
-8 8 4 -1.66 2.21
-4 -8 -8 -0.12 2.02
-4 -8 -8 -1.62 1.85
-4 -8 -8 -1.8 1.8
-4 -8 -8 -0.53 2.03
-4 8 8 -4.13 2.34
4 -8 8 -6.1 2.6
-4 8 8 0.68 1.96
8 8 -4 -3.64 1.99
8 8 -4 -1.64 2.06
4 8 -8 -6.25 2.47
-4 8 8 -1.7 1.74
8 -4 8 -3.54 2
-4 8 -8 -4.27 2.41
-4 8 -8 -2.9 2.02
-8 8 -4 -0.3 2.23
-4 -8 8 -6.03 1.98
4 -8 -8 -1.11 2.18
4 -8 -8 -1.27 1.95
4 -8 -8 -3.44 2.45
-8 -4 8 0.43 2.89
-8 4 -8 -5.24 2.12
-4 -8 8 -3.41 2.4
-8 -8 4 -1.09 2.04
-4 -8 8 1.02 1.84
-4 -8 8 -0.88 3.05
-4 8 -8 -1.04 1.78
4 8 8 -0.39 1.7
4 8 8 -2.2 1.81
4 8 8 -1.38 1.98
4 8 8 -1.19 2.09
8 -8 -4 -2.65 2.05
8 -8 -4 0.01 0.37
8 -8 -4 -3.25 2.56
-8 4 -8 1.08 2.27
-8 4 -8 -1.34 2.37
-4 -8 8 1.07 2.03
-8 -8 4 -4 2.17
8 -4 -8 -2.2 2.19
8 -4 -8 -2.23 1.7
8 -4 -8 -1.84 1.9
-4 8 -8 -5.22 2.18
-8 8 -4 0.17 1.83
-8 8 -4 -0.07 2.11
-8 8 -4 -0.75 2.22
-8 -4 8 -1.43 2.33
-8 -4 8 -3.17 2.07
8 4 8 0.14 1.86
8 4 8 -4 2
8 4 8 -0.17 2.32
8 4 8 -1.39 2.59
-8 4 -8 -2.61 2.51
-8 4 -8 -2.54 2.09
-8 -8 4 -0.59 1.97
-8 -8 4 1.91 2.87
8 8 4 0.04 1.74
8 8 4 -0.94 2.22
8 8 4 -4.53 2.12
-8 -8 -6 0.46 2.11
-8 -8 -6 1.02 2.31
-8 -8 -6 -1.98 2.21
-8 -8 -6 -3.9 2.06
6 8 -8 1.63 2.17
6 8 -8 1.12 1.89
6 8 -8 2.43 2.62
8 -6 8 -0.76 2.15
-8 -6 -8 2.63 2.07
-8 -6 -8 -2.82 2.16
-8 -6 -8 -1.03 2.39
-8 -6 -8 0.55 2.28
8 6 -8 1.73 2.56
6 -8 8 -1.44 2.4
6 -8 8 -3.34 2.68
8 -8 6 -2.68 1.79
8 -8 6 -3.22 2.38
8 8 -6 -1.57 2.3
8 8 -6 -3.22 2.02
8 8 -6 -0.71 2.39
-6 -8 -8 -1.27 2.12
-8 6 8 -0.98 2.06
-8 6 8 0.21 2.03
-8 6 8 -0.66 2.56
8 -6 8 -1.21 2.93
8 6 -8 -0.73 1.97
8 6 -8 0.73 1.91
8 -8 6 -3.59 2.95
-8 8 6 -1.4 2.05
-8 8 6 0.19 2
-8 8 6 -1.31 2.5
-6 -8 -8 2.43 2.17
-6 8 8 1.65 1.97
-6 -8 -8 -0.01 2.05
-6 -8 -8 -0.49 2.1
8 -6 8 1.13 2.85
-6 8 8 0.03 2.53
6 -8 8 -2.98 2.83
8 -8 6 0.31 2.73
6 -8 8 -0.79 2.14
-6 8 8 0.15 2.03
-6 -8 8 -1.61 2.56
-6 8 -8 -1.7 2.44
-6 8 -8 -0.58 2.35
-8 6 -8 -0.43 2.2
-6 8 -8 -0.78 2.25
-6 8 -8 -2.32 2.05
6 -8 -8 0.42 2.47
6 -8 -8 -1.04 2.04
6 -8 -8 -2.69 2.67
-8 8 -6 -0.42 2.4
-8 -6 8 2.11 2.45
-8 -6 8 -2.21 2.18
-6 -8 8 0.34 2.14
-8 -8 6 -1.44 2.3
-8 -8 6 -1.67 2.06
-8 -8 6 -2.5 1.97
6 8 8 1.15 1.86
6 8 8 0.57 1.98
6 8 8 0.13 2.24
6 8 8 1.22 2.52
8 -8 -6 -1.93 2.23
8 -8 -6 -0.66 1.88
8 -8 -6 -2.5 2.22
8 -8 -6 1.35 2.58
-8 -6 8 -1.52 1.81
-8 -6 8 2.5 3.05
-6 -8 8 0.09 1.78
-6 -8 8 -0.59 3.12
8 -6 -8 2.12 2.4
8 -6 -8 -0.26 2.14
8 -6 -8 -0.22 2.8
-8 -8 6 -0.69 3.05
-6 -8 8 -2.32 2.21
-8 8 -6 1.87 1.94
-8 8 -6 -2.87 2.23
-8 8 -6 -2.82 2.47
-8 -6 8 1.03 2.36
8 6 8 0.04 1.95
8 6 8 -3.12 2.05
8 6 8 -0.27 2.27
8 6 8 1.64 2.7
-8 6 -8 -3.19 2.04
-8 6 -8 2.34 2.5
-8 6 -8 -0.12 2.54
8 8 6 1.84 1.93
8 8 6 2.37 2.31
8 8 6 -1.56 2.38
-8 -8 -8 9.42 2.49
-8 -8 -8 6.66 2.5
-8 -8 -8 7.74 2.61
-8 -8 -8 7.66 2.56
8 -8 8 5.5 2.81
8 -8 8 7.77 3.16
8 -8 8 6.58 3.32
8 8 -8 7.71 2.27
8 8 -8 9.1 2.34
8 8 -8 7.39 2.8
-8 8 8 6.16 2.36
8 -8 8 6.23 2.38
-8 8 8 4.26 2.84
-8 8 8 9.81 2.47
-8 8 -8 5.48 2.66
-8 8 -8 8 2.58
8 -8 -8 6.98 2.69
8 -8 -8 7.04 2.47
8 -8 -8 5.56 3.13
-8 8 -8 8.79 2.96
-8 -8 8 6.52 2.65
-8 -8 8 8.02 2.93
-8 -8 8 7.23 2.51
-8 -8 8 7.2 2.15
-8 -8 8 9.94 3.6
-8 8 -8 4.74 2.31
8 8 8 8.76 2.28
8 8 8 10.16 2.5
8 8 8 6.18 2.59
8 8 8 5.62 2.85
-9 -1 -1 27.3 3.41
-9 -1 -1 22.87 2.99
-9 -1 -1 24.14 3.38
-9 -1 -1 21.77 3.1
9 -1 1 21.66 3.19
9 -1 1 28.61 3.83
9 1 -1 25.83 3.01
9 1 -1 22.53 3.3
9 1 -1 21.22 2.95
1 -9 1 18.83 3.56
1 1 -9 25.88 3.69
1 9 -1 23.76 2.7
1 9 -1 25.31 3.13
1 9 -1 23.49 3.3
1 9 -1 24.57 3.45
1 -1 9 25.87 3.01
-9 1 1 25.62 2.88
-9 1 1 23.03 2.91
-9 1 1 18.28 3.16
-9 1 1 22.03 2.94
-9 1 1 22.06 3.07
-1 -9 -1 21.81 2.91
-1 -9 -1 22.93 2.99
-1 -9 -1 28.04 3.48
-1 -9 -1 19.21 3.37
-1 1 9 27.19 3.49
1 -1 9 16.78 2.62
-1 9 1 20.44 2.65
-1 -1 -9 31.24 3.74
-1 -1 -9 30.74 3.67
-1 -1 -9 24.24 3.27
-1 -1 -9 30.16 3.41
-1 1 9 28.1 3.69
1 1 -9 25.37 3.51
-1 9 1 29.86 3.98
1 -9 1 20.15 2.72
1 -9 1 30.28 3.95
1 -1 9 26.04 3.41
9 -1 1 25.78 3.3
1 1 -9 26.19 3.03
-1 1 9 25.14 2.98
-1 9 1 25.83 3.38
-1 1 9 24.85 3.16
-1 9 1 31.25 3.59
1 1 -9 25.28 2.9
1 -1 9 23.54 3.45
-1 9 -1 25.14 3.61
-1 9 -1 21.61 2.6
-1 9 -1 24.13 3.5
-1 -9 1 21.38 3.47
-1 -1 9 22.39 3.21
-9 1 -1 24.97 3.11
-1 -9 1 21.68 2.82
1 -9 -1 20.95 2.85
1 -9 -1 23.72 3.04
1 -9 -1 27.77 3.72
1 -9 -1 23.15 3.58
-1 -1 9 26.48 3.72
-1 1 -9 26.6 3.4
-9 -1 1 24.84 3.12
1 -1 -9 28.83 3.03
1 -1 -9 27.64 3.01
1 -1 -9 27.34 3.86
1 -1 -9 26.61 3.43
-1 -9 1 23.36 3.01
-9 1 -1 34.13 3.61
-1 1 -9 24.81 3.12
-1 9 -1 26.19 3.05
-1 1 -9 25.83 3.37
-1 9 -1 23.9 3.07
-1 -1 9 28.03 3.62
-1 -1 9 29.47 3
1 1 9 27.71 3.4
1 1 9 28.37 3.6
1 1 9 22.84 3.24
1 1 9 29.16 3.64
-9 1 -1 20.83 3.01
-9 1 -1 24.51 2.95
-9 1 -1 21.59 3.29
-9 1 -1 23.4 3.23
1 9 1 25 3.34
1 9 1 28.15 3.91
1 9 1 25.82 3.49
1 9 1 28 3.39
9 -1 -1 27.53 3.08
9 -1 -1 21.9 3.21
9 -1 -1 21.04 3.01
9 -1 -1 23.98 3.21
-1 1 -9 25.46 3.2
-9 -1 1 25.02 2.93
-9 -1 1 24.07 3
-9 -1 1 21.04 3.2
-9 -1 1 27.28 3.76
-9 -1 1 29.24 4.07
9 1 1 25.6 3.23
9 1 1 22.83 3.4
9 1 1 23.6 3.17
-1 -9 -3 48.89 5.09
-1 -9 -3 54.09 4.98
-1 -9 -3 43.89 5.47
9 3 -1 46.08 4.68
-3 1 9 47.89 4.93
-3 1 9 49.59 4.68
-3 1 9 44.74 5.13
-3 1 9 44.5 6.01
-1 -9 -3 43.83 4.81
-9 -3 -1 43.89 4.95
-9 -3 -1 40.84 5.54
-1 9 3 41.05 4.58
-1 9 3 55.17 5.12
-1 9 3 45.13 5.44
-9 3 1 44.31 5.23
9 3 -1 45.67 4.76
9 3 -1 42.04 5.34
9 3 -1 43.83 5.21
1 -9 3 33.95 4.44
1 -9 3 49.95 4.53
1 -9 3 48.8 5.24
1 -9 3 44.48 4.92
1 -9 3 44.3 6.01
1 9 -3 39.08 4.46
1 9 -3 48.73 4.47
1 9 -3 42.42 5.08
1 9 -3 43.51 4.7
1 9 -3 43.67 5.66
-3 -1 -9 45.66 5.26
-3 -1 -9 51.79 5.3
-9 -3 -1 44.48 4.93
-3 -1 -9 45.17 4.84
-9 3 1 44.72 5.04
-9 3 1 52.49 4.65
-3 -1 -9 52.95 5.1
-9 -3 -1 43.36 4.79
3 -1 9 36.02 4.45
3 -1 9 45.52 4.93
3 -1 9 51.92 5.82
3 -1 9 58.93 5.75
3 1 -9 44.22 5.02
3 1 -9 48.51 4.72
3 1 -9 46.16 5.83
9 -3 1 44.52 5.28
9 -3 1 46.53 5.24
-9 3 1 37.74 5.26
-3 -1 -9 47.72 4.69
-9 3 1 50.71 4.52
9 -3 -1 42.84 5.14
3 -1 -9 44.19 4.75
3 -1 -9 47.24 5.01
1 -9 -3 42.82 4.83
-1 -9 3 39.28 4.63
1 9 3 46.64 5.15
1 -9 -3 53.77 5.01
1 -9 -3 44.28 5.42
3 -1 -9 43.71 4.96
1 9 3 48.67 4.71
1 9 3 54.12 5.13
-3 -1 9 43.99 4.97
-3 -1 9 47.26 4.76
-3 -1 9 44.22 5.06
-3 -1 9 45.03 6.08
-3 1 -9 40.57 4.61
-3 1 -9 42.76 4.92
-3 1 -9 47.95 5.15
-3 1 -9 47.42 5.53
-3 1 -9 48.32 5.34
-1 -9 3 39.58 4.39
1 -9 -3 56.15 5.1
-1 -9 3 41.58 5.93
-1 9 -3 35.14 4.29
-1 9 -3 52.49 4.37
3 1 9 50.46 5.39
9 -3 -1 46.94 4.89
9 3 1 50.68 4.8
9 3 1 43.71 5.49
9 3 1 44.75 5.13
-1 -9 3 43.36 5.25
3 1 9 47.97 4.81
3 1 9 51.3 5.06
3 1 9 51.41 5.61
-9 3 -1 47.85 5.35
-9 3 -1 47.93 4.98
9 -3 -1 40.02 5.45
-9 3 -1 45.05 4.53
-9 3 -1 40.69 4.76
-9 3 -1 47.43 5.51
-9 -3 1 47.42 4.82
-9 -3 1 42.23 5.41
-9 -3 1 31.83 5.22
3 -1 -9 46.49 5.77
-1 9 -3 47.39 5.12
-1 9 -3 42.68 5.66
1 9 3 52.68 5.02
-9 -3 1 46.88 4.93
9 -5 1 79.13 7.6
9 -5 1 74.86 7.79
-9 -5 -1 78.93 7.03
9 -5 1 69.08 6.65
1 9 -5 76.87 8.16
9 5 -1 75.58 7.68
9 -5 1 74.11 6.79
1 9 -5 78.66 6.78
1 9 -5 71.71 7.51
1 9 -5 69.84 7.2
1 -9 5 71.18 7.61
1 -9 5 76.12 7.48
1 -9 5 75.06 8.24
1 9 -5 78.25 6.67
-1 9 5 75.9 7.72
5 -1 9 84.9 8.1
-1 9 5 77.04 6.89
-1 9 5 92.61 7.42
-1 9 5 88.12 7.54
-5 1 9 81.27 6.79
-5 1 9 76.92 7.32
-5 1 9 82.67 8.4
9 5 -1 79.3 6.96
9 5 -1 78.6 6.97
-1 -9 -5 86.77 7.39
-1 -9 -5 80.71 7.7
-9 -5 -1 75.4 7.09
5 -1 9 80.89 7.84
-9 5 1 87.71 6.81
-9 5 1 79.21 6.8
-9 5 1 94.61 6.81
-9 5 1 80.47 7.64
-9 5 1 82.45 7.53
-9 5 1 73.9 7.47
-9 5 1 73.97 7.74
-5 -1 -9 77.51 6.84
-5 -1 -9 78.69 7.08
-5 -1 -9 80.4 7.73
-9 -5 -1 71.66 7.75
5 -1 9 66.85 6.64
5 -1 9 67.52 7.04
5 -1 9 76.67 7.64
5 1 -9 67.16 7.21
5 1 -9 76.15 8.16
5 1 -9 76.05 7.22
5 1 -9 77.65 6.98
-1 -9 -5 81.43 7.39
-5 1 9 78.67 7.16
-1 -9 -5 84.37 7.04
1 -9 -5 78.53 7.03
-9 -5 1 92.19 7.55
-9 5 -1 80.61 7.56
-9 -5 1 82.13 7.09
-9 5 -1 84.39 7.74
-9 5 -1 87.41 7.8
1 9 5 85.82 7.41
1 9 5 87.82 7.44
5 -1 -9 79.11 7.16
5 -1 -9 85.9 6.91
-9 5 -1 78.3 7.73
-5 -1 9 76.51 7.17
-9 -5 1 71.69 7.69
-1 9 -5 73 7.99
1 -9 -5 64.03 7.1
1 -9 -5 84.16 7.45
1 -9 -5 70.7 7.85
-1 9 -5 65.94 7.21
-9 -5 1 86.77 7.14
-1 -9 5 74.86 6.84
-1 -9 5 70.52 7.56
-5 -1 9 79.99 6.97
-5 -1 9 74.46 7.24
-9 5 -1 84.18 6.72
-9 5 -1 69.67 6.81
1 9 5 81.52 6.93
9 5 1 82.84 7.02
9 5 1 75.37 7.1
9 5 1 73.55 7.82
-5 1 -9 68.15 7.29
-5 1 -9 72.85 7.68
-5 1 -9 76.68 7.56
5 -1 -9 76.63 8.07
5 1 9 68.06 6.68
5 1 9 75.04 7.06
5 1 9 77.99 7.55
5 1 9 81.39 8.02
9 -5 -1 81.42 6.93
9 -5 -1 70.83 7.5
9 -5 -1 73.1 7.88
-1 -9 5 72.95 6.84
-5 1 -9 72.7 6.7
-5 1 -9 79.06 7.11
-1 -9 5 74.31 8.31
-1 9 -5 79.73 6.75
-1 9 -5 73.38 7.45
-5 -1 9 82.73 8.47
1 9 -7 55.31 5.56
9 -7 1 57.49 6.49
9 7 -1 65.73 5.7
1 9 -7 58.64 6.83
-9 -7 -1 50.78 6.33
1 -9 7 54.62 7.12
1 9 -7 53.89 6.01
1 9 -7 51.33 5.9
7 -1 9 54.46 5.33
7 -1 9 53.08 5.84
7 -1 9 55.67 6.43
7 -1 9 57.69 6.78
7 1 -9 53.46 5.96
7 1 -9 61.13 5.71
7 1 -9 48.44 5.67
7 1 -9 50.62 6.69
-9 7 1 73.36 6.25
-9 -7 -1 59 5.8
-9 -7 -1 62.4 5.76
-7 1 9 53.07 5.95
-1 9 7 61.56 5.68
-1 9 7 66.97 5.96
-1 9 7 64 6.42
9 7 -1 56.36 5.65
9 -7 1 59.08 5.46
9 -7 1 64.15 6.48
9 -7 1 55.84 6.27
-9 7 1 62.76 6.42
-7 -1 -9 53.03 5.39
-7 -1 -9 57.05 5.89
-7 -1 -9 60.29 6.49
-7 -1 -9 57.46 6.51
-7 1 9 59.02 5.52
-7 1 9 59.13 5.77
-7 1 9 54.03 7.08
-1 -9 -7 60.69 5.76
-1 -9 -7 63.81 6.05
-1 9 7 65.79 6.09
1 -9 7 51.68 6.14
9 7 -1 59.57 6.32
9 7 -1 59.64 6.15
-9 7 1 58.44 5.37
-1 -9 -7 61.19 6.51
-9 7 1 61.73 6.09
1 -9 7 52.77 6.18
1 -9 7 54.38 5.66
7 1 9 55.92 6.39
1 -9 -7 58.32 6.51
1 -9 -7 63.19 5.79
-9 7 -1 40.91 5.49
-9 7 -1 62.18 6.4
-9 7 -1 60.22 6.16
-9 7 -1 63.73 6.4
1 -9 -7 63.33 5.82
7 1 9 57.82 5.46
1 -9 -7 60.89 5.99
9 7 1 58.44 5.73
9 7 1 52.91 6.4
-1 -9 7 51.04 5.92
-9 -7 1 71.51 6.37
-1 9 -7 56.97 5.5
-7 -1 9 60.7 6.03
-7 -1 9 58.03 5.64
-7 -1 9 54.67 5.64
-7 -1 9 56.96 7.2
-7 1 -9 48.38 5.25
-7 1 -9 57.76 5.94
-7 1 -9 59.77 6.43
-7 1 -9 56.59 6.63
1 9 7 61.19 5.57
-1 9 -7 56.67 5.98
-1 9 -7 50.02 6.04
-1 9 -7 57.48 6.8
1 9 7 68.93 6
1 9 7 63.39 6.13
-1 -9 7 54.21 7.02
-1 -9 7 51.46 5.51
-1 -9 7 62.3 5.72
-1 -9 7 53.49 6.18
9 -7 -1 57.45 6.67
7 -1 -9 54.05 6.78
-9 -7 1 48.55 6.17
9 -7 -1 63.67 5.62
9 -7 -1 62.82 6.29
7 -1 -9 51.43 5.92
-9 -7 1 57.83 5.8
7 1 9 57.06 5.91
7 -1 -9 59.51 5.61
7 1 9 59.53 6.75
9 -7 -1 53.64 6.15
9 7 1 63.72 5.76
-9 -7 1 58.87 5.84
9 -1 3 38.94 5.46
-1 -3 -9 47.48 5.49
-9 1 3 45.4 5.01
-3 -9 -1 49.84 5.62
-3 9 1 36.8 4.41
-1 3 9 51.83 5.76
-9 1 3 47.02 5.23
-9 1 3 39.94 4.84
3 9 -1 45.48 5.24
-3 9 1 49.2 5.12
-3 9 1 57.3 5.14
-3 9 1 50.71 5.68
3 -9 1 49.88 5.87
3 9 -1 46.6 4.69
3 9 -1 51.1 4.56
-1 3 9 47.99 4.95
-1 3 9 44.5 4.65
-1 3 9 51.32 5.38
-3 -9 -1 45.26 4.75
1 3 -9 45.85 4.8
1 3 -9 51.53 4.91
1 3 -9 46.07 5.64
9 -1 3 38.98 4.96
1 -3 9 49.24 4.59
1 -3 9 49.36 5
1 -3 9 46.29 5
1 -3 9 49.71 5.53
-1 -3 -9 53.79 4.93
-1 -3 -9 50.43 4.85
-1 -3 -9 45.21 5.17
-3 -9 -1 45.69 4.86
9 1 -3 41.7 4.73
3 -9 1 36.44 4.45
3 -9 1 50.42 5.25
-9 1 3 39.02 4.6
3 9 -1 49.06 5.44
-9 -1 -3 43.04 5.13
-9 -1 -3 45.37 5.73
-9 -1 -3 42.59 5.49
-3 -9 -1 44.77 5.16
-9 1 3 45.85 5.43
9 -1 3 50.99 5.56
-3 -9 -1 45.28 4.43
9 -1 3 47.86 4.46
1 -3 9 53.1 5.98
9 1 -3 46.56 5.36
-9 -1 -3 49.46 4.54
-9 1 3 33.78 5.67
9 -1 -3 45.27 4.74
9 1 3 51.3 5.6
-1 -3 9 55.87 6.29
-1 -3 9 44.91 4.89
9 -1 -3 45.17 5.13
3 9 1 48.33 5.21
9 -1 -3 40.66 5.19
1 3 9 49.39 4.8
-9 -1 3 44.59 5.14
-9 -1 3 38.61 4.78
-9 -1 3 40.76 5.46
-9 1 -3 40.5 4.41
-9 1 -3 40.01 5
-9 1 -3 44.96 5.62
9 1 3 43.64 5.37
3 -9 -1 48.35 5.22
3 -9 -1 44.42 5.74
-1 -3 9 47.89 5.37
1 3 9 55.6 4.74
-9 -1 3 48.34 4.89
-1 3 -9 46.95 4.82
-1 3 -9 54.67 4.67
-3 9 -1 49.51 5.1
-3 9 -1 57.11 5.08
-3 9 -1 44.58 5.55
3 9 1 46.99 4.68
3 9 1 47.06 4.56
-3 -9 1 51.17 4.82
-9 -1 3 46.79 5.17
3 9 1 46.63 4.75
-1 3 -9 43.28 4.85
-1 3 -9 48.36 5.37
-1 3 -9 47.73 5.66
-3 -9 1 39.8 4.36
-3 -9 1 49.18 5.22
-3 -9 1 49.2 5.65
-3 9 -1 38.47 4.25
1 -3 -9 52.21 5
1 -3 -9 46.77 4.64
1 -3 -9 49.16 5.13
-9 1 -3 44.72 5.52
1 3 9 44.68 5.32
1 3 9 50.2 5.75
3 -9 -1 37.37 4.63
-3 9 3 49.13 4.6
3 -9 3 42.78 4.63
-3 9 3 33 4.16
-9 3 3 45.25 4.01
-9 3 3 43.19 4.76
-3 9 3 44.98 5.26
3 -9 3 41.7 4.82
-3 3 9 40.81 5.51
3 -9 3 39.32 4.11
-3 -3 -9 43.08 4.69
-9 -3 -3 39.57 5.13
-9 -3 -3 34.76 4.84
3 -3 9 31.82 3.83
-3 9 3 44.85 4.59
3 9 -3 38.23 4.17
-9 -3 -3 33.44 4.56
-3 3 9 37.23 4.51
-3 3 9 41.83 4
-3 3 9 38.67 4.53
3 9 -3 39.86 4.05
3 9 -3 35.75 4.58
3 9 -3 36.75 5.32
-9 3 3 36.65 4.51
-3 -9 -3 42.34 4.9
3 3 -9 40.09 5.35
-9 3 3 35.57 4.29
-9 3 3 34.25 5.21
-3 -9 -3 36.95 4.45
-3 -9 -3 44.64 4.67
9 -3 3 32.27 4.38
9 -3 3 34.05 5.01
9 -3 3 27.55 4.57
9 3 -3 41.49 4.31
9 3 -3 32.41 4.72
9 3 -3 30.09 4.35
-3 -3 -9 41.45 4.29
-3 -3 -9 37.01 4.37
-3 -3 -9 42.93 4.59
-3 -3 -9 39.94 4.85
3 3 -9 39.96 4.42
3 -9 3 33.5 4.61
3 -3 9 35.98 4.55
3 -3 9 45.14 5.28
3 -3 9 42.5 5.39
-3 -9 -3 42.79 4.34
3 3 -9 38.85 4.39
3 3 -9 38.36 4.44
-9 -3 -3 36.85 4.24
-3 -9 3 33.63 4.5
-3 -9 3 36.5 4.71
3 9 3 41.02 4.37
3 -9 -3 31.04 4.25
3 -9 -3 45.49 4.66
3 -9 -3 47.21 4.73
3 -9 -3 38 5.07
-3 9 -3 39.44 4.66
-3 9 -3 45.14 4.63
-3 9 -3 40.5 5.22
3 3 9 48.82 5
3 -3 -9 38.62 4.52
3 -3 -9 43.66 4.2
3 -3 -9 28.43 4.45
-3 3 -9 36.13 4.45
-3 -3 9 38.25 4.38
9 -3 -3 39.4 4.08
9 -3 -3 35.11 5.18
9 3 3 39.31 4.29
3 9 3 43.18 4.72
-3 -3 9 35.7 4.72
-3 3 -9 35.63 3.93
3 3 9 44.42 4.29
3 3 9 41.04 4.34
3 3 9 40.5 4.6
3 3 9 34.4 4.93
-3 3 -9 39.99 4.65
-3 3 -9 39.32 5.06
-3 3 -9 39.59 5.06
-3 -3 9 38.53 4.61
-3 -3 9 39.64 4.52
-9 -3 3 36.35 4.46
-9 -3 3 35.25 4.32
-9 -3 3 28.57 4.05
-9 -3 3 45.85 5.06
-9 3 -3 41.73 4.39
-9 3 -3 39.99 5.25
-9 3 -3 38.98 5.06
-9 3 -3 30.57 4.38
3 9 3 38.43 4.35
-3 -9 3 35.27 4.31
9 3 3 42.07 5.18
3 9 3 40.65 4.66
9 -3 -3 40.52 4.61
9 3 3 38.74 4.89
-3 -9 3 32.33 3.83
-5 -3 -9 91.37 8.54
5 -3 9 85.43 8.85
3 9 -5 91.84 7.71
5 3 -9 89.87 7.8
-9 -5 -3 89.85 7.85
3 9 -5 84.95 8.97
-9 -5 -3 82.02 7.81
3 9 -5 84.23 8.41
5 3 -9 80.55 8.96
-9 5 3 86.02 8.33
-9 5 3 85.64 8.79
-5 -3 -9 88.32 7.73
-5 -3 -9 94.16 7.89
-5 3 9 91.56 8.97
5 -3 9 77 7.81
-3 9 5 79.9 7.71
-3 9 5 107.56 8.26
-3 9 5 93.08 8.4
-3 9 5 92.95 8.73
-9 5 3 86.21 8.31
9 5 -3 90.53 8.61
3 -9 5 82.09 8.51
3 -9 5 89.69 8.53
3 -9 5 89.62 9.09
3 9 -5 85.36 7.59
-5 3 9 94.59 9.17
9 -5 3 95.4 8.68
9 -5 3 81.42 8.65
-3 -9 -5 94.5 8.42
-3 -9 -5 99.22 8.29
5 -3 9 89.2 8.86
5 3 -9 85.82 8
-9 5 3 90.97 8.38
9 5 -3 85.1 7.71
-5 3 9 87.04 7.99
-9 -5 -3 88.36 8.34
-5 3 9 86.87 8.29
-9 5 3 92.39 8.38
-9 -5 -3 81.31 7.9
-9 5 3 78.89 7.75
-9 -5 -3 86.43 8.68
-9 5 3 100.41 7.49
-3 -9 -5 92.89 8.46
-3 -9 -5 87.66 7.84
9 5 -3 87.8 7.8
-5 3 9 94.18 7.54
9 5 -3 80.12 8.42
3 -9 -5 96.46 8.43
9 5 3 93.13 7.9
3 9 5 99.7 8.42
9 5 3 88.38 8.45
3 9 5 87.96 7.77
3 -9 -5 88.55 8.8
-5 3 -9 91.77 8.57
-5 -3 9 94.98 8.07
3 -9 -5 78.95 7.82
5 3 9 94.32 8.56
-5 -3 9 90.04 7.75
-9 5 -3 91.02 8.65
-3 -9 5 72.63 8.28
-3 -9 5 86.07 9.21
-3 9 -5 85.94 7.53
-3 9 -5 90.7 8.42
5 -3 -9 92.55 7.6
5 -3 -9 85.92 8.33
9 5 3 89.65 8.59
5 3 9 84.75 7.66
5 3 9 96.01 7.89
9 -5 -3 88.69 8.81
-5 3 -9 81.05 7.84
-5 3 -9 89.43 8.74
-5 3 -9 94.78 8.64
-5 -3 9 86.6 9.22
-3 -9 5 80.36 7.77
-5 3 -9 84.87 8.48
-9 5 -3 87.98 7.68
-3 9 -5 91.88 8.42
-3 9 -5 90.65 8.86
3 9 5 95.13 8.34
3 9 5 98.48 8.45
-3 -9 5 90.69 7.74
5 3 9 89.72 8.77
9 -5 -3 88.19 7.9
9 -5 -3 96.4 7.54
5 -3 -9 88.13 8.06
-9 5 -3 92.43 8.65
-9 -5 3 86.87 7.98
-9 -5 3 87.6 7.77
-9 -5 3 81.5 8.45
-9 -5 3 103.16 8.76
-9 5 -3 76.52 8.45
-9 5 -3 95.2 8.64
9 -7 3 122.3 10.81
9 -7 3 120.17 10.83
-9 7 3 124.36 10.44
-9 7 3 123.76 10.67
-9 7 3 118.7 10.56
7 3 -9 114.59 10.09
7 3 -9 124.6 9.79
-7 3 9 116.48 9.5
-3 -9 -7 128.62 10.73
7 -3 9 113.01 10.9
9 -7 3 100.13 9.57
-9 -7 -3 118.12 9.87
-7 3 9 109.97 9.97
-7 3 9 110.39 10.38
-7 3 9 111.35 11.32
-7 3 9 117.77 11.12
-3 -9 -7 123.23 9.92
-3 -9 -7 130.36 9.56
-3 -9 -7 126.12 10.49
-3 -9 -7 120.98 10.51
7 -3 9 106.62 10.99
-7 -3 -9 118.35 9.73
-7 -3 -9 126.57 9.93
3 -9 7 106.85 11.21
-9 -7 -3 114.01 9.76
-9 -7 -3 112.8 10.74
-9 -7 -3 101.42 10.35
3 9 -7 107.56 10.55
3 9 -7 112.87 11.12
-7 -3 -9 114.34 10.73
3 9 -7 121.13 9.7
9 7 -3 102.63 10.57
9 7 -3 112.92 10.74
9 7 -3 114.04 9.78
3 -9 7 105.83 9.78
-9 7 3 102.26 9.71
3 -9 7 105.57 10.63
-9 7 3 114.52 10.94
7 -3 9 111.64 9.84
9 -7 3 111.73 10.97
-3 9 7 116.62 9.83
9 7 -3 112.12 9.73
-3 9 7 125.49 10.59
-3 9 7 120.19 10.94
3 -9 7 114.06 10.7
-7 -3 -9 127.46 10.74
7 3 -9 107.43 11.14
-9 7 -3 115.03 10.82
9 -7 -3 111.75 11.09
-7 3 -9 109.36 10.84
-3 -9 7 114.69 9.81
-3 -9 7 114.59 9.7
7 3 9 94.97 9.55
7 3 9 120.63 9.87
-9 -7 3 125.95 10.99
9 -7 -3 102.11 10.39
-7 -3 9 113.48 11.34
-3 -9 7 105.27 10.49
-7 3 -9 117.58 10.77
9 7 3 120.28 9.88
3 -9 -7 127.2 10.36
9 7 3 113.45 10.74
-9 -7 3 110.52 9.99
-9 -7 3 109.06 9.72
3 9 7 123.17 9.82
3 9 7 132.68 9.56
3 9 7 131.4 10.53
3 9 7 123.94 10.62
3 9 7 129.73 10.62
7 -3 -9 117.41 10.04
7 -3 -9 123.83 9.59
7 -3 -9 105.7 10.46
-3 9 -7 116.46 10.63
-3 9 -7 112.69 11.06
7 3 9 110.82 10.95
9 -7 -3 116.16 9.9
3 -9 -7 116.49 10.57
3 -9 -7 119.21 11.02
-7 3 -9 107.65 9.87
-7 3 -9 115.78 10.78
3 -9 -7 110.14 9.95
-9 7 -3 123.53 10.79
-9 7 -3 117.32 10.72
7 3 9 123.88 10.81
9 7 3 119.16 10.58
-9 7 -3 111.86 9.58
-9 -7 3 103.76 10.55
-7 -3 9 118.7 9.77
-7 3 -9 116.42 10.74
-3 -9 7 110.01 11.32
-3 9 -7 107.61 9.61
-3 9 -7 102.4 10.51
-7 -3 9 108.42 10.01
-1 5 9 85.61 8.22
-1 5 9 76.86 7.64
-5 -9 -1 79.05 7.85
-9 1 5 70.49 6.83
-5 -9 -1 82.29 7.21
-5 -9 -1 73.84 7.67
-5 9 1 82.39 7.98
-9 1 5 78.65 7.33
1 -5 9 75.1 7.46
1 -5 9 82.01 7.98
-9 -1 -5 78.38 8.02
-9 -1 -5 82 7.88
1 -5 9 80.52 6.86
5 -9 1 83.05 7.72
5 -9 1 82.32 7.68
-9 1 5 82.82 8.08
-5 9 1 82.73 7.52
-9 1 5 76.33 8.31
-1 -5 -9 86.71 7.17
-1 -5 -9 90.03 6.94
-1 -5 -9 75.35 7.66
9 1 -5 67.16 7.57
9 1 -5 71.22 8.01
1 5 -9 79.57 8.17
9 -1 5 65.69 7.13
9 -1 5 79.8 7.92
9 -1 5 76.93 8.02
-9 1 5 66.97 7.34
-9 -1 -5 86.54 6.83
-9 -1 -5 74.6 7.2
-5 9 1 91.43 7.72
5 9 -1 75.25 7.66
9 1 -5 77.73 7.36
-9 1 5 74.68 7.54
1 -5 9 79.51 8.37
1 5 -9 83.08 7.05
1 5 -9 79.6 7.02
1 5 -9 68.29 7.26
1 5 -9 84.36 7.58
-1 5 9 83.47 7.13
-1 5 9 86.19 6.81
-5 9 1 65.01 6.77
-5 9 1 85.17 7.6
-1 5 9 87.32 8.1
1 -5 9 71.73 7.07
9 -1 5 80.78 6.8
9 1 -5 79.51 7.05
5 9 -1 75.47 7.03
5 9 -1 82.72 6.9
5 -9 1 79.21 8.23
-9 -1 5 81.64 8.38
-9 -1 5 76.3 6.95
-9 -1 5 87.59 7.48
-9 -1 5 76.49 7.3
1 -5 -9 75.56 7.61
-1 -5 9 78.51 7.06
-1 -5 9 76.44 7.09
-9 1 -5 82.9 7.98
9 1 5 82.86 7.88
9 1 5 84.26 8.03
1 5 9 84.7 7.97
5 -9 -1 69.75 6.95
5 -9 -1 78.91 7.6
5 -9 -1 78.1 8.07
-5 -9 1 80.15 7.98
-1 -5 9 69.48 7.37
-5 9 -1 83.71 8.01
9 1 5 81.25 6.97
9 1 5 77.51 7.16
1 -5 -9 85.23 7.25
-1 -5 9 72.51 7.67
-1 -5 9 89.89 8.47
-9 1 -5 66.82 6.66
-9 1 -5 71.69 7.16
5 9 1 79.29 7.08
5 9 1 81.04 6.92
5 9 1 79.64 7.7
5 9 1 82.09 7.78
9 -1 -5 83.53 7.44
9 -1 -5 77.84 6.91
9 -1 -5 65.96 7.5
1 -5 -9 87.06 6.93
1 5 9 86.42 7.09
1 5 9 92.06 6.92
1 5 9 75.73 7.74
-1 5 -9 83.8 8.15
-5 9 -1 85.04 7.73
-5 9 -1 91.08 7.6
-1 5 -9 83.82 6.88
-1 5 -9 78.15 7.03
-1 5 -9 71.86 7.36
-5 -9 1 74.22 7.66
-5 -9 1 75.82 6.8
-5 -9 1 77.3 7.14
-9 1 -5 82.89 8.01
-9 3 5 88.36 7.46
-9 3 5 87.71 7.94
-9 3 5 84.46 8.91
5 -9 3 80.76 7.57
5 -9 3 88.41 8.54
3 -5 9 82.28 7.9
-9 -3 -5 89.27 7.97
-9 -3 -5 88.68 8.69
-3 -5 -9 96.95 7.93
-3 5 9 88.47 7.96
-3 5 9 93.29 7.5
-3 5 9 79.99 8.39
-3 5 9 96.55 9.16
-3 5 9 97.32 9.03
-9 -3 -5 100.47 8.6
9 -3 5 78.59 8.5
9 3 -5 88.41 7.78
9 3 -5 79.68 8.34
-9 -3 -5 86.16 7.76
-5 9 3 95.26 8.43
-5 9 3 91.48 8.87
-3 -5 -9 98.76 7.78
-3 -5 -9 99.44 8.35
-3 -5 -9 94.24 8.54
3 -5 9 86.42 9.11
3 5 -9 89.81 7.91
3 5 -9 91.46 7.88
3 5 -9 76.94 8.09
3 -5 9 88.97 8.48
9 -3 5 73.75 7.86
9 -3 5 88.94 8.84
3 5 -9 80.32 8.89
-9 3 5 85 8.36
9 3 -5 87.42 8.94
5 9 -3 84.1 7.74
-5 -9 -3 89.41 8.49
-5 -9 -3 88.68 8.16
-5 -9 -3 92.59 8.47
-5 9 3 104.35 8.3
5 9 -3 89.57 8.51
5 9 -3 90.63 7.67
-9 3 5 80.74 8.21
5 9 -3 93.7 8.96
-5 9 3 80.88 7.74
5 -9 3 100.45 8.58
5 -9 3 90.22 9.02
-5 -9 -3 92.87 8
-9 3 5 82.83 8.2
3 -5 9 85.83 8.88
-9 3 -5 84.07 7.92
-9 -3 5 82.21 8.09
-5 -9 3 88.85 7.73
-9 -3 5 90.34 7.95
9 -3 -5 91.16 8.02
-9 -3 5 88.65 7.76
9 3 5 91.83 7.79
-9 -3 5 94.46 9.07
3 -5 -9 92.6 8.05
-9 3 -5 86.87 8.77
5 9 3 89 7.84
-5 -9 3 77.25 8.4
-5 -9 3 88.73 9.01
-5 9 -3 96.67 7.47
-5 9 -3 95.88 8.51
-5 9 -3 99.61 8.53
9 -3 -5 85.99 7.59
-5 -9 3 84.31 7.93
-3 5 -9 87.61 8.66
-3 5 -9 93.47 8.87
-3 5 -9 86.03 7.94
-3 5 -9 83.73 8.37
3 5 9 91.6 7.85
3 5 9 99.36 7.77
3 5 9 92.84 8.29
3 5 9 94 8.62
3 5 9 98.99 8.5
5 -9 -3 81.45 7.84
5 -9 -3 103.7 8.48
5 -9 -3 88.65 8.86
3 -5 -9 96.63 7.58
-9 3 -5 92.49 8.79
-3 -5 9 88.49 7.82
9 3 5 87.21 7.96
9 3 5 90.22 8.7
9 3 5 91.01 8.71
3 -5 -9 90.56 8.48
-3 -5 9 95.62 9.34
5 9 3 89.85 8.51
5 9 3 86.38 8.23
-3 -5 9 89.58 7.94
-5 9 -3 95.13 8.92
-5 9 5 136.65 11.35
-5 5 9 114.1 11.25
-5 5 9 123.29 11.83
-5 9 5 118.65 11.63
5 -5 9 114.45 10.52
5 -5 9 117.16 11.41
9 -5 5 109.83 10.38
5 -9 5 115.87 11.35
-5 9 5 113.86 10.45
-5 9 5 144.65 11.08
-5 -9 -5 132.5 10.58
-5 -9 -5 138.46 10.34
-5 -9 -5 117.91 10.2
-5 -9 -5 129.23 11.3
-5 -9 -5 122.32 11.13
-9 5 5 116.87 11.17
-9 5 5 121.97 11.82
5 -5 9 126.31 11.85
-5 5 9 127.09 10.64
-5 -5 -9 130.1 10.49
-5 -5 -9 137.51 10.44
-5 -5 -9 130.7 11.4
5 9 -5 127.72 11.81
5 5 -9 126.3 10.63
5 -9 5 136.54 11.45
5 -9 5 133.94 12
-9 5 5 126.28 11.19
9 -5 5 128.05 11.57
9 -5 5 115.98 11.55
9 5 -5 119.06 10.39
9 5 -5 115.55 11.21
9 5 -5 114.73 11.64
-5 5 9 130.01 10.08
-9 5 5 121.37 10.57
-9 5 5 124.24 11.18
5 -5 9 121.04 11.57
5 -9 5 113.38 10.32
5 9 -5 115.66 11.29
5 9 -5 121.43 10.37
-9 -5 -5 127.04 11.47
-9 -5 -5 133.82 11.36
-9 -5 -5 127.56 10.63
-9 -5 -5 128.05 10.52
5 5 -9 124.55 10.42
5 5 -9 122.29 11.77
5 9 -5 119.77 10.26
-5 -5 9 129.8 10.68
-5 -5 9 127.89 10.41
5 5 9 128.95 10.46
5 9 5 129.36 11.25
5 9 5 129.96 10.52
5 9 5 136.94 11.38
-9 -5 5 128.22 10.65
-9 -5 5 123.41 10.81
5 -9 -5 120.91 10.57
5 5 9 139.53 10.42
5 5 9 132.34 11.28
-9 5 -5 121.26 10.44
-9 5 -5 127.59 11.52
-9 5 -5 131.09 11.49
-9 5 -5 131.75 11.58
-9 5 -5 115.78 11.49
9 -5 -5 111.93 10.56
9 -5 -5 118.92 11.8
-5 5 -9 117.91 11.35
-5 -9 5 122.87 10.6
-5 -9 5 126.08 10.4
-5 9 -5 116.84 11.32
-5 9 -5 136.99 11.44
-5 9 -5 124.51 10.27
-5 -9 5 107.71 11.21
5 5 9 126.37 11.5
-5 5 -9 125.47 11.5
-5 9 -5 130.91 11.7
-5 -5 9 116.24 12.03
-5 5 -9 118.92 10.5
5 -5 -9 117.03 10.62
5 -5 -9 131.24 10.14
9 5 5 135.11 10.54
5 -9 -5 124.77 11.33
5 -9 -5 121.96 11.74
5 -5 -9 119.85 11.29
9 5 5 126.34 11.43
-9 -5 5 111.37 11.18
-9 -5 5 121.76 11.76
-5 5 -9 134.02 11.69
-5 -9 5 129.83 12.01
-9 -5 5 118.59 10.39
9 5 5 131.37 11.45
-7 -5 -9 166.22 13.59
-7 5 9 144.18 12.64
-5 9 7 159.88 13.5
-9 7 5 144.69 13.44
5 -9 7 145.49 12.41
5 -9 7 138.95 13.55
5 -9 7 153.68 13.66
5 -9 7 150.98 14.07
5 9 -7 155.58 12.34
9 -7 5 153.93 13.69
-7 5 9 143.08 12.08
7 -5 9 140.8 12.49
-5 9 7 144.97 12.5
-5 9 7 166.79 13.18
5 9 -7 147.43 13.41
-7 -5 -9 156.35 12.52
-7 -5 -9 155.72 12.5
5 9 -7 142.78 13.98
-5 -9 -7 156.05 12.59
-5 -9 -7 173.96 12.34
-5 -9 -7 166.73 13.49
-5 9 7 147.57 13.89
7 5 -9 151.48 14.02
-9 7 5 145.38 13.34
-7 5 9 139.71 13.42
-9 -7 -5 163.18 12.61
-9 -7 -5 151.29 12.51
-9 -7 -5 147.29 12.43
-9 -7 -5 155.37 13.64
-9 -7 -5 144.6 13.4
7 -5 9 145.9 13.8
7 -5 9 146.86 13.92
7 5 -9 150.05 12.68
7 5 -9 150.38 12.4
-7 5 9 140.38 14.03
9 7 -5 136.79 13.45
9 7 -5 149.75 13.85
-7 -5 -9 152.47 13.55
-9 7 5 145.63 12.54
-5 -9 -7 151.99 13.44
9 7 -5 142.4 12.39
-9 7 5 151.92 14.01
9 -7 5 133.54 13.87
9 7 -5 150.11 12.44
-7 5 -9 148.84 13.82
-7 5 -9 140.21 13.73
5 -9 -7 147.31 13.47
-9 7 -5 154 13.68
-9 7 -5 162.28 13.75
-9 7 -5 142.41 13.79
9 7 5 154.21 13.65
9 7 5 153.31 13.48
-7 -5 9 140.61 14.21
-7 5 -9 135.12 12.41
-7 5 -9 163.63 13.65
-5 9 -7 152.57 13.87
-9 -7 5 140.1 12.67
-9 -7 5 147.19 12.43
-9 -7 5 140.48 13.43
-9 -7 5 157.15 14.11
5 -9 -7 148.69 12.66
5 -9 -7 159.85 13.26
7 -5 -9 133.99 13.4
-9 7 -5 169.08 12.4
7 5 9 148.6 13.78
9 -7 -5 149.42 12.7
9 -7 -5 155.35 13.39
9 -7 -5 142.57 13.97
5 -9 -7 153.25 13.97
7 -5 -9 156.29 12.16
-7 5 -9 155.95 13.64
9 7 5 158.15 12.54
-7 -5 9 155.26 12.78
-7 -5 9 147.21 12.4
-5 9 -7 151.75 13.63
-5 9 -7 142.94 12.33
-5 9 -7 139.01 13.49
-5 -9 7 149.77 12.6
-5 -9 7 153.84 12.4
5 9 7 158.26 12.54
5 9 7 181.09 12.35
7 5 9 154.48 12.5
7 5 9 162.64 12.48
7 5 9 155.21 13.54
7 -5 -9 147.62 12.78
-5 -9 7 134.98 13.32
-5 -9 7 143.64 14.29
5 9 7 168.01 13.52
5 9 7 155.24 13.47
1 -7 9 63.44 5.47
1 -7 9 47.72 5.78
1 -7 9 58.14 6.14
1 -7 9 56.31 6.43
-1 -7 -9 54.06 6.09
-1 -7 -9 68.53 6.5
-1 7 9 57.66 6.18
1 7 -9 60.18 6.11
1 7 -9 61.2 6.74
-7 9 1 59.52 6.57
-9 1 7 59.01 5.51
-1 -7 -9 63.16 5.75
-9 -1 -7 59.93 5.44
-9 -1 -7 55.42 5.92
-9 -1 -7 60.88 6.55
-7 -9 -1 55.64 5.77
7 -9 1 64.07 6.43
7 -9 1 56.39 6.2
7 -9 1 61.36 6.84
7 9 -1 66.39 5.78
7 9 -1 54.26 5.6
7 9 -1 50.55 6.21
7 9 -1 61.55 6.52
-1 7 9 66.03 6.54
-9 1 7 61.59 6.06
1 -7 9 54.16 7.1
-1 7 9 62.58 5.74
-7 9 1 73.27 6.23
-7 -9 -1 56.05 5.62
9 -1 7 59.5 5.38
9 -1 7 52.11 5.85
9 -1 7 54.74 6.51
9 -1 7 58.28 6.92
9 1 -7 58.39 6.09
9 1 -7 61.64 5.74
9 1 -7 50.26 6.65
-9 1 7 49.17 6.98
-1 -7 -9 68.17 5.5
-9 -1 -7 60.15 6.53
-7 -9 -1 52.93 6.26
-7 9 1 45.66 5.31
-7 9 1 57.7 6.11
1 7 -9 55.47 5.65
1 7 -9 51.65 5.95
-1 -7 -9 66.99 5.84
-7 9 -1 59.06 6.45
9 1 7 57 5.53
1 7 9 67.39 5.45
1 7 9 61.65 5.91
1 7 9 58.26 6.24
1 7 9 49.51 5.85
7 -9 -1 52.01 5.52
7 -9 -1 66.03 6.24
-7 9 -1 62.06 6.13
7 9 1 55.77 5.62
9 -1 -7 62.58 6.11
9 -1 -7 60.3 5.64
7 9 1 53.69 6.28
1 7 9 68.23 5.75
9 1 7 54.23 5.81
9 1 7 58.22 6.45
1 -7 -9 58.38 5.89
1 -7 -9 61.35 6.12
1 -7 -9 64.7 6.54
9 1 7 64.54 6.8
7 -9 -1 55.59 6.57
9 -1 -7 49.86 5.88
7 9 1 59.57 5.76
-7 -9 1 57.46 5.84
-7 -9 1 55.61 5.62
-7 -9 1 50.27 6.13
-7 -9 1 57.07 6.44
-7 9 -1 57.05 6.26
-1 -7 9 58.26 5.79
-1 -7 9 52.1 5.95
-1 -7 9 54.21 6.27
-1 7 -9 60.48 6.75
-1 7 -9 56.66 5.71
-1 7 -9 54.33 5.93
-9 -1 7 57.82 6.05
-9 -1 7 60.85 5.63
-9 -1 7 54.44 7.09
-9 1 -7 65.44 5.21
-9 1 -7 58.01 5.92
-9 1 -7 57.15 6.5
-9 1 -7 54.93 6.49
-1 -7 9 60.78 5.71
-1 -7 9 54.81 7.23
-9 -3 -7 116.23 9.9
-9 -3 -7 112.87 9.68
3 -7 9 107.43 9.87
3 -7 9 106.66 10.57
3 -7 9 107.26 10.76
3 -7 9 118.38 11.23
3 7 -9 121.96 9.73
3 7 -9 105.9 10.34
3 7 -9 111.94 11.12
-9 3 7 108.95 9.97
-9 3 7 111.82 9.45
-9 3 7 103.72 10.33
-9 3 7 112.28 11.3
-9 3 7 109.57 11.13
-7 -9 -3 124.39 9.97
-7 -9 -3 121.86 9.72
-9 -3 -7 120.91 10.85
-9 -3 -7 118.09 10.79
-7 9 3 122.07 10.92
-3 -7 -9 122.45 9.86
-3 -7 -9 130.73 9.68
-3 -7 -9 111.82 10.29
-3 -7 -9 123.67 10.59
7 -9 3 115.37 10.71
7 -9 3 121.55 10.69
7 -9 3 117.59 11.17
9 -3 7 103.63 9.79
9 -3 7 108.79 10.91
9 3 -7 110.32 10.04
-7 -9 -3 114.35 10.63
-3 7 9 111.37 9.83
-3 7 9 119.95 10.6
-3 7 9 124.71 10.98
7 9 -3 120.53 9.82
7 9 -3 115.33 9.71
7 9 -3 112.43 10.6
9 3 -7 107.56 11.04
-7 -9 -3 106.05 10.29
9 3 -7 117.73 9.78
-7 9 3 105.35 9.64
-7 9 3 123.35 10.56
-7 9 3 122.64 10.57
7 -9 3 104.46 9.52
9 3 -7 106.28 10.38
-9 -3 7 113.68 9.69
3 7 9 133.3 9.63
-9 -3 7 110.52 10.01
7 -9 -3 116.44 9.86
7 -9 -3 124.13 10.52
7 -9 -3 109.21 11.06
3 7 9 117.26 9.75
-3 -7 9 120.21 9.77
-3 -7 9 102.81 10.35
-3 -7 9 114.91 11.43
3 -7 -9 124.22 10.02
3 -7 -9 113.75 10.55
3 -7 -9 118.72 11.05
7 9 3 114.36 9.8
7 9 3 122.02 10.74
7 9 3 113.5 10.4
9 -3 -7 111.79 10
9 -3 -7 118.18 9.53
9 -3 -7 100.67 10.38
-3 7 -9 108.89 9.67
-3 7 -9 103.08 10.52
-3 7 -9 117.54 10.78
-9 -3 7 118.35 11.38
3 7 9 118 10.61
3 7 9 128.52 10.67
9 3 7 119.59 9.88
9 3 7 116.41 10.78
9 3 7 118.27 10.91
-7 9 -3 122.23 10.91
-9 3 -7 107.3 9.8
-9 3 -7 116.95 10.9
-9 3 -7 114.7 10.89
-9 3 -7 107.23 10.56
-7 9 -3 126.55 10.73
-7 9 -3 121.38 10.6
-7 -9 3 117.47 9.7
-7 -9 3 105.63 10.54
-7 -9 3 116.46 11.05
-7 9 -3 123.47 9.45
-7 -9 3 114.48 9.96
-3 7 -9 119.22 11.03
3 7 9 124.74 10.47
9 5 -7 136.49 13.36
9 5 -7 147.6 14.02
-9 5 7 139.06 13.42
-9 5 7 148.59 14.15
-7 -9 -5 165.47 12.66
-7 -9 -5 171.63 12.49
9 -5 7 147.71 13.85
9 5 -7 149.57 12.47
9 -5 7 137.21 13.76
-5 -7 -9 162.16 12.62
-5 -7 -9 165.76 12.4
-5 -7 -9 160.68 13.42
9 -5 7 128.66 12.48
-7 9 5 157.73 13.55
-7 9 5 143.84 13.91
7 9 -5 147.68 12.41
7 9 -5 145 13.5
7 9 -5 149.87 13.98
-9 -5 -7 151.06 13.56
-7 9 5 171.91 13.31
-9 5 7 154.83 12.07
-9 -5 -7 162.12 12.56
-9 -5 -7 150.59 12.5
5 -7 9 154.27 12.55
5 -7 9 148 13.63
5 -7 9 146.35 13.68
5 -7 9 146.07 14.1
5 7 -9 154.31 12.42
5 7 -9 150.32 13.32
5 7 -9 135.65 13.96
7 9 -5 144.32 12.45
-5 -7 -9 160.15 13.56
-5 7 9 145.28 13.47
-5 7 9 156.81 14.03
-7 -9 -5 164.32 12.36
-7 -9 -5 157.9 13.55
-7 9 5 143.47 12.5
-5 7 9 155.72 12.7
7 -9 5 133.69 12.27
7 -9 5 149.02 13.63
7 -9 5 156.79 13.68
7 -9 5 153.21 14.12
-9 5 7 153.28 12.69
-7 -9 -5 152.9 13.38
-9 -5 -7 159.08 13.71
5 -7 -9 156.74 14.08
5 7 9 164.95 12.59
-9 -5 7 149.62 12.73
-9 -5 7 147.43 12.8
-9 -5 7 139.92 12.39
-9 -5 7 131.16 13.29
-9 -5 7 148.14 14.16
-9 5 -7 145.9 12.53
7 -9 -5 150.59 14.05
5 7 9 166.26 13.53
5 7 9 163.25 13.67
-9 5 -7 147.05 13.69
7 9 5 160.94 12.58
5 -7 -9 150.06 12.74
9 5 7 167.02 12.57
9 5 7 155.51 12.53
9 5 7 159.55 13.62
9 5 7 152.26 13.77
7 -9 -5 155.16 12.69
7 -9 -5 131.6 13.18
5 -7 -9 149.43 13.5
-7 -9 5 151.42 12.73
-7 -9 5 144.86 12.38
-7 -9 5 135.04 13.39
-7 -9 5 145.86 14.11
-7 9 -5 158.89 12.27
-7 9 -5 163.99 13.64
-7 9 -5 155.3 13.63
-7 9 -5 154.66 13.95
7 -9 -5 146.86 13.55
7 9 5 149.36 13.55
7 9 5 154.81 13.46
9 -5 -7 147.27 12.73
9 -5 -7 155.44 12.16
9 -5 -7 143.63 13.53
9 -5 -7 133.32 14.03
5 7 9 175.93 12.43
-5 -7 9 160.53 12.62
-5 -7 9 159.78 12.7
-5 -7 9 146.67 12.42
-5 -7 9 131.15 13.25
-5 -7 9 140.16 14.25
-5 7 -9 151.62 12.44
-5 7 -9 137.58 13.51
-5 7 -9 146.99 13.7
-5 7 -9 145.21 13.95
-9 5 -7 150.94 13.74
-9 5 -7 159.09 13.74
-9 5 -7 145.24 13.71
-9 -7 -7 182.36 14.12
-9 -7 -7 176.04 13.99
-9 -7 -7 176.77 15.23
-9 -7 -7 169.49 15.09
7 -9 7 179.5 15.39
7 9 -7 171.63 13.84
7 9 -7 164.82 15.05
7 9 -7 169.82 15.7
-7 9 7 173.95 15.16
7 -7 9 166.84 14
7 -7 9 158.62 15.24
7 -7 9 166.19 15.5
7 -7 9 184.08 15.74
-9 7 7 166.22 14.15
-9 7 7 162.21 15.11
-9 7 7 169.31 15.76
-7 -9 -7 182.61 14.14
-7 -9 -7 196.48 13.95
-7 -9 -7 182.69 15.18
-7 -9 -7 170.96 15.03
7 7 -9 165.12 15.65
-7 7 9 176.02 14.23
-7 9 7 160.47 14.08
7 -9 7 163.6 13.89
-7 -7 -9 180.19 14.11
-7 -7 -9 193.69 13.97
-7 -7 -9 188.58 15.2
-7 -7 -9 176.22 15.21
-7 7 9 170.35 15.7
9 -7 7 153.35 13.94
9 -7 7 166.33 15.38
9 -7 7 171.38 15.65
9 7 -7 169.42 13.94
9 7 -7 163.82 15.04
9 7 -7 161.87 15.57
7 7 -9 165.74 14.94
-7 9 7 167.58 15.62
7 -9 7 168.18 15.27
-7 7 9 160.03 15.1
-7 9 7 170.22 14.8
7 -9 7 178.74 15.81
7 7 -9 174.41 13.93
-7 9 -7 171.82 15.3
-7 9 -7 164.01 13.85
-7 -9 7 153.37 14.96
-7 -7 9 176.56 14.25
-9 -7 7 164.05 15.84
-7 -9 7 173.88 14.22
7 -9 -7 169.38 14.23
7 -9 -7 163.61 14.87
7 -9 -7 170.25 15.18
7 -9 -7 159.85 15.64
-7 -9 7 162.88 15.9
-7 -9 7 169.58 13.9
-9 -7 7 168.86 14.22
-7 9 -7 172.25 15.56
7 -7 -9 158.61 14.19
7 -7 -9 164.75 15.13
7 -7 -9 151.74 15.64
-9 7 -7 161.85 13.95
-9 7 -7 169.38 15.31
-9 7 -7 168.01 15.36
-9 7 -7 170.95 15.43
-7 9 -7 176.99 15.26
-7 7 -9 163.91 15.37
-7 7 -9 173.66 15.51
7 7 9 175.14 14.03
7 7 9 195.18 13.99
7 7 9 189.93 15.17
7 7 9 174.06 15.28
-9 -7 7 173.16 14.31
-9 -7 7 162.86 13.91
-9 -7 7 154.04 14.98
7 9 7 176.69 14.1
7 9 7 182.69 15.2
7 9 7 174.53 15.15
9 -7 -7 167.41 14.24
9 -7 -7 157.81 15.22
9 -7 -7 159.55 15.71
-7 -7 9 172.32 14.28
-7 -7 9 171.76 13.92
-7 -7 9 154.23 14.88
-7 -7 9 148.15 15.89
-7 7 -9 168.59 13.93
-7 7 -9 157.3 15.15
9 7 7 178.24 14.07
9 7 7 183.59 13.97
9 7 7 176.81 15.2
9 7 7 172.85 15.29
-9 -9 -1 20.96 3.08
-9 -9 -1 21.18 2.95
-9 -9 -1 19.36 3.12
1 -9 9 11.85 3.36
1 -9 9 18.52 3.98
1 9 -9 21.93 2.85
9 -1 9 22.89 2.63
-9 -1 -9 20.52 2.66
-9 -1 -9 17.54 3.06
-9 -1 -9 19.49 3.42
-9 -1 -9 19.21 3.27
9 1 -9 22.28 2.92
9 1 -9 17.94 2.72
9 1 -9 18.08 3.45
1 -9 9 19.74 3.07
9 -9 1 23.97 3.27
9 -9 1 24.92 3.36
9 -9 1 24.11 3.47
-9 1 9 19.06 3.05
-9 1 9 23.48 2.86
-9 1 9 14.92 2.65
-9 1 9 16.22 3.69
9 -1 9 16.74 3.04
9 -1 9 20.99 3.38
9 -1 9 17.72 3.65
-9 9 1 12.59 2.52
-9 9 1 25.27 3.21
-9 9 1 23.68 3.12
-9 9 1 23.31 3.45
-1 -9 -9 27.77 3.11
-1 -9 -9 27.27 3.64
-1 -9 -9 23.27 3.1
-1 -9 -9 26.82 3.35
9 9 -1 24.42 2.91
9 9 -1 21.66 2.91
9 9 -1 20.49 3.21
9 9 -1 26.63 3.3
9 1 -9 18.44 3.21
-1 9 9 25.08 3.44
1 -9 9 19.19 3.03
1 9 -9 18.11 2.83
1 9 -9 18.38 3.04
1 9 -9 19.78 3.56
-1 9 9 25.85 2.99
-1 9 9 29.85 3.62
-1 9 9 23.82 3.13
-1 -9 9 22.05 4.01
1 -9 -9 25.58 3.16
1 -9 -9 25.66 3.45
1 -9 -9 24.18 3.12
1 -9 -9 23.73 3.44
-1 9 -9 22.16 2.82
-9 1 -9 23.73 2.96
-9 -9 1 22.47 3.02
-9 -9 1 23.33 2.93
-9 -9 1 17.28 3.09
-1 9 -9 18.9 2.86
-1 9 -9 19.51 3.14
-1 9 -9 17.73 3.61
1 9 9 25.22 2.82
1 9 9 25.79 2.95
1 9 9 26.98 3.27
9 -9 -1 20.39 2.84
9 -9 -1 22.56 3.25
9 -9 -1 22.91 3.54
-9 1 -9 19.96 3.04
-9 1 -9 20.11 3.27
-9 1 -9 22.2 3.54
9 -1 -9 20.66 3.14
9 -1 -9 22.61 2.82
9 -1 -9 16.35 2.84
-9 -9 1 22.37 3.35
-9 9 -1 26.27 3.31
-9 9 -1 24.52 3.24
-9 9 -1 20.49 3.33
-1 -9 9 17.43 3.26
-9 -1 9 16.22 3.18
-9 -1 9 21.3 2.95
-9 -1 9 18.01 3.88
9 1 9 23.75 2.8
9 1 9 18.7 3.05
9 1 9 21.09 3.3
9 1 9 24.59 3.69
-1 -9 9 18.33 2.79
-1 -9 9 22.8 3.02
-1 -9 9 20.96 2.97
-1 -9 9 19.2 3.03
9 9 1 21.79 2.92
9 9 1 21.27 2.95
9 9 1 21.32 3.24
-9 -9 -3 71.06 6.57
-9 -9 -3 66.5 6.45
-9 -9 -3 58.55 6.97
-9 -9 -3 59.77 6.51
3 9 -9 65.02 6.28
3 9 -9 59.54 6.72
3 9 -9 61.6 7.48
9 -3 9 58.27 6.64
-9 -3 -9 67.28 6.19
-9 -3 -9 67.41 6.56
-9 -3 -9 67.1 7.19
-9 -3 -9 69.57 7.2
3 -9 9 64.86 6.58
3 -9 9 59.63 6.86
3 -9 9 58.43 7.13
9 9 -3 67.02 6.32
9 9 -3 66.29 6.35
9 9 -3 63.13 6.97
-9 3 9 59.81 6.56
-9 3 9 69.47 6.04
-9 3 9 68.73 6.57
-9 3 9 68.38 7.87
-9 3 9 63.79 7.51
9 -3 9 63.17 7.44
9 3 -9 66.45 6.76
9 3 -9 67.16 6.36
9 3 -9 70.45 7.62
-9 9 3 57.96 6.15
-9 9 3 79.63 6.78
-9 9 3 71.05 7.05
-9 9 3 73.22 6.86
-9 9 3 63.82 7.17
-3 -9 -9 74.44 6.52
-3 -9 -9 74.41 6.17
-3 -9 -9 73.63 6.79
-3 -9 -9 75.15 6.95
9 -9 3 57.32 6.1
9 -9 3 66.58 7.12
9 -9 3 71.79 7.1
9 -9 3 63.38 7.53
-3 9 9 76.31 7.41
3 -9 9 67.8 7.87
9 9 -3 56.05 6.94
-3 9 9 68.45 6.82
-3 9 9 69.25 6.51
-3 9 -9 67.27 7.55
-3 9 -9 65.18 6.29
3 -9 -9 72.19 6.64
3 -9 -9 63.67 6.83
3 -9 -9 67.78 7.42
-9 -3 9 63.08 6.69
-9 -3 9 67.02 6.35
-9 -3 9 62.49 7.91
-3 9 -9 62.59 6.91
-3 9 -9 61.01 7
-9 -9 3 63.1 6.34
-9 -9 3 59.12 6.85
3 9 9 71.85 6.3
3 9 9 83.27 6.17
3 9 9 70.23 6.77
3 9 9 68.95 7.04
3 9 9 75.62 6.9
9 -9 -3 64.78 6.34
9 -9 -3 69.98 6.9
9 -9 -3 61.06 7.44
-3 -9 9 68.54 6.36
-3 -9 9 66.59 6.38
-3 -9 9 56.42 6.74
-3 -9 9 63.96 8.05
9 -3 -9 65.84 6.8
9 -3 -9 68.64 6.11
9 -3 -9 60.66 6.6
-9 -9 3 72.6 7.5
-9 9 -3 59.33 6.04
-9 9 -3 67.47 7.03
-9 9 -3 63.8 7.01
-9 9 -3 66.31 7.18
9 3 9 65.23 6.48
9 3 9 72.99 7.24
9 3 9 69.61 7.54
-9 3 -9 62.28 6.69
-9 3 -9 72.09 7.31
-9 3 -9 64.09 7.26
-9 -9 3 61.97 6.55
9 9 3 64.38 6.36
9 9 3 60.89 7.12
9 9 3 64.16 6.76
-9 -9 -5 96.31 7.76
-9 -9 -5 92.19 7.76
-9 -9 -5 90.34 7.62
-9 -9 -5 79.32 8.34
-9 -9 -5 80.89 8.03
5 -9 9 83.09 9.07
5 9 -9 90.01 7.57
5 9 -9 85.21 8.07
9 -5 9 76.91 7.71
-9 -5 -9 85.5 7.54
-9 -5 -9 86.19 7.75
-9 -5 -9 91.12 8.51
-9 -5 -9 79.88 8.22
-5 -9 -9 96.61 8.16
5 -9 9 74.51 7.67
5 -9 9 81.71 8.4
9 -9 5 74.68 7.33
9 9 -5 83.99 7.46
9 9 -5 83.7 7.64
9 9 -5 80.61 8.23
9 9 -5 82.49 8.56
-9 5 9 85.2 7.77
-9 5 9 70.15 7.08
-9 5 9 80.65 8.02
-9 5 9 78.8 8.82
9 -5 9 85.39 8.73
9 5 -9 84.31 7.53
9 5 -9 74.51 8.76
9 -9 5 75.04 8.84
-9 9 5 83.16 7.63
-9 9 5 86.01 7.95
-9 9 5 90.19 8.17
-9 9 5 80.53 8.63
-5 -9 -9 87.38 7.68
-5 -9 -9 100.33 7.55
-5 9 9 81.31 8.18
-5 -9 -9 83.3 8.16
-5 9 9 83.31 8.68
9 -9 5 84.85 8.48
9 -9 5 82.59 8.51
-5 9 9 83.77 7.63
9 -5 9 78.32 8.6
5 9 -9 83.42 8.97
5 -9 9 79.89 8.48
-5 9 -9 82.32 8.37
-5 -9 9 80.39 9.23
-9 9 -5 84.47 8.65
-9 -5 9 81.52 7.83
-5 -9 9 88.56 7.71
5 -9 -9 86.12 7.86
5 -9 -9 83.62 8.21
5 -9 -9 78.5 8.83
-9 -5 9 81.31 7.6
-9 -5 9 81.96 9.19
-5 9 -9 75.27 8.27
-9 -9 5 80.54 7.85
-9 -9 5 81.74 7.54
-9 -9 5 79.74 8.16
-5 9 -9 78.65 7.58
5 9 9 89.51 7.6
5 9 9 90.68 8.24
5 9 9 83.36 8.28
9 -9 -5 82.3 7.78
9 -9 -5 69.74 7.79
9 -9 -5 82.57 8.79
-9 5 -9 72.56 7.63
-5 -9 9 85.9 7.87
-5 -9 9 79.31 7.53
-5 -9 9 73.91 7.97
9 -5 -9 77.22 7.85
9 -5 -9 87.17 7.26
9 -5 -9 77.45 8.11
-9 -9 5 80.04 9.01
-5 9 -9 83.64 8.65
-9 9 -5 91.05 7.45
-9 9 -5 79.32 8.28
-9 9 -5 79.24 8.43
9 5 9 91.76 7.58
9 5 9 94.45 7.82
9 5 9 88.92 8.54
9 5 9 88.05 8.77
-9 5 -9 86.22 8.58
-9 5 -9 86.66 8.56
-9 5 -9 78.88 8.63
-9 5 -9 79.64 8.32
9 9 5 88.71 7.58
9 9 5 83.38 8.37
9 9 5 83.49 8.23
-9 -9 -7 82.92 7.09
-9 -9 -7 81.65 7.12
-9 -9 -7 76.97 7.65
-9 -9 -7 69.21 7.36
9 -9 7 72.58 8.33
7 9 -9 77.78 6.91
7 9 -9 75.14 7.35
7 9 -9 69.3 8.03
-9 -7 -9 73.8 6.92
-9 -7 -9 78.2 7.08
-9 -7 -9 78.04 7.64
-9 -7 -9 72.54 7.51
9 7 -9 67.44 7.23
9 7 -9 67.22 8.05
7 -9 9 70.16 7.66
7 -9 9 67.42 7.94
9 -9 7 60.31 6.77
9 -9 7 72.69 7.84
9 9 -7 74.68 6.95
9 9 -7 66.96 7.39
9 9 -7 68.59 8.01
-9 7 9 64.09 6.99
-9 7 9 63.45 7.29
-9 7 9 68.9 8.14
9 -7 9 67.8 8.05
9 -7 9 72.01 8.26
9 7 -9 71.38 6.8
9 -9 7 75.1 7.89
-9 9 7 63.31 6.85
-9 9 7 61.29 7.04
-9 9 7 72.07 7.39
-9 9 7 71.72 8.03
-7 -9 -9 76.49 6.92
-7 -9 -9 78.38 6.95
-7 -9 -9 85.32 7.55
-7 -9 -9 76.18 7.42
-7 9 9 71.43 8.15
-7 9 9 69.53 6.9
7 -9 9 75.37 8.36
7 -9 9 67.19 6.92
-7 9 9 73.56 7.44
9 -7 9 62.04 7
-7 9 -9 70.55 7.7
-7 9 -9 69.39 7.72
-7 9 -9 71.73 6.97
-7 -9 9 75.51 7.37
-7 -9 9 61.83 8.52
-7 -9 9 68.26 7.12
7 -9 -9 70.78 7.16
7 -9 -9 69.7 7.44
7 -9 -9 65.9 8.16
-9 9 -7 76.11 7.82
-9 -7 9 67.32 6.91
-9 -7 9 65.24 7.08
-7 -9 9 76.74 6.99
-9 -9 7 66.25 6.8
-9 -9 7 68.99 7.34
-9 -9 7 67.4 8.43
7 9 9 82.04 6.93
7 9 9 83.58 6.89
7 9 9 84.33 7.69
7 9 9 81.82 7.67
9 -9 -7 65.74 7.13
9 -9 -7 71.02 7.13
9 -9 -7 75.02 7.57
9 -9 -7 64.02 7.97
-9 -7 9 71.35 8.55
-9 7 -9 68.77 6.95
-7 -9 9 67.58 7.1
-9 -9 7 72.5 7.2
9 -7 -9 70.52 7.35
9 -7 -9 68.47 7.46
9 -7 -9 71.73 8.16
-7 9 -9 73.38 7.84
-9 9 -7 70.16 6.82
-9 9 -7 71.44 7.75
-9 9 -7 74.55 7.82
-9 -7 9 71.2 7.25
-9 -7 9 74.7 7.35
9 7 9 76.7 6.94
9 7 9 76.15 6.96
9 7 9 82.58 7.71
9 7 9 70.57 7.84
-9 7 -9 72.22 7.77
-9 7 -9 69.55 7.84
-9 7 -9 73.67 7.66
9 9 7 72.23 6.85
9 9 7 77.26 7.72
9 9 7 70.14 7.51
-9 -9 -9 3.92 2.49
-9 -9 -9 2.57 2.55
-9 -9 -9 0.88 2.56
-9 -9 -9 1.25 2.46
9 -9 9 -0.84 2.82
9 -9 9 -2.92 3.04
9 -9 9 0.99 3.57
9 9 -9 3.55 2.33
9 9 -9 3.69 2.35
9 9 -9 3.1 2.73
-9 9 9 1.82 2.36
9 -9 9 1.57 2.35
-9 9 9 0.74 2.85
-9 9 9 1.44 2.34
-9 9 -9 0.67 2.69
-9 9 -9 1.92 2.56
9 -9 -9 1.96 2.66
9 -9 -9 2.36 2.5
9 -9 -9 -4.03 3.02
-9 9 -9 -0.7 2.82
-9 -9 9 -1.5 2.66
-9 -9 9 1.2 2.91
-9 -9 9 1.74 2.44
-9 -9 9 2.09 2.07
-9 -9 9 3.28 3.69
-9 9 -9 2.67 2.46
9 9 9 2.26 2.22
9 9 9 0.71 2.31
9 9 9 3.03 2.65
9 9 9 2.89 2.95
-10 0 0 94.9 7.44
-10 0 0 97.99 7.64
-10 0 0 89.96 8.44
-10 0 0 80.24 8.05
-10 0 0 88.33 8.14
0 -10 0 70.33 7.46
0 -10 0 84.48 8.19
0 -10 0 75.36 8.51
0 0 -10 95.44 7.62
0 0 -10 87.82 7.52
0 0 -10 82.67 8.12
0 0 -10 97.6 8.59
0 0 10 89.41 7.58
0 0 10 88.06 7.53
0 0 10 83.89 8.23
0 0 10 92.91 8.71
0 10 0 68.85 7.32
0 10 0 82.55 8.12
0 10 0 87.19 7.9
0 10 0 83.38 8.62
10 0 0 87.08 8.27
10 0 0 77.67 8.06
10 2 0 6.9 1.85
10 2 0 5.68 2.27
10 2 0 2.6 2.36
10 2 0 4.35 2.02
2 0 -10 4.66 1.98
-10 -2 0 4.69 1.97
-10 -2 0 6.97 2.17
-10 -2 0 3.89 2.33
-10 -2 0 12.69 2.15
-10 2 0 9.65 1.69
-10 2 0 8.12 1.86
-10 2 0 3.05 1.92
-10 2 0 4.57 1.92
-10 2 0 3.24 2.41
-10 2 0 2.38 2.07
-10 2 0 7.54 1.97
-2 0 -10 8.94 2.08
-2 0 -10 5.07 2.1
-2 0 -10 8.1 2.23
-2 0 -10 7.23 2.3
-2 0 10 2.27 2.03
-2 0 10 4.72 2
-2 0 10 3.8 2.14
-2 0 10 6.44 3.01
0 -10 -2 5.27 2.04
0 -10 -2 6.4 1.98
0 -10 -2 5.9 1.93
0 -10 -2 3.78 2.62
0 -10 2 4.1 1.86
0 -10 2 4.84 2.03
0 -10 2 4.12 2.77
0 10 -2 5.72 1.55
0 10 -2 6.96 2.13
0 10 -2 4.5 1.75
0 10 -2 3.71 1.74
0 10 -2 2.14 2.37
0 10 2 5 1.68
0 10 2 6.59 2.03
0 10 2 5.58 1.86
0 10 2 6.25 2.37
2 0 -10 5.49 2.13
2 0 -10 5.29 1.99
10 -2 0 5.38 2.28
2 0 -10 4.28 2.57
2 0 10 5.72 2.07
2 0 10 6.66 2.65
2 0 10 5.28 2.55
10 -2 0 3.51 2.41
10 -2 0 5.97 2.2
4 0 -10 4.26 2.07
0 10 4 4.4 1.7
0 10 4 0.95 1.67
0 10 4 2.58 1.74
0 10 4 2.52 2.13
4 0 10 2.3 1.61
4 0 10 1.72 1.93
4 0 10 4.59 2.12
4 0 10 2.47 2.64
4 0 10 5.22 2.47
10 -4 0 0.47 2.07
10 -4 0 1.56 2.11
10 -4 0 1.9 2.31
10 4 0 2.16 1.7
10 4 0 1.58 2.05
10 4 0 2.43 2.19
0 -10 4 1.73 2.04
4 0 -10 0.97 1.99
4 0 -10 0.47 0.45
4 0 -10 3.71 2.45
0 10 -4 1.73 1.63
0 10 -4 2.26 1.91
0 10 -4 1.17 1.77
0 10 -4 0.34 2.29
0 -10 4 3.22 1.82
-4 0 10 3.32 2.93
0 -10 4 0.24 1.83
0 -10 4 0.5 2.73
0 10 -4 1.3 1.46
0 -10 -4 -0.1 2.23
-10 -4 0 0.9 1.93
-10 -4 0 1.71 2.09
-10 -4 0 0.83 2.23
-10 4 0 3.54 1.7
-10 4 0 1.21 1.78
-10 4 0 1.74 1.63
-10 4 0 0.78 2.2
-10 4 0 -0.44 2.02
-10 4 0 -0.45 1.8
-4 0 -10 1.39 1.84
-4 0 -10 3.24 2
-4 0 -10 -0.02 1.94
-4 0 -10 2.88 2.31
-4 0 -10 2.95 2.03
-4 0 10 0.61 2.03
-4 0 10 1.26 1.79
-4 0 10 2.14 1.94
0 -10 -4 3.43 1.86
0 -10 -4 1.54 1.94
0 -10 -4 1.56 1.79
0 -10 4 0.86 1.71
0 10 6 4.75 2.3
0 10 -6 4.63 2.66
0 10 -6 1.38 2.06
10 6 0 5.55 2.15
0 10 6 6.16 1.74
0 10 6 7.34 2.05
0 10 6 6.43 2.04
0 -10 6 5.3 3.11
0 10 -6 3.45 1.44
0 10 -6 3.23 1.96
0 10 -6 2.85 2.02
-6 0 10 4.96 3.09
0 -10 -6 6.19 2.17
0 -10 -6 6.02 1.8
0 -10 -6 7.31 2.09
0 -10 -6 7.25 2.57
10 6 0 4.84 2.45
0 -10 6 5.41 2.17
0 -10 6 3.15 2.27
6 0 -10 4.5 2.11
6 0 -10 3.02 1.85
6 0 -10 4.5 2.59
6 0 10 6.85 1.68
6 0 10 3.88 2.13
6 0 10 5.31 2.42
6 0 10 6.55 2.81
10 -6 0 4.6 1.97
10 -6 0 5.96 2.36
10 -6 0 0.81 2.54
10 6 0 4.85 1.91
-10 -6 0 7.75 2.18
-10 -6 0 4.29 2.18
-10 -6 0 2.93 2.39
-10 6 0 7.79 1.75
-10 6 0 4.41 1.92
-10 6 0 6.97 2.46
-10 6 0 2.82 2.27
-10 6 0 4.18 2.34
-6 0 -10 3.5 1.72
-6 0 -10 3.19 2.13
-6 0 -10 6.67 2.28
-6 0 -10 5.12 2.51
-6 0 10 4.19 2.22
-6 0 10 5.98 2.02
-6 0 10 8.29 1.95
0 -10 6 2.89 1.97
0 -10 6 2.08 1.77
6 0 -10 5.33 2.27
0 -10 8 38.85 5.08
0 -10 8 39.62 5.15
0 -10 8 38.9 4.75
0 -10 8 34.46 4.4
10 8 0 42.48 4.68
10 8 0 36.93 5.34
-10 8 0 47.93 4.15
-10 8 0 42.74 5.32
-10 8 0 42.66 4.93
-10 8 0 44.09 5.51
-8 0 -10 38.62 4.23
-8 0 -10 34.41 4.31
-8 0 -10 41.19 5.44
-8 0 -10 36.37 5.37
-8 0 10 36.25 4.95
-8 0 10 38.57 4.55
0 -10 8 35.73 5.03
8 0 -10 36.75 4.97
8 0 -10 43.64 4.76
8 0 -10 34.71 4.64
8 0 -10 31.07 4.7
8 0 10 36.95 4.26
8 0 10 37.84 4.96
8 0 10 40.4 5.41
8 0 10 35.44 4.83
10 -8 0 43.17 4.44
10 -8 0 43.08 5.39
10 -8 0 39.22 5.1
10 -8 0 40.43 5.6
10 8 0 40.46 4.63
0 -10 -8 43.97 4.95
0 -10 -8 42.65 5.46
-8 0 10 33.97 5.08
0 -10 -8 45.29 4.87
-10 -8 0 38.9 4.77
-10 -8 0 41.37 4.73
-10 -8 0 33.78 5.16
0 10 -8 45.6 4.51
0 10 -8 35.14 4.92
0 10 -8 36 4.9
0 10 -8 39.32 5.69
0 10 8 44.25 4.63
0 10 8 51.01 4.85
0 10 8 45.59 5.14
0 10 8 44.35 5.19
-8 0 10 41.29 4.5
0 -10 -8 40.54 4.54
0 2 10 7.68 1.9
10 0 -2 3.5 1.9
10 0 2 4.3 1.38
-10 0 2 6.07 2.19
-10 0 2 7.06 2.15
-2 -10 0 4.23 2.03
-2 -10 0 6.52 1.69
-2 -10 0 3.1 1.89
-2 -10 0 4.96 1.76
-2 -10 0 4.12 2.56
-2 10 0 5.01 1.53
-2 10 0 5.65 1.98
-2 10 0 6.12 1.92
-2 10 0 6.26 1.9
-2 10 0 4.79 2.27
0 -2 -10 7 2.15
10 0 2 5.06 2.32
10 0 2 6.55 2.44
0 -2 -10 8.8 2.18
0 2 10 5.88 1.89
0 2 10 4.67 2.22
0 2 10 6.76 2.8
2 -10 0 5.83 1.88
2 -10 0 5.2 2.09
2 -10 0 3.6 2.75
2 10 0 6.31 1.77
2 10 0 4.39 1.93
2 10 0 5.47 1.72
2 10 0 5.87 2.55
-10 0 2 3.7 2.02
-10 0 2 3.62 2.2
-10 0 2 4.12 1.91
-10 0 2 6.6 2.26
10 0 -2 5.32 1.93
10 0 -2 3.95 2.14
-10 0 -2 4.52 1.67
-10 0 -2 3.38 2.25
-10 0 -2 5.69 2.52
-10 0 -2 -0.21 2.28
-10 0 2 6.44 2.02
0 -2 -10 5.15 2.37
0 -2 10 4.47 1.98
0 -2 10 8.01 2.5
0 -2 10 6.76 2.8
0 2 -10 7.09 2.03
0 2 -10 5.61 2.09
0 2 -10 5.41 2.06
0 2 -10 4.56 2.39
0 -2 -10 8.64 2.12
-10 -2 -2 16.18 2.78
-10 -2 -2 16.59 2.53
-10 -2 -2 16.62 2.39
-10 -2 -2 14.08 2.7
2 10 -2 15.24 2.64
-2 10 2 11.61 2.15
-2 10 2 20.07 2.62
-2 10 2 17.8 2.54
-2 10 2 15.25 2.9
-2 2 10 20.8 3.35
10 2 -2 16.52 2.77
2 -2 10 19.51 3.19
2 10 -2 15.79 2.09
2 -10 2 11.51 2.2
-10 2 2 15.14 2.48
2 -2 10 15.85 2.21
2 -2 10 15.91 2.62
2 10 -2 15.14 2.24
-2 -10 -2 13.57 2.53
-2 -10 -2 15.71 2.55
-2 -10 -2 15.51 2.31
-2 -10 -2 15.1 2.96
2 -2 10 18.68 3.3
-10 -2 -2 12.82 2.91
-10 2 2 15.78 2.61
2 2 -10 17.42 2.54
2 2 -10 17.01 2.5
2 -10 2 17.49 2.64
2 -10 2 12.12 3.32
10 -2 2 17.92 2.93
10 -2 2 15.86 2.9
10 -2 2 15.47 2.64
10 2 -2 15.34 2.43
10 2 -2 16.8 2.8
2 2 -10 15.42 3.03
-10 2 2 20.62 2.38
-2 -2 -10 20.6 2.73
-10 2 2 14.13 2.42
-10 2 2 17.86 2.73
-2 2 10 17.14 2.71
-2 -2 -10 21.3 2.58
-2 2 10 18.42 2.63
2 10 -2 12.26 2.11
2 10 -2 13.53 2.84
-2 -2 -10 20.73 2.79
-2 -2 -10 17.87 2.51
-2 2 10 19.19 2.41
-10 -2 2 16.32 2.52
10 -2 -2 17.52 2.79
10 -2 -2 16.64 2.65
2 2 10 20.58 3.07
10 2 2 13.79 2.75
-10 -2 2 16.57 2.89
-2 -10 2 16.18 2.32
-2 -10 2 12.08 2.46
-2 -10 2 11.15 3
-10 2 -2 15.47 2.92
-10 -2 2 9.52 2.66
2 10 2 16.57 2.35
10 -2 -2 20.66 2.54
-2 -2 10 17.14 2.55
-2 -2 10 17.58 2.55
-2 -2 10 14.89 2.72
-2 -2 10 18.29 3.43
-2 2 -10 18.16 2.35
2 2 10 19.39 2.52
2 2 10 16.5 2.82
-2 2 -10 17.22 2.48
-2 2 -10 14.6 2.75
-2 2 -10 18.6 2.85
-10 -2 2 20.85 2.64
2 10 2 16.98 2.7
-2 -10 2 10.05 2.37
-10 2 -2 19.32 2.37
-2 10 -2 13.52 1.99
-2 10 -2 12.89 2.42
-2 10 -2 15.6 2.42
-2 10 -2 14.17 2.96
10 -2 -2 13.67 2.47
10 -2 -2 16.53 2.86
2 -2 -10 17.15 2.63
2 -2 -10 16.83 2.41
2 -2 -10 18.34 2.62
2 -2 -10 18.92 2.97
-2 2 -10 17.32 2.65
-2 2 -10 16.42 2.39
10 2 2 15.37 2.35
-10 2 -2 14.67 2.15
2 -10 -2 13.35 2.4
2 -10 -2 15.79 2.56
2 -10 -2 15.59 2.63
2 -10 -2 10.73 2.93
2 2 10 19.5 2.43
-10 2 -2 16.18 2.62
-10 2 -2 14.29 2.93
10 2 2 16.16 3.01
2 10 2 13.1 2.43
2 10 2 14.46 2.35
2 10 -4 19.34 2.47
10 -4 2 19.76 3.23
10 -4 2 14.71 2.95
-4 2 10 22.28 2.64
-4 2 10 17.55 2.81
4 2 -10 16.94 3.34
-2 -10 -4 24.15 2.84
-2 -10 -4 20.29 2.78
-2 -10 -4 21.69 2.71
-10 -4 -2 19.58 2.73
-10 -4 -2 20.5 2.91
-10 -4 -2 16.68 3.1
2 -10 4 16.37 2.86
4 2 -10 21.05 2.73
10 -4 2 16.13 2.68
2 -10 4 15.96 2.34
2 -10 4 20.79 2.56
10 4 -2 23.91 2.78
10 4 -2 20.24 2.76
10 4 -2 18.99 2.97
10 4 -2 24.4 3
-10 4 2 20.9 2.64
2 10 -4 23.62 2.62
2 10 -4 19.93 2.88
-10 4 2 20.09 2.88
-10 4 2 20.19 2.83
-10 4 2 17.49 2.72
-10 4 2 19.28 3.13
-4 -2 -10 21.34 2.64
-4 -2 -10 21.78 2.82
-4 -2 -10 22.3 2.88
-4 -2 -10 22.14 3.04
4 -2 10 16.67 2.34
4 -2 10 20.02 2.86
4 -2 10 18.88 3.38
-2 10 4 24.72 2.9
2 10 -4 18.25 3.36
4 -2 10 25.2 3.44
4 2 -10 22.43 2.96
-4 2 10 23.73 2.92
2 -10 4 18.54 2.94
4 2 -10 16.9 2.58
2 -10 4 15.58 3.46
-2 -10 -4 19.03 3.01
-10 4 2 29.09 3.17
-2 10 4 19.86 2.54
-2 10 4 26 2.83
-4 2 10 19.1 3.5
-2 10 4 22.91 3.17
4 2 10 21.11 3.42
2 -10 -4 19.02 2.76
-10 -4 2 21.23 2.84
-10 -4 2 21.92 2.87
4 2 10 24.28 2.83
4 2 10 21.63 2.82
-10 4 -2 15.15 2.74
10 -4 -2 17.21 2.82
10 -4 -2 18.84 3.14
-4 -2 10 19.39 3.65
-10 -4 2 17.97 2.9
-10 4 -2 24.51 2.7
-10 4 -2 22.44 2.46
-10 4 -2 18.69 2.7
-10 4 -2 20.55 3.14
-10 4 -2 23.25 3.23
10 4 2 20.72 2.68
10 4 2 17.2 3.07
10 4 2 17.7 3.02
-4 2 -10 19.66 3.07
-4 2 -10 22.62 3.04
2 -10 -4 24.97 2.83
2 -10 -4 21.55 2.87
-2 10 -4 12.47 2.44
-2 10 -4 21.51 3.28
-4 2 -10 19.91 2.49
2 10 4 22.99 2.62
2 10 4 24.38 2.81
2 10 4 21.38 2.78
4 -2 -10 24.92 3.12
4 -2 -10 23.71 2.74
4 -2 -10 15.29 2.66
4 -2 -10 22.2 3.37
-4 -2 10 20.96 2.86
-4 -2 10 23.33 2.72
-4 -2 10 18.21 2.8
10 -4 -2 23.41 2.88
4 2 10 20.37 2.48
-4 2 -10 18.38 2.81
-4 2 -10 15.17 2.53
-10 -4 2 15.35 3
-2 10 -4 22.68 2.52
-4 2 -10 18.97 2.83
4 2 10 23.41 3.05
-2 10 -4 16.9 2.64
-2 -10 4 16.58 2.66
-2 -10 4 18.45 2.84
-2 -10 4 12.98 3.52
2 -10 -4 16.85 3.12
-6 2 10 6.9 1.93
-6 2 10 4.82 2.24
-2 -10 -6 7.47 2.25
2 -10 6 2.35 2.43
2 -10 6 4.07 3.01
2 10 -6 4.36 1.59
2 10 -6 7.59 2.02
2 10 -6 6.35 2.06
2 10 -6 1.08 2.57
6 2 -10 5.2 2.21
6 2 -10 6.84 2.15
6 2 -10 1.65 1.7
6 2 -10 4.76 2.64
10 6 -2 5.65 2.32
-10 -6 -2 5.69 2.24
-6 2 10 4.04 1.95
-6 -2 -10 3.8 2.3
-10 -6 -2 5.61 2.27
-10 -6 -2 5.21 2.39
-6 2 10 2.88 2.88
-10 6 2 3.19 1.82
-10 6 2 8.91 1.88
-10 6 2 5.62 2.13
2 -10 6 1.38 2.22
10 6 -2 6.52 2.31
-6 -2 -10 5.09 1.85
-2 10 6 6.04 1.88
-2 10 6 9.28 1.98
-2 10 6 6.88 2
-2 10 6 3.14 2.2
10 -6 2 1.66 1.65
10 -6 2 7.57 2.66
10 -6 2 0.57 2.39
10 6 -2 7.88 1.98
10 6 -2 5.41 2.1
-2 -10 -6 3.98 2.27
-10 6 2 5.45 2.31
6 -2 10 2.32 2.62
-6 -2 -10 4.41 1.97
-10 -6 -2 -0.7 1.99
-10 6 2 3.15 2.07
-2 -10 -6 5.23 2.08
6 -2 10 4.85 1.53
6 -2 10 5.24 2.15
6 -2 10 3.42 2.77
-2 -10 -6 6.74 2.03
-6 -2 -10 9.59 2.44
-10 6 -2 4.24 2.37
6 2 10 5.73 2.33
-6 2 -10 3.31 2.55
6 -2 -10 4.98 2.34
6 -2 -10 5.69 2.12
6 2 10 5.96 2.91
-6 -2 10 2.51 2.23
-6 2 -10 3.5 2.13
2 10 6 7.04 2.14
2 10 6 5.68 2.14
-6 -2 10 6.6 3.21
-6 2 -10 5.14 2.14
-6 2 -10 4.66 2.38
-2 -10 6 3.56 2.08
2 10 6 4.62 2.12
2 10 6 5.35 1.84
-2 10 -6 3.68 2.07
-10 6 -2 5.51 1.9
-10 6 -2 5.99 2.44
-10 -6 2 6.45 2.33
-10 -6 2 6.4 2.18
-10 6 -2 5.48 2.42
-2 -10 6 -1.29 1.95
-2 -10 6 2.1 2.18
2 -10 -6 2.9 2.54
10 -6 -2 2.32 2.05
10 -6 -2 4.56 2.07
10 -6 -2 5.07 2.7
2 -10 -6 3.68 2.11
2 -10 -6 4.7 2.12
-6 -2 10 8.94 1.94
10 6 2 4.61 2.03
-10 -6 2 1.43 2.28
-2 -10 6 1.38 3.08
-2 10 -6 7.73 1.87
10 6 2 5.63 2.43
10 6 2 3.94 2.28
-10 -6 2 15.31 2.56
6 -2 -10 0.29 1.92
6 -2 -10 5.39 2.73
-10 6 -2 2.25 2.17
-6 -2 10 3.75 2.03
-2 10 -6 5.64 2.51
6 2 10 2.28 2.13
10 8 -2 16.46 2.4
-2 10 8 19.29 2.41
-8 -2 -10 13.84 2.94
2 -10 8 13.27 3.55
2 10 -8 13.11 2.41
2 10 -8 14.57 2.4
-2 10 8 12.21 2.55
-2 -10 -8 11.82 2.15
10 8 -2 12.09 2.8
10 8 -2 15.72 2.49
8 2 -10 13.96 2.82
8 2 -10 12.41 2.63
8 2 -10 14.13 3.11
-10 8 2 10.8 2.53
-10 8 2 11.52 2.71
-8 -2 -10 13.16 2.28
-8 -2 -10 9.84 2.55
-10 8 2 10.55 2.17
-10 -8 -2 9.2 2.67
-10 -8 -2 12.93 2.81
-8 2 10 12.3 2.34
-2 10 8 15.72 2.45
2 -10 8 13.25 2.55
10 -8 2 13.83 2.41
10 -8 2 13.33 2.95
10 -8 2 14.14 2.93
10 -8 2 13.61 3.1
-8 2 10 11.25 2.66
-8 2 10 12.82 2.33
-8 2 10 12.42 3.35
10 8 -2 12.33 2.75
-10 -8 -2 14.06 2.67
-8 -2 -10 17.82 2.95
-2 10 8 15.61 2.93
2 -10 8 10.66 2.68
2 -10 8 11.73 3.04
8 -2 10 11.17 2.61
8 -2 10 13.45 3.37
-2 -10 -8 17.5 2.64
-2 -10 -8 13.57 2.99
-2 -10 -8 15.3 2.66
-10 8 2 16.29 2.65
2 10 -8 8.99 3.17
8 2 10 15.93 3.33
10 8 2 13.29 2.87
8 2 10 12.51 2.64
10 -8 -2 16.18 3.13
-8 -2 10 11.81 3.64
-8 2 -10 11.57 2.81
-8 2 -10 10.85 2.92
8 2 10 9.07 2.77
-2 10 -8 12.31 3.18
8 2 10 12.63 2.21
10 8 2 13.98 2.46
-8 -2 10 16.13 2.99
-2 10 -8 10.91 2.52
-10 -8 2 12.07 2.67
-10 -8 2 11.93 2.48
-10 -8 2 14.1 2.7
-10 -8 2 16.83 3.07
-8 -2 10 13.29 2.53
2 -10 -8 15.65 2.69
2 -10 -8 16.16 2.37
-10 8 -2 13.44 2.79
10 -8 -2 14.08 2.63
10 -8 -2 14.62 2.73
-8 2 -10 8.89 3.07
-2 -10 8 12.97 2.51
-2 -10 8 12.41 2.6
-2 -10 8 8.37 3.52
-2 10 -8 14.38 2.39
8 -2 -10 13.53 2.79
8 -2 -10 16.69 2.55
2 -10 -8 12.81 2.61
2 -10 -8 15.53 3.14
2 10 8 16.25 2.53
2 10 8 15.47 2.75
2 10 8 15.55 2.59
2 10 8 14.8 2.36
-10 8 -2 5.69 2.25
-10 8 -2 14.56 2.94
-10 8 -2 15.35 2.66
-2 -10 8 10.45 2.5
0 4 -10 2.35 2.29
0 4 10 3.7 1.79
0 4 -10 2.51 1.83
0 -4 10 1.35 2.4
0 -4 10 1.9 1.8
0 -4 10 2.38 1.99
0 -4 10 3.34 1.82
4 -10 0 4.57 2.77
4 10 0 3.4 1.77
4 10 0 1.38 1.64
4 10 0 2.17 1.91
4 10 0 1.78 0.72
10 0 -4 2.8 2.19
10 0 -4 -1.17 1.85
10 0 -4 1.08 1.99
10 0 4 2.71 1.64
10 0 4 1.52 2.03
10 0 4 2.73 2.33
10 0 4 2.58 2.47
0 4 10 -1.32 2.38
-10 0 4 3.75 2.45
-10 0 4 2.49 2.14
-4 -10 0 0.41 2.01
-4 -10 0 1.21 1.67
-4 -10 0 2.52 1.93
-4 -10 0 0.28 2.55
-4 10 0 1.92 1.34
-4 10 0 0.96 1.77
-4 10 0 3.05 1.84
-10 0 -4 1.51 2.41
-10 0 -4 1.23 2.48
-10 0 4 1.85 2.15
4 -10 0 3.38 1.75
4 -10 0 1.68 1.95
-4 10 0 2.87 1.87
-4 10 0 0.37 2.2
0 -4 -10 1.95 2.04
0 -4 -10 2.35 1.92
0 -4 -10 0.54 2
-10 0 -4 1.51 1.43
-10 0 -4 2.45 2.08
-10 0 4 6.47 1.98
-10 0 4 2.73 1.73
0 4 -10 4.06 1.94
0 4 -10 0.49 1.25
0 4 10 1.21 1.76
0 4 10 0.94 2.06
-10 0 4 2.41 1.87
0 -4 10 7.32 3.05
10 -2 4 20.65 2.37
-4 10 2 20.45 3.08
-10 -2 -4 17.82 3.08
-10 2 4 19.22 2.87
-10 2 4 18.6 3.17
-4 -10 -2 22.45 3
-4 -10 -2 25.53 3.15
-4 -10 -2 18.91 2.83
-4 -10 -2 19.73 2.56
-4 -10 -2 18.57 3.02
2 4 -10 20.71 3.23
2 -4 10 21.55 3.32
10 -2 4 16.55 2.76
10 -2 4 21.19 3.32
-2 4 10 22.55 2.79
-2 4 10 23.77 2.62
-4 10 2 18.67 2.44
-4 10 2 21.75 2.76
-10 2 4 17.31 2.62
-4 10 2 22.58 2.87
2 -4 10 20.4 2.91
2 -4 10 19.98 2.88
4 -10 2 17.44 2.97
4 -10 2 20.58 2.93
4 -10 2 17.6 3.5
4 10 -2 21.63 2.65
4 10 -2 23.06 2.62
4 10 -2 19.24 2.89
4 10 -2 20.75 3.29
2 4 -10 20.14 2.7
-2 4 10 26.37 3.59
-2 4 10 20.61 3.26
-10 2 4 15.55 2.57
-10 -2 -4 27.14 3.26
-10 -2 -4 21.94 3.11
-10 -2 -4 24.19 3.26
-10 2 4 19.87 2.54
2 4 -10 20.06 2.71
2 -4 10 25.08 3.63
10 2 -4 15.32 2.95
10 -2 4 19.76 3.36
2 -4 10 19.84 2.43
-2 4 10 20.59 2.95
2 4 -10 19.67 2.75
10 2 -4 20.32 2.68
-2 -4 -10 23.84 2.79
-2 -4 -10 22.02 2.85
-2 -4 -10 23.99 3.03
-10 2 4 19.36 2.87
-4 10 -2 22.86 2.87
4 10 2 22.18 3.08
4 10 2 24.12 3.18
-4 10 -2 19.12 2.82
-4 -10 2 15.46 2.72
2 4 10 24.55 2.73
-10 -2 4 15.95 2.77
-10 -2 4 24.56 3.31
-10 2 -4 17.31 2.36
-10 2 -4 18.33 2.82
-10 2 -4 19.37 3.16
-4 10 -2 21.52 3.26
-2 4 -10 21.56 3.1
4 10 2 22.6 2.68
4 10 2 26.66 3.25
4 10 2 20.19 2.83
4 -10 -2 18.44 2.67
2 -4 -10 20.5 2.96
2 -4 -10 21.84 2.56
2 -4 -10 18.11 2.85
-2 4 -10 23.97 3.3
-4 -10 2 18.55 2.74
-4 -10 2 13.52 3.33
10 2 4 20.38 2.88
10 2 4 24.25 3.35
10 2 4 19.66 3.25
-10 -2 4 21.6 3.06
-10 -2 4 19.32 2.75
-2 -4 10 23.28 3.79
-2 4 -10 23.49 2.58
-2 4 -10 19.07 2.7
-2 4 -10 18.21 2.73
10 -2 -4 20.03 2.67
10 -2 -4 18.65 2.93
10 -2 -4 23.48 3.01
4 -10 -2 23.56 2.9
4 -10 -2 20.25 3.22
-2 -4 10 12.8 2.25
-2 -4 10 20.59 2.81
-2 -4 10 17.79 3.06
2 4 10 19.81 3.12
-10 -2 4 22.9 2.85
2 4 10 24.09 3.18
2 4 10 25.73 2.76
-10 2 -4 16.75 3.24
4 -10 4 26.32 3.18
4 -10 4 25.52 3.6
-10 4 4 23.24 3.32
-10 4 4 28.61 3.96
-4 -4 -10 35.85 4.28
10 4 -4 24.29 3.58
-4 4 10 32.21 4.17
-4 4 10 33.82 3.57
-10 -4 -4 24.11 3.56
10 -4 4 23.68 3.35
10 -4 4 32.61 3.98
10 -4 4 25.14 3.64
10 4 -4 32.55 3.97
-4 -4 -10 33.58 4.52
-10 4 4 39.33 4.29
-10 4 4 33.08 4.4
-10 4 4 25.18 3.46
4 4 -10 31.05 3.47
-10 4 4 27.08 3.4
4 -10 4 32.12 4.39
4 -10 4 25.41 4.13
4 4 -10 29 3.96
4 10 -4 30.23 3.66
-4 -10 -4 33.57 3.65
-4 -10 -4 35.55 4.01
-4 -10 -4 35.12 4.42
-10 -4 -4 32.6 3.91
-10 -4 -4 29.87 3.64
-10 -4 -4 27.98 3.82
-4 4 10 24.43 3.48
-4 4 10 30.78 4.27
-4 4 10 28.16 3.93
4 10 -4 30.25 4.26
-10 4 4 39.09 3.58
4 -4 10 30.14 3.56
4 -4 10 29.65 4.08
-4 10 4 29.59 3.78
-4 10 4 37.42 4.07
-4 10 4 33.78 4.2
-4 10 4 29.54 3.85
-4 -10 -4 30.99 4.31
-4 -4 -10 32.29 4
-4 -4 -10 30.91 3.55
-4 -10 -4 36.53 3.92
-4 -10 -4 33.77 4.06
4 4 -10 32.47 4.15
4 10 -4 28.91 3.24
4 -4 10 29.36 4.17
4 10 -4 27.35 3.95
10 -4 -4 21.25 3.82
-4 10 -4 27.76 3.55
4 10 4 36.63 4.42
4 -10 -4 25.29 3.34
-4 4 -10 27.34 3.55
-4 4 -10 31.16 3.9
-4 4 -10 36.07 4.67
4 10 4 30.02 4.19
10 -4 -4 24.2 3.45
4 10 4 37.38 4.06
4 10 4 35.33 3.95
4 -4 -10 23.16 3.5
-4 10 -4 30.92 4.2
-4 10 -4 27.24 3.89
-10 -4 4 32.71 3.78
-10 4 -4 20.17 3.37
4 4 10 34.05 3.83
10 -4 -4 29.71 3.71
4 4 10 33.76 4.66
-10 -4 4 34.12 4.2
-10 -4 4 18.92 3.46
-4 10 -4 31.25 3.51
-10 4 -4 33.41 4.16
4 -10 -4 24.65 3.77
-4 4 -10 26.82 3.46
10 4 4 29.32 3.88
-10 4 -4 30.4 3.8
-10 4 -4 33.38 4.01
-4 -10 4 30.11 3.98
-4 -10 4 32.19 3.92
-4 -10 4 29.94 4.16
-4 -10 4 27.98 4.2
-4 -4 10 32.33 4.02
-4 -4 10 24.41 4.22
-10 -4 4 33.03 4.08
4 -4 -10 32.82 3.79
-10 -4 4 46.78 4.99
4 -4 -10 32.49 3.54
4 4 10 32.69 3.43
4 4 10 30.52 4.31
-4 -4 10 28.97 3.56
4 -10 -4 35.85 4.19
4 -10 -4 34.83 4.34
10 4 4 32.64 3.94
10 4 4 28.11 3.77
-4 10 6 3.16 1.87
-6 -4 -10 4.24 2.05
-6 -4 -10 5.41 2.23
-4 -10 -6 5.63 2.2
4 -10 6 7.98 3.09
4 10 -6 1.01 1.67
-10 6 4 -3.11 1.99
-10 6 4 -3.26 2.15
-10 6 4 1.94 2.18
-4 10 6 5.89 1.88
-4 10 6 6.38 2.07
-4 10 6 1.71 2.29
4 -10 6 1.81 1.16
6 -4 10 5.9 2.25
-10 -6 -4 4.02 2.04
-10 -6 -4 5.34 2.37
-10 -6 -4 1.15 2.07
-10 -6 -4 3 2.45
-10 -6 -4 -1.83 2.17
-6 4 10 2.42 1.72
-6 4 10 0.54 2.06
-6 4 10 0.17 2.92
-6 4 10 2.85 2.65
-4 -10 -6 5.16 2.26
-4 -10 -6 3.1 1.96
6 -4 10 1.76 2.93
4 -10 6 2.24 2.58
-6 -4 -10 2.42 2.26
-4 -10 -6 2.78 2.12
10 -6 4 0.63 1.92
-6 4 10 5.55 2.18
4 10 -6 6.38 2.07
4 10 -6 4.96 2
10 6 -4 3.89 1.77
10 6 -4 2.27 2
4 -10 6 1.03 2.34
-10 6 4 4.25 2.07
-10 6 4 3.11 2.52
-6 -4 -10 6.14 2.01
10 6 -4 -0.36 0.93
10 -6 4 2.86 2.66
10 -6 4 1.97 2.56
6 4 -10 1.38 2.16
-4 -10 -6 2.59 1.88
10 6 -4 -0.91 2.23
4 10 -6 0.66 2.73
6 -4 10 -0.23 2.78
6 4 -10 2.76 2.24
6 4 -10 3.81 2.57
6 -4 -10 5.24 2.1
-6 4 -10 -1.33 2.48
10 -6 -4 3.6 2.55
-6 4 -10 2.75 2.02
-10 -6 4 2.19 2.26
-10 -6 4 3.41 2.1
-10 -6 4 -2.62 2.1
-10 -6 4 7.45 2.73
-10 6 -4 6.39 1.94
-10 6 -4 4.79 2.48
6 4 10 4.93 1.88
6 4 10 1.94 2.1
-4 10 -6 4.55 1.87
-4 10 -6 -0.5 2.05
-10 6 -4 2.64 2.44
6 4 10 5.6 2.76
10 -6 -4 1.12 2.16
-6 -4 10 1.01 2.01
-6 4 -10 1.65 2.4
-6 -4 10 0.88 2.25
-4 10 -6 1.5 2.31
-4 10 -6 4.92 2.49
4 -10 -6 2.25 2.66
4 -10 -6 0.37 2.19
-6 -4 10 6.69 3.12
-4 -10 6 -2.05 2.13
4 10 6 4.89 1.8
4 10 6 0.15 2.13
4 10 6 3.52 2.19
4 10 6 4.27 2.11
6 -4 -10 6.12 2.36
10 6 4 2.14 2.28
6 -4 -10 -1.34 2.05
4 -10 -6 4.1 1.75
4 -10 -6 3.14 2.08
-4 -10 6 6 2.13
-4 -10 6 3.56 1.95
-4 -10 6 -2 3.06
-10 6 -4 4.44 2.52
-6 4 -10 4.44 2.37
10 6 4 2.46 2.01
6 4 10 2.66 2.34
10 6 4 0.99 2.46
-6 4 -10 3.19 2.35
-10 6 -4 1.2 2.14
-10 -8 -4 5.48 2.58
-8 -4 -10 4.85 2.45
-8 -4 -10 6.42 2.54
-8 -4 -10 7.21 2.48
-4 10 8 8.26 2.26
-4 -10 -8 8.98 2.36
-4 -10 -8 6.16 2.28
-8 4 10 5.43 2.88
-10 8 4 8.22 2.18
-10 -8 -4 8.86 2.52
-4 10 8 10.92 2.12
8 4 -10 6.23 2.53
8 4 -10 6.35 2.43
-4 -10 -8 9.97 2.29
-4 -10 -8 6.81 2.29
-4 -10 -8 3.7 2.58
10 -8 4 6.98 3
-10 -8 -4 5.36 2.56
-10 8 4 4.93 2.16
4 -10 8 5.24 2.86
-4 10 8 4.77 2.58
-10 8 4 5.48 2.56
-8 -4 -10 4.38 2.21
-8 4 10 7.52 3.18
4 -10 8 4.33 3.22
4 10 -8 7.64 2.18
4 10 -8 7.98 2.33
4 10 -8 1.93 2.86
-10 8 4 4.48 2.24
-8 4 10 3.84 2.19
10 8 -4 6.29 2.02
8 -4 10 4.89 2.91
4 -10 8 7.59 2.37
4 -10 8 3.13 2.42
-8 4 10 6.19 2.4
8 -4 10 3.83 2.4
8 -4 10 8.28 3.2
-4 10 8 7.46 2.18
8 4 -10 8.5 2.83
-8 4 10 8.02 1.96
10 -8 4 5.48 2.03
10 -8 4 4.69 2.71
10 8 -4 6.4 2.25
10 8 -4 5.28 2.43
-10 -8 -4 5.78 2.45
-10 8 4 6.3 2.37
-10 -8 -4 5.06 2.21
10 -8 4 6.63 2.9
4 10 8 5.9 2.22
-8 -4 10 6.13 2.28
-10 -8 4 6.66 2.28
-10 -8 4 5.19 2.36
-10 -8 4 6.93 2.58
-10 8 -4 7.3 2.69
-10 8 -4 6.8 2.42
-8 4 -10 3.61 2.4
4 10 8 9.24 2.07
4 10 8 6 2.35
8 4 10 6.24 3.15
10 -8 -4 3.74 2.44
10 -8 -4 5.94 3
-10 -8 4 7.04 3.16
8 4 10 5.59 2.01
4 10 8 7.39 2.53
4 -10 -8 3.96 2.99
-8 -4 10 5.56 3.32
-8 4 -10 4.34 2.36
-8 4 -10 5.13 2.62
-8 4 -10 8.42 2.69
8 -4 -10 9.25 2.57
8 -4 -10 7.81 2.29
8 -4 -10 2.99 2.28
-10 8 -4 7.08 2.08
-8 4 -10 1.13 2.65
4 -10 -8 7.14 2.38
8 4 10 6.27 2.31
8 4 10 6.76 2.73
-4 -10 8 5.47 2.39
-4 -10 8 7.54 2.27
-4 -10 8 8.48 2.31
-4 -10 8 5.67 3.39
-4 10 -8 8 2.22
-4 10 -8 3.13 2.34
-4 10 -8 8.14 2.65
-4 10 -8 7.36 2.79
-8 -4 10 4.68 2.58
-10 8 -4 7.98 2.71
10 8 4 4.88 2.65
4 -10 -8 8.41 2.05
10 8 4 6.63 2.07
10 8 4 8.31 2.68
4 -10 -8 7.53 2.51
4 10 8 7.8 2.1
0 6 -10 2.93 1.75
0 6 -10 3.97 2.04
0 6 -10 5.53 1.96
0 6 -10 6.1 2.13
0 -6 10 5.22 2.04
6 10 0 5.12 2.02
6 10 0 5.76 1.91
6 10 0 4.45 2.15
6 10 0 2.61 2.38
10 0 -6 3 2.35
10 0 -6 7.5 2.18
10 0 6 5.19 1.81
10 0 6 5.56 2.21
10 0 6 5.4 2.48
6 -10 0 5.82 2.25
0 -6 10 6.09 3.26
-6 -10 0 4.67 2.1
-6 -10 0 4.48 2.54
0 -6 10 1.32 2.59
-6 10 0 6.09 2.16
-6 10 0 6.51 2.08
-6 10 0 5.53 2.38
0 -6 -10 4.11 2.21
0 -6 -10 4.5 1.95
0 -6 -10 5.55 2.02
0 -6 10 5.23 2.01
0 -6 10 3.13 2.11
-10 0 6 2.82 1.8
-10 0 6 6.42 2.8
-6 -10 0 5.1 1.86
-6 -10 0 4.99 2.16
6 -10 0 4.91 2.73
0 6 10 5.55 1.92
0 6 10 5.7 1.79
0 6 10 6.23 2.25
0 6 10 5.5 2.68
0 6 10 4.46 2.1
6 -10 0 5.94 1.83
-10 0 6 3.77 1.75
-10 0 6 5 2.4
0 6 -10 5.51 2.59
-10 0 -6 5.59 2.19
-10 0 -6 5.68 2.67
-10 0 -6 2.83 2.5
-6 10 0 3.82 1.52
-10 0 6 6.49 2.05
10 0 6 5.6 2.78
2 -6 10 3.2 2.77
-2 6 10 5.8 2.22
-10 2 6 3.1 2.94
-10 2 6 4.38 2.67
2 -6 10 1.38 3.16
10 2 -6 1.34 2.46
2 -6 10 5.44 2.24
-10 -2 -6 4.98 2.63
-6 10 2 5.38 2.15
-6 10 2 2.6 2.42
6 10 -2 4.69 1.99
6 10 -2 6.52 1.97
6 10 -2 3.32 2.03
2 6 -10 5.76 2.07
-2 6 10 5.52 1.73
10 2 -6 6.33 2.48
10 2 -6 6.26 2.19
-6 -10 -2 2.94 2.31
-2 6 10 4.66 2.5
-2 -6 -10 6.73 2.22
-2 -6 -10 4.17 2.08
2 6 -10 7.7 2.08
2 6 -10 3.21 1.76
2 6 -10 4.67 2.04
-6 -10 -2 6.2 2.32
6 -10 2 5.17 2.99
-2 6 10 6.49 1.94
-6 -10 -2 5.87 2.19
-6 -10 -2 5.75 1.72
10 -2 6 2.6 2.09
10 -2 6 2.79 2.53
10 -2 6 6.4 2.75
10 2 -6 1.47 2.1
2 6 -10 4.87 2.57
-10 -2 -6 5.55 2.57
-10 2 6 2.37 2.31
-10 2 6 -1.95 1.71
-10 2 6 2.87 1.71
6 -10 2 5.59 2.3
-6 10 2 3.46 1.72
-2 -6 -10 5.96 1.79
2 -6 10 6.44 2.17
-6 10 2 7.1 2
-6 10 2 5.83 2.11
-10 -2 -6 7.84 1.91
-10 -2 -6 2.83 2.21
-2 -6 -10 5.83 2.21
6 -10 2 4.39 2.28
6 -10 -2 4.3 2.04
-10 2 -6 2.92 2.64
-10 2 -6 4.35 2.54
2 6 10 3.29 2.23
-2 6 -10 7.37 2.47
6 -10 -2 7.12 2.14
-2 -6 10 5.06 2.14
-2 -6 10 3.53 1.85
-2 -6 10 2.17 2.36
-2 -6 10 4.84 3.21
-2 6 -10 4.98 2.06
-2 6 -10 7.06 2.07
2 6 10 4.65 2.58
2 6 10 5.01 1.91
2 6 10 5.48 1.95
2 6 10 8.36 2.04
2 6 10 5.44 2.3
-6 -10 2 3.89 2.18
2 -6 -10 5.12 2.29
2 -6 -10 6.41 1.93
2 -6 -10 2.32 2.02
-6 -10 2 3.1 2.12
6 10 2 5.91 1.86
10 -2 -6 2.5 2.28
10 -2 -6 4.01 1.93
-10 -2 6 5.91 2.26
-10 -2 6 5.6 2.15
-6 -10 2 3 1.94
-10 -2 6 3.21 2.93
-10 2 -6 0.19 1.35
-10 2 -6 5.1 2.31
-6 10 -2 6 2.23
10 2 6 5.33 2.15
10 2 6 6.34 2.61
10 2 6 1.3 2.76
-6 -10 2 0.9 2.83
-6 10 -2 5.99 2.15
-6 10 -2 5.6 2.35
6 10 2 7.04 2.07
6 10 2 3.7 2.2
6 10 2 5 1.93
6 10 2 3.92 2.13
-10 -2 6 1.47 1.88
-2 6 -10 7.45 2.6
6 -10 -2 3.27 2.45
-10 4 6 5.41 2.71
10 -4 6 4.04 2.45
-6 10 4 2.24 1.82
10 4 -6 4.72 2.24
10 4 -6 -0.46 2.13
-10 4 6 1.82 1.74
4 6 -10 3.76 1.76
4 6 -10 3.94 2.52
10 -4 6 4.44 2.79
-10 4 6 3.13 2.08
-4 6 10 2.61 2.58
-10 4 6 2.16 2.24
-10 4 6 2.27 1.55
4 -6 10 5.04 2.26
-4 -6 -10 4.89 2.05
4 -6 10 -1.76 2.7
6 -10 4 4.15 1.84
6 -10 4 2.36 2.26
6 -10 4 1.23 2.41
6 -10 4 1.73 2.89
6 10 -4 3.54 1.89
6 10 -4 4.96 2.16
6 10 -4 3.83 2.06
-6 10 4 7.91 1.92
-6 10 4 6.23 2.15
-10 -4 -6 -0.65 2.47
-10 4 6 1.73 2.1
-6 10 4 2.46 2.21
-4 -6 -10 0.11 2.04
-4 -6 -10 2.51 2.25
10 -4 6 -1.79 2.12
10 4 -6 4.19 2.56
4 -6 10 3.15 2.35
-10 -4 -6 2.89 2.02
-6 -10 -4 2.3 1.85
-10 -4 -6 1.74 2.32
-10 -4 -6 4.81 2.47
4 6 -10 4.32 2.09
4 6 -10 3.5 2.1
-4 6 10 3.39 1.99
4 -6 10 -0.03 2.99
6 10 -4 1.44 2.65
-6 -10 -4 5.45 2.21
-6 -10 -4 3.81 2.17
-6 -10 -4 -0.12 0.9
-6 -10 -4 3.36 2.15
-4 6 10 0.3 2.11
-4 -6 -10 4.45 2.23
-6 -10 4 3.3 2.02
-6 -10 4 -1.18 2.1
-6 -10 4 -4.08 2.96
-10 -4 6 5.51 2.41
-10 -4 6 2.34 2.16
4 6 10 -0.21 2.06
-10 -4 6 5.34 2.32
4 6 10 3.78 2.49
-10 4 -6 2.75 2.44
-10 -4 6 3.6 2.84
6 -10 -4 -0.99 2.21
6 10 4 5.24 2.29
6 10 4 3.18 2.17
10 -4 -6 1.07 2.27
10 -4 -6 1.18 1.85
10 -4 -6 3.3 2.68
6 -10 -4 4.89 2.17
-6 -10 4 4.4 2.05
-4 -6 10 2.79 2.35
-4 -6 10 1.71 2.12
-4 -6 10 3.14 3.22
-4 6 -10 4.77 2.16
-4 6 -10 1.63 2.09
-4 6 -10 1.32 2.43
-4 6 -10 -0.65 2.56
10 4 6 4.06 2.01
6 10 4 1.21 1.87
4 6 10 3.33 2.01
4 -6 -10 3.91 2.42
4 -6 -10 -0.18 2.02
6 -10 -4 3.85 1.92
-10 4 -6 -0.33 2
6 -10 -4 0.06 2.66
10 4 6 4.28 2.2
10 4 6 3.17 2.45
10 4 6 4.58 2.75
-10 4 -6 1.67 2.48
-6 10 -4 8.03 1.84
-6 10 -4 3.2 2.32
-6 10 -4 1.88 2.29
-6 10 -4 3.47 2.44
4 6 10 2.61 1.77
-10 4 -6 1.6 2.28
-10 6 6 -3.79 2.08
-6 -10 -6 -1.9 1.92
-10 -6 -6 -1.77 2.05
-10 -6 -6 -2.5 2.39
-10 -6 -6 -2.02 2.22
6 10 -6 -0.23 1.87
-10 6 6 -2.22 2.67
-6 -10 -6 -0.93 2.19
-6 -10 -6 1.87 2.2
-6 -10 -6 -0.89 1.53
6 6 -10 -0.19 2.51
-6 10 6 -0.94 2.29
-10 -6 -6 -2.52 2.43
6 -10 6 -4.72 3.03
-6 -10 -6 -1.48 2.14
-6 -6 -10 -1.44 1.96
-10 6 6 -4.35 2.06
-10 6 6 -1.28 1.92
6 10 -6 -3.18 2.52
-6 10 6 1.21 2.1
6 6 -10 0.23 2.05
6 -6 10 -1.93 2.08
6 -6 10 -5.42 2.89
6 -6 10 -4.18 3.21
10 -6 6 -6.45 2.11
10 -6 6 -0.41 2.72
10 -6 6 -2.81 2.74
10 6 -6 -2.11 2.15
10 6 -6 -6.13 2.18
10 6 -6 -0.97 2.42
-6 -6 -10 0.54 2.34
6 10 -6 -1.52 2.03
6 -10 6 -1.23 1.8
6 -10 6 -4.62 2.28
6 -10 6 -1.58 2.75
6 10 -6 -1.6 1.67
-6 10 6 6.36 1.8
-6 -6 -10 -0.57 2.24
-6 -6 -10 -0.19 2.12
-6 6 10 0.74 2.18
-6 6 10 -4.47 2.04
-6 6 10 -1.36 2.64
-6 10 6 -1.96 1.78
-6 10 -6 -1.43 2.26
-6 10 -6 -2.13 2.34
-6 10 -6 -1.15 2.35
-6 10 -6 0.66 1.91
6 10 6 0.4 2.21
6 10 6 0.62 1.91
-10 6 -6 -0.82 2.56
6 -10 -6 -4.71 2.22
-6 6 -10 -0.88 2.17
-10 6 -6 -2.43 2.2
10 6 6 -1.04 2.32
10 6 6 -4.21 2.69
-10 -6 6 1.71 2.81
-6 -6 10 1.47 3.27
6 6 10 -3.26 2.04
6 6 10 0.35 2.25
6 6 10 -1.16 2.49
6 -10 -6 -1.88 1.86
6 -10 -6 -0.7 2.14
-6 -10 6 0.15 2.17
-6 -10 6 -2.36 1.94
-6 -10 6 -5.07 3.26
-6 -10 6 -5.51 2.3
-6 6 -10 -2.06 2.56
-6 6 -10 -3.26 2.39
10 6 6 -1.7 1.85
-6 -6 10 -3.61 2.32
-6 -6 10 -2.33 2.03
6 10 6 -3.57 2.19
10 -6 -6 -3.53 2.26
10 -6 -6 -0.43 2.75
-6 6 -10 0.71 2.4
6 -10 -6 -1.64 2.83
-10 6 -6 -5.05 2.22
-10 6 -6 -0.56 2.36
-10 6 -6 -0.84 2.52
6 -6 -10 -2.97 2.13
-10 -6 6 0.42 2.56
-10 -6 6 -3.93 2.06
-10 -6 6 -4.01 2
6 6 10 -0.79 1.91
-10 -6 6 2.26 2.45
10 -8 6 10.13 3.19
6 -10 8 9.36 3.59
-10 8 6 11.98 2.53
-10 8 6 2.03 2.41
-10 8 6 9.7 2.57
10 8 -6 10.15 2.58
10 -8 6 13.28 3.4
-10 -8 -6 12.23 2.56
-10 -8 -6 13.35 2.85
-10 -8 -6 12.35 2.66
-10 -8 -6 11.23 2.92
-10 -8 -6 9.02 2.59
10 -8 6 5.4 2.42
-8 -6 -10 10 2.52
-8 -6 -10 10.45 2.68
-8 -6 -10 8.93 2.81
10 8 -6 12.91 2.73
10 8 -6 10.94 2.98
-8 6 10 9.52 2.62
-8 6 10 6.84 2.53
-8 6 10 7.83 3.08
-6 -10 -8 12.85 2.66
-6 -10 -8 12.28 2.61
-6 -10 -8 10.91 2.53
8 -6 10 11.65 3.3
8 -6 10 6.56 3.42
-6 10 8 11.16 2.33
-6 10 8 16.9 2.24
-6 10 8 13.28 2.52
-6 10 8 8.49 2.93
8 6 -10 11.86 2.99
-8 -6 -10 11.43 2.74
6 10 -8 8.63 3.16
-10 8 6 7.99 3
6 -10 8 6.56 2.57
6 -10 8 7.82 2.78
6 -10 8 8.27 3.22
-6 -10 -8 11.17 2.59
6 10 -8 12.94 2.51
6 10 -8 11.23 2.51
8 -6 10 11.67 2.61
8 6 -10 11.43 2.64
6 -10 -8 8.08 3.11
-8 6 -10 10.3 2.86
-8 6 -10 13.56 2.86
-8 6 -10 7.72 3.06
6 -10 -8 8.91 2.57
-10 8 -6 11.23 3.01
10 8 6 9.33 2.84
10 8 6 11.91 3.03
6 10 8 10.93 2.67
6 10 8 10.85 2.83
-6 10 -8 8.94 2.65
-10 8 -6 13.27 2.83
-6 -10 8 11.18 2.86
-6 -10 8 11.2 2.58
-6 -10 8 9.59 2.36
-6 -10 8 12.62 3.84
-10 -8 6 10.09 2.83
-10 -8 6 10.21 2.54
8 -6 -10 10.6 2.64
-8 6 -10 8.19 2.87
-6 10 -8 9.5 2.91
-6 10 -8 11.78 2.84
-8 6 -10 9.54 2.55
6 -10 -8 12.5 2.87
8 6 10 14.36 2.34
8 6 10 13.54 2.58
8 6 10 11.05 2.76
8 6 10 13.93 3.28
10 -8 -6 9.19 2.84
10 -8 -6 12.51 2.45
10 -8 -6 10.8 3.1
-8 -6 10 14.39 3.64
-10 8 -6 12.88 2.47
-10 8 -6 10.51 3
10 8 6 9.99 2.4
6 10 8 12.58 2.35
-6 10 -8 12.47 2.56
-10 -8 6 8.58 2.49
-10 -8 6 12 3.55
6 -10 -8 13.55 2.31
-8 -6 10 10.08 2.83
-8 -6 10 6.86 2.46
-8 -6 10 9.77 2.12
6 10 8 14.31 2.36
8 -6 -10 14.24 2.98
8 -6 -10 6.27 2.18
0 -8 -10 48.33 4.91
0 -8 10 42.07 4.88
8 -10 0 35.22 4.44
8 -10 0 43.95 5.25
8 -10 0 44.73 5.28
8 -10 0 40.54 5.67
8 10 0 39.91 5.3
8 10 0 46.5 5.44
10 0 -8 36.86 5.15
10 0 -8 46.85 4.88
10 0 -8 31.14 4.61
10 0 -8 30.24 4.75
10 0 8 41.79 4.34
10 0 8 41.72 4.91
10 0 8 38.31 5.52
10 0 8 34.96 4.89
0 8 10 39.98 5.15
0 8 10 43.4 5.07
-10 0 -8 45.82 5.63
-10 0 -8 33.07 4.73
0 8 10 46.88 4.75
0 8 10 45.67 4.65
8 10 0 42.97 4.68
-10 0 8 43.24 5.08
0 -8 -10 40.72 4.99
0 -8 -10 44.16 5.59
0 -8 10 43.9 4.58
-8 -10 0 42.96 4.91
-8 -10 0 42.7 4.64
-8 -10 0 40.4 5.21
-8 -10 0 46.7 5.41
-8 10 0 46.71 5.33
-8 10 0 41.11 4.98
-8 10 0 40.04 5.35
0 8 -10 29.52 4.77
0 -8 10 33.34 4.94
0 -8 10 41.23 5.37
8 10 0 43.85 4.65
-10 0 8 41.08 4.61
-10 0 8 46.3 6.24
-10 0 -8 46.33 4.23
-10 0 -8 38.69 4.95
0 8 -10 33.1 5.06
0 -8 10 36.91 5.24
0 8 -10 42.7 4.75
0 8 -10 39.55 4.84
2 -8 10 11.58 3.59
2 8 -10 14.2 2.63
2 8 -10 13.2 2.48
2 8 -10 11.19 2.66
2 8 -10 11.14 3.13
2 -8 10 14 2.69
2 -8 10 11.7 2.6
2 -8 10 10.82 3.11
-10 -2 -8 12.19 2.76
-8 10 2 19.8 2.7
-10 -2 -8 17.24 2.4
-8 -10 -2 14.63 2.57
-8 -10 -2 12.82 2.72
8 -10 2 14.29 2.82
8 -10 2 17.85 3
8 -10 2 15.72 3.32
8 10 -2 13.86 2.38
8 10 -2 15.04 2.42
8 10 -2 10.89 2.67
8 10 -2 11.38 2.9
-2 8 10 15.74 2.69
-2 8 10 16.55 3.14
-8 10 2 11.47 2.14
-2 -8 -10 15.16 2.56
-10 -2 -8 15.61 3.1
-10 -2 -8 11.86 2.91
10 -2 8 11.22 2.61
10 -2 8 12.25 3.06
10 -2 8 10.29 3.21
10 2 -8 11.73 2.72
10 2 -8 14.64 2.72
10 2 -8 12.97 3.1
-2 -8 -10 12.77 2.58
-2 -8 -10 13.96 2.98
-2 -8 -10 17.2 2.44
-2 8 10 18.24 2.55
-10 2 8 9.58 2.61
-10 2 8 10.66 2.29
-10 2 8 8.43 2.2
-10 2 8 11.56 3.44
-10 2 8 17.19 3.13
-8 -10 -2 13.54 2.76
-8 10 2 17.87 2.78
-8 10 2 12.85 2.59
-8 10 2 11.05 2.98
-2 -8 -10 18.14 2.41
10 2 8 11.45 2.79
10 -2 -8 13.68 2.8
10 2 8 14.62 2.34
10 2 8 13.77 2.69
-2 -8 10 13.81 2.66
8 10 2 13.36 2.82
-10 2 -8 11.65 2.74
-10 2 -8 12.59 3
-10 2 -8 10.74 2.95
2 8 10 15.89 2.4
2 8 10 15.77 2.41
10 2 8 11.58 3.31
8 10 2 15.62 2.44
8 10 2 10.34 2.58
8 -10 -2 14.08 2.6
2 -8 -10 15.89 3.27
10 -2 -8 13.17 2.51
10 -2 -8 7.21 2.07
-10 -2 8 12.1 2.78
-10 -2 8 11.75 2.47
-10 -2 8 9.22 3.48
2 -8 -10 13.15 2.63
-2 8 -10 11 2.65
-2 8 -10 11.33 3.14
2 8 10 17.44 2.48
2 8 10 16.44 2.91
2 8 10 14.95 2.79
2 -8 -10 15.84 2.75
-2 -8 10 12.32 2.49
-2 -8 10 11.64 3.67
8 -10 -2 15.05 2.64
8 -10 -2 13.74 3.1
-8 -10 2 12.55 2.6
-8 -10 2 15.13 2.48
-8 -10 2 12.8 2.7
-8 -10 2 14.23 3.26
-8 10 -2 14.18 2.85
-8 10 -2 16.97 2.82
-8 10 -2 16.83 2.94
-2 -8 10 11.46 2.59
-2 8 -10 11.03 2.38
-2 8 -10 14.18 2.44
-10 4 8 6.74 2.88
-10 4 8 4.4 3.28
10 -4 8 5.43 2.92
10 -4 8 5.38 2.8
10 4 -8 7.17 2.57
10 4 -8 8.68 2.8
-10 4 8 1.06 1.7
-10 4 8 6 1.97
10 -4 8 2.88 2.29
4 -8 10 8.06 2.53
4 -8 10 1.78 2.91
4 -8 10 1.92 3.46
4 8 -10 7.84 2.32
4 8 -10 6.37 2.14
4 8 -10 5.56 2.84
8 10 -4 2.33 2.35
8 10 -4 4.35 2.67
-10 -4 -8 2.88 2.62
-10 -4 -8 3.9 2.56
-10 4 8 5.22 2.44
8 10 -4 7.37 1.98
8 10 -4 7.62 2.35
-10 -4 -8 6.75 2.2
-10 -4 -8 6.21 2.48
-8 -10 -4 7.83 2.36
-8 -10 -4 6.6 2.46
-8 -10 -4 7.73 2.33
-8 -10 -4 3.83 2.34
-8 10 4 4.36 1.96
-8 10 4 11.07 2.21
-8 10 4 10.11 2.34
-8 10 4 7.82 2.38
-8 10 4 5.9 2.45
-4 -8 -10 7.65 2.3
-4 -8 -10 8.87 2.33
-4 -8 -10 9.57 2.43
8 -10 4 3.93 2.05
8 -10 4 3.75 2.53
8 -10 4 7.38 2.82
8 -10 4 6.02 3.2
4 -8 10 5.29 2.39
-4 8 10 4.85 2.83
-8 -10 -4 1.6 2.07
-4 8 10 6.26 2.39
-4 8 10 6.77 2.09
-4 8 -10 5 2.72
-4 8 -10 4.72 2.76
-4 8 -10 6.93 2.18
4 -8 -10 8.67 2.5
4 -8 -10 6.1 2.27
4 -8 -10 5.97 3.05
-4 -8 10 7.96 3.63
-8 10 -4 6.71 2.56
-8 10 -4 5.09 2.69
-4 8 -10 5.06 2.29
-8 -10 4 2.9 2.43
-8 -10 4 5.7 2.25
-8 -10 4 3.88 2.23
4 8 10 8.37 2.08
4 8 10 8.59 2.18
4 8 10 7.61 2.34
4 8 10 4.9 2.54
8 -10 -4 5.72 2.46
8 -10 -4 4.3 2.07
8 -10 -4 4.88 2.89
-4 -8 10 3.24 2.37
-4 -8 10 5.9 2.47
-4 -8 10 4.5 2.3
-4 -8 10 5.27 2.11
10 -4 -8 7.68 2.49
10 -4 -8 6.04 2.23
10 -4 -8 4.03 2.31
-8 -10 4 5.26 3.31
8 10 4 7.01 2.02
8 10 4 5.5 2.41
-10 -4 8 5.89 2.44
-10 -4 8 6.57 2.22
-10 -4 8 4.97 3.19
-10 4 -8 3.86 2.46
-10 4 -8 5.35 2.77
-10 4 -8 5.12 2.62
-10 4 -8 6.05 2.84
-10 4 -8 6.73 2.25
8 10 4 5.35 2.38
10 4 8 8.4 2.22
10 4 8 7.28 2.44
10 4 8 6.24 2.81
10 4 8 3.87 2.96
-8 10 -4 11.47 1.98
-8 10 -4 4.24 2.48
10 6 -8 9.63 2.54
10 6 -8 10.38 2.99
-10 6 8 11.49 1.9
-10 6 8 8.29 2.44
-10 6 8 9.47 3.11
-8 -10 -6 14.61 2.86
-10 -6 -8 12.06 2.61
-10 -6 -8 7.82 2.7
-10 -6 -8 9.19 2.88
-10 -6 -8 10.76 2.69
8 -10 6 10.47 2.23
8 -10 6 8.91 2.87
8 -10 6 13.45 3.32
8 -10 6 13.43 3.57
8 10 -6 12.99 2.26
8 10 -6 9.9 2.63
8 10 -6 9.8 2.58
8 10 -6 9.67 3.17
-6 8 10 9.45 3.17
-6 -8 -10 13.83 2.56
-10 6 8 12.72 2.71
-6 -8 -10 14.19 2.58
6 -8 10 9.33 2.68
6 -8 10 9.61 2.91
10 -6 8 5.41 2.56
-8 -10 -6 8.99 2.7
-8 -10 -6 11.98 2.44
-8 -10 -6 9.34 2.59
-8 -10 -6 7.06 2.43
10 6 -8 10.4 2.71
10 -6 8 10.84 3.36
10 -6 8 11.39 3.22
-6 8 10 12.27 2.54
6 -8 10 3.69 3.26
6 -8 10 4.17 3.49
6 8 -10 13.23 2.52
6 8 -10 10.74 2.38
-8 10 6 8.47 2.34
-8 10 6 13.75 2.27
-8 10 6 14.11 2.72
-8 10 6 6.87 2.79
-6 -8 -10 11.18 2.66
-6 -8 -10 11.11 2.5
-6 8 10 14.32 2.73
6 8 -10 9.21 3.02
-6 -8 10 8.75 2.81
-8 -10 6 6.91 2.76
-6 -8 10 9.04 2.54
-6 -8 10 8.99 2.17
-6 -8 10 12.47 3.8
-6 -8 10 8.6 2.83
-6 8 -10 10.61 2.78
-8 -10 6 9.68 2.42
-8 -10 6 10.35 2.4
-8 -10 6 9.58 3.59
10 6 8 12.35 2.45
-10 6 -8 11.73 3.09
6 -8 -10 14.02 2.9
6 -8 -10 9.04 2.58
6 -8 -10 9.94 3.29
10 6 8 12.65 2.63
10 6 8 9.18 2.82
-8 10 -6 14.11 2.31
-10 6 -8 9.18 2.7
-8 10 -6 9.95 2.82
-8 10 -6 9.36 2.93
-6 8 -10 10.36 2.49
6 8 10 10.26 2.35
6 8 10 11.71 2.53
6 8 10 14.33 2.71
6 8 10 15.26 3
8 -10 -6 6.16 2.72
8 -10 -6 11.58 2.34
8 -10 -6 10.93 2.65
8 -10 -6 8.74 3.22
-10 -6 8 11.04 2.8
-10 -6 8 8.88 2.87
-10 -6 8 8.49 2.38
-10 -6 8 8.19 2.32
-10 -6 8 11.08 3.6
-10 6 -8 6.26 2.76
-10 6 -8 11.79 2.95
-10 6 -8 10.75 2.9
8 10 6 11.73 2.38
8 10 6 9.22 2.76
8 10 6 10.08 2.78
10 -6 -8 9.61 2.85
10 -6 -8 8.75 2.69
10 -6 -8 7.83 3.29
10 6 8 6.7 3.26
-6 8 -10 8.14 3
-6 8 -10 4.97 2.97
-8 10 -6 11.11 2.71
-10 -8 -8 22.28 3.28
-10 -8 -8 23.6 3.38
-10 -8 -8 21.41 3.54
-10 -8 -8 17.91 3.36
8 -10 8 19.21 3.6
8 -10 8 22.84 3.94
8 10 -8 21.68 3.09
8 10 -8 22.92 3.31
8 10 -8 23.05 3.78
-8 10 8 22.9 3.37
8 -8 10 21.04 3.25
8 -8 10 17.41 3.63
8 -8 10 19.4 3.98
-10 8 8 23.01 3.29
-10 8 8 17.93 3.06
-10 8 8 21.86 3.33
-10 8 8 20.83 3.8
-8 -10 -8 27.74 3.42
-8 -10 -8 25.12 3.36
-8 -10 -8 22.29 3.39
-8 -10 -8 21.02 3.27
8 8 -10 24.38 3.75
-8 8 10 22.71 3.3
-8 10 8 20.74 3.11
8 -10 8 19.82 3.14
-8 -8 -10 27.27 3.36
-8 -8 -10 25.5 3.35
-8 -8 -10 22.97 3.45
-8 -8 -10 22.25 3.42
8 -8 10 21.44 4.16
10 -8 8 14.73 3.17
10 -8 8 21.13 3.91
10 -8 8 21.25 4.08
10 8 -8 24.57 3.42
10 8 -8 23.19 3.3
10 8 -8 22.75 3.77
8 8 -10 24 3.15
-8 10 8 21.2 3.7
-8 10 8 24.85 2.99
-8 8 10 20.51 3.29
-8 8 10 20.07 3.92
8 -10 8 21.83 4.24
8 8 -10 23 3.3
-8 10 -8 25.62 3.7
-8 -8 10 21.58 3.53
-8 -10 8 19.98 3.05
-8 -10 8 23.8 3.28
-10 8 -8 17.59 3.24
-8 -10 8 20.23 3.45
8 -10 -8 24.76 3.51
8 -10 -8 23.51 2.99
8 -10 -8 22.34 3.44
8 -10 -8 17.94 3.82
-8 -10 8 26.25 4.46
-10 -8 8 23.03 3.56
-10 -8 8 19.68 3.65
-8 10 -8 21.35 3.59
8 -8 -10 22.99 3.43
8 -8 -10 24.51 3.43
8 -8 -10 21.54 4.03
-10 8 -8 24.85 3.75
-10 8 -8 24.49 3.76
-10 8 -8 21.95 3.52
-8 10 -8 24.69 3.22
-8 10 -8 20.63 3.46
-8 8 -10 21.2 3.78
-8 8 -10 18.4 3.51
8 8 10 22.96 3.07
8 8 10 23.52 3.16
8 8 10 23.86 3.48
8 8 10 23.4 3.76
-10 -8 8 19.76 3.04
-10 -8 8 20.1 3.07
-10 -8 8 22.63 4.33
8 10 8 25.75 3.17
8 10 8 23.74 3.54
8 10 8 21.08 3.57
10 -8 -8 24.71 3.6
10 -8 -8 22.88 3.52
10 -8 -8 19.57 4.05
-8 -8 10 17.59 3.48
-8 -8 10 17.97 3.16
-8 -8 10 19.86 2.99
-8 -8 10 23.63 4.44
-8 8 -10 19.13 3.2
-8 8 -10 25.08 3.58
10 8 8 23.86 3.16
10 8 8 23.98 3.25
10 8 8 24.91 3.59
10 8 8 23.64 3.87
-10 -10 0 55.57 5.91
-10 -10 0 55.81 5.79
-10 -10 0 51.61 6.33
-10 0 -10 56.31 5.31
-10 0 -10 53.92 5.96
-10 0 -10 57.97 6.73
-10 0 -10 47.96 6.65
-10 0 10 49.59 5.98
-10 0 10 52.04 5.67
-10 0 10 40.73 5.59
-10 0 10 57.29 7.47
-10 10 0 44.85 5.14
-10 10 0 61.62 6.48
-10 10 0 56.09 6.13
-10 10 0 54.52 6.6
0 -10 -10 63.34 5.97
0 -10 -10 62.29 5.81
0 -10 -10 59.87 6.15
0 -10 -10 61.92 6.61
0 -10 10 54.19 5.45
0 -10 10 59.26 5.63
0 -10 10 52.68 5.85
0 -10 10 54.29 6.19
0 -10 10 50.44 6.4
0 -10 10 56.35 7.46
0 10 -10 55.78 5.69
0 10 -10 47.7 5.99
0 10 -10 53.24 6.31
0 10 -10 56.92 6.95
0 10 10 64.45 5.66
0 10 10 64.29 5.95
0 10 10 62.45 6.35
0 10 10 62.67 6.33
10 -10 0 56.08 5.54
10 -10 0 55.18 6.38
10 -10 0 55.51 6.27
10 -10 0 57.33 6.85
10 0 -10 54.05 6.15
10 0 -10 56.78 5.66
10 0 -10 48.32 5.75
10 0 -10 52.51 6.93
10 0 10 57.22 5.47
10 0 10 51.22 5.93
10 0 10 59.69 6.69
10 0 10 52.86 7.02
10 10 0 60.29 5.82
10 10 0 53.53 5.71
10 10 0 49.9 6.4
-10 -10 -2 24.35 3.53
-10 -10 -2 26.92 3.53
-10 -10 -2 23.24 3.7
2 -10 10 22.96 4.68
2 10 -10 31.62 3.56
2 10 -10 30.94 3.7
10 -2 10 29.19 3.65
-10 -2 -10 31.72 3.88
-10 -2 -10 28.18 3.72
-10 -2 -10 31.4 4.04
-10 -2 -10 25.52 4.02
10 2 -10 26.61 4.14
2 -10 10 27.33 3.5
2 -10 10 26.54 3.75
10 -10 2 25.29 3.22
10 -10 2 28.75 3.93
10 10 -2 30.4 3.55
-10 2 10 23.68 3.66
-10 2 10 35.54 4
-10 2 10 34.04 4.06
-10 2 10 26.86 4.36
-10 2 10 27.45 4.24
10 -2 10 30.97 4.18
10 -2 10 24.49 4.4
10 2 -10 26.14 3.74
-10 10 2 22.5 3.25
-10 10 2 44.44 4.84
-10 10 2 37.21 4.54
-10 10 2 28.22 3.72
-10 10 2 25.73 3.96
-2 -10 -10 34.27 3.74
-2 -10 -10 34.71 4.16
-2 -10 -10 32.72 4.41
-2 -10 -10 37.87 4.95
10 10 -2 31 3.95
-2 10 10 34.85 4.14
2 -10 10 20.84 4.07
10 2 -10 34.81 4.28
10 -10 2 31.64 4.26
10 -10 2 33.35 4.03
2 10 -10 22.2 4.12
10 10 -2 28.12 3.45
10 10 -2 26 3.88
-2 10 10 30.59 4.13
-2 10 10 31.04 3.88
-2 -10 10 30.21 3.67
2 -10 -10 37.41 4.57
2 -10 -10 34.71 3.99
2 -10 -10 32.68 4.43
2 -10 -10 31.95 4.19
-2 10 -10 25.35 3.39
-10 -2 10 24.06 4.64
-2 -10 10 28.69 3.58
-2 10 -10 26.93 4.18
-10 -10 2 24.23 3.71
-2 10 -10 25.31 3.57
2 10 10 31.63 3.97
2 10 10 37.73 4.51
2 10 10 31.48 3.91
2 10 10 35.22 4.68
10 -10 -2 32.44 4.12
10 -10 -2 35.77 4.86
10 -10 -2 28.85 4.2
-10 2 -10 21.97 3.67
-10 2 -10 25.82 4.02
-10 -2 10 31.64 3.56
-2 -10 10 24.71 4.53
10 -2 -10 29.63 3.87
10 -2 -10 33.56 4.13
-10 -10 2 33.56 4.25
-10 10 -2 29.91 3.96
-10 10 -2 27.44 3.75
-10 10 -2 29.27 3.91
-2 -10 10 27.06 3.62
-10 -2 10 25.67 3.68
10 2 10 37.93 4.12
10 2 10 29.57 3.66
10 2 10 27.47 3.93
10 2 10 29.65 4.33
-10 2 -10 21.55 3.98
-10 -10 2 28.17 3.74
-10 -10 2 33.99 4.18
-2 -10 10 24.91 3.48
10 10 2 34.55 4.23
10 10 2 25.13 3.68
10 10 2 24.46 3.81
-10 -10 -4 7.79 2.52
-10 -10 -4 8.22 2.8
-10 -10 -4 8.2 2.57
-10 -10 -4 7.16 2.64
-10 -10 -4 7.17 2.3
10 -10 4 5.95 2.79
10 -10 4 9.35 3.14
10 -10 4 8.17 3.37
4 -10 10 2.73 3.65
-10 -4 -10 8.63 2.37
-10 -4 -10 8.52 2.68
-10 -4 -10 7.56 2.74
-10 -4 -10 4.88 2.82
10 -4 10 8.26 3.2
10 4 -10 9.07 2.63
10 4 -10 7.82 2.43
10 4 -10 8.85 3
4 -10 10 11.2 2.6
4 -10 10 8.34 2.66
10 -10 4 6.59 2.26
-4 10 10 9.9 2.33
-10 4 10 7.06 2.56
-10 4 10 4.18 2.04
-10 4 10 9.28 2.24
-10 4 10 6.36 3.49
-10 4 10 7.87 3.12
10 -4 10 4.21 2.52
10 -4 10 6.07 3.39
4 -10 10 3.27 3.09
-4 10 10 5.66 2.96
-10 10 4 8.39 2.34
-10 10 4 12.75 2.48
-10 10 4 10.17 2.55
-10 10 4 7.08 2.31
-10 10 4 8.54 2.71
-4 -10 -10 11.04 2.71
-4 -10 -10 13.84 2.44
-4 -10 -10 7.86 2.04
-4 -10 -10 9.5 2.49
-4 -10 -10 10 2.75
4 10 -10 6.78 3.1
10 10 -4 7.75 2.35
4 10 -10 8.67 2.45
4 10 -10 7.42 2.43
10 10 -4 10.07 2.31
10 10 -4 11.52 2.84
-4 10 10 7.62 2.5
-4 -10 10 11.67 2.15
-10 4 -10 7.83 2.6
-4 10 -10 6.92 2.89
-4 -10 10 7.81 2.6
4 -10 -10 9.04 2.73
4 -10 -10 11.34 2.59
-4 10 -10 7.88 2.54
-10 4 -10 6.78 2.82
-10 4 -10 9.61 2.94
-10 10 -4 9.92 2.79
-4 -10 10 6.65 2.48
-4 -10 10 8.79 2.47
-4 -10 10 4.4 3.86
-4 10 -10 8.72 2.4
4 10 10 10.61 2.26
4 10 10 12.1 2.35
4 10 10 9.95 2.53
4 10 10 9.36 2.89
4 -10 -10 9.93 3.22
-10 10 -4 8.94 2.64
10 -10 -4 6.57 3.17
-10 4 -10 5.59 2.88
-10 -10 4 5.97 2.62
-10 -10 4 7.93 2.39
-10 -10 4 5.77 2.46
10 -4 -10 7 2.62
10 -4 -10 9.38 2.35
10 -4 -10 8.16 2.48
-10 10 -4 12.62 2.27
-10 10 -4 6.29 2.72
-10 -4 10 7.28 2.7
-10 -4 10 5.12 2.49
-10 -4 10 11.51 3.57
-10 4 -10 9.36 2.68
10 4 10 10.78 2.34
10 4 10 7.22 2.53
10 4 10 11.67 3.15
10 4 10 8 3.35
-4 10 -10 6.05 3.11
-10 -10 4 7.06 3.35
10 -10 -4 8.09 2.62
10 -10 -4 9.15 2.5
10 10 4 10.78 2.38
10 10 4 8.21 2.8
10 10 4 8.67 2.82
-10 -10 -6 3.43 2.55
-10 -10 -6 1.7 2.61
-10 -10 -6 0.44 2.28
-10 -10 -6 -2.44 2.45
-10 -10 -6 -2.59 2.23
6 10 -10 -1.14 2.31
6 10 -10 -0.29 2.19
10 -6 10 1.28 2.33
10 -6 10 -2.66 3.04
-10 -6 -10 -1.27 2.21
-10 -6 -10 -1.71 2.47
-10 -6 -10 -2.52 2.54
-10 -6 -10 0.51 2.49
6 -10 10 -1.02 2.39
6 -10 10 -0.43 2.58
10 -10 6 -1.08 1.48
10 -10 6 -0.42 2.67
10 10 -6 -0.4 1.92
10 10 -6 -0.44 2.36
10 10 -6 0.1 2.48
10 10 -6 1.76 2.71
-10 6 10 0.53 2.35
-10 6 10 1.05 2.14
-10 6 10 0.38 2.9
10 -6 10 -1.5 3.24
10 6 -10 1.08 2.32
10 6 -10 -1.63 2.2
10 6 -10 0.92 2.79
-10 10 6 0.14 2.21
-10 10 6 -4.24 2.09
-10 10 6 1.1 2.29
-10 10 6 -1.71 2.51
-6 -10 -10 1.24 2.42
-6 -10 -10 -3.14 2.23
-6 -10 -10 -0.5 2.22
-6 -10 -10 -0.49 2.31
-6 10 10 -1.54 2.78
6 -10 10 -2.68 3.13
10 -10 6 2.82 3.17
10 -10 6 -1.88 3.32
-6 10 10 -0.88 2.21
6 10 -10 0.3 2.87
6 -10 10 -2.38 3.47
-6 10 10 -0.16 2
-6 10 -10 2.68 2.79
-6 10 -10 -2.59 2.48
-6 -10 10 1.95 3.7
-6 -10 10 -5.68 2.47
6 -10 -10 -0.25 2.6
6 -10 -10 0.34 2.28
6 -10 -10 -1.36 2.98
-10 -6 10 0.62 2.5
-10 -6 10 -0.8 2.33
-6 -10 10 0.52 2.82
-6 10 -10 0.92 2.48
-10 -10 6 -1.34 2.46
-10 -10 6 0.21 2.22
-6 10 -10 1.04 2.39
6 10 10 -0.2 1.98
6 10 10 0.23 2.08
6 10 10 -0.81 2.52
6 10 10 -2.19 2.63
10 -10 -6 -0.84 2.59
10 -10 -6 -1.67 2.11
10 -10 -6 -0.87 3.09
-10 -6 10 0.82 3.54
-10 6 -10 -0.42 2.35
-6 -10 10 0.2 2.26
-6 -10 10 -0.14 2.1
10 -6 -10 -0.05 2.62
10 -6 -10 -1.38 2.18
10 -6 -10 -1.39 2.3
-10 -10 6 -0.82 2.23
-10 -10 6 -1.86 3.49
-10 10 -6 4.71 2.19
-10 10 -6 -0.86 2.56
-10 10 -6 0.56 2.7
-10 10 -6 -1.28 2.56
10 6 10 0.55 2.22
10 6 10 -0.54 2.33
10 6 10 0.08 2.74
10 6 10 -1.7 3.21
-10 6 -10 2.04 2.67
-10 6 -10 0.17 2.69
-10 6 -10 -2.09 2.91
-10 6 -10 1.38 2.5
10 10 6 0.45 2.01
10 10 6 -0.7 2.57
10 10 6 -0.33 2.71
-10 -10 -8 4.4 2.62
-10 -10 -8 -0.15 2.69
-10 -10 -8 -1.05 2.57
-10 -10 -8 0.21 2.52
8 10 -10 2.32 2.38
8 10 -10 0.88 2.47
8 10 -10 1.74 2.91
10 -8 10 3.55 2.44
-10 -8 -10 0.24 2.51
-10 -8 -10 5.41 2.7
-10 -8 -10 5.25 2.71
-10 -8 -10 1.91 2.65
10 8 -10 1.15 2.89
8 -10 10 2.64 2.82
8 -10 10 -2.29 3.25
10 -10 8 4.63 2.39
10 -10 8 0.96 2.91
10 10 -8 3.42 2.68
10 10 -8 1.03 2.52
10 10 -8 4.75 2.91
-8 -10 -10 2.42 2.57
-10 8 10 3.57 2.47
-10 8 10 2.23 2.3
-10 8 10 3.5 3.1
10 -8 10 -5.22 3.61
10 8 -10 1.49 2.37
10 8 -10 2.82 2.47
10 -10 8 -3.21 3.51
-10 10 8 1.2 2.38
-10 10 8 0.43 2.46
-10 10 8 3.36 2.86
-8 -10 -10 3.33 2.55
-8 10 10 3.71 2.31
-8 -10 -10 5.23 2.58
-8 -10 -10 1.83 2.45
10 -8 10 3.52 3.46
-8 10 10 0.82 3.02
8 -10 10 -0.44 3.86
10 -10 8 2.96 3.2
8 -10 10 5.1 2.58
-8 10 10 3.9 2.33
-8 -10 10 -0.36 3
-8 10 -10 -1.68 2.8
-8 10 -10 1.86 2.83
-10 8 -10 2.76 2.71
-8 10 -10 3.77 2.72
-8 10 -10 1.39 2.47
8 -10 -10 0.99 2.63
8 -10 -10 2.75 2.45
8 -10 -10 -0.35 3.19
-10 10 -8 0.58 2.62
-10 -8 10 3.75 2.85
-10 -8 10 3.26 2.51
-8 -10 10 4.26 2.47
-10 -10 8 3.62 2.79
-10 -10 8 6.8 2.52
-10 -10 8 3.68 2.3
8 10 10 3.55 2.21
8 10 10 4.2 2.39
8 10 10 2.76 2.79
8 10 10 2.52 2.83
10 -10 -8 0.4 2.87
10 -10 -8 4.05 2.17
10 -10 -8 2.05 2.55
10 -10 -8 2.36 3.04
-10 -8 10 5.29 2.19
-10 -8 10 0.76 3.74
-8 -10 10 3.08 2.11
-8 -10 10 1.7 3.91
10 -8 -10 1.51 2.86
10 -8 -10 1.86 2.51
10 -8 -10 1.32 3.18
-10 -10 8 4.76 3.85
-8 -10 10 2.58 2.81
-10 10 -8 5.15 2.4
-10 10 -8 3.96 2.75
-10 10 -8 2.58 2.89
-10 -8 10 4.8 2.82
10 8 10 3.96 2.38
10 8 10 5.42 2.49
10 8 10 -0.22 2.68
10 8 10 4.09 3.28
-10 8 -10 2.43 2.51
-10 8 -10 0.64 2.87
-10 8 -10 3.37 2.94
10 10 8 2.44 2.22
10 10 8 -1.91 2.78
10 10 8 -2.18 3.04
-10 -10 -10 16.15 3.06
-10 -10 -10 15.56 3.12
-10 -10 -10 11.62 3.08
-10 -10 -10 9.99 2.91
10 -10 10 11.64 3.33
10 -10 10 8.91 3.7
10 -10 10 13.29 4.11
10 10 -10 11.8 2.74
10 10 -10 9.91 2.91
10 10 -10 12.11 3.32
-10 10 10 13.03 2.93
10 -10 10 13.22 2.91
-10 10 10 11.26 3.45
-10 10 10 11.48 2.92
-10 10 -10 13.6 3.19
-10 10 -10 9.18 3.03
10 -10 -10 14.69 3.36
10 -10 -10 12.4 3.08
10 -10 -10 8.42 3.57
-10 10 -10 9.84 3.31
-10 -10 10 11.25 3.21
-10 -10 10 11.76 3.41
-10 -10 10 16.34 2.97
-10 -10 10 8.89 2.57
-10 -10 10 10.45 4.28
-10 10 -10 17.44 2.99
10 10 10 17.3 2.85
10 10 10 15.91 2.94
10 10 10 13.87 3.23
10 10 10 13.6 3.62
-11 -1 -1 8.78 1.97
-11 -1 -1 6.09 2.19
-11 -1 -1 7.26 2.27
-11 -1 -1 6.55 2.59
-11 -1 -1 4.12 2.19
11 -1 1 3.98 2.33
11 -1 1 6.48 2.17
11 1 -1 6.94 2.2
11 1 -1 7.49 2.5
11 1 -1 6.66 2.09
1 -11 1 5.58 1.9
1 -11 1 5.48 2.15
1 -11 1 2.94 2.75
1 11 -1 5.94 1.7
1 11 -1 8.47 2.2
1 11 -1 5.79 1.75
1 11 -1 5.01 2.54
1 -1 11 6.86 2.18
-11 1 1 5.85 1.9
-11 1 1 4.35 1.92
-11 1 1 6.67 2.16
-11 1 1 1.71 2.29
-11 1 1 6.21 2.09
-11 1 1 9.36 2.22
-1 -11 -1 5.37 2.06
-1 -11 -1 4.67 2.01
-1 -11 -1 5.96 1.94
-1 -11 -1 4.44 2.64
-1 1 11 7.9 2.13
-1 1 11 6.72 2.37
1 -1 11 8.5 2.7
-1 -1 -11 4.93 2.12
-1 -1 -11 7.5 2.19
-1 -1 -11 5.58 2.28
-1 -1 -11 6.02 2.42
1 1 -11 7.25 2.54
-1 11 1 4.56 1.65
-1 11 1 6.14 2.01
-1 11 1 6.09 1.99
11 -1 1 5.44 2.45
1 -1 11 5.46 2.81
1 1 -11 6.13 2.28
1 1 -11 4.46 2.09
-1 1 11 5.85 2.08
-1 11 1 5.53 2.41
1 1 -11 6.74 2.16
-1 1 11 5.98 3.01
-1 -11 1 5.27 2.11
-1 11 -1 7.1 2.2
-1 11 -1 5.78 1.96
-1 11 -1 4.12 1.63
-1 11 -1 4.28 2.54
-1 -1 11 5.82 2.05
-1 -1 11 4.71 2.4
-1 -1 11 8.26 2.92
-1 -11 1 3.82 2.02
1 -11 -1 3.72 2.01
1 -11 -1 4.56 2.13
1 -11 -1 5.3 1.98
1 -11 -1 4.75 2.83
-11 -1 1 9.01 2.26
-11 1 -1 3.54 1.66
-11 1 -1 5.34 1.88
1 -1 -11 7.19 2.11
1 -1 -11 7.62 2.06
1 -1 -11 6.99 2.19
1 -1 -11 6.31 2.45
-11 1 -1 7.21 1.96
-1 -11 1 5.69 2.74
-1 1 -11 6.11 2.05
-1 1 -11 9.35 2.24
-1 1 -11 5.17 2.38
-1 11 -1 5.45 1.67
-1 -1 11 4.92 2.04
1 1 11 7 1.84
1 1 11 5.17 2.06
1 1 11 6.33 2.52
1 1 11 5.76 2.78
-11 1 -1 5.31 2.27
-11 1 -1 6.11 2.06
-11 1 -1 6.69 2.56
-11 1 -1 1.02 2.26
1 11 1 5.58 1.78
1 11 1 6.96 2.16
1 11 1 4.17 1.82
1 11 1 5.5 2.57
11 -1 -1 5.14 2.38
11 -1 -1 4.01 2.17
11 -1 -1 5.64 2.4
-1 1 -11 5.93 2.1
-11 -1 1 6.68 2.08
-11 -1 1 9.23 2.24
-11 -1 1 2.91 2.38
-11 -1 1 8.17 2.23
-11 -1 1 4.15 2.36
11 1 1 4.81 1.8
11 1 1 6.21 2.52
11 1 1 3.78 2.24
-3 1 11 23.95 2.78
-3 1 11 19.41 2.9
-3 1 11 21.39 3.78
-1 -11 -3 18.91 2.82
-1 -11 -3 19.92 2.81
-1 -11 -3 22.38 2.79
-1 -11 -3 20.18 3.26
11 -3 1 22.06 3.19
11 -3 1 19.89 3.15
11 3 -1 22.96 2.76
11 3 -1 20.38 2.9
-3 1 11 20.45 2.84
-11 3 1 20.43 2.63
-11 3 1 23.27 2.66
-11 3 1 19.16 2.99
-1 11 3 19.49 2.55
-1 11 3 27.31 2.99
-1 11 3 24.25 2.91
-1 11 3 19.02 3.21
-3 -1 -11 21.35 2.82
-3 -1 -11 19.38 3.01
-3 -1 -11 24.5 3.08
3 -1 11 20.33 3.4
1 -11 3 14.2 2.55
1 -11 3 20.27 2.51
1 -11 3 18.75 2.96
1 -11 3 17.48 3.58
1 11 -3 21.17 2.51
1 11 -3 22.26 2.49
1 11 -3 19.4 2.92
1 11 -3 18.02 2.53
1 11 -3 18.15 2.58
1 11 -3 18.6 3.18
-3 -1 -11 21.97 2.84
-11 -3 -1 19.34 2.76
-11 -3 -1 20.14 2.96
-11 -3 -1 18.26 3.2
-11 -3 -1 16.27 2.86
3 1 -11 20.23 2.79
11 3 -1 19.51 3.19
11 3 -1 22.43 2.93
3 -1 11 17.57 2.45
3 -1 11 18.57 2.91
3 -1 11 25.09 3.55
11 -3 1 21 3.22
3 1 -11 23.17 2.92
-11 3 1 20.36 2.95
3 1 -11 20.45 3.41
-3 -1 -11 23.52 2.76
-11 3 1 17.54 2.8
3 1 11 24.34 3.55
3 -1 -11 22.28 2.82
3 1 11 22.39 2.84
11 -3 -1 18.55 2.97
11 -3 -1 17.51 3.13
1 -11 -3 17.59 3.26
-1 -11 3 17.16 2.67
-1 -11 3 20.76 2.59
-1 -11 3 19.02 2.97
-1 -11 3 16.23 3.43
3 -1 -11 22.12 2.85
3 -1 -11 20.22 3.36
1 11 3 20.91 2.82
1 11 3 19.02 2.74
1 11 3 23.48 3.18
3 -1 -11 24.98 3.07
-11 -3 1 20.6 2.88
-11 -3 1 20.52 2.89
-11 -3 1 20.15 3.24
-11 3 -1 24.03 2.97
-11 3 -1 21.34 2.65
-11 3 -1 20.08 2.83
-11 3 -1 20.72 2.67
-11 3 -1 18.56 3.13
-11 3 -1 17.24 3.08
-11 3 -1 19.03 2.73
-1 11 -3 22.02 2.44
-1 11 -3 17.27 2.81
-1 11 -3 21.37 3.27
3 1 11 24.03 3.32
11 -3 -1 20.71 2.92
11 -3 -1 23.16 3.23
1 11 3 18.61 2.56
1 -11 -3 20.22 2.84
1 -11 -3 21.09 2.93
1 -11 -3 23.24 2.89
-3 -1 11 19.24 2.87
-3 -1 11 22.23 2.83
-3 -1 11 17.71 3.02
-3 -1 11 20.59 3.58
-3 1 -11 20.3 2.69
-3 1 -11 23.46 3
-3 1 -11 21.54 2.85
-3 1 -11 20.54 3.17
-3 1 -11 21.54 3.08
-1 11 -3 19.41 2.4
11 3 1 17.03 2.94
11 3 1 20.38 3.3
11 3 1 17.98 2.63
1 -11 5 42.44 6.03
-5 -1 -11 35.92 5.23
5 -1 11 44.21 5.61
5 1 -11 38.84 4.91
5 1 -11 44.37 4.79
5 1 -11 39.06 4.67
5 1 -11 38.28 5.8
-1 11 5 43.37 5.47
-5 1 11 44.76 4.59
-5 1 11 39.16 4.91
-5 1 11 33.65 5.07
-1 -11 -5 39.73 4.8
1 -11 5 34.5 4.22
1 -11 5 39.85 4.48
11 -5 1 41.22 4.55
11 -5 1 35.33 5.28
11 -5 1 39.42 5.42
11 5 -1 43.62 4.64
11 5 -1 40.53 4.75
11 5 -1 40.58 5.39
1 11 -5 42.27 4.63
1 11 -5 36.81 5.65
-5 1 11 40.36 4.81
-5 -1 -11 40.91 5.02
-1 11 5 41.02 4.4
-1 11 5 48.17 4.96
-1 11 5 45.64 4.99
-1 -11 -5 42.87 4.9
-1 -11 -5 48.93 4.93
-1 -11 -5 44.24 5.3
-5 -1 -11 44.11 4.54
-5 -1 -11 43.36 4.86
-11 5 1 51.05 4.53
-11 5 1 42.08 5.15
1 -11 5 39.76 5.19
1 -11 5 39.33 4.9
1 11 -5 43.51 4.5
5 -1 11 36.55 4.34
5 -1 11 39.19 4.88
5 -1 11 33.66 4.79
-11 -5 -1 40.92 4.87
-11 -5 -1 44.34 4.97
-11 -5 -1 43.57 5.55
-11 5 1 42.85 4.58
1 11 -5 37.17 4.94
-11 5 1 42.55 5.09
-11 5 1 37.76 5.16
-11 5 1 47.95 5.31
1 11 -5 43.55 4.24
-11 5 1 50.65 4.45
-11 -5 1 45.9 4.96
-11 5 -1 29.34 4.99
-11 5 -1 46.26 5.63
-11 5 -1 41.61 4.56
11 -5 -1 35.51 5.11
11 -5 -1 41.02 5.57
-11 5 -1 43.02 5.28
-11 -5 1 41.48 5.29
-11 5 -1 47.47 4.39
1 -11 -5 46.01 4.91
1 -11 -5 36.51 5.45
1 11 5 46.08 5.07
5 -1 -11 33.9 4.52
-5 -1 11 41.06 4.84
-11 5 -1 44.7 5.38
5 -1 -11 43.2 5.74
-11 -5 1 43.43 4.88
-5 1 -11 38.24 4.42
-5 1 -11 39.56 4.88
-5 1 -11 40.02 5.46
-5 1 -11 42.78 5.09
11 5 1 44.79 5.35
5 1 11 42.74 4.81
5 1 11 42.57 5.17
5 1 11 38.73 4.99
11 -5 -1 44.86 4.69
5 -1 -11 43.17 4.7
1 -11 -5 44.26 4.84
1 -11 -5 41.82 4.97
-1 -11 5 38.43 4.52
-1 -11 5 37.01 5.11
-1 -11 5 41.05 4.59
-1 -11 5 34.61 5.01
-1 11 -5 38.45 4.11
-1 11 -5 41.91 4.39
-1 11 -5 41.85 5.02
-1 11 -5 38.71 4.68
-1 11 -5 40.74 5.5
1 11 5 46.54 4.9
1 11 5 45.77 5.08
5 -1 -11 43.4 5.01
5 1 11 37.12 4.2
11 5 1 43.96 4.63
11 5 1 41.39 4.88
1 11 5 44.12 4.63
-5 -1 11 35.44 5.16
-5 -1 11 42.64 4.8
-5 -1 11 45.51 4.67
-11 7 1 25.64 3.72
-7 -1 -11 29.8 3.79
-7 -1 -11 27.48 3.59
-11 7 1 35.54 4.35
-11 7 1 35.28 4.65
-11 7 1 33.58 3.8
11 7 -1 27.44 3.85
-11 7 1 35.73 3.67
-11 7 1 27.23 3.35
11 -7 1 30.26 3.89
11 -7 1 27.5 3.85
11 -7 1 27.78 3.94
11 7 -1 34.03 4.01
11 7 -1 33.64 4.24
7 1 -11 35.01 4.18
7 1 -11 24.01 3.32
7 1 -11 26.03 3.99
7 -1 11 26.96 4.13
-1 11 7 29.51 3.86
-1 11 7 39.35 4.4
-1 11 7 34.15 4.46
-1 11 7 35.36 4.71
-11 -7 -1 25.05 3.49
-11 -7 -1 25.27 3.79
11 -7 1 28.32 3.31
1 -11 7 21.42 3.08
1 -11 7 27.2 3.35
1 -11 7 27.71 3.67
1 -11 7 25.97 3.76
1 -11 7 26.7 4.42
1 11 -7 31.63 3.36
1 11 -7 32.78 3.94
1 11 -7 25.62 3.52
1 11 -7 27.66 4.09
1 11 -7 22.02 3.98
7 1 -11 27.87 3.58
-7 1 11 25.22 4.4
-1 -11 -7 35 4.28
-1 -11 -7 32.39 4.16
-7 -1 -11 35.19 4.79
-7 -1 -11 24.88 3.76
-1 -11 -7 32.55 4.19
-1 -11 -7 37.14 4.86
7 -1 11 26.73 3.12
7 -1 11 22.68 3.46
7 -1 11 31.22 3.87
-7 1 11 29.73 3.65
-11 -7 -1 25.07 3.45
-7 1 11 33.04 4.07
-7 1 11 34.9 4.18
1 11 7 35.09 4
11 -7 -1 25.23 3.7
11 -7 -1 28.48 4.08
-7 -1 11 25.4 3.56
7 -1 -11 23.97 3.93
-11 7 -1 24.33 3.63
-11 7 -1 28.19 3.79
11 7 1 33.4 4.04
11 7 1 27.51 3.6
-1 -11 7 25.53 4.54
-1 11 -7 35.44 3.86
-1 11 -7 32.95 4.47
7 1 11 29.17 3.79
-1 11 -7 24.19 4.01
7 1 11 27.9 3.51
1 11 7 36.73 4.36
1 11 7 32.29 4.44
1 -11 -7 33.17 4.26
-11 -7 1 29.6 3.54
1 -11 -7 30.38 3.96
-11 -7 1 26.41 3.69
-11 7 -1 38.57 3.61
-11 7 -1 24.89 3.31
-11 7 -1 28.78 3.78
11 7 1 24.83 3.78
1 -11 -7 39.06 4.36
7 -1 -11 30.48 3.68
7 -1 -11 39.2 4.18
7 1 11 29.77 3.8
7 1 11 28.85 4.24
11 -7 -1 31.79 4.11
-1 -11 7 27.49 3.41
-1 -11 7 26.42 3.64
-1 -11 7 28.97 4.16
-7 1 -11 30.63 3.6
-7 1 -11 25.59 3.57
-7 1 -11 30.15 3.78
-11 -7 1 26.13 3.5
-1 11 -7 28.02 3.64
-1 -11 7 28.13 3.81
-7 -1 11 26.27 4.46
-7 -1 11 33.06 4
-7 -1 11 35.36 4.05
-7 1 -11 26.82 3.83
-1 11 9 16.08 2.47
11 -9 1 11.03 3.17
11 9 -1 15.15 2.57
11 9 -1 13.56 2.63
11 9 -1 17.37 3.03
-11 9 1 12.23 2.81
-11 9 1 13.45 2.7
9 1 -11 15.2 3.07
1 11 -9 11.33 2.69
-1 11 9 20.61 2.58
11 -9 1 13.15 2.38
11 -9 1 15.39 3.12
1 -11 9 13.26 4.02
-9 -1 -11 13.38 3.11
-1 -11 -9 14.23 2.7
11 -9 1 10.98 2.99
-11 -9 -1 13.22 2.71
-1 11 9 12.87 3.03
-11 9 1 11.51 3.02
9 -1 11 13.44 2.26
9 -1 11 10.41 2.72
-1 -11 -9 17.55 3.19
1 11 -9 12.48 2.75
1 -11 9 12.79 2.85
9 1 -11 13.18 2.81
9 1 -11 7.98 2.39
9 1 -11 11.28 3.24
-9 -1 -11 12 2.85
-9 -1 -11 14.54 3.09
1 -11 9 8.35 2.38
1 -11 9 12.75 2.6
1 -11 9 10.21 2.63
-1 11 9 17.07 2.86
9 -1 11 15.93 3.13
9 -1 11 13.17 3.63
-9 1 11 13.55 2.5
-9 1 11 12.23 2.45
1 -11 9 10.58 3.14
1 11 -9 8.79 3.28
-11 -9 -1 12.24 2.67
-11 -9 -1 8.96 2.89
-9 1 11 12.73 3.68
-1 -11 -9 17.46 2.88
-9 -1 -11 15.32 2.33
1 11 -9 13.87 2.56
-11 9 1 9.29 2.19
-9 1 11 11.15 2.76
11 -9 -1 12.74 2.96
9 -1 -11 9.97 3.24
-9 1 -11 10.47 3.19
-9 1 -11 11.99 2.9
11 9 1 10.47 2.96
-9 1 -11 12.94 2.98
-1 11 -9 15.75 2.53
9 1 11 15.18 2.36
9 -1 -11 8.34 2.48
9 1 11 13.38 3.04
9 1 11 11.98 3.42
11 -9 -1 12.8 2.61
1 11 9 16.51 2.45
11 -9 -1 16.05 3.02
11 -9 -1 10.56 3.35
-1 -11 9 16.62 3.87
-11 -9 1 12.99 2.8
-11 9 -1 8.75 2.45
-11 9 -1 14.3 2.95
-11 9 -1 11.79 2.77
-11 9 -1 15.12 2.9
-1 -11 9 11.87 2.6
11 9 1 12.89 2.59
11 9 1 14.24 2.79
1 -11 -9 15.66 2.85
1 -11 -9 17.12 2.45
1 -11 -9 17.22 2.67
1 -11 -9 14.74 3.4
9 1 11 11.46 2.69
-9 -1 11 12.42 2.81
-9 -1 11 12.44 2.56
-9 -1 11 14.72 2.37
-9 -1 11 15.78 3.79
-9 1 -11 13.99 2.18
-1 -11 9 9.73 2.89
-1 -11 9 13.47 2.78
-1 11 -9 11.97 2.86
-1 11 -9 11.28 3.14
1 11 9 16.31 2.66
-1 11 -9 9.57 2.51
1 11 9 15.17 2.92
9 -1 -11 14.67 2.92
9 -1 -11 15.08 2.69
-11 -9 1 11.05 2.64
-11 -9 1 15.07 2.84
-1 -11 9 13.47 2.69
-3 -11 -1 17.95 2.58
-11 -1 -3 18.05 3.02
-3 11 1 15.98 2.42
1 3 -11 23.24 3.33
1 -3 11 22.91 3.48
3 -11 1 15.58 2.54
3 -11 1 18.86 2.96
3 -11 1 19.19 3.55
3 11 -1 20.88 2.63
3 11 -1 25.58 3.17
3 11 -1 18.51 2.81
3 11 -1 18.89 3.13
-11 -1 -3 20.49 3.35
-11 -1 -3 16.67 3.13
-3 -11 -1 18.76 2.8
-1 3 11 24.78 2.77
-1 3 11 18.94 2.96
-1 3 11 22.03 3.56
-11 1 3 19.08 2.93
-11 1 3 18.93 2.71
-11 1 3 17.17 2.9
11 -1 3 20.58 2.49
11 -1 3 23.39 2.9
11 -1 3 21.55 3.35
11 -1 3 20.75 3.24
-3 -11 -1 20.05 2.46
11 1 -3 17.46 3.13
11 1 -3 15.95 2.6
-3 -11 -1 20.58 3.31
-3 11 1 20.48 3.23
-1 -3 -11 24 2.88
-1 -3 -11 25.21 2.92
-1 -3 -11 22.48 3.07
-1 -3 -11 23.38 3.14
-3 -11 -1 19.66 2.86
-3 11 1 22.55 2.9
-3 11 1 22.61 2.88
1 -3 11 19.73 2.57
1 -3 11 20.94 2.9
-11 1 3 25.8 3.47
1 -3 11 22.96 3.71
1 3 -11 26.12 2.89
1 3 -11 20.03 2.84
-3 11 1 22.15 2.89
-11 -1 -3 30.89 3.26
-11 1 3 18.95 2.99
11 1 -3 19.53 2.79
-11 1 3 17.89 3.34
-1 3 11 22.59 2.81
-11 -1 3 21.38 3.01
3 11 1 23.28 2.5
3 11 1 20.44 2.64
11 -1 -3 20.26 3.11
-3 -11 1 19.5 2.88
-3 -11 1 21.19 2.51
3 -11 -1 15.47 2.66
-3 -11 1 17.53 3.52
-3 11 -1 17.88 2.29
-11 -1 3 18.69 3.11
-3 11 -1 20.77 2.72
-3 11 -1 20.78 2.84
-3 11 -1 19.66 3.24
1 3 11 20.22 2.67
-11 -1 3 20.43 2.86
-11 -1 3 12.03 2.83
11 -1 -3 15.85 2.64
11 1 3 19.69 3.22
3 11 1 20.44 2.6
1 3 11 24.36 2.79
1 3 11 21.5 3.15
1 3 11 23.85 3.47
-1 -3 11 22.87 2.85
-1 -3 11 20.15 3.22
-1 -3 11 22.55 3.69
-1 3 -11 23.41 2.74
-1 3 -11 21.13 2.77
-1 3 -11 22.41 3.09
-1 3 -11 21.43 3.21
3 11 1 18.72 2.84
1 -3 -11 25.11 2.87
3 11 1 22.41 3.16
11 -1 -3 21.49 3
1 -3 -11 23.36 2.97
11 -1 -3 14.43 2.7
-3 -11 1 17.12 2.78
1 -3 -11 28.09 3.46
-11 -1 3 19.57 2.67
3 -11 -1 20.82 2.95
3 -11 -1 18.42 3.39
-11 1 -3 18.27 2.42
-11 1 -3 18.34 3.03
-11 1 -3 21.02 3.26
-11 1 -3 21.06 3.29
-3 11 -1 20.75 2.85
11 1 3 20.13 3.17
-11 -1 3 20.71 2.88
1 -3 -11 23.51 2.97
-11 -1 3 19.07 2.99
-3 -3 -11 47.58 4.96
-11 -3 -3 44.22 4.86
-11 -3 -3 40.79 5.28
11 3 -3 44.23 5.1
3 -3 11 40.66 5.13
3 -11 3 44.01 6.29
-3 -3 -11 49.23 5.08
-3 -3 -11 53.71 5.14
3 11 -3 51.8 4.83
3 11 -3 50.72 4.65
11 3 -3 36.98 5.45
-11 3 3 44.73 4.9
-11 3 3 49.04 4.66
-11 3 3 55.34 5.4
-11 3 3 41.24 4.99
-11 3 3 42.88 5.67
-3 -11 -3 51.08 5.04
-3 -11 -3 50.28 5.36
-3 -11 -3 50.3 5.01
-3 -11 -3 47.11 5.74
-11 -3 -3 45.92 5.12
-3 11 3 52.53 5.26
-3 11 3 51.77 5.67
3 11 -3 45.41 5.27
11 -3 3 36.99 5.05
11 -3 3 39.93 5.88
-3 3 11 48.47 5.14
-3 3 11 49.49 4.82
-3 3 11 43.86 5.35
-3 3 11 47.92 6.31
11 3 -3 44.21 5.55
3 -3 11 41.18 4.54
3 -11 3 45.48 5.25
-3 11 3 40.42 4.62
-3 11 3 54.5 5.35
3 3 -11 45.16 5.1
3 3 -11 48.04 4.95
-3 -3 -11 44.7 5.49
-3 -3 -11 52.02 5.45
-11 -3 -3 34.66 5.37
11 -3 3 36.62 5.32
3 -3 11 49.95 6.2
3 -11 3 42.6 5.41
3 11 -3 52.16 5.94
3 3 -11 42.22 5.12
3 3 -11 43.53 5.96
3 -3 11 43.06 5.83
-11 -3 -3 45.38 5.78
11 -3 3 48.9 5.68
-3 -11 3 42.53 4.93
11 3 3 53.53 5.58
-3 3 -11 46.92 5.28
3 -11 -3 43.07 5.77
11 3 3 44.96 5.76
-3 11 -3 51.93 5.89
-11 3 -3 43.68 4.49
3 -3 -11 45.13 5.16
3 -3 -11 54.19 4.91
3 -3 -11 39.34 5.26
3 -3 -11 49.18 5.99
-3 11 -3 49.43 5.22
3 -11 -3 46.01 5.03
-3 3 -11 42.47 5.61
11 3 3 52.08 4.88
-11 3 -3 43.39 4.66
-11 3 -3 40.83 5.12
11 -3 -3 46.37 5.51
11 -3 -3 40.39 5.75
3 3 11 50.87 4.94
3 3 11 48.2 4.97
3 3 11 49.91 5.24
3 3 11 44.78 5.68
3 3 11 55.4 5.91
-11 3 -3 47.18 5.72
-11 3 -3 46.66 5.65
-11 3 -3 47.86 5.06
-3 3 -11 44.56 5.11
3 11 3 49.23 4.86
3 11 3 51.35 5.44
3 11 3 46.52 5.04
11 -3 -3 49.12 5.14
11 -3 -3 43.01 4.84
-3 -3 11 51.83 5.18
-3 -3 11 51.25 5.11
-3 -3 11 42.68 5.43
-3 3 -11 49.2 5.7
-3 3 -11 44.07 5.23
-11 -3 3 45.22 5.05
-11 -3 3 33.47 5.37
-11 -3 3 43.63 5.73
-3 11 -3 44.49 5.27
-11 -3 3 48.88 5.31
3 -11 -3 54.14 5.41
3 -11 -3 50.59 5.52
-3 -3 11 39.98 5.44
-3 3 -11 47.12 4.68
-3 -11 3 44.29 5.39
-3 -11 3 42.46 6.14
-11 -3 3 48.67 5.14
-5 3 11 88.85 9.12
11 5 -3 95.92 8.45
11 5 -3 93.5 8.46
3 -11 5 91.47 9.32
11 -5 3 88.91 9.33
3 11 -5 92.84 9.83
-5 3 11 97.17 8.7
-5 3 11 104.01 8.28
-11 5 3 102.46 9.64
-5 3 11 93.34 9.95
5 -3 11 89.85 8.54
-3 -11 -5 102.38 9.16
-3 -11 -5 107.98 9.09
-3 -11 -5 103.59 9.34
-11 -5 -3 87.77 9.08
-11 5 3 96.15 8.45
-11 5 3 116.72 8.25
-11 5 3 101.33 9.14
-11 5 3 106.12 9.21
-5 -3 -11 95.45 9.31
3 -11 5 101.97 8.41
11 5 -3 86.16 9.29
11 5 -3 96.85 9.48
5 -3 11 91.31 9.6
-5 -3 -11 102.12 8.53
-5 -3 -11 99.54 9.08
5 -3 11 93.3 9.8
5 3 -11 97.15 8.73
5 3 -11 97.71 8.5
5 3 -11 84.84 8.84
5 3 -11 89.06 9.78
3 -11 5 97.96 10
3 11 -5 99.09 8.34
3 11 -5 97.91 8.31
3 11 -5 97.55 9.26
-11 5 3 89.74 9
-3 11 5 95.08 8.43
11 -5 3 88.65 8.46
11 -5 3 93.64 9.45
-11 -5 -3 102.13 8.6
-11 -5 -3 93.92 8.78
-11 -5 -3 92.23 8.57
-11 -5 -3 99.5 9.45
-5 -3 -11 105.64 8.51
-3 11 5 97.79 9.52
-3 -11 -5 101.73 8.64
3 -11 5 99.65 9.23
-3 11 5 111.46 9.24
-3 11 5 112.32 9.04
5 3 11 101.49 9.22
5 3 11 101.57 8.56
5 3 11 98.71 8.43
-11 -5 3 100.88 8.72
-11 -5 3 93.08 8.49
3 11 5 107.84 9.28
5 -3 -11 96.22 8.78
5 -3 -11 102.8 8.41
11 -5 -3 100.38 8.63
11 -5 -3 90.98 9.62
3 11 5 105.58 9.23
3 -11 -5 110.24 9.08
3 -11 -5 99.63 9.17
3 -11 -5 91.63 9.55
-5 -3 11 97.95 8.71
-5 -3 11 95.62 8.46
-5 -3 11 90.69 8.99
5 3 11 90.07 9.63
-5 3 -11 94.53 8.58
-5 3 -11 98 9.25
-5 3 -11 91.19 9.46
-5 3 -11 90.66 9.46
3 -11 -5 92.9 8.56
-5 -3 11 87.26 10
-11 -5 3 89.69 9.33
5 -3 -11 84.84 9.08
3 11 5 103.55 9.09
11 5 3 106.76 8.59
-11 5 -3 106.1 9.52
11 5 3 97.88 9.49
-3 -11 5 96.41 8.48
-3 -11 5 99.82 8.42
-3 -11 5 83.95 9.14
-3 -11 5 87.87 9.94
-3 11 -5 97.07 8.19
-3 11 -5 89.26 9.09
-3 11 -5 96.71 9.17
-3 11 -5 98.36 9.67
3 11 5 97.15 8.44
11 5 3 102.76 9.31
-11 5 -3 99.97 9.45
-11 5 -3 78.13 9.19
-11 5 -3 98.93 8.44
-11 5 -3 103.33 9.45
-11 -5 3 110.8 9.5
-11 7 3 72.73 7.75
-11 7 3 76.02 8.23
-11 7 3 71.56 7.81
-3 11 7 73.15 7.21
-3 11 7 93.2 7.69
11 -7 3 74.46 8.18
7 -3 11 77.28 8.47
7 -3 11 80.95 8.28
7 3 -11 78.32 7.67
7 3 -11 86.86 7.38
7 3 -11 77.74 8.54
3 -11 7 76.01 8.01
3 -11 7 77.38 8.05
3 -11 7 85.7 8.73
3 11 -7 82.09 6.95
3 11 -7 83.02 7.16
3 11 -7 73.99 7.94
11 -7 3 72.34 8.18
-7 3 11 73.85 7.46
-3 -11 -7 88.23 7.77
-11 7 3 83.9 7.81
11 7 -3 78.65 8.07
-11 -7 -3 77.46 7.37
-11 -7 -3 75.67 7.43
-11 -7 -3 81.92 7.35
-11 -7 -3 74.49 8.08
11 7 -3 71.35 7.19
11 7 -3 69.93 7.24
11 7 -3 73.68 8.04
-3 -11 -7 87.2 7.79
-3 -11 -7 87.01 8.05
-11 -7 -3 71.6 7.57
3 11 -7 72.31 8.54
-3 11 7 89 8.2
-3 -11 -7 82.22 7.43
-11 7 3 65.91 7.06
7 -3 11 78.53 7.39
-7 3 11 85.76 7.03
-7 3 11 75.98 7.72
-7 3 11 79.42 8.78
-7 -3 -11 80.93 7.19
-7 -3 -11 82.95 7.46
-7 -3 -11 80.87 7.91
-7 -3 -11 75.95 7.99
-3 11 7 80.19 7.83
-7 -3 11 82.2 7.27
-7 -3 11 74.28 8.83
-7 3 -11 79.74 7.4
-7 -3 11 75.52 7.54
-7 3 -11 82.43 8.14
-7 3 -11 78.93 8.28
-7 3 -11 80.03 7.98
11 7 3 73.27 8.06
11 7 3 82.79 7.9
3 11 7 84.91 7.85
3 11 7 93.19 7.97
-11 7 -3 75.26 8.02
11 -7 -3 79.56 8.46
-11 -7 3 68.67 7.9
-11 -7 3 94.21 8.29
-11 7 -3 74.86 7.08
-3 -11 7 81.87 7.23
-3 -11 7 72.04 7.83
-3 -11 7 79.85 8.76
-3 11 -7 76.18 7.09
-3 11 -7 70.35 7.79
-3 11 -7 79.37 7.9
-3 11 -7 76.49 8.3
7 -3 -11 86.61 7.16
11 7 3 85.36 7.33
-7 3 -11 77.86 8.1
-11 7 -3 74.2 7.98
3 -11 -7 78.99 7.41
3 -11 -7 80.86 7.5
3 -11 -7 80.29 7.82
3 -11 -7 82.98 8.4
7 3 11 88.2 7.5
7 3 11 88.38 8.08
7 3 11 81.82 8.54
11 -7 -3 76.84 7.32
7 -3 -11 71.08 7.71
-11 7 -3 84.52 8.14
3 11 7 84.71 7.32
3 11 7 88.52 7.83
-11 -7 3 69.85 7.24
-3 -11 7 77.88 7.29
-11 -7 3 72.94 7.54
7 -3 -11 73.52 7.59
-11 -9 -3 34.71 4.68
9 -3 11 28.36 4.78
-9 3 11 41.64 4.58
-9 3 11 32.08 4.82
-9 3 11 30.32 4.58
-3 -11 -9 41.41 4.79
-3 -11 -9 40.34 4.63
-3 -11 -9 38.01 4.76
-3 -11 -9 45.84 5.12
-9 -3 -11 38.01 4.8
-9 3 11 39.23 4.88
-9 3 11 38.73 4.24
-11 9 3 37.48 4.85
-11 -9 -3 33.7 3.98
-11 -9 -3 29.54 4.19
-11 -9 -3 32.6 4.4
9 3 -11 31.44 4.1
9 3 -11 39.79 4.68
9 3 -11 29.52 4.56
3 -11 9 28.95 4.15
3 -11 9 27.59 4.43
3 -11 9 29.22 4.96
3 11 -9 38.36 4.6
3 11 -9 28.87 4.02
3 11 -9 30.27 4.55
-11 9 3 39.62 5.04
11 -9 3 31.87 4.36
11 -9 3 32.23 4.38
11 -9 3 37.99 5.24
11 -9 3 33.98 4.62
11 9 -3 32.42 4.38
11 9 -3 41.61 4.59
11 9 -3 33.34 4.27
9 -3 11 31.1 3.97
-11 9 3 28.83 3.74
9 -3 11 36.9 4.5
-3 11 9 36.05 4.41
-3 11 9 38.28 4.8
-3 11 9 41.71 5.43
-11 9 3 44.87 4.89
-9 -3 -11 38.49 5.3
-11 9 3 26.69 4.2
-9 -3 -11 34.14 4.31
3 -11 9 32.54 4
11 9 -3 32.07 4.23
-9 -3 -11 31.89 4.35
-9 -3 11 29.78 4.9
-3 -11 9 25.37 4.81
9 -3 -11 32.92 4.62
-9 3 -11 32.84 4.06
9 3 11 37.15 5.16
11 9 3 30.63 4.26
11 9 3 36.65 4.97
9 -3 -11 39.62 4.38
-3 11 -9 33 4.54
-11 -9 3 36.3 4.84
-11 -9 3 35.43 4.65
-11 -9 3 37.03 5.12
9 3 11 37.35 4.84
3 -11 -9 34.79 4.14
11 9 3 39.56 4.56
3 -11 -9 41.69 4.5
3 -11 -9 39.48 4.85
-3 -11 9 36.87 4.72
-3 -11 9 29.63 4.01
-11 -9 3 47.19 5.74
-3 11 -9 35.06 4.39
-3 11 -9 36.73 4.93
-11 9 -3 39.98 5.28
3 11 9 43.2 4.87
9 -3 -11 28.34 4.01
-3 -11 9 30.6 3.91
3 11 9 42.82 4.42
3 11 9 46.22 4.18
3 11 9 43.43 4.9
3 11 9 35.05 5
-11 9 -3 26.52 3.6
9 3 11 33.08 4.7
11 -9 -3 32.15 3.93
11 -9 -3 40.76 4.97
11 -9 -3 30.81 4.59
-9 3 -11 32.93 4.32
-3 11 -9 38.01 4.98
-9 3 -11 30.28 4.09
-9 -3 11 37.6 4.86
-11 9 -3 33.42 4.31
-11 9 -3 40.81 5.22
-9 3 -11 25.71 4.35
3 -11 -9 32.28 4.47
-9 -3 11 36.21 4.64
11 -1 5 42.63 4.24
11 -1 5 42.48 4.94
1 -5 11 32.23 5.07
1 -5 11 37.89 5.49
5 -11 1 32.06 4.26
-1 5 11 43.13 4.65
5 11 -1 42.67 4.59
11 1 -5 43.43 4.67
11 1 -5 37.38 5.17
-5 -11 -1 45.5 4.92
-5 -11 -1 37.79 4.27
-5 -11 -1 40.48 5.18
-5 -11 -1 38.45 4.43
-5 -11 -1 48.6 5.46
5 11 -1 42.55 4.43
5 11 -1 40.7 5.18
-11 1 5 39.83 5.06
-11 1 5 36.4 4.53
-11 1 5 45.63 5.09
-11 1 5 35.3 4.68
-11 1 5 36.09 4.7
-5 11 1 33.41 4.16
-5 11 1 41.4 4.92
11 -1 5 41.36 5.54
11 -1 5 45.59 5.52
-5 11 1 46.76 5.5
5 -11 1 47.75 5.27
5 -11 1 36.9 4.99
1 5 -11 43.82 4.67
1 5 -11 44.18 4.71
1 5 -11 36.4 4.48
1 5 -11 40.76 4.81
1 5 -11 42.48 5.56
-11 -1 -5 38.22 4.98
-11 -1 -5 35.98 4.78
-1 -5 -11 41.36 5.03
-1 5 11 47.2 4.45
-1 5 11 48.92 5.29
-1 5 11 47.59 5.79
-1 5 11 46.1 5.58
-11 -1 -5 40.7 5.41
-5 11 1 45.63 5.09
-11 1 5 39.51 5.94
1 -5 11 43.64 4.37
1 -5 11 40 4.85
1 -5 11 43.22 4.87
-5 11 1 44.58 4.89
-11 -1 -5 48.56 4.34
5 11 -1 37.86 4.94
-1 -5 -11 43.27 4.84
-1 -5 -11 47.98 4.83
-11 1 5 39.2 5.52
1 5 11 44.34 5.12
-5 11 -1 31.27 4
11 -1 -5 39.94 4.56
11 -1 -5 39.49 5.11
-5 -11 1 40.73 5.58
5 -11 -1 34.33 4.57
5 -11 -1 45.29 5.15
-11 -1 5 41.26 4.63
-1 5 -11 45.22 5.67
11 -1 -5 39.01 5.04
1 5 11 44.54 4.77
1 5 11 50.16 4.53
-5 -11 1 39.39 4.81
-5 -11 1 39.56 5.01
11 1 5 40.77 4.47
11 1 5 38.19 4.91
11 1 5 40.32 5.49
11 1 5 45.03 5.62
-11 -1 5 45.9 4.9
-11 -1 5 54.79 5.92
-11 1 -5 35.66 4.1
-11 1 -5 44.14 5.06
-11 1 -5 40.34 5.6
-11 1 -5 46.25 5.56
-1 5 -11 39.21 4.71
1 -5 -11 45.06 4.97
1 5 11 49.04 5.61
1 -5 -11 49.37 4.56
-5 11 -1 42.69 5.06
-5 11 -1 42.45 4.93
-5 11 -1 41.15 5.49
5 11 1 40.13 4.53
5 11 1 42.59 4.47
5 11 1 40.61 5.16
5 11 1 40.77 5.11
-1 -5 11 40.92 4.79
-1 -5 11 40.49 5.35
-1 -5 11 47.86 6.47
1 -5 -11 46.99 4.96
-1 5 -11 44.92 4.72
-11 -1 5 37.88 4.93
-1 5 -11 40.18 5.1
-1 5 -11 43.36 4.47
5 -11 -1 40.86 5.75
-1 -5 11 44.18 4.61
-11 3 5 92.88 8.66
-11 -3 -5 91.85 9.5
-3 -5 -11 110.44 8.53
-3 -5 -11 108.3 9.04
-3 -5 -11 112.78 8.69
5 -11 3 101.06 9.28
5 -11 3 93.97 9.91
5 11 -3 101.31 8.55
5 11 -3 98.97 8.41
5 11 -3 96.56 9.29
5 11 -3 92.48 9.74
5 -11 3 96.37 9.33
-5 11 3 85.63 8.41
-11 -3 -5 97.27 8.51
-11 -3 -5 101.08 8.83
-3 5 11 100.77 8.7
-5 -11 -3 94.71 8.28
11 -3 5 85.32 8.64
11 -3 5 93.43 9.49
11 -3 5 99 9.61
11 3 -5 97.5 8.48
11 3 -5 84.15 9.24
-11 -3 -5 95.65 9.42
-5 11 3 98.08 9.7
-3 5 11 105.59 9.74
3 5 -11 92.92 9.03
-5 -11 -3 97.51 9.25
-5 -11 -3 101.97 9
-5 -11 -3 101.67 9.41
-5 -11 -3 105.54 8.81
-11 3 5 103.49 8.27
-11 3 5 98.03 9.24
-11 3 5 82.86 9.01
-11 3 5 80.93 8.92
3 -5 11 97.94 10.02
3 5 -11 104.19 8.72
3 5 -11 102.58 8.56
3 -5 11 95.19 8.66
3 5 -11 95.72 9.7
-5 11 3 110.42 9.12
-5 11 3 108.38 9.25
3 -5 11 92.3 9.63
3 -5 11 103.93 9.26
-3 5 11 105.19 8.31
-3 5 11 91.43 9.24
-3 5 11 105.1 9.99
11 3 -5 89.39 9.56
-11 3 5 92.41 9.76
-3 -5 -11 104.53 9.35
-11 -3 5 109.04 9.93
3 5 11 98.11 9.09
3 5 11 100.23 8.54
3 5 11 112.15 8.55
-3 5 -11 92.02 8.55
5 -11 -3 88.66 9.71
-3 5 -11 97.17 9.62
5 11 3 107.9 9.38
-3 -5 11 98.61 8.62
5 11 3 103.86 9.36
11 -3 -5 99.18 8.39
-11 3 -5 88.13 8.72
-11 3 -5 98.54 9.55
-11 3 -5 101.33 9.59
-5 -11 3 95 8.66
5 11 3 101.31 8.56
-3 5 -11 90.57 9.14
-3 5 -11 94.67 9.52
11 3 5 97.31 8.63
11 3 5 96.56 9.56
11 3 5 93.77 9.57
11 3 5 100.34 8.5
-5 -11 3 89.06 9.16
-5 -11 3 97.23 9.89
-5 11 -3 101.55 9.24
-5 11 -3 103.34 9.23
-5 11 -3 99.02 9.74
-3 -5 11 95.26 8.58
5 11 3 101.59 9.05
-5 -11 3 99.02 8.44
11 -3 -5 92.7 8.76
3 5 11 110.52 9.52
3 5 11 107.62 9.32
5 -11 -3 89.56 8.59
5 -11 -3 109.66 9.22
3 -5 -11 100.99 8.84
-11 -3 5 98.52 8.87
-3 -5 11 87.4 9.31
-3 -5 11 95.65 10.15
3 -5 -11 105.16 8.38
3 -5 -11 93.18 9.21
-11 -3 5 94.85 8.77
3 5 11 93.66 9.4
-11 -3 5 91.31 8.46
-11 -5 -5 130.57 10.81
-11 -5 -5 125.76 10.93
-5 5 11 128.35 12.1
11 5 -5 110.13 11.6
11 5 -5 120.71 10.63
-11 5 5 132.28 11.55
-11 5 5 117.72 11.52
-11 5 5 122.52 11.45
-11 5 5 121.36 12.1
-5 -11 -5 138.6 10.91
-5 -11 -5 141.98 10.62
-5 -11 -5 143.06 10.51
-5 -11 -5 138.08 11.64
-5 -11 -5 140.64 11.45
-5 -11 -5 135.21 11.72
5 -5 11 111.65 10.8
5 -5 11 124.89 12.08
5 -5 11 132.61 12.25
5 11 -5 131.41 10.56
5 11 -5 119.67 11.59
-5 11 5 119.91 10.73
-5 11 5 146.66 11.44
11 -5 5 117.56 11.81
-11 5 5 131.09 10.9
-11 5 5 144.96 10.41
-11 5 5 131.17 11.57
5 -11 5 133.19 12.47
-11 -5 -5 136.18 11.7
5 11 -5 120.46 12.22
-5 5 11 127.25 10.93
-5 5 11 132.09 10.4
-5 5 11 110.44 11.51
-5 5 11 136.74 12.41
5 5 -11 124.95 10.92
5 5 -11 128.51 10.72
5 5 -11 121.87 12.15
-5 -5 -11 113.68 11.38
-5 -5 -11 126.42 11.74
-5 -5 -11 132.83 10.77
-5 -5 -11 140.11 10.74
-5 11 5 137.38 11.61
-5 11 5 128.75 11.95
5 -11 5 133.02 11.72
5 11 -5 131.53 10.67
11 -5 5 113.05 10.7
11 -5 5 117.93 11.86
5 -11 5 120.72 10.57
5 -11 5 125.08 11.77
-11 -5 -5 120.87 11.83
5 -11 -5 125.36 10.86
-5 11 -5 126.78 10.4
-5 -11 5 119.7 10.82
-5 -11 5 113.98 11.46
-5 -11 5 119.45 12.24
-5 -5 11 132.43 10.94
-5 -5 11 123.9 10.75
-11 5 -5 109.55 11.66
-5 5 -11 121.36 11.85
-11 -5 5 132.26 12.16
-5 -5 11 118.82 12.47
-5 5 -11 124.93 10.86
5 5 11 119.03 11.81
-5 -11 5 126.21 10.68
-5 11 -5 138.52 11.68
-5 11 -5 126.03 12.02
-5 5 -11 120.31 11.92
5 11 5 139.13 10.82
5 11 5 135.33 11.63
5 11 5 130.88 11.56
11 -5 -5 119.87 10.92
11 -5 -5 128.87 10.43
11 -5 -5 116.68 12.05
5 -11 -5 127.07 11.67
5 -11 -5 126.09 12.08
5 5 11 138 11.61
-11 -5 5 133.17 11.01
-11 -5 5 120.76 11.02
-11 -5 5 118.99 10.62
-11 -5 5 106.64 11.54
5 5 11 136.81 10.75
11 5 5 139.74 10.86
-11 5 -5 121.42 11.79
-11 5 -5 132.67 11.86
-11 5 -5 122.42 11.89
5 5 11 133.03 10.72
-5 5 -11 124.83 11.64
5 -5 -11 123.62 10.95
11 5 5 126.12 11.78
-5 11 -5 124.96 11.57
11 5 5 132.48 11.8
5 -5 -11 138.12 10.53
5 -5 -11 109.37 11.55
-11 5 -5 128.68 10.79
-11 -7 -5 100.49 9.04
-11 -7 -5 96.89 8.77
-11 -7 -5 98.07 9.68
-11 -7 -5 92.68 9.28
-7 -5 -11 111.64 9.5
5 -11 7 100.03 9.68
7 -5 11 100.08 10.13
-7 -5 -11 103.63 8.83
-7 -5 -11 95.93 9.55
11 7 -5 98.99 8.68
-11 7 5 93.97 8.79
5 11 -7 101.74 9.5
-5 11 7 117.85 9.23
5 11 -7 90.2 9.98
-7 5 11 96.02 8.94
5 -11 7 92.63 9.57
11 -7 5 87.95 8.65
5 -11 7 100.04 10.32
-7 5 11 101.68 10.12
-5 -11 -7 102.19 8.85
11 7 -5 91.25 9.51
-5 -11 -7 109.98 9.4
-11 7 5 99.24 9.36
-11 7 5 99.97 9.49
-11 7 5 90.98 9.29
-11 7 5 92.83 9.93
-7 -5 -11 100.32 8.75
-5 11 7 101.2 9.87
11 -7 5 98.09 9.76
11 -7 5 91.69 9.86
7 5 -11 95.49 10.11
-7 5 11 100.49 8.36
-5 -11 -7 116.71 8.65
7 -5 11 94.7 8.9
7 -5 11 96.83 9.94
7 5 -11 94.32 8.96
-5 11 7 96.25 9.45
-11 -7 -5 99.74 8.82
-5 -11 -7 108.65 9.29
5 11 -7 104.83 8.66
-5 11 7 100.69 8.78
-7 5 11 88.82 9.33
7 5 -11 106.29 8.78
-7 5 11 100.57 10.34
5 11 -7 96.6 8.5
-5 11 -7 100.75 9.57
7 5 11 107.82 9.6
7 -5 -11 90.31 9.36
-11 -7 5 93.54 8.98
-11 -7 5 88.38 8.65
-5 11 -7 98.1 9.79
-11 -7 5 105.01 10.11
-11 7 -5 116.53 8.73
-7 -5 11 96.21 8.7
-11 7 -5 100.47 9.62
-11 7 -5 92.47 9.71
11 7 5 95.9 9.63
7 5 11 100.02 9.9
-5 -11 7 96.01 10.25
-7 -5 11 92.91 8.94
7 5 11 109.26 8.75
7 5 11 111.52 8.81
-7 5 -11 91.14 9.72
-7 5 -11 93.52 9.72
11 -7 -5 89.54 8.86
11 -7 -5 92.33 10.02
-5 11 -7 92.92 9.49
5 -11 -7 97.52 8.88
5 -11 -7 108.87 9.25
5 -11 -7 95.09 9.44
-7 -5 11 92.8 10.47
11 7 5 103.12 8.79
-11 -7 5 90.97 9.33
-5 -11 7 98.85 8.96
-5 -11 7 100.24 8.73
-5 -11 7 82.01 9.26
5 11 7 101.82 8.7
5 11 7 114.88 9.55
5 11 7 107.52 9.52
7 -5 -11 92.61 9.06
7 -5 -11 110.18 8.54
-5 11 -7 93.05 8.5
5 -11 -7 94.29 10.03
11 7 5 99.26 9.59
-11 7 -5 95.7 9.61
-7 5 -11 96.03 8.81
-7 5 -11 103.1 9.7
-7 5 -11 99.7 9.68
-11 7 -5 105.17 9.77
-9 -5 -11 26.28 3.92
11 9 -5 25.99 3.86
-9 -5 -11 29.12 4.03
-11 9 5 26.7 3.74
11 9 -5 27.03 3.49
9 5 -11 27.81 4.32
-11 -9 -5 31.55 3.99
-11 -9 -5 30.5 3.78
-11 -9 -5 30.65 4.03
-11 -9 -5 31.28 4.41
-5 -11 -9 39.49 4.65
-5 -11 -9 41.52 4.41
9 -5 11 27.75 3.7
9 -5 11 28.39 4.54
-9 5 11 33.33 3.83
-9 5 11 36.02 4.65
-9 5 11 34.05 4.77
-9 5 11 27.33 4.38
-9 -5 -11 31.84 3.89
5 -11 9 29.4 3.74
-5 -11 -9 35.19 4.55
5 -11 9 27.86 4.35
5 11 -9 36.21 4.67
5 11 -9 24.33 4.21
-5 -11 -9 40.43 4.81
-9 5 11 28.81 3.8
-11 9 5 28.76 3.65
5 -11 9 28.23 4.73
-11 9 5 28.65 3.89
-5 11 9 33.88 4.4
-5 11 9 41.86 4.19
-5 11 9 27.24 3.81
9 -5 11 29.85 4.45
9 5 -11 31.56 3.92
9 5 -11 32.2 3.76
-11 -9 -5 32.57 3.85
11 9 -5 31.73 4.22
-11 9 5 27.41 3.69
11 -9 5 25.05 4.13
11 -9 5 32.69 4.43
5 -11 9 31.18 3.99
5 11 -9 29.62 3.6
-11 9 5 22.24 4
-9 -5 -11 38.48 4.38
11 -9 5 27.31 4.43
-5 11 9 28.61 4.09
-11 9 -5 31.03 4.14
-5 11 -9 24.77 3.79
9 5 11 28.78 3.72
11 9 5 30.32 4.08
5 11 9 32.9 4.01
5 -11 -9 29.93 4.26
11 -9 -5 28.05 4.41
-11 -9 5 27.79 3.94
-5 -11 9 28.95 3.78
-5 11 -9 32.55 4.19
-5 -11 9 30.57 4.95
5 -11 -9 33.96 4.04
9 5 11 32.08 4.18
9 5 11 29.31 4.56
-9 -5 11 25.51 3.58
-9 -5 11 26.29 4.65
-9 5 -11 25.9 3.68
5 11 9 34.14 4.28
5 11 9 43.63 4.29
-11 9 -5 25.15 4.13
-11 9 -5 36.98 5.02
5 -11 -9 38.02 4.28
-9 5 -11 23.97 3.87
11 9 5 29.12 3.61
9 5 11 42.46 4.32
5 -11 -9 35.67 4.79
-9 5 -11 34.08 4.23
-9 5 -11 22.29 4.1
-5 -11 9 27.81 3.71
-5 11 -9 31.81 4.18
-5 11 -9 28.61 4.22
-11 -9 5 35.48 4.47
-11 -9 5 27.56 3.78
-11 -9 5 30.75 4.56
11 -9 -5 37.99 4.79
11 9 5 36.88 4.95
5 11 9 31.47 4.02
-9 -5 11 23.96 3.82
9 -5 -11 27.02 3.82
-5 -11 9 25.36 3.57
9 -5 -11 37.9 4.19
-9 5 -11 27.27 4.08
9 -5 -11 31.76 4.16
-11 1 7 30.99 3.99
1 -7 11 23.94 3.42
-11 1 7 27.42 4.29
1 7 -11 29.83 4.14
11 -1 7 27.55 3.92
11 1 -7 28.97 4.05
-11 1 7 27.56 3.71
1 -7 11 34.34 3.79
11 1 -7 27.04 3.58
1 -7 11 30.76 4.28
1 -7 11 26 4.04
7 11 -1 31.39 4.01
1 -7 11 25.58 4.5
1 7 -11 35.11 4.06
11 -1 7 35.29 3.67
11 -1 7 24.77 3.49
-11 -1 -7 41.7 3.8
-11 -1 -7 27.23 3.58
-11 -1 -7 26.25 4.04
-11 -1 -7 26.57 3.97
-7 11 1 35.36 4.45
-7 -11 -1 28.13 3.7
-7 -11 -1 30.89 3.9
-7 -11 -1 26.01 3.64
-7 -11 -1 23.45 3.74
-1 -7 -11 35.55 4.04
-1 -7 -11 33.91 4.4
1 7 -11 28.51 3.49
7 -11 1 29.81 3.63
7 -11 1 34.02 4.56
7 -11 1 28.69 3.79
7 -11 1 27.79 4.22
11 1 -7 27.89 3.47
7 11 -1 28.77 3.3
7 11 -1 26.12 3.67
7 11 -1 28.83 3.86
-1 7 11 30.07 3.48
-1 7 11 37.42 3.74
-1 7 11 34.1 4.57
-1 7 11 38.16 5.02
-7 11 1 33.72 4.46
-11 1 7 22.79 4.08
-7 11 1 33.35 4.38
-7 11 1 36.15 4.85
-1 -7 -11 34.1 4.28
11 -1 7 23.87 4.08
11 1 -7 27.27 3.75
-7 11 1 28 3.59
1 7 -11 33.59 4.36
1 7 -11 25.08 3.26
-7 -11 1 25.32 3.59
11 1 7 24.69 3.84
11 -1 -7 25.17 3.66
11 1 7 27.26 4.2
-1 -7 11 29.29 4.17
-1 -7 11 28.62 3.88
-1 -7 11 30.55 4.56
-1 7 -11 33.33 3.85
-1 7 -11 25.56 3.42
11 -1 -7 32.82 4.13
-1 7 -11 23.58 3.91
7 11 1 25.62 3.34
7 11 1 33.41 3.98
7 11 1 24.97 3.71
7 11 1 34.68 4.72
-7 11 -1 29.71 3.69
-7 11 -1 32.52 4.34
-7 11 -1 31.13 3.96
1 -7 -11 32.95 3.66
-11 -1 7 26.86 3.67
1 -7 -11 31.22 4.27
-7 -11 1 28.58 4.01
11 1 7 33.98 3.88
11 1 7 24.25 3.48
-7 -11 1 29.44 3.55
-7 -11 1 25.03 3.33
-1 -7 11 34.51 4.16
-11 -1 7 24.86 4.31
-1 -7 11 23.64 3.42
-11 1 -7 27.11 3.64
1 7 11 35.8 4.13
1 7 11 39.25 3.88
1 7 11 37.1 4.76
1 7 11 36.6 5.07
1 7 11 23.12 3.6
7 -11 -1 30.84 3.94
7 -11 -1 37.63 4.64
7 -11 -1 29.08 4.06
-1 7 -11 32.69 4.18
-11 1 -7 24.74 3.91
1 -7 -11 37.04 4.01
-11 -1 7 26.68 3.39
-11 1 -7 25.04 3.92
7 11 -3 78.86 7.18
7 11 -3 79.94 8.24
-11 -3 -7 78.4 8.05
7 -11 3 77.6 8.73
-3 7 11 73.19 7.86
-3 7 11 85.73 8.3
7 11 -3 78.15 7.96
11 -3 7 74.19 8.23
3 -7 11 76.86 7.48
3 -7 11 76.36 7.94
3 -7 11 81.57 8.28
3 -7 11 77.53 8.71
3 7 -11 83.34 7.29
3 7 -11 77.06 7.28
3 7 -11 69.51 7.51
3 7 -11 76.18 8.39
-11 -3 -7 85.84 7.19
-11 -3 -7 78.92 7.54
-11 3 7 69.36 7.4
-11 3 7 72.05 6.94
-11 3 7 72.07 7.5
-3 -7 -11 79.45 7.84
-11 3 7 72.33 8.46
7 11 -3 77.34 7.16
-7 -11 -3 77.1 7.9
7 -11 3 84.13 8.03
7 -11 3 83.69 7.99
-7 -11 -3 74.13 7.44
-7 11 3 91.47 7.73
-7 11 3 95.63 7.93
11 -3 7 72.47 7.4
-7 11 3 82.26 8.35
-3 7 11 73.32 7.25
11 3 -7 74.54 8.41
-11 3 7 75.35 8.72
11 3 -7 70.93 7.74
-7 11 3 72.58 7.13
11 3 -7 78.54 7.34
-7 -11 -3 76.47 7.46
-7 11 3 79.26 7.82
11 -3 7 76.51 8.18
-3 -7 -11 87.85 7.37
-3 -7 -11 83.87 7.23
-3 -7 -11 86.42 7.58
-11 -3 -7 78.31 8.22
3 7 11 86.23 7.27
3 7 11 90.87 7.2
-3 7 -11 78.51 8.38
-7 11 -3 90.6 8.05
-3 7 -11 71.54 7.76
-7 11 -3 77.79 8.26
-3 7 -11 80.38 8.08
-11 -3 7 81.31 8.77
-3 7 -11 74.35 7.28
-11 3 -7 82.67 8.22
-11 3 -7 76.73 8.26
3 7 11 89.68 7.74
3 7 11 84.5 8.01
3 7 11 98.97 8.1
3 7 11 93.8 7.94
7 -11 -3 79.56 7.28
7 -11 -3 91.51 7.91
7 -11 -3 80.05 8.39
-3 -7 11 75.2 8.84
-7 -11 3 72.68 7.33
-7 -11 3 81.71 7.29
-7 -11 3 75.82 7.87
-7 -11 3 77.62 8.37
3 -7 -11 78.51 7.87
-3 -7 11 69.71 7.53
-3 -7 11 63.45 7.78
-7 11 -3 85.38 7.87
11 3 7 81.2 7.5
11 3 7 77.49 8.42
11 3 7 80.2 8.39
7 11 3 79.81 7.59
11 -3 -7 81.45 7.62
11 -3 -7 86.62 7.06
-11 -3 7 60.17 7.55
3 -7 -11 81.42 7.55
-11 -3 7 76.79 7.56
-11 -3 7 77.59 7.21
7 11 3 72.43 7.18
7 11 3 77.73 7.97
-3 -7 11 76.56 7.27
-11 3 -7 73.87 7.43
5 7 -11 101.24 8.71
5 7 -11 95.24 9.05
5 7 -11 88.86 9.87
-5 -7 -11 98.14 9.4
-5 7 11 95.69 9.36
5 -7 11 98.49 10.18
11 5 -7 86.15 9.3
-5 7 11 97.27 8.79
-11 -5 -7 98.72 8.67
-7 11 5 99.18 8.62
7 -11 5 92.96 8.48
7 -11 5 102.05 9.57
7 -11 5 106.83 9.57
7 -11 5 101.57 10.21
7 11 -5 94.57 8.57
7 11 -5 104.79 8.64
7 11 -5 94.71 9.43
7 11 -5 94 9.89
11 -5 7 92.61 9.59
11 5 -7 101.98 8.69
5 -7 11 95.22 9.89
-11 -5 -7 96.43 8.82
-11 -5 -7 100.67 9.77
-11 5 7 97.65 9.22
-11 5 7 96.87 9.93
5 -7 11 93.41 8.86
5 -7 11 93.75 9.47
-7 11 5 104.5 9.42
-7 11 5 95.52 9.66
-5 -7 -11 105.32 8.77
-5 -7 -11 107.94 8.7
-7 -11 -5 110.28 8.94
-7 -11 -5 107.32 8.69
-5 7 11 105.11 10.05
-7 -11 -5 99.58 9.14
11 5 -7 96.37 9.86
-11 5 7 83.76 8.74
11 -5 7 102.05 9.81
-11 -5 -7 100.29 9.45
11 -5 7 89.99 8.7
-7 -11 -5 101.48 9.41
-11 5 7 108.68 8.23
-11 -5 7 98.65 8.95
7 -11 -5 102.06 9.95
-5 7 -11 97.55 8.76
11 5 7 99.58 9.81
-5 -7 11 84.66 8.96
-5 -7 11 95.91 10.4
11 5 7 108.16 8.68
11 5 7 98.69 8.76
-11 -5 7 97.87 10.12
-11 5 -7 97.42 8.78
-11 5 -7 100.87 9.68
-11 5 -7 107.25 9.67
-11 5 -7 88.98 9.65
-11 5 -7 90.26 9.43
-5 -7 11 96.41 8.69
7 -11 -5 102.06 8.87
5 -7 -11 99.94 9.02
5 -7 -11 89.42 9.32
5 7 11 104.06 8.62
5 7 11 112.08 8.63
11 -5 -7 98.41 8.37
5 7 11 99.46 9.58
-7 -11 5 93.61 8.81
-7 -11 5 95.07 8.62
-7 -11 5 85.84 9.26
-7 -11 5 96.39 10.05
-7 11 -5 107.47 8.41
-7 11 -5 92.06 9.45
-7 11 -5 102.04 9.52
-7 11 -5 101.62 9.8
-5 7 -11 90.43 9.44
-5 7 -11 96.62 9.6
-5 7 -11 93.63 9.89
-11 -5 7 87.58 8.93
-11 -5 7 95.55 8.59
-11 -5 7 80.53 9.16
5 7 11 105.58 9.32
11 -5 -7 93.86 10.14
7 -11 -5 94.14 9.37
-5 -7 11 105.53 8.86
7 11 5 103.83 8.7
7 11 5 101.88 9.5
11 -5 -7 93.62 8.94
7 11 5 97.89 9.25
11 5 7 102.81 9.76
-7 11 7 104.85 9.99
11 7 -7 113.14 10.83
-7 11 7 123.41 10.92
11 -7 7 105.06 10.01
11 7 -7 117.18 10.11
11 -7 7 112.62 11.34
-7 7 11 103.06 10.79
-7 7 11 115.83 11.51
-11 7 7 114.03 11.42
-7 -11 -7 128.91 10.25
-7 -11 -7 136.18 10.07
-7 -11 -7 123.71 10.95
-7 -11 -7 118.82 10.74
7 -7 11 116.22 11.61
7 7 -11 124.6 10.09
7 7 -11 117.7 10.57
7 7 -11 101.43 11.37
-7 -7 -11 121.37 10.14
-7 -7 -11 135.87 10.15
-7 -7 -11 132.67 10.89
-7 -7 -11 123.86 11.06
-11 -7 -7 121.62 11.2
-11 -7 -7 110.46 10.83
11 -7 7 112.67 11.26
7 11 -7 112.84 11.41
-11 7 7 111.61 10.82
-11 7 7 112.33 10.2
7 -7 11 111.44 10.08
7 -7 11 108.56 11.26
7 -11 7 124.98 11.25
7 11 -7 105.68 9.9
7 11 -7 119.32 9.88
7 11 -7 117.7 10.93
-7 11 7 110.88 11.26
-7 7 11 114.94 10.25
-11 -7 -7 120.74 10.18
-11 -7 -7 117.08 10.22
-7 11 7 137.2 10.58
7 -11 7 117.75 11.65
-11 7 7 116.58 10.62
11 7 -7 109.8 11.32
7 -11 7 106.17 11
7 -11 -7 114.37 10.95
-11 -7 7 115.61 11.63
7 -11 -7 124.09 10.63
-11 7 -7 125.11 11.19
-7 7 -11 111.02 10.94
-7 7 -11 115.18 10.17
7 -7 -11 106.35 10.87
7 11 7 117.94 10.82
-11 7 -7 122.02 10.15
7 -11 -7 119.6 10.29
-7 -11 7 112.37 9.98
-7 -11 7 99.94 10.69
-7 7 -11 109.58 11.16
-7 7 -11 115.72 11.25
7 7 11 132.19 10.05
7 7 11 123.23 10.93
7 7 11 123.09 11.21
-11 7 -7 118.06 11.05
7 -11 -7 111.15 11.39
-7 11 -7 116.24 11.03
-7 -7 11 109.53 11.9
7 11 7 129.41 10.15
7 11 7 118.76 10.92
-7 -7 11 99.56 10.42
11 -7 -7 109.58 10.27
11 -7 -7 110.8 11.57
-11 7 -7 116.12 11.24
-7 11 -7 121.72 9.87
-7 11 -7 116.92 10.97
-7 -7 11 109.88 10.29
-7 -7 11 108.93 9.99
-7 -11 7 104.42 10.28
11 7 7 116.12 10.03
11 7 7 116.58 11.07
11 7 7 122.61 11.22
-11 -7 7 112.94 10.34
-11 -7 7 117.42 10.45
-11 -7 7 115.07 9.98
-11 -7 7 108.59 10.74
7 -7 -11 110.04 10.32
-11 7 -7 110.52 11.09
-7 -11 7 117.49 11.86
7 7 11 123.96 10.05
-7 11 -7 113.18 11.31
-9 -7 -11 52.2 5.73
11 9 -7 51.5 6.29
-11 9 7 50.81 5.78
-9 7 11 50.52 5.89
-9 7 11 47.8 6.19
-9 7 11 58.63 7.07
9 -7 11 49.96 5.93
9 -7 11 35.78 5.86
9 -7 11 54.14 7.27
9 7 -11 53.12 5.79
9 7 -11 51.23 5.85
-9 -7 -11 54.83 6.01
7 11 -9 50.96 7.14
-11 -9 -7 59.23 5.92
-11 9 7 35.18 5.9
-11 9 7 52.41 6.18
-11 9 7 46.89 6.83
-7 11 9 51.53 6.7
-7 11 9 45.27 5.55
11 -9 7 48.47 5.78
11 -9 7 56.07 6.89
11 -9 7 54.53 7.1
11 9 -7 59.89 5.89
-7 11 9 49.2 6.19
11 9 -7 51.3 6.8
7 11 -9 50.1 6.16
7 -11 9 55.16 5.94
7 -11 9 54.73 6.47
7 -11 9 49.05 6.67
-9 -7 -11 59.24 6.58
-9 -7 -11 53.12 6.39
9 7 -11 48.38 6.83
7 -11 9 45.75 6.3
-7 -11 -9 56.34 5.89
-7 11 9 64.63 5.62
-11 -9 -7 54.17 6.18
-7 -11 -9 53.71 6.1
-11 -9 -7 62.39 5.97
-7 -11 -9 59.36 5.85
-7 -11 -9 57.92 6.29
-11 -9 -7 56.88 6.19
7 11 -9 53.12 5.7
-11 -9 -7 55.03 6.59
7 11 9 59.04 5.73
7 -11 -9 53.83 5.72
-11 -9 7 49.39 5.74
-11 -9 7 49.81 6.1
-11 -9 7 44.23 6.36
9 7 11 58.55 5.74
-11 9 -7 52.2 6.68
7 -11 -9 50.18 6.13
7 -11 -9 44.64 6.88
7 11 9 53.31 6.48
7 -11 -9 59.53 6.26
11 -9 -7 49.23 6.9
11 9 7 58.07 6.58
11 9 7 52.91 6.63
-7 -11 9 38.93 6.28
-7 11 -9 53.12 5.75
-7 11 -9 50.8 6.45
-9 -7 11 52.98 6.07
-9 -7 11 49.01 5.8
-9 -7 11 54.51 7.85
-9 7 -11 54.89 6
-9 7 -11 52.17 6.73
-9 7 -11 60.43 6.59
-9 7 -11 35.8 5.8
-9 7 -11 51.22 6.65
7 11 9 58.08 6.45
9 -7 -11 53.22 6.2
-11 9 -7 61.94 5.83
9 7 11 63.81 6.01
-11 9 -7 46.01 6.5
-11 9 -7 58.5 6.56
11 -9 -7 52.14 6.17
-7 -11 9 51.97 6.04
-7 -11 9 49.73 5.78
-7 -11 9 42.68 5.86
9 7 11 55.66 6.43
9 -7 -11 46.32 6.17
-11 -9 7 55.5 6.28
-7 11 -9 54.63 6.53
11 -9 -7 52.9 5.93
-7 11 -9 54.49 6.62
11 9 7 59.64 5.76
9 7 11 52.68 6.86
-11 -1 -9 15.03 2.32
-11 -1 -9 10.93 2.83
1 -9 11 14.4 2.74
9 -11 1 14.06 3.39
9 11 -1 12.66 2.55
-11 -1 -9 12.05 3.2
-9 11 1 13.75 2.98
-1 -9 -11 17.18 2.82
-1 -9 -11 14.44 2.4
-1 -9 -11 13.45 2.69
1 9 -11 14.22 2.58
1 9 -11 15.92 2.55
1 9 -11 11.42 2.88
1 9 -11 7.68 3.03
-9 -11 -1 11.6 2.79
-9 -11 -1 14.59 2.62
-9 -11 -1 11.86 2.85
-1 9 11 12.64 3.13
9 11 -1 12.88 2.92
-11 -1 -9 13.15 3.15
-9 11 1 16.26 2.93
-9 11 1 16.16 2.66
1 -9 11 10.44 3.24
1 -9 11 10.68 3.78
9 -11 1 16.45 2.95
-11 1 9 14.65 2.84
-1 -9 -11 15.99 3.14
-11 1 9 6.94 2.15
-11 1 9 13.99 3.57
1 -9 11 9.97 2.66
11 1 -9 12.29 3.05
-11 1 9 13.1 2.42
9 11 -1 12.4 2.6
11 -1 9 10.76 3.16
11 -1 9 12.37 3.53
9 -11 1 13.26 2.96
11 1 -9 14.21 2.94
-1 9 11 14.26 2.48
-1 9 11 13.19 2.84
11 1 -9 11.96 2.94
11 -1 9 14.17 2.3
9 11 -1 14.18 3.01
-9 11 1 9.52 2.11
1 -9 11 7.75 2.34
1 -9 11 12.13 2.36
11 -1 9 10.18 2.71
-1 -9 11 11.45 2.64
11 -1 -9 11.42 2.55
-1 -9 11 14.44 2.72
-9 -11 1 14.48 3.33
1 9 11 14.81 2.89
-1 -9 11 17.08 4.07
-1 -9 11 11.02 3.06
9 11 1 11.97 2.48
-1 9 -11 9.45 2.65
-1 9 -11 8.69 3.15
11 1 9 8.81 2.63
11 1 9 12.87 3.16
11 1 9 17.39 3.55
1 -9 -11 15.32 2.84
1 -9 -11 14.44 2.72
1 -9 -11 13.14 3.31
9 11 1 14.99 2.67
9 11 1 12.01 2.91
11 -1 -9 10.75 2.92
-1 9 -11 12.41 2.49
-11 -1 9 7.81 2.75
-11 -1 9 10.9 2.45
9 -11 -1 11.98 2.47
9 -11 -1 13.84 2.88
9 -11 -1 13.08 3.25
-9 11 -1 14.93 2.95
11 1 9 14.21 2.35
11 -1 -9 11.79 2.62
-9 -11 1 14.34 2.59
-9 -11 1 11.02 2.69
1 9 11 15.08 2.43
-11 -1 9 10.98 3.71
-11 1 -9 15.9 2.15
-9 11 -1 13.86 2.96
-1 -9 11 12.61 2.65
1 9 11 17.99 2.42
1 9 11 15.8 2.6
-9 -11 1 14.03 2.73
-9 11 -1 13.62 2.63
-1 9 -11 11.55 2.54
-11 1 -9 12.02 3.06
-11 1 -9 10.42 3.1
-11 1 -9 11.33 2.85
-1 -9 11 9.83 2.55
-9 -11 -3 38.8 4.5
3 -9 11 29.24 4
3 -9 11 29.36 5.02
-3 -9 -11 43.43 4.73
-3 -9 -11 46.77 4.53
-11 3 9 32.54 4.65
3 -9 11 30.84 4.11
3 -9 11 31.12 4.49
11 -3 9 31.09 3.99
-9 11 3 26.11 3.55
-9 -11 -3 36.49 4.83
3 9 -11 33.17 4.63
9 -11 3 42.89 5.18
9 -11 3 35.27 4.83
9 11 -3 40.6 4.47
-3 9 11 39.45 4.54
3 9 -11 38.73 4.6
3 9 -11 31.24 4.62
-11 -3 -9 41.26 4.35
-11 -3 -9 39.02 4.95
-11 -3 -9 34.44 4.43
-11 -3 -9 27.99 4.34
11 -3 9 32.3 4.73
-9 -11 -3 30.63 4.18
-9 -11 -3 30.32 4.26
-9 11 3 40.23 4.9
-9 11 3 38.23 4.85
-9 11 3 42.27 5.47
11 3 -9 30.66 4.05
11 3 -9 38.37 4.68
-3 -9 -11 40.79 4.65
-3 -9 -11 39.23 4.86
-3 9 11 33.71 4.21
-3 9 11 36.29 4.59
-11 3 9 29.65 3.6
-11 3 9 39.6 4.53
-11 3 9 30.62 4.84
9 -11 3 38.39 5.29
11 3 -9 28.75 4.43
9 11 -3 34.1 4.49
9 11 -3 32.71 4.2
-11 3 9 28.99 4
-11 -3 9 28.95 4.05
3 9 11 42.07 4.31
3 9 11 40.62 4.82
9 11 3 34.03 4.2
11 3 9 39.27 4.89
11 3 9 31.37 4.41
11 3 9 32.35 4.63
-11 3 -9 28.36 3.97
-11 3 -9 32.39 4.42
11 -3 -9 39.74 5.06
11 -3 -9 35.24 4.47
-3 -9 11 27.19 3.83
-3 -9 11 34.12 4.65
-3 -9 11 32.32 5
3 9 11 41.37 5.06
3 9 11 44.52 5.03
9 -11 -3 37.03 4.52
3 9 11 45.04 4.37
-11 -3 9 33.5 4.99
-9 -11 3 36.86 4.77
-9 -11 3 34.78 4.5
-9 -11 3 36.28 5.05
-9 -11 3 33.37 4.61
-9 11 -3 38.46 5.28
-9 11 -3 39.24 4.87
-9 11 -3 42.25 5.23
-3 9 -11 31.18 4.33
-3 9 -11 27.05 4.59
3 -9 -11 32.09 4.11
3 -9 -11 36.08 4.82
3 -9 -11 40.06 4.71
9 -11 -3 40.54 5.06
9 -11 -3 26.85 4.56
-3 9 -11 38.94 4.59
-3 9 -11 29.61 4.05
-3 -9 11 37.75 4.79
-3 -9 11 26.29 3.8
9 11 3 32.92 4.56
-11 3 -9 30.32 4.43
-11 -3 9 37.68 4.46
9 11 3 39.29 4.53
-11 -5 -9 35.58 4.34
-11 5 9 23.68 4.35
-9 -11 -5 38.33 4.74
-11 5 9 31.49 4.86
-9 -11 -5 31.6 3.69
-9 -11 -5 27.72 3.92
-9 -11 -5 25.08 3.63
9 11 -5 27.26 3.88
9 11 -5 35.08 4.38
-11 5 9 36.81 4.58
5 -9 11 27.15 4.03
5 -9 11 25.67 4.39
5 -9 11 30.04 4.95
9 -11 5 34.01 4.28
-11 -5 -9 32.21 3.9
-11 -5 -9 32.65 4.29
-11 -5 -9 26.5 4.05
9 -11 5 31.2 4.31
9 -11 5 29.5 4.72
-9 -11 -5 34.87 3.91
-5 -9 -11 39.28 4.59
-5 -9 -11 40.1 4.49
-5 -9 -11 29.92 3.9
9 -11 5 29.35 4.11
-9 11 5 23.72 4
11 5 -9 25.93 4.27
9 11 -5 32.76 4.22
11 -5 9 25.2 3.71
-11 5 9 28.73 3.26
11 -5 9 33.64 4.4
-9 11 5 32.61 4.2
-11 5 9 36.47 4.6
-5 9 11 33.33 4.35
-5 9 11 31.95 4
-5 9 11 33.41 4.44
5 9 -11 24.01 3.6
-9 11 5 44.3 4.43
11 -5 9 27.8 4.47
5 -9 11 30.05 3.82
11 5 -9 38.63 4.75
11 5 -9 34 4.62
-9 11 5 36.33 4.81
5 9 -11 38.2 4.61
-9 11 5 30.76 3.99
5 9 -11 26.61 4.27
9 11 -5 35.85 4.53
5 -9 -11 32.16 4.08
5 9 11 33.77 3.94
-5 -9 11 32.12 3.91
9 -11 -5 28.39 3.76
9 -11 -5 27.21 4.39
-9 11 -5 38.01 5.01
5 -9 -11 34.43 4.75
-5 -9 11 28.36 3.69
-11 -5 9 25.93 3.52
-5 -9 11 33.39 4.44
5 9 11 40.25 5.15
-9 -11 5 29.94 3.95
-9 -11 5 35.53 4.39
-9 -11 5 24.85 3.77
9 11 5 27.65 3.97
9 11 5 28.81 3.87
11 -5 -9 29.68 3.93
11 -5 -9 34.69 4.07
11 -5 -9 30.5 3.94
-5 -9 11 27.34 4.93
5 -9 -11 32.51 4.48
-5 9 -11 24.14 3.85
-9 -11 5 28.12 4.78
-9 11 -5 42.55 4.16
-9 11 -5 31.06 4
11 5 9 39.38 4.35
11 5 9 39.07 4.76
11 5 9 32.32 4.31
11 5 9 30.65 4.41
-11 -5 9 22.06 3.5
-11 -5 9 26.09 4.71
-11 5 -9 28.42 3.94
-5 9 -11 28.28 3.66
-9 11 -5 29.83 4.28
-5 9 -11 27.29 4.2
-5 -9 11 40.32 4.84
-11 -5 9 28.42 3.87
5 9 11 38.3 4.29
5 9 11 43.05 4.36
-11 5 -9 27.78 4.11
9 11 5 33.57 4.25
-11 5 -9 32.67 4.63
-5 9 -11 24.61 4.17
-11 5 -9 31.29 4.19
-11 5 -9 26.86 4.3
9 -11 7 47.37 6.52
9 -11 7 44.57 6.77
-7 -9 -11 56.76 6.22
-7 -9 -11 61.91 5.87
-7 9 11 51.07 5.78
-7 9 11 54.12 6.16
-7 9 11 52.74 7
-9 -11 -7 61.46 6.12
-9 -11 -7 59.72 5.74
-9 -11 -7 50.27 6.28
7 -9 11 49.32 5.94
7 -9 11 50.52 6.57
7 -9 11 34.57 5.91
7 -9 11 39.97 6.3
7 9 -11 57.51 5.81
7 9 -11 56.43 5.98
7 9 -11 45.06 6.86
-11 -7 -9 50.13 5.97
-11 7 9 51.14 5.83
-11 7 9 44.52 6
-11 7 9 39.51 5.99
-9 -11 -7 54.41 5.93
-9 11 7 50.48 6.16
-9 11 7 49.57 6.59
-7 -9 -11 55.45 5.9
-11 -7 -9 50.41 5.72
11 7 -9 51.08 6.06
9 -11 7 50.88 7.3
9 11 -7 52.26 5.48
9 11 -7 53.76 5.89
9 11 -7 48.57 6.19
9 11 -7 54.71 6.93
11 7 -9 46.27 6.82
-9 11 7 45.09 5.6
-11 -7 -9 55.74 6.58
-11 -7 -9 53.3 6.25
-9 11 7 56.87 5.81
-9 -11 -7 51.04 5.93
11 -7 9 43.57 5.9
11 -7 9 52.97 6.91
11 -7 9 47.12 6.93
11 7 -9 53.57 5.92
-7 -9 -11 61.43 6.21
9 11 7 54.91 5.68
11 7 9 52.93 5.73
11 -7 -9 45.12 6.3
11 7 9 56.72 6.63
11 7 9 57.56 7.04
-7 -9 11 51.74 5.73
9 11 7 51.16 6.59
-7 -9 11 55.79 5.85
9 -11 -7 55.59 5.9
9 -11 -7 49.83 6.24
-7 -9 11 55.75 6.05
-7 -9 11 56.07 6.15
7 9 11 58.79 5.64
9 11 7 52.53 6.23
11 -7 -9 52.92 6.05
-11 -7 9 56.49 6.22
-11 -7 9 51.22 6.18
-11 -7 9 51.39 5.85
11 7 9 55.09 6.03
-11 -7 9 52.22 7.54
-11 7 -9 48.65 6.02
-11 7 -9 52.36 6.63
-11 7 -9 51.02 6.58
-11 7 -9 53.1 6.81
-11 7 -9 48.77 6.34
7 9 11 65.26 5.89
7 9 11 63.51 6.44
7 9 11 50.15 6.35
9 -11 -7 47.78 5.92
7 -9 -11 58.86 6.06
7 -9 -11 58.19 6.14
7 -9 -11 45.41 7
11 -7 -9 52.64 7.09
-9 -11 7 59.23 6.15
-9 -11 7 52.51 5.88
-9 -11 7 47.69 5.94
-9 -11 7 53.18 7.48
-9 11 -7 61.24 5.66
-9 11 -7 54.62 6.44
-9 11 -7 56.73 6.51
-9 11 -7 55.77 6.63
-7 -9 11 54.03 7.7
-7 9 -11 54.07 5.84
-7 9 -11 50.96 6.33
-7 9 -11 39.38 5.76
-7 9 -11 42.71 6.72
9 -11 -7 50.07 6.96
-11 -7 9 48.63 5.85
-11 -9 -9 4.94 2.73
-11 -9 -9 5.27 2.86
-11 -9 -9 2.66 2.89
-11 -9 -9 3.69 2.78
9 11 -9 6.52 2.48
9 11 -9 3.34 2.65
9 11 -9 7.35 3.01
-9 11 9 5.84 2.18
-9 11 9 5.15 2.75
9 -9 11 8.02 2.68
9 -9 11 -0.26 3.55
9 -9 11 0.88 3.88
9 9 -11 6.12 2.48
-11 9 9 8.26 2.66
-11 9 9 5.46 2.57
-11 9 9 1.41 3.08
-9 -11 -9 6.89 2.82
-9 -11 -9 8.52 2.74
-9 -11 -9 3.5 2.66
-9 -11 -9 5.69 2.55
11 9 -9 3.89 2.67
-9 9 11 5.74 2.63
-9 11 9 5.4 2.4
9 -11 9 4.28 2.52
-9 -9 -11 5.89 2.68
-9 -9 -11 4.82 2.75
-9 -9 -11 4.67 2.75
-9 -9 -11 5.87 2.67
11 -9 9 3.26 2.53
11 -9 9 0.11 3.38
11 -9 9 3.04 3.73
11 9 -9 6.47 2.77
9 -11 9 3.35 3.9
11 9 -9 7.11 3.05
9 9 -11 5.36 2.49
9 9 -11 3.93 3.05
-9 11 9 2.81 2.88
9 -11 9 5.64 2.92
-9 9 11 6.72 2.53
-9 9 11 5.48 3.18
9 -11 9 6.4 3.4
-9 11 -9 9.32 2.87
-9 11 -9 7.59 2.51
-9 -11 9 7.86 3.04
-9 -11 9 4.73 2.31
-11 -9 9 5.35 2.37
-11 -9 9 5.19 4.05
-9 9 -11 4.78 2.91
9 -11 -9 8.23 2.88
9 -11 -9 6.06 2.18
9 -11 -9 4.22 2.77
9 -11 -9 0.06 3.13
-9 -11 9 6.76 4.11
-9 -11 9 5.3 2.59
-9 11 -9 5.13 3.03
-9 11 -9 2.06 2.78
9 -9 -11 8.14 3.07
9 -9 -11 5.39 2.55
9 -9 -11 4.87 3.5
-11 9 -9 5.68 2.62
-11 9 -9 6.62 3.03
-11 9 -9 3.88 3.04
-11 9 -9 4.16 2.85
-9 9 -11 3.43 2.84
-9 9 -11 3.21 3.06
9 9 11 6.41 2.44
9 9 11 6.21 2.48
9 9 11 6.01 2.81
9 9 11 8.47 3.34
-11 -9 9 6.16 3.08
-11 -9 9 8.3 3.12
-11 -9 9 7.31 2.64
9 11 9 6.32 2.46
9 11 9 5.13 2.88
9 11 9 6.48 3.12
11 -9 -9 6.14 3
11 -9 -9 3.25 2.68
11 -9 -9 4.23 3.43
-9 -9 11 7.16 2.93
-9 -9 11 4.51 2.95
-9 -9 11 2.14 2.52
-9 -9 11 5.94 2.2
-9 -9 11 1.73 4.1
-9 9 -11 6.57 2.59
11 9 9 7.28 2.43
11 9 9 3.33 2.88
11 9 9 7.18 3.35
-11 -11 -1 17.55 3.19
-11 -11 -1 16.75 2.97
-11 -11 -1 13.68 3.11
11 -11 1 19.63 3.63
1 -11 11 14.55 3.55
1 -11 11 16.66 4.21
-11 -1 -11 19.33 2.69
-11 -1 -11 16.21 3.16
-11 -1 -11 15.96 3.47
-11 -1 -11 12.46 3.27
11 -1 11 12.43 3.96
11 1 -11 18.23 3.36
11 1 -11 16.13 2.9
11 1 -11 13.37 2.69
11 1 -11 15.84 3.5
1 -11 11 14.28 3.03
11 -11 1 17.01 3.33
11 -11 1 16.47 3.25
-11 1 11 11.26 2.93
-11 1 11 13.94 2.72
-11 1 11 13.07 2.63
-11 1 11 23 4.18
11 11 -1 17.26 3.3
11 -1 11 14.38 3.03
11 -1 11 16.27 3.6
-11 11 1 12.2 2.43
-11 11 1 18.09 3.25
-11 11 1 16.45 3.04
-11 11 1 19.14 3.41
-1 -11 -11 18.26 3.06
-1 -11 -11 20.25 2.76
-1 -11 -11 19.97 3.11
-1 -11 -11 19.83 3.45
-1 11 11 21.76 3.28
11 11 -1 19.25 2.82
11 11 -1 16.83 2.89
11 11 -1 16.09 3.18
1 11 -11 14.93 3.57
11 -1 11 17.75 2.62
1 -11 11 13.66 2.76
1 11 -11 16.06 2.85
1 11 -11 15.08 2.95
1 11 -11 17.94 3.05
-1 11 11 16.1 2.77
-1 11 11 22.83 2.89
1 -11 11 16.71 3.06
-1 11 11 15.19 3.31
1 -11 -11 19.34 3.21
-1 -11 11 13.9 2.92
1 -11 -11 18.71 3.03
-1 -11 11 17.31 4.19
-1 11 -11 15.4 2.8
1 -11 -11 21.26 2.68
-11 1 -11 14.15 3.08
-11 -11 1 17.05 2.89
-11 -11 1 14.03 3.09
-1 11 -11 16.38 2.8
-1 11 -11 15.86 3.37
-1 11 -11 12.65 3.7
-1 -11 11 17.09 3.41
1 11 11 21 2.77
1 11 11 17.92 2.88
1 11 11 16.82 3.17
11 -11 -1 17.33 2.96
11 -11 -1 15.03 3.23
11 -11 -1 16.83 3.74
-11 1 -11 15.22 3.39
-11 1 -11 11.88 3.55
-11 -11 1 14.87 2.96
11 -1 -11 13.98 3.07
11 -1 -11 17.35 2.93
11 -1 -11 14.63 2.8
1 -11 -11 20.67 3.62
-11 11 -1 14.46 3.13
-11 11 -1 18.46 3.35
-11 -1 11 12.03 3.14
-11 -1 11 15.14 2.82
-11 -1 11 7.74 2.52
-11 -1 11 21.38 4.41
-11 1 -11 18.71 2.45
11 1 11 20.34 2.77
11 1 11 17.52 3.06
11 1 11 21.04 3.61
11 1 11 15.25 3.89
-1 -11 11 16.85 3
-1 -11 11 18.52 3.04
-1 -11 11 12.62 2.95
-11 11 -1 19.47 3.32
11 11 1 16.92 2.87
11 11 1 17.01 3.05
11 11 1 12.75 3.18
-11 -11 -3 44.81 5.85
-11 -11 -3 45.34 5.65
-11 -11 -3 47.54 6.2
11 -11 3 53.85 6.37
11 -11 3 52.85 6.98
3 11 -11 39.34 5.66
3 11 -11 48.68 5.94
-11 -3 -11 48.95 5.31
-11 -3 -11 47.55 5.95
-11 -3 -11 48.5 6.54
-11 -3 -11 50.78 6.38
11 3 -11 50.96 6.82
-3 -11 -11 53.2 6.03
3 -11 11 50.65 5.87
3 -11 11 43.64 6.05
3 -11 11 38.05 5.66
11 11 -3 52.92 5.47
-11 3 11 49.12 5.86
-11 3 11 50.42 5.28
-11 3 11 57.52 5.7
-11 3 11 44.67 6.12
-11 3 11 33.88 5.73
11 -3 11 44.67 5.84
11 -3 11 49.61 7.06
11 3 -11 45.99 6.15
11 3 -11 52.46 5.7
-11 11 3 43.34 5.27
-11 11 3 63.01 6.2
-11 11 3 52.95 6.31
-11 11 3 49.5 6.04
-11 11 3 50.29 6.57
-3 -11 -11 54.85 5.86
-3 -11 -11 61.37 5.41
-3 11 11 52.31 6.11
-3 -11 -11 62.92 6.37
-3 11 11 53.17 6.72
11 -11 3 43.23 5.27
11 -11 3 49.57 6.42
11 11 -3 55.23 6.43
11 11 -3 44.01 5.69
3 11 -11 48.01 6.81
3 -11 11 39.17 6.34
11 11 -3 52.99 6.43
-3 11 11 57.1 5.58
-3 -11 11 54.54 7.67
-11 -3 11 51.41 5.69
-3 -11 11 47.57 5.62
3 -11 -11 55.89 6.09
-3 11 -11 48.94 6.16
3 -11 -11 45.02 6.76
-11 -3 11 43.59 6.28
-11 3 -11 48.96 6.1
-11 3 -11 48.17 6.56
-3 11 -11 49.86 5.95
-3 -11 11 47.71 5.93
-11 -11 3 61.65 7.04
-3 11 -11 51.21 5.55
3 11 11 56.98 5.46
3 11 11 64.42 5.34
3 11 11 54.26 6.02
3 -11 -11 51.91 6.06
3 11 11 59.72 6.13
11 -11 -3 49.59 5.67
11 -11 -3 54.3 6.11
11 -11 -3 49.41 6.88
-3 -11 11 49.77 5.7
-3 -11 11 50.3 5.66
-11 -11 3 50.58 6.01
-11 -11 3 46.87 5.61
11 -3 -11 51.07 6.08
11 -3 -11 54.68 5.49
-11 11 -3 35.92 5.26
-11 11 -3 55.68 6.4
-11 11 -3 55.77 6.21
-11 11 -3 59.86 6.51
-11 -3 11 49.12 5.94
11 3 11 41.84 4.88
11 3 11 47.03 5.75
11 3 11 56.96 6.59
11 3 11 46.85 6.98
-3 11 -11 42.74 6.68
3 11 11 54.89 6.28
-11 -11 3 55.1 6.21
11 11 3 51.8 5.63
11 11 3 47.34 6.35
-11 -11 -5 47.94 5.5
-11 -11 -5 45.41 5.8
-11 -11 -5 46.19 5.39
-11 -11 -5 40 5.88
-11 -11 -5 41.79 5.16
11 -11 5 49.26 6.24
11 -11 5 36.98 5.41
5 -11 11 27.92 5.64
5 11 -11 47.94 5.27
-11 -5 -11 48.49 5.17
-11 -5 -11 32.49 4.57
-11 -5 -11 48.28 6.21
-11 -5 -11 45.72 5.76
11 5 -11 47.14 5.3
11 5 -11 30.01 5.12
-5 -11 -11 47.48 5.39
5 -11 11 41.43 5.46
5 -11 11 45.37 5.88
11 -11 5 37.81 4.95
11 11 -5 44.41 5.02
11 11 -5 46.29 5.12
-11 5 11 39.72 5.32
-11 5 11 32.68 4.52
-11 5 11 46.78 5.35
-11 5 11 41.34 5.7
-11 5 11 35.22 5.26
11 -5 11 27.57 5.17
11 -5 11 49.19 6.32
-5 11 11 33.66 5.13
11 11 -5 40.23 5.85
-11 11 5 42.27 5.03
-11 11 5 59.36 5.39
-11 11 5 44.13 5.62
-11 11 5 39.81 5.39
-11 11 5 44.85 5.97
-5 -11 -11 50.83 5.4
-5 -11 -11 46.17 5.11
5 11 -11 42.46 5.55
-5 -11 -11 48.77 5.54
5 -11 11 33.79 5.22
11 -11 5 46.6 6.07
-5 11 11 42.75 5.58
11 -5 11 41.61 5.46
5 11 -11 29.72 5.17
-5 11 11 46.11 5.1
-5 -11 11 34.04 5.85
-5 11 -11 27.48 5.19
-5 -11 11 51.34 5.44
-11 11 -5 42.22 6.13
-11 11 -5 39.68 5.8
5 -11 -11 44.32 5.65
5 -11 -11 42.56 5.47
5 -11 -11 37.18 5.33
-11 5 -11 34.65 4.78
-11 5 -11 45.81 6.31
-5 11 -11 48.62 5.73
-5 -11 11 50.21 5.44
-5 -11 11 40.28 5.37
-11 -5 11 34.6 5.71
-5 11 -11 41.45 5.1
5 11 11 51.95 5.15
5 11 11 55.5 5.03
5 11 11 49.08 5.75
5 11 11 45.27 5.81
11 -11 -5 46.39 5.44
11 -11 -5 37.4 5.32
-11 5 -11 35.9 5
-5 -11 11 46.38 5.52
-11 -11 5 32.67 4.63
-11 -11 5 46.46 5.29
11 -5 -11 35.27 4.7
11 -5 -11 47.91 4.99
11 -5 -11 39.8 5.45
-5 11 -11 34.43 4.94
-11 11 -5 58.31 5.01
-11 11 -5 51.27 5.94
-11 -5 11 33.89 4.69
-11 -5 11 43.46 5.34
11 5 11 53.61 5.23
11 5 11 42.46 5.37
11 5 11 48.69 6.34
11 5 11 35.49 5.32
-11 5 -11 29.02 4.96
-11 5 -11 50.51 5.82
-11 -11 5 30.07 4.66
-11 -11 5 52.61 7.03
11 11 5 48.42 5.14
11 11 5 32.69 4.93
11 11 5 46.76 5.83
-11 -11 -7 72.93 7.28
-11 -11 -7 78.55 7.41
-11 -11 -7 74.96 7.21
-11 -11 -7 70.89 7.84
-11 -11 -7 70.1 7.47
7 -11 11 71.8 8.11
7 -11 11 71.88 8.75
11 -7 11 67.3 7.17
11 -7 11 59.05 8.26
-11 -7 -11 75.8 7.12
-11 -7 -11 74.55 7.39
-11 -7 -11 77.73 7.99
-11 -7 -11 72.97 7.77
-7 -11 -11 81.78 7.16
-7 -11 -11 79.04 7.61
7 -11 11 70.6 7.31
7 -11 11 72.29 7.86
11 11 -7 57.39 6.77
11 11 -7 72.89 7.17
11 11 -7 68.87 7.75
11 11 -7 69.7 8.2
7 11 -11 73.17 8.41
-7 -11 -11 80.46 7.25
-11 7 11 73.07 7.23
-11 7 11 69.19 7.54
-11 7 11 64.25 8.33
11 7 -11 71.1 7.35
11 7 -11 62.59 8.33
7 11 -11 72.31 7.01
11 -11 7 69.39 8
-11 11 7 68.38 7.04
-11 11 7 67.61 7.33
-11 11 7 73.73 7.66
-11 11 7 67.37 8.09
11 7 -11 68.58 7.06
-7 11 11 61.81 6.93
7 11 -11 72.8 7.68
-7 -11 -11 72.84 7.63
-7 11 11 74.32 8.37
11 -11 7 77.14 8.29
11 -11 7 79.65 8.63
11 -7 11 68.34 8.48
-7 11 11 68.2 7.65
-7 11 -11 66.35 7.12
-7 11 -11 70.71 7.87
-7 -11 11 57.82 7.3
-11 7 -11 68.21 7.82
-11 -7 11 71.58 7.58
-7 -11 11 68 9.24
-7 -11 11 77.85 7.45
7 -11 -11 73.36 7.64
7 -11 -11 72.79 7.67
7 -11 -11 65.41 8.37
-11 -7 11 66.98 7.07
-11 -7 11 66.18 7.17
-11 -11 7 68.2 7.39
-11 -11 7 62.99 7
-11 11 -7 68.58 7.91
-11 -7 11 61.76 7.32
-11 7 -11 65.68 8.22
7 11 11 75.74 6.98
7 11 11 87.6 7.07
7 11 11 80.08 7.73
7 11 11 71.33 7.91
11 -11 -7 81.67 7.51
11 -11 -7 79.5 7.42
11 -11 -7 69.42 8.34
-11 11 -7 74.15 8.06
-7 -11 11 76.3 7.44
-7 -11 11 72.84 7.09
11 -7 -11 70.79 7.45
11 -7 -11 64.07 7.61
-11 -11 7 66.43 7.56
-11 -11 7 68.92 8.99
-7 11 -11 70.75 8.1
-7 11 -11 70.62 8.22
-11 11 -7 84.7 7.01
-11 11 -7 71.43 7.92
11 7 11 80.09 7.11
11 7 11 75.1 7.26
11 7 11 73.03 8.09
11 7 11 69.81 8.28
-11 -7 11 56.96 9.05
-11 7 -11 77.46 7.33
-11 7 -11 73.07 8.15
-11 7 -11 68.13 7.98
11 11 7 72.62 6.99
11 11 7 75.98 8.04
11 11 7 72.54 8.02
-11 -11 -9 16.88 3.16
-11 -11 -9 16.99 3.35
-11 -11 -9 15.16 3.13
-11 -11 -9 11.28 3.04
11 -11 9 16.03 3.88
11 -11 9 17.36 4.31
9 11 -11 15.99 2.96
9 11 -11 15.63 3.2
9 11 -11 12.97 3.53
-11 -9 -11 16.32 3.15
-11 -9 -11 15.9 3.3
-11 -9 -11 15.47 3.34
-11 -9 -11 10.91 3.24
11 9 -11 15.06 3.15
11 9 -11 15.03 3.61
9 -11 11 12.26 3.45
9 -11 11 16.94 3.93
11 -11 9 16.19 2.98
11 -11 9 12.95 3.46
11 11 -9 16.06 3.22
11 11 -9 14.8 3.2
11 11 -9 17.78 3.49
-11 9 11 17.36 3.17
-11 9 11 15.41 3.07
-11 9 11 13.72 3.8
11 -9 11 11.76 3.82
11 -9 11 20.67 4.36
11 9 -11 15.92 2.98
9 -11 11 15.08 4.47
-11 11 9 13.51 2.98
-11 11 9 11.29 2.76
-11 11 9 16.63 3.13
-11 11 9 13.16 3.42
-9 -11 -11 17.26 3.28
-9 -11 -11 20.91 3.38
-9 -11 -11 13.02 3.15
-9 -11 -11 14.64 3.01
-9 11 11 13.69 3.61
-9 11 11 11 2.86
-9 11 11 12 3.06
9 -11 11 15.22 3.07
11 -9 11 14.42 3.01
-9 11 -11 14.39 3.06
-9 11 -11 13.61 3.3
-9 11 -11 11.41 3.3
-9 -11 11 10.56 4.59
-9 -11 11 15.34 3.45
-11 11 -9 14.27 3.37
-9 -11 11 18.4 3.44
9 -11 -11 17.4 3.37
9 -11 -11 18.51 3.21
9 -11 -11 16.82 3.88
-9 -11 11 9.19 2.67
-11 -9 11 16.14 3.05
-11 -9 11 16.43 2.78
-9 -11 11 15.1 3.04
-11 -11 9 13.7 3.1
-11 -11 9 11.59 2.85
-11 -11 9 15.34 4.49
9 11 11 17.29 3
9 11 11 21.65 3.11
9 11 11 14.31 3.32
9 11 11 14.3 3.62
11 -11 -9 16.22 3.45
11 -11 -9 20.53 2.88
11 -11 -9 14.76 3.23
11 -11 -9 13.55 3.82
-11 -9 11 15.15 4.56
-11 9 -11 16.59 3.17
-11 -11 9 11.08 3.4
-11 -11 9 14.34 3.63
11 -9 -11 17.03 3.54
11 -9 -11 16.16 3.24
11 -9 -11 12.96 3.96
-9 11 -11 13.75 3.42
-11 11 -9 16.46 3
-11 11 -9 14.87 3.4
-11 11 -9 16.04 3.55
-11 -9 11 15.57 3.44
-11 -9 11 14.91 3.39
11 9 11 19.66 3.01
11 9 11 15.99 3.07
11 9 11 16.27 3.39
11 9 11 15.11 3.85
-11 9 -11 13.39 3.43
-11 9 -11 12.35 3.53
-11 9 -11 14.9 3.26
11 11 9 14.75 2.89
11 11 9 11.73 3.4
11 11 9 15.51 3.76
-11 -11 -11 15.55 3.31
-11 -11 -11 16.11 3.33
-11 -11 -11 16.45 3.23
-11 -11 -11 9.55 3.15
11 11 -11 10.77 3.4
11 -11 11 21.58 4.63
11 11 -11 15.23 3.07
11 11 -11 12.95 3.24
11 -11 11 11.3 3.96
11 -11 11 12.07 2.98
-11 11 11 13.43 3.08
-11 11 11 12.6 2.96
-11 11 -11 14.31 3.27
11 -11 -11 19.46 3.67
11 -11 -11 14.19 4
-11 11 -11 11.05 3.38
-11 11 -11 16.95 3.1
-11 -11 11 15.27 3.54
-11 -11 11 12.01 2.74
-11 -11 11 12.3 4.6
-11 -11 11 16.26 3.5
11 11 11 12.16 3.34
11 11 11 9.79 3.79
-12 0 0 34.47 4
-12 0 0 36.34 4.13
-12 0 0 37.26 4.48
-12 0 0 27.38 4.09
-12 0 0 29.87 4.4
0 -12 0 28.94 3.98
0 -12 0 39.23 4.63
0 -12 0 27.6 4.29
0 0 -12 38.85 4.38
0 0 -12 35.78 4.23
0 0 -12 33.81 4.63
0 0 -12 39.77 5.22
0 0 12 34.75 4.24
0 0 12 33.31 4.37
0 0 12 28.2 4.05
0 0 12 28.87 4.31
0 12 0 28.96 3.82
0 12 0 39.63 4.59
0 12 0 35.46 4.2
0 12 0 32.67 4.16
12 0 0 26.99 3.95
-12 2 0 41.16 5.03
-12 2 0 42.32 4.84
-12 2 0 38.59 5.6
-12 2 0 39.16 5.19
-12 2 0 50.67 5.14
-2 0 -12 47.1 4.86
-2 0 -12 44.99 5.05
-2 0 -12 42.33 5.39
-2 0 -12 50.91 5.65
-2 0 12 40.59 4.92
-2 0 12 44.97 4.89
-2 0 12 45.57 5.3
-2 0 12 45.98 6.37
0 -12 -2 40.77 4.85
0 -12 -2 46.75 5.23
0 -12 -2 46.25 5.03
0 -12 -2 42.92 5.83
0 -12 2 39.82 4.71
0 -12 2 42.59 5.33
0 -12 2 45.71 6.19
0 12 -2 42.55 4.43
0 12 -2 46.71 5.18
0 12 -2 43.76 4.9
0 12 -2 39.13 4.69
0 12 -2 45.05 5.76
0 12 2 41.59 4.52
0 12 2 49.72 5.34
0 12 2 50.83 5.01
0 12 2 47.03 5.48
2 0 -12 44.44 5.14
2 0 -12 46.27 4.95
2 0 -12 40.02 5.1
2 0 -12 47.39 5.97
2 0 12 48.61 4.93
2 0 12 40.33 5.8
2 0 12 44.02 5.87
12 -2 0 44.46 5.73
12 -2 0 36.8 5.22
12 -2 0 40.02 5.36
12 2 0 43.77 4.67
12 2 0 44 4.99
12 2 0 42.31 5.82
12 2 0 39.68 5.07
-12 2 0 43.12 4.41
-12 2 0 42.95 4.57
-12 -2 0 32.64 4.73
-12 -2 0 54.81 5.15
-12 -2 0 47.94 4.93
-12 -2 0 39.51 5.19
-12 -4 0 28.23 3.66
-12 -4 0 26.59 3.95
-12 4 0 35.79 3.93
-12 -4 0 35.44 4.33
-12 4 0 30.08 3.57
12 4 0 25.7 3.97
12 -4 0 26.39 4
-12 4 0 37.89 4.04
-4 0 -12 32.48 4.06
-4 0 -12 39.84 4.48
-4 0 -12 36.61 4.59
-4 0 -12 29.7 3.96
-4 0 -12 34.52 4.81
-4 0 12 36.14 4.43
-4 0 12 39.35 4.26
-4 0 12 32.98 4.43
-4 0 12 28.41 4.64
0 -12 -4 30.61 3.73
0 -12 -4 36.43 4.41
0 -12 -4 42.62 4.43
0 -12 -4 35.82 4.96
0 -12 4 30.29 4.03
0 -12 4 34.33 4.02
0 -12 4 29.67 3.85
0 -12 4 26.38 4.29
0 12 -4 36.56 3.73
0 12 -4 33.73 3.84
0 12 -4 26.73 3.75
0 12 -4 31.26 4.15
0 12 -4 29.29 4.02
0 12 4 28.03 3.94
0 12 4 39.11 4.45
0 12 4 38.5 4.45
0 12 4 37.43 4.93
4 0 -12 35.47 3.91
4 0 -12 35.43 4.24
4 0 -12 29.46 3.93
4 0 -12 30.34 4.23
4 0 12 28.5 3.88
4 0 12 34.29 4.32
4 0 12 32.15 4.64
4 0 12 31.42 4.38
4 0 12 34.39 4.24
12 -4 0 28.19 3.89
-12 4 0 29.18 3.93
12 4 0 35.18 4.08
12 4 0 31.36 3.79
-12 4 0 29.71 4.33
-12 4 0 27.74 3.94
-6 0 -12 6.12 2.3
-12 -6 0 5.81 2.59
-6 0 -12 8.33 2.05
0 12 6 10.16 2.64
6 0 -12 9.3 2.59
6 0 -12 11.2 2.37
6 0 -12 2.9 1.5
6 0 -12 8.13 2.87
6 0 12 6.06 1.88
6 0 12 5.63 2.28
6 0 12 6.42 2.66
6 0 12 8.06 3.06
6 0 12 9.46 2.8
12 -6 0 9.64 2.38
12 -6 0 6.16 2.63
12 -6 0 4.53 2.88
12 6 0 7.22 2.1
12 6 0 5.6 2.43
12 6 0 7.06 2.64
0 -12 -6 9.15 2.21
0 -12 -6 7.84 2.25
-12 -6 0 5.88 2.22
-12 -6 0 4.09 2.37
0 12 6 11.01 2.3
-6 0 -12 7.42 2.56
-6 0 12 7.69 2.45
-6 0 12 6.23 2.11
-6 0 12 9.13 2.3
-6 0 12 3.63 3.34
0 -12 -6 10.41 2.45
-12 6 0 9.67 1.98
-12 6 0 5.26 2.2
0 -12 -6 6.79 2.72
0 -12 6 6.82 2.04
0 -12 6 6.2 2.4
0 -12 6 5.41 2.39
0 -12 6 9.38 3.39
0 12 -6 5.34 1.66
0 12 -6 6.77 2.03
0 12 -6 4.37 2.26
0 12 -6 6.01 2.17
0 12 -6 6.73 2.81
0 12 6 8.78 2.02
-12 6 0 3.21 2.33
0 12 6 8.87 2.26
-12 6 0 6 2.37
-12 6 0 6.14 2.59
-12 6 0 7.56 2.68
-12 6 0 10.25 2.05
0 -12 8 31.41 4.36
0 -12 -8 39.05 5.55
8 0 -12 37.68 4.86
8 0 -12 34.13 4.26
0 12 8 40.93 5.21
-8 0 -12 39.71 5
-8 0 -12 38.28 5.44
-8 0 12 30.84 5.1
0 -12 -8 43.07 4.9
0 -12 -8 40.93 4.96
12 8 0 34.04 4.46
-12 8 0 39.78 5.44
-8 0 -12 37.91 4.29
8 0 12 38.7 4.97
8 0 12 35.35 4.51
8 0 12 33.06 4.77
12 -8 0 36.17 4.43
12 -8 0 41.47 5.15
12 -8 0 33.64 4.62
-12 -8 0 35.63 4.76
-12 -8 0 31.07 3.98
-8 0 -12 42.43 5.6
-8 0 12 29.43 4.09
-8 0 12 36.12 4.59
-8 0 12 43.66 4.63
-12 8 0 34.51 4.99
8 0 -12 34.14 4.54
8 0 -12 28.42 4.53
12 8 0 40.77 4.57
12 8 0 28.32 3.93
0 12 8 41.02 4.35
0 12 8 48.63 4.89
0 12 8 39.78 4.97
0 -12 8 38.81 4.77
0 -12 8 35.79 5.12
0 -12 8 30.74 4.26
0 -12 8 31.29 5.04
0 12 -8 36.54 3.77
0 12 -8 36.51 4.46
0 12 -8 36.83 4.87
0 12 -8 32.38 4.16
0 12 -8 28.88 4.59
8 0 12 36.22 4.31
-12 8 0 34.27 4.52
-12 8 0 45.62 4.16
-12 8 0 41.45 5.52
-12 -8 0 27.72 4.26
12 -10 0 34.08 4.77
-10 0 -12 39.32 4.29
12 -10 0 31.66 4.45
0 -12 -10 42.79 5.05
10 0 12 30.85 4.1
0 -12 10 38.48 4.88
0 -12 10 28.67 4.2
0 -12 10 30.99 4.47
0 12 -10 25.69 4.76
10 0 12 53.37 5.96
0 -12 -10 47.38 5.07
0 -12 -10 48.31 4.74
12 -10 0 35.18 4.56
-10 0 12 27.72 4.14
-10 0 12 37.4 4.7
-10 0 12 43.59 4.63
0 -12 10 32.4 5.3
0 12 -10 38.36 4.64
0 12 -10 36.51 5.11
0 12 -10 31.74 4.29
0 12 10 45 5.35
10 0 -12 31.1 4.23
0 12 10 46.79 5.05
0 12 10 41.3 5.36
10 0 12 32.57 4.98
0 12 10 37.97 4.51
0 -12 10 42.3 4.82
12 -10 0 39.57 5.5
-12 10 0 40.56 5.65
0 -12 -10 40.33 5.65
0 -12 10 34.34 4.59
10 0 -12 31.9 4.66
10 0 -12 27.07 4.57
10 0 12 39.57 4.42
-12 10 0 38.38 5.21
-12 -10 0 30.51 4.17
12 10 0 40.01 4.68
12 10 0 31.84 4.09
12 10 0 30.76 4.45
-10 0 -12 35.45 4.31
-10 0 -12 33.89 4.55
-10 0 -12 40.42 5.61
-12 -10 0 32.86 4.11
-12 -10 0 27.85 4.33
-12 10 0 37.74 4.05
-10 0 12 30.32 5.23
-12 10 0 40.2 5.43
10 0 -12 41.91 4.84
-2 12 0 38.1 4.35
-2 -12 0 42.51 5.89
-2 12 0 46.52 5.37
-12 0 -2 42.43 5.06
-12 0 -2 38.07 5.7
-12 0 -2 39.87 5.3
-12 0 2 48.83 4.86
-12 0 2 44.93 5.04
-12 0 2 42.43 4.83
-2 12 0 49.91 5.04
12 0 2 37.07 5.57
12 0 2 41.83 5.29
-2 12 0 49.38 5.78
-12 0 -2 41.8 5.21
-2 -12 0 49.47 4.93
-12 0 2 44.69 5.23
-2 -12 0 41.85 4.99
0 2 12 48.79 6.24
2 -12 0 40.6 4.72
2 -12 0 45.55 5.28
2 -12 0 44.21 5.97
2 12 0 46.74 4.67
2 12 0 45.53 5.17
2 12 0 45.75 4.77
2 12 0 39.89 5.68
12 0 -2 42.5 4.91
12 0 -2 41.62 5.55
12 0 -2 34.34 4.86
0 -2 -12 46.35 4.95
0 -2 -12 52.18 4.85
0 -2 -12 41.33 5.19
-2 12 0 44.21 4.92
0 -2 12 46.96 4.99
0 -2 12 40.23 5.59
0 2 12 46.01 4.78
0 2 12 49.75 4.8
-12 0 2 32.11 4.64
-12 0 2 43.16 5.08
0 2 -12 46.17 4.91
-12 0 -2 41.52 4.47
-12 0 2 37.94 5.44
0 -2 12 41.03 6.17
0 2 -12 44.22 4.89
0 2 -12 40.66 5.18
0 -2 -12 46.66 5.75
0 2 12 44.46 5.45
-2 -12 0 45.07 5.17
0 2 -12 44.71 5.74
2 12 -2 48.72 6.11
-2 12 2 48.65 5.11
-2 12 2 60.71 5.85
-2 12 2 58.82 5.71
-2 12 2 51.56 6.1
2 12 -2 55.63 5.9
-2 2 12 55.92 5.31
-2 2 12 47.61 5.72
2 2 -12 56.39 5.59
-12 2 2 41.31 5.8
-12 2 2 44.74 5.48
2 -2 12 53.95 5.21
-2 2 12 58.55 6.86
-12 -2 -2 45.94 5.73
-12 -2 -2 47.75 5.52
-2 2 12 55.38 5.52
-12 2 2 52.52 5.9
-2 -12 -2 52.39 5.48
-2 -12 -2 50.69 5.73
-2 -12 -2 58.66 5.56
-2 -12 -2 60.24 6.36
-12 2 2 48 5.27
-12 2 2 52.01 5.21
2 -2 12 52.87 6.37
-12 -2 -2 51.79 6.21
-12 -2 -2 40.79 5.82
2 12 -2 50.73 5.21
-2 -2 -12 54.2 5.94
2 -12 2 53.25 6.63
-12 -2 -2 60.02 5.35
2 12 -2 52.69 5.09
2 12 -2 54.91 4.95
2 12 -2 52.17 5.28
12 2 -2 47.54 6.17
2 -2 12 51.8 5.48
2 -12 2 40.1 5.08
2 -12 2 52.27 5.91
-2 -2 -12 63.14 5.53
12 -2 2 49.09 6.29
12 -2 2 50.12 5.99
12 2 -2 46.89 5.44
-2 -2 -12 57.64 5.58
-2 -2 -12 59.79 6.05
2 -2 12 53.92 6.72
2 2 -12 48.82 6.37
2 2 -12 54.09 5.39
-12 -2 2 58.84 5.57
-2 -12 2 48.69 5.37
2 -2 -12 58 6.3
-2 12 -2 57.6 6.27
2 2 12 52.06 6.39
12 2 2 48.67 5.95
-2 2 -12 55.68 5.29
2 -12 -2 49.19 6.53
-2 2 -12 48.37 5.92
-2 2 -12 54.95 6.1
12 -2 -2 50.65 6.2
12 2 2 59.61 5.21
12 2 2 49.76 6.38
2 -2 -12 47.73 5.71
2 2 12 52.89 6.19
-2 12 -2 49.42 4.88
-2 12 -2 50.22 5.74
2 12 2 55.89 5.27
2 12 2 51.78 5.87
2 12 2 56.92 5.58
2 12 2 53.48 6.24
2 2 12 58.58 5.37
2 2 12 54.43 5.49
2 -12 -2 49.48 5.45
2 -12 -2 60.69 5.85
-2 2 -12 48.42 5.56
-2 -12 2 46.31 5.83
-2 -12 2 44.46 6.43
-2 12 -2 51.99 5.43
-12 -2 2 48.42 5.65
-12 -2 2 49.45 5.43
-12 -2 2 39.19 5.94
-12 -2 2 45.01 6.14
-12 2 -2 47.74 5.02
-12 2 -2 53.15 5.22
-12 2 -2 50.14 5.71
-12 2 -2 51.14 6.18
-12 2 -2 49.58 6.07
-12 2 -2 59.19 5.56
2 -2 -12 53.27 5.34
-2 -12 2 54.75 5.06
-2 -2 12 59.26 5.45
-2 -2 12 51.96 5.48
-2 -2 12 47.32 5.91
-2 -2 12 52.42 6.85
12 -2 -2 42.96 5.65
2 -2 -12 54.5 5.53
12 -2 -2 57.43 5.41
12 -2 -2 49.59 6.13
2 -12 -2 57.49 5.77
4 2 -12 25.63 3.85
-2 -12 -4 28.17 3.71
-12 -4 -2 24.94 3.34
-12 -4 -2 21.71 3.64
12 4 -2 23.26 3.51
-12 -4 -2 23.53 3.41
-4 -2 -12 25.99 3.26
4 -2 12 23.16 2.8
4 -2 12 25.34 3.32
-4 -2 -12 27.14 3.22
12 4 -2 27.45 3.45
12 -4 2 23.83 3.55
12 -4 2 26.35 3.74
-12 4 2 31.77 3.55
-12 4 2 26.91 3.36
-12 4 2 21.49 3.26
-12 4 2 19.87 3.43
2 -12 4 19.96 2.87
4 2 -12 28.53 3.33
4 2 -12 24.04 3.12
-12 -4 -2 23.96 3.15
-2 12 4 31.81 4.14
2 -12 4 25.23 2.97
2 -12 4 24.06 3.43
2 -12 4 19.2 3.26
2 -12 4 20.37 4.06
-2 12 4 26.74 3.59
2 12 -4 26.39 3.45
-4 2 12 21.54 4.13
-2 -12 -4 27.46 3.35
-2 -12 -4 31.9 4.2
-2 -12 -4 28.6 3.91
-2 12 4 23.17 2.95
4 -2 12 26.82 3.88
-2 12 4 31.02 4.23
4 2 -12 26.77 3.38
2 12 -4 27.21 3.81
-4 -2 -12 28.2 3.27
-4 -2 -12 25.89 3.45
-4 -2 -12 31.35 4.31
12 4 -2 29.2 3.7
12 4 -2 27.37 3.21
2 12 -4 25.75 2.96
2 12 -4 31.38 3.57
-4 2 12 26.83 3.29
-4 2 12 29.55 3.12
-4 2 12 22.08 3.36
4 -2 12 24.91 3.91
-12 4 2 23.48 3.07
12 -4 -2 20.38 3.29
4 -2 -12 19.26 3.17
4 -2 -12 26.47 3.73
-12 4 -2 29.92 3.51
-12 4 -2 32.06 3.84
-12 4 -2 26.19 3.61
-12 4 -2 23.74 3.67
-12 4 -2 21.06 3.23
-2 -12 4 22.5 3.37
-2 -12 4 21.22 4.05
-4 -2 12 24.52 4.24
-4 2 -12 27.29 3.11
2 -12 -4 31.04 4.14
-12 -4 2 19.1 3.44
-4 -2 12 23.03 3.25
-4 -2 12 25.5 3.16
12 -4 -2 23.37 3.62
4 2 12 24.6 3.3
2 12 4 31.42 3.97
2 12 4 28.48 3.79
4 -2 -12 29.9 3.49
4 -2 -12 26.63 3.16
-4 2 -12 23.02 3.59
-12 4 -2 25.36 3.24
2 -12 -4 23.17 3.19
-4 -2 12 23.69 3.32
2 12 4 23.53 2.96
2 -12 -4 21.36 3.61
-4 2 -12 25.44 3.37
-4 2 -12 25.05 3.35
-4 2 -12 27.37 3.37
-2 -12 4 22.79 3.19
-2 -12 4 20.53 2.79
4 2 12 25.09 3.96
4 2 12 27.33 3.65
12 -4 -2 25.94 3.42
-2 12 -4 27.88 3.4
-12 -4 2 27.52 3.37
-12 -4 2 23 3.17
-12 -4 2 20.96 3.45
-2 12 -4 20.73 3.25
-2 12 -4 24.77 3.63
-4 2 -12 28.31 3.56
-2 12 -4 26.13 3.11
2 -12 -4 32.38 4.12
12 4 2 26.22 3.09
12 4 2 26.16 3.71
12 4 2 20.59 3.43
4 2 12 28.04 3.04
4 2 12 28.38 3.28
2 12 4 30.9 4.23
2 12 -6 -0.41 2.15
-12 6 2 -2.09 1.84
-12 6 2 1.89 2.05
-12 6 2 0.39 1.93
-12 6 2 -0.79 2.16
-12 6 2 0.27 2.2
-12 6 2 -0.57 2.05
6 2 -12 1.35 1.81
6 2 -12 -1.41 2.57
-6 2 12 3 2.26
-6 2 12 3.38 1.92
6 -2 12 0.45 2.92
-6 -2 -12 -0.08 1.9
-6 -2 -12 0.15 2.23
-6 -2 -12 0.21 1.45
-6 -2 -12 3.61 2.35
12 6 -2 1.56 2.29
-2 12 6 0.56 2.09
-2 12 6 1.12 2.38
12 6 -2 -2.21 2.38
2 12 -6 -0.51 1.88
6 -2 12 -0.63 1.57
6 -2 12 1.36 2.23
12 -6 2 1.96 2.74
2 -12 6 -0.87 2.19
-12 -6 -2 1.94 2.11
-12 -6 -2 -2.41 2.27
-12 -6 -2 0.77 2.54
2 -12 6 0.63 2.07
2 12 -6 -0.21 2.73
-2 12 6 0.96 1.73
-2 12 6 2.23 2
12 -6 2 -2.8 2.57
-12 6 2 -0.33 2.33
-6 2 12 0.94 2.1
-6 2 12 -3.4 3.1
-2 -12 -6 1.81 2.26
-2 -12 -6 1.35 1.94
-2 -12 -6 1.33 1.89
-2 -12 -6 -1.97 2.39
6 -2 12 2.2 2.96
6 2 -12 1.8 2.3
6 2 -12 1.7 2.23
12 6 -2 1.63 1.95
12 6 -2 1.39 2.06
12 -6 2 -0.4 0.37
2 -12 6 2.43 2.39
2 -12 6 0.73 3.06
2 12 -6 -1.93 1.52
-12 6 -2 -1.62 2.46
6 2 12 1.85 2.94
12 -6 -2 -1.7 2.19
2 12 6 1.86 1.79
-2 12 -6 -1.1 2
2 12 6 1.11 2.11
-2 -12 6 -2.58 3.23
-2 12 -6 -0.2 1.81
-12 6 -2 1.16 1.87
6 -2 -12 3.49 2.72
-6 2 -12 -1.38 2.08
-6 2 -12 1.39 1.25
-6 2 -12 -0.81 2.15
-2 -12 6 -0.97 1.95
-2 -12 6 -0.61 2.12
-2 -12 6 0.7 2.15
-6 -2 12 -0.76 3.1
-6 2 -12 2.06 1.81
-12 6 -2 -0.88 2.47
-12 6 -2 2.76 2.43
2 12 6 -0.41 2.07
12 6 2 0.5 1.87
12 6 2 1.69 2.34
6 -2 -12 -2.27 2.01
-6 -2 12 0.24 2.12
6 2 12 1.29 2.16
6 2 12 -0.43 2.33
-12 -6 2 1.89 2.28
-12 -6 2 -2.17 2.16
-6 -2 12 2.18 2.09
-2 12 -6 -0.43 2.42
12 -6 -2 -0.29 2.29
12 -6 -2 -1.64 2.67
-12 -6 2 -1.95 2.37
-12 -6 2 6.92 2.37
2 -12 -6 -0.77 2.14
2 -12 -6 2.76 1.94
2 -12 -6 1.73 2.13
2 -12 -6 -0.38 2.6
-12 6 -2 -5.56 2.11
6 -2 -12 2.74 2.13
6 -2 -12 2.72 2.32
-6 -2 12 3.59 2.11
-6 2 -12 -0.59 2.37
-8 -2 -12 22.85 3.36
-8 2 12 20.88 4.07
12 8 -2 18.62 2.9
8 2 -12 20.1 2.87
12 8 -2 20.56 3.47
-2 12 8 21.21 2.86
-8 2 12 23.54 2.98
-8 2 12 20.38 3.07
8 -2 12 21.23 4.07
8 -2 12 21.78 3.65
-8 -2 -12 24.98 3.52
-8 -2 -12 18.36 3.46
2 -12 8 14.38 4.1
2 12 -8 21.32 2.55
2 12 -8 23.39 2.98
12 8 -2 21.3 3.08
-2 -12 -8 26.09 3.27
-2 -12 -8 28.45 3.64
-12 8 2 17.84 3.2
8 2 -12 21.9 3.38
-8 2 12 20.72 3.25
2 12 -8 19.1 3.12
12 -8 2 19.49 2.96
12 -8 2 22.55 3.55
12 -8 2 18.38 3.56
12 8 -2 22.06 3.33
-2 12 8 31.27 4.06
8 2 -12 21.01 3.72
8 2 -12 22.03 3.17
2 12 -8 17.76 3.8
-12 -8 -2 19.36 3.2
-12 8 2 19.69 2.81
-12 8 2 23.69 3.02
2 -12 8 22.8 3.13
2 -12 8 18.71 3.37
2 -12 8 18.36 3.59
-12 -8 -2 15.92 3.38
-12 8 2 18.74 3.34
-8 -2 -12 19.34 2.81
-12 8 2 22.72 3.34
-2 -12 -8 22.99 3.27
-2 -12 -8 24.3 3.11
-2 12 8 23.73 3.4
-12 -8 -2 18.47 3.26
8 -2 12 19.79 2.64
8 -2 12 23.54 3.22
-2 12 8 26.3 3.25
8 2 12 25.44 2.93
2 -12 -8 21.77 2.83
-12 -8 2 39.22 4.9
-12 -8 2 17.37 3.28
2 -12 -8 23.21 3.33
-12 8 -2 19.09 3.33
2 -12 -8 23.99 3.29
2 -12 -8 20.82 3.84
-12 8 -2 22.93 3.54
12 -8 -2 21.53 3.75
-2 12 -8 21.27 3.07
8 2 12 23.55 3.26
-12 -8 2 17.22 3.18
12 8 2 17.4 3.4
-8 -2 12 16.85 3.21
-8 -2 12 18.21 2.96
-8 -2 12 35.45 3.79
-8 -2 12 24.24 4.38
-8 2 -12 24.62 2.75
-8 2 -12 18.83 3.19
-8 2 -12 18.85 3.43
-8 2 -12 17.58 3.59
-12 -8 2 19.6 3.09
-12 8 -2 15.36 2.91
-12 8 -2 21.4 3.47
2 12 8 24.64 2.95
2 12 8 28.23 3.26
8 2 12 24.24 3.54
8 2 12 21.82 3.91
12 -8 -2 21.85 3.16
-2 -12 8 18.22 2.95
-2 -12 8 22.73 3.09
-2 -12 8 19.77 3.23
-2 -12 8 19.91 4.24
-2 12 -8 24.51 2.92
2 12 8 23.53 3.21
8 -2 -12 20.45 3.24
8 -2 -12 27.76 3.19
8 -2 -12 15.07 2.65
12 8 2 23.02 3.11
-2 12 -8 20.75 3.72
2 12 8 26.46 3.45
10 -2 12 22.58 3.48
2 -12 10 20.01 3.91
2 -12 10 20.12 3.51
12 10 -2 25.95 3.23
2 12 -10 22.56 3.32
-10 2 12 21.44 3.53
-10 2 12 24.46 3.1
-10 2 12 33.79 4.06
-10 2 12 22.46 4.35
-2 -12 -10 25.75 3.45
-12 -10 -2 26.25 3.63
-12 -10 -2 19.64 3.36
2 12 -10 21.39 3.1
12 -10 2 19.23 3.02
2 -12 10 21.97 4.53
-2 12 10 26.22 3.63
-2 12 10 25.67 3.75
-12 -10 -2 22.06 3.64
-10 -2 -12 22.53 3.5
12 -10 2 22.88 3.78
-12 10 2 17.83 2.95
-12 10 2 21.89 3.52
-12 10 2 19.88 3.43
-12 10 2 21.5 3.75
-10 -2 -12 23.64 3.13
-2 12 10 24.38 3.19
10 -2 12 19.94 4.25
2 -12 10 18.77 3.26
12 -10 2 26.39 3.81
-2 -12 -10 28.06 3.47
2 12 -10 17.41 3.98
12 10 -2 19.97 3.64
12 10 -2 22.53 3.56
-10 -2 -12 26.79 3.77
-10 -2 -12 22.5 3.77
10 2 -12 22.81 3.99
10 2 -12 23.74 3.67
12 -10 2 23.35 3.97
10 2 -12 21.79 3.04
12 10 -2 23.79 3.26
-2 -12 -10 30.14 3.79
-2 12 10 34.19 4.27
10 2 -12 26.11 3.41
2 -12 -10 27.17 3.19
-2 -12 10 19.26 3.3
2 12 10 33.22 4.46
2 -12 -10 27.57 3.55
-10 -2 12 21.17 4.57
-2 12 -10 21.43 3.07
-2 -12 10 22.36 4.51
10 2 12 28.7 3.18
10 2 12 24.38 3.44
10 2 12 26.94 3.8
-2 -12 10 22.33 3.33
-2 -12 10 19.91 3.39
-10 -2 12 23.7 3.55
-10 -2 12 22.19 3.21
10 2 12 22.87 4.22
12 -10 -2 22.07 3.39
12 -10 -2 23.12 3.59
12 -10 -2 25.57 4.16
-10 2 -12 21.67 3.97
-12 10 -2 24.02 3.66
-10 2 -12 24.46 3.61
-2 12 -10 19.68 3.22
-10 2 -12 18.72 3.75
-2 12 -10 17.45 3.87
-12 -10 2 16.52 3.42
-12 10 -2 16.73 3.1
12 10 2 22.62 3.24
12 10 2 17.56 3.37
12 10 2 20.83 3.66
10 -2 -12 24.77 3.32
2 -12 -10 23.99 3.91
-10 2 -12 25.7 3.36
-12 10 -2 20.74 3.61
-12 10 -2 22.57 3.44
-2 -12 10 28.28 3.58
10 -2 -12 23.98 3.66
2 12 10 27.33 3.43
2 12 10 25.66 3.15
-12 -10 2 21.24 3.23
2 -12 -10 23.87 3.51
-12 -10 2 23.38 3.53
2 12 10 26.51 3.67
-12 0 -4 30.33 4.13
-12 0 4 28.51 3.76
-4 -12 0 35.54 4.53
0 -4 -12 37.21 4.62
-12 0 -4 31.74 3.91
0 -4 -12 34.13 4.48
0 -4 12 35.43 3.98
-12 0 -4 27.93 4.07
0 -4 12 29.81 4.16
0 -4 12 29.73 4.57
0 4 -12 36.95 4.13
0 4 -12 29.72 3.58
0 4 -12 31.65 4.44
0 4 -12 28.6 4.1
0 4 12 34.84 4.22
0 4 12 36.74 4.12
0 4 12 33.93 4.62
0 4 12 33.81 4.4
4 -12 0 29.6 3.98
4 -12 0 34.91 4.68
0 -4 -12 33.51 4.31
-4 12 0 40 4.55
4 12 0 37.54 3.85
4 12 0 36.51 4.66
4 12 0 33.04 4.8
12 0 -4 29.42 3.57
-12 0 4 34.08 4.26
-12 0 4 25.3 3.72
-12 0 4 30.83 4.1
0 -4 12 26.98 3.57
-12 0 -4 30.85 3.71
-4 -12 0 34.06 3.81
-4 -12 0 32.8 4.47
-4 -12 0 30.87 3.86
-4 -12 0 29.83 4.22
-4 12 0 29.89 3.59
-4 12 0 36.18 4.42
12 0 4 34.1 3.85
-12 0 4 29.2 4.18
-12 0 4 34.97 4.65
4 12 0 29.44 3.98
12 0 -4 28.88 3.87
12 0 4 28.41 3.59
12 0 4 36.18 5.06
12 0 4 29.22 4.12
4 -12 0 33.42 4.46
-4 12 0 41.85 5.09
-4 12 0 36.02 4.43
-2 4 12 29.38 4
-2 4 12 26.88 3.23
-2 4 12 31.28 3.72
-2 4 12 22.12 3.44
-12 -2 -4 28.95 3.57
-4 -12 -2 30.51 3.64
-12 -2 -4 21.1 3.64
-12 -2 -4 18.17 3.47
-4 12 2 25.19 3.62
-12 2 4 21.85 3.51
-4 -12 -2 28.53 3.43
-4 -12 -2 26.74 2.85
-4 -12 -2 25.39 3.26
-4 12 2 21.78 2.81
-4 12 2 32.64 4.07
-4 12 2 30.58 4.03
2 -4 12 27.31 3.5
2 -4 12 22.67 3.25
2 -4 12 23.38 3.73
2 -4 12 27.47 4.08
2 4 -12 25.43 3.18
2 4 -12 26.32 3.23
12 2 -4 21.45 3.5
2 4 -12 24.79 3.73
12 -2 4 27.39 3.33
-12 2 4 24.49 3.32
-12 2 4 22.8 2.98
-12 2 4 25.16 3.38
-12 2 4 25.84 3.65
-2 -4 -12 23.83 3.18
-4 -12 -2 24.19 3.62
4 12 -2 29.08 3.59
4 -12 2 26.23 3.46
4 -12 2 26.03 4.05
4 12 -2 26.01 3.03
12 -2 4 21.77 3.2
4 12 -2 22.8 3.23
4 12 -2 24.19 3.7
2 4 -12 27.8 3.82
12 2 -4 24.95 3.12
12 -2 4 24.39 3.71
-12 -2 -4 30.5 3.68
-2 -4 -12 26.97 3.24
4 -12 2 19.42 2.84
-2 -4 -12 27.09 3.47
12 -2 4 24.42 3.73
-12 2 -4 28.21 3.77
-12 -2 4 26.57 3.5
4 12 2 26.71 3.41
12 -2 -4 22.86 3.5
-12 2 -4 21.37 3.57
-12 2 -4 23.44 3.32
-2 -4 12 22.14 3.62
12 2 4 24.17 3.73
-12 -2 4 23.62 3.15
-4 12 -2 23.65 3.16
-4 12 -2 25.8 3.26
-4 -12 2 21.7 3.17
-4 -12 2 21.7 2.75
-4 -12 2 22.83 3.23
-4 -12 2 20.38 3.79
-4 12 -2 22.66 3.01
-12 -2 4 18.18 3.29
12 -2 -4 23.96 3.47
12 -2 -4 21.51 2.97
-2 -4 12 19.27 2.85
-2 -4 12 25.1 3.23
-2 4 -12 29.37 3.69
4 12 2 29.58 3.72
-2 4 -12 26.89 2.96
-2 4 -12 25.03 3.16
-2 4 -12 23.55 3.09
-2 4 -12 27.83 3.61
12 2 4 25.37 3.72
4 12 2 25.79 3.04
4 12 2 29.2 3.58
2 4 12 24.87 3.09
2 4 12 31.52 3.18
2 4 12 30.17 3.71
2 4 12 32.55 3.87
4 -12 -2 21.14 3.05
4 -12 -2 32.52 4.36
4 -12 -2 21.48 3.74
-12 -2 4 24.79 3.65
-12 2 -4 24.77 2.78
2 -4 -12 31.13 3.77
2 -4 -12 25.62 3.27
-12 -2 4 25.14 3.26
-2 -4 12 22.19 4.23
2 -4 -12 33.35 3.59
-4 12 -2 26.76 3.83
4 -12 4 5.78 2.53
4 12 -4 4.97 2.91
4 12 -4 6.61 2.28
-12 -4 -4 2.79 2.6
12 -4 4 1.47 2.5
12 4 -4 4.4 2.24
12 4 -4 6.37 2.54
12 4 -4 4.12 2.36
-4 -4 -12 7.87 2.3
-4 -4 -12 7.73 2.4
-4 -4 -12 8.12 2.23
-4 -4 -12 10.08 2.61
4 12 -4 7.96 2.03
-12 4 4 2.43 1.96
-12 4 4 3.66 1.91
-12 4 4 8.28 2.41
12 -4 4 1.51 2.22
12 -4 4 10.05 2.96
4 4 -12 8.47 2.4
4 4 -12 9.43 2.34
4 4 -12 8.81 2.16
4 4 -12 6.71 2.72
-12 -4 -4 7.32 2.26
-4 4 12 5.16 2.37
-4 4 12 4.79 3.06
4 -4 12 7.54 2.5
4 -4 12 7.42 3.07
4 -4 12 7.42 3.22
4 -12 4 2.3 2.53
4 -12 4 4.61 3.31
-4 4 12 5.97 2.34
-4 4 12 8.29 2.07
-12 -4 -4 8.49 2.61
-12 -4 -4 7.31 2.39
-12 -4 -4 5.44 2.7
-4 12 4 7.99 2.25
-4 12 4 11.27 2.35
-4 12 4 7.76 2.67
-4 -12 -4 7.8 2.68
-12 4 4 1.17 2.28
-12 4 4 6.36 2.83
-4 -12 -4 9.86 2.49
-4 -12 -4 8.82 2.32
-4 12 4 7.5 1.85
-12 4 4 8.9 1.98
-4 -12 -4 8.5 2.04
4 12 -4 4.48 1.9
4 -12 -4 8.12 2.3
4 -12 -4 5.01 2.32
-4 -4 12 7.85 2.2
-12 -4 4 0.55 2.24
-4 12 -4 7.2 2.28
4 4 12 6.67 2.78
-12 4 -4 7.09 2.86
-12 4 -4 3.69 2.03
-4 4 -12 8.4 2.36
-4 12 -4 7.94 2.73
4 4 12 6.49 1.97
4 4 12 6.02 2.22
-4 -4 12 7.07 2.37
-12 4 -4 5.51 2.42
-12 4 -4 3.01 2.66
-4 -12 4 6.38 2.19
-4 -12 4 -0.81 3.14
12 4 4 11.38 2.29
-4 -4 12 6.02 2.62
4 -4 -12 9.6 2.48
4 -4 -12 9.14 2.3
-4 4 -12 8.24 2.34
-4 4 -12 5.16 2.56
-4 4 -12 7.05 2.69
-12 -4 4 -0.92 2.37
4 4 12 7.83 2.46
4 -12 -4 4.83 2.75
12 -4 -4 4.98 2.94
4 -4 -12 2.95 2.22
4 -12 -4 9.44 2.47
-12 4 -4 6.28 1.67
-12 -4 4 7.61 2.58
-12 -4 4 10.98 2.8
4 12 4 8.34 2.07
4 12 4 9.71 2.45
4 12 4 10.11 2.2
4 12 4 9.13 2.5
12 -4 -4 2.38 2.56
12 -4 -4 5.54 2.21
12 4 4 3.47 2.67
-12 -4 4 14.66 2.79
-4 12 -4 4.05 2.2
-4 -12 4 4.54 2.31
-4 -12 4 8.99 2.14
12 4 4 5.26 2.82
-4 -4 12 5.84 3.22
-4 4 -12 7.98 1.98
-4 -12 -6 0.32 1.91
4 12 -6 1.6 2
-6 4 12 -0.3 3.05
-12 6 4 2.24 1.86
4 12 -6 -3.92 1.65
4 12 -6 -0.4 2.09
4 12 -6 -2.58 2.78
-12 6 4 -0.81 2.29
-4 -12 -6 -0.83 2.05
-4 -12 -6 -1.07 1.97
-4 -12 -6 -1.34 2.35
-6 4 12 -0.74 2.15
6 -4 12 -1.73 2.13
6 -4 12 -5.29 3
6 -4 12 -3.41 2.92
6 4 -12 -3.39 2.24
6 4 -12 -1.58 2.21
6 4 -12 -0.04 2.57
12 6 -4 -3.84 2.35
-4 12 6 -1.62 1.83
-4 12 6 0.73 1.84
-12 6 4 -3.1 2.14
4 -12 6 -1.55 2.15
4 -12 6 -3.97 2.33
-12 6 4 -0.8 2.61
-6 -4 -12 0.26 2.01
-6 -4 -12 -0.37 2.27
-6 -4 -12 -1.24 1.48
-6 -4 -12 3.29 2.35
-6 4 12 -4.08 2.61
-12 -6 -4 -2.16 2.51
4 -12 6 -2.72 2.62
-12 6 4 -2.37 2.28
4 -12 6 -1.39 3.17
-4 12 6 1.11 2.2
-4 12 6 -3.96 2.46
12 -6 4 -2.9 2.5
12 6 -4 1.66 2.21
-12 -6 -4 -2.13 2.13
12 6 -4 -0.84 2.38
-12 -6 -4 -0.16 2.05
-12 6 4 -1.46 2.02
-4 -12 -6 1.65 2.32
12 -6 4 -6.51 2.06
12 -6 4 1.2 2.8
-6 4 12 -2.37 2.11
-12 -6 -4 -1.04 2.45
-6 4 12 0.04 1.81
6 4 12 0.6 2.52
-12 -6 4 -1.19 2.15
-12 -6 4 6.9 2.91
12 6 4 -6.45 2.65
-12 6 -4 2.65 2.12
4 -12 -6 0.54 1.4
12 -6 -4 1.84 2.12
-4 -12 6 -2.31 2.21
4 -12 -6 -1.35 2.28
12 6 4 1.06 1.99
-4 12 -6 -0.91 1.83
6 4 12 1.72 2.97
-4 12 -6 -1.48 2.22
6 4 12 -0.55 1.8
-12 -6 4 -2.8 2.27
6 -4 -12 1.63 2.11
6 -4 -12 -3.8 2.09
-4 -12 6 0.21 2.12
-4 -12 6 1.09 2.13
-4 -12 6 -3.23 3.28
-6 4 -12 -1.97 2.3
12 -6 -4 -1.99 2.32
-6 4 -12 -4.46 2.31
12 -6 -4 -1.56 2.75
-12 6 -4 0.06 2.61
-12 6 -4 -6.01 2.06
-6 -4 12 -0.98 2.11
12 6 4 -3.8 2.35
-12 6 -4 -1.25 2.52
-6 4 -12 0.67 2.38
-6 -4 12 -0.37 2.39
4 12 6 -1.93 2.15
4 -12 -6 -0.24 2.16
4 -12 -6 -8.11 2.79
4 12 6 0.51 1.74
4 12 6 1.68 2.25
6 -4 -12 -2.97 2.45
-4 12 -6 -1.4 2.55
-4 12 -6 -3.02 2.17
-12 -6 4 -1.21 2.35
6 4 12 -1.1 2.12
-12 6 -4 -1.31 2.62
4 12 6 0.04 2.21
-6 -4 12 1.72 3.25
-6 4 -12 0.84 2.32
-6 4 -12 -2.99 2.65
8 4 -12 10.25 2.87
-8 -4 -12 12.16 2.89
-4 12 8 15.65 3.05
12 -8 4 17.38 3.43
-8 -4 -12 13.96 2.61
-4 12 8 9.51 2.41
8 -4 12 9.59 3.68
8 -4 12 10.57 3.66
4 12 -8 14.78 2.86
8 4 -12 16.55 2.85
-12 8 4 9.95 2.67
-8 -4 -12 16.78 3.01
-8 -4 -12 14.66 2.92
12 8 -4 12.35 2.48
-4 -12 -8 15.25 2.75
-4 -12 -8 15.92 2.74
-4 -12 -8 16.54 3.04
8 4 -12 13.88 3.26
-4 12 8 20.36 2.75
-12 -8 -4 9.27 2.95
4 -12 8 8.53 2.17
4 -12 8 13.73 3
-12 -8 -4 9.63 2.75
12 -8 4 12.76 3.31
-12 8 4 9.67 3
4 12 -8 8.8 3.32
12 8 -4 10.22 3
12 8 -4 14.46 3
-8 4 12 12.21 2.76
-8 4 12 13.59 3.73
-8 4 12 11.75 3.27
-4 -12 -8 15.3 3.01
4 -12 8 8.13 3.32
-12 -8 -4 12.53 2.86
-4 12 8 16.19 2.77
-12 -8 -4 9.66 2.61
-8 4 12 12.51 2.78
-12 -8 -4 11.54 3.11
-12 8 4 11.37 2.9
-12 8 4 13.04 2.78
4 -12 8 8.49 3.68
4 12 -8 12.06 2.14
-8 4 12 13.08 2.39
8 -4 12 10.87 2.69
4 12 -8 15.6 2.7
12 8 -4 11.45 2.67
-12 8 4 7.04 2.55
-4 -12 8 14.03 2.85
4 12 8 16.78 2.94
-4 -12 8 12.24 2.66
4 12 8 15.93 2.81
4 12 8 16.38 2.96
-12 -8 4 10.47 2.8
-12 -8 4 17.96 3.55
-12 8 -4 15.3 2.61
12 8 4 11.72 2.61
-12 8 -4 11.35 3.19
-12 8 -4 15.35 2.92
-8 -4 12 14.49 3.07
8 4 12 17.22 2.55
8 4 12 12.02 2.72
8 4 12 15.31 3.22
4 -12 -8 11.78 2.93
4 -12 -8 16.33 2.61
4 -12 -8 15.84 2.89
-4 12 -8 11.37 2.66
-4 -12 8 13.1 2.9
-4 12 -8 17.36 3.04
-4 12 -8 12.16 3.11
8 4 12 14.24 3.61
12 -8 -4 12.28 2.87
4 12 8 15.63 2.57
-12 -8 4 12.21 2.86
-12 -8 4 13.23 2.73
12 -8 -4 13.02 3.55
8 -4 -12 15.67 2.68
8 -4 -12 11.77 2.7
-12 8 -4 13.39 3.11
-8 4 -12 15.02 3.14
-8 4 -12 12.75 3
-8 4 -12 9.96 3.31
-8 4 -12 10.1 2.92
4 -12 -8 12.59 3.45
-8 -4 12 15.22 3.97
-4 -12 8 9.16 3.81
8 -4 -12 12.77 3.03
-4 12 -8 11.29 2.39
12 8 4 12.21 3.14
-8 -4 12 11.57 2.63
12 8 4 9.64 2.94
-8 4 -12 13.19 2.79
12 -10 4 8.87 3.09
12 10 -4 8.98 2.35
12 10 -4 9.29 2.6
12 -10 4 7.99 3.44
4 12 -10 9.77 2.62
10 -4 12 6.64 3.53
4 -12 10 2.28 3.92
-10 -4 -12 7.61 2.48
4 -12 10 12.05 2.87
-12 10 4 4.72 2.42
-4 12 10 9.64 2.41
-4 12 10 13.01 2.39
-4 12 10 10.54 2.66
12 -10 4 7.91 2.45
-10 4 12 9.67 2.75
12 -10 4 11.92 3.36
-12 10 4 7.46 2.81
-4 12 10 6.42 3.04
-12 10 4 7.04 2.83
4 -12 10 7.29 2.84
10 -4 12 7.16 3.54
-4 -12 -10 15.69 2.56
-4 -12 -10 8.89 2.58
-4 -12 -10 8.88 2.59
-4 -12 -10 6.96 2.89
-10 4 12 6.95 2.48
-10 4 12 6.73 3.7
-10 4 12 8.91 3.32
-4 -12 -10 9.4 2.74
-12 -10 -4 10.75 2.87
-12 -10 -4 6.66 2.84
-12 -10 -4 7.68 2.54
-10 -4 -12 10.73 2.98
12 10 -4 6.2 2.88
12 10 -4 11.45 2.82
4 12 -10 10.29 2.77
-12 10 4 10.83 2.67
-12 -10 -4 8.49 2.72
-12 10 4 5.92 2.61
10 4 -12 12.08 3.35
4 -12 10 1.36 3.35
4 12 -10 6.53 3.24
10 -4 12 9.6 2.73
-10 -4 -12 9 2.85
10 4 -12 12.23 3.03
10 4 -12 7.54 2.76
-10 -4 -12 7.9 2.82
-12 -10 -4 8.7 2.94
-10 4 12 7.38 2.18
-10 -4 12 8.83 2.81
-4 -12 10 7.13 3.85
-10 -4 12 8.41 3.8
-12 -10 4 5.6 2.79
-10 4 -12 9.57 3.01
-10 4 -12 6.99 3.03
-10 4 -12 4.67 3.11
12 -10 -4 8.85 2.91
12 10 4 4.51 3.1
-10 4 -12 7.48 2.74
-10 -4 12 8.17 2.63
12 10 4 5.26 3.12
-4 12 -10 8.51 3.03
-4 12 -10 4.6 3.21
-12 10 -4 10.36 2.44
-12 -10 4 5.67 2.71
4 -12 -10 11.28 2.95
-4 12 -10 11.74 2.43
-4 12 -10 8.25 2.59
-12 10 -4 9.57 2.83
-4 -12 10 5.6 2.59
10 4 12 11.72 2.76
10 4 12 12.3 3.17
10 4 12 10.1 3.57
-12 10 -4 11.37 3.02
4 12 10 11.83 2.46
4 12 10 12.4 2.41
4 12 10 10.01 2.77
4 12 10 10.95 3.01
4 12 10 12.58 2.68
10 -4 -12 11.9 3.09
10 -4 -12 9.72 2.58
10 -4 -12 7.12 2.72
12 -10 -4 5.98 3.54
-12 -10 4 7.02 2.54
4 -12 -10 3.93 3.22
-12 -10 4 12.28 3.67
12 -10 -4 8.88 2.71
4 -12 -10 9.51 2.73
10 4 12 11.31 2.28
12 10 4 8.36 2.48
-4 -12 10 5.78 2.78
-12 10 -4 9.99 2.92
-10 4 -12 8.31 2.88
4 -12 -10 11.5 2.33
-4 -12 10 7.49 2.6
6 -12 0 9.18 2.47
0 6 12 9.96 3.05
12 0 -6 7.85 2.26
12 0 -6 6.59 2.4
6 -12 0 6.56 2.1
-12 0 6 4.62 3.01
-12 0 6 10.41 2.85
6 12 0 7.95 2.09
6 -12 0 8.99 2.98
0 6 12 7.64 2.54
-6 -12 0 4.93 2.48
0 -6 12 6.24 2.92
0 -6 12 8.51 3.57
0 6 -12 7.14 2.23
0 6 -12 6.59 2.24
-12 0 -6 10.5 1.87
-12 0 -6 6.19 2.48
-12 0 -6 12.14 2.91
-12 0 -6 4.68 2.76
-12 0 6 6.18 2.54
-12 0 6 5.85 2.16
-12 0 6 8.53 2.27
-6 12 0 9 2.62
0 -6 -12 8.37 2.44
-6 -12 0 6.72 2.8
0 -6 -12 5.97 2.3
0 -6 12 6.86 2.14
0 -6 12 7.17 2.35
0 -6 12 5.53 2.15
-12 0 6 5.92 2.03
12 0 6 7.38 2.43
12 0 6 4.55 2.71
12 0 6 5.99 3.09
-6 12 0 10.01 2.32
0 -6 -12 8.42 2.26
0 6 12 6 1.99
0 6 12 8.69 2.64
6 12 0 8.71 2.41
6 12 0 7.31 2.39
12 0 -6 5.97 2.61
-6 -12 0 5.01 2.31
6 12 0 8.57 2.13
0 6 -12 6.44 1.93
0 6 -12 7.36 2.76
0 6 12 8.28 2.19
-6 12 0 5.82 1.65
-6 12 0 10.18 2.3
-12 0 6 4.83 1.94
-6 12 0 6.3 2.26
12 0 6 9.74 2.08
-12 2 6 -2.82 2.27
-12 2 6 -3.89 1.75
-12 2 6 1.15 2.26
-12 -2 -6 -2.95 2.6
-2 -6 -12 1.53 2.22
-12 2 6 -1.71 1.79
-12 2 6 0.7 2.96
-2 6 12 1.37 2.87
-2 6 12 1.03 2.55
6 12 -2 0.55 1.95
2 -6 12 -0.98 2.2
2 -6 12 -0.08 2.85
-12 2 6 2.75 2.7
12 -2 6 -4.39 2.76
12 2 -6 -0.95 2.12
12 2 -6 -4.52 2.32
12 2 -6 -0.21 2.43
2 6 -12 1.55 2.1
2 6 -12 1.65 2.11
2 6 -12 1.53 2.12
2 6 -12 -0.69 2.44
-2 6 12 1.55 1.87
-12 2 6 1.14 1.96
-12 -2 -6 7.16 1.96
-12 -2 -6 0.05 2.32
-6 12 2 0.66 2.01
-2 6 12 3.97 1.84
-2 6 12 0.71 2.32
-2 -6 -12 1.06 2.16
6 -12 2 -1.17 2.29
6 -12 2 -1.3 2.35
6 -12 2 1.36 3.11
6 12 -2 -0.15 1.9
-2 -6 -12 1.01 2.09
-6 12 2 -1.61 2.3
-6 -12 -2 0.22 2.21
-6 -12 -2 -0.1 1.85
-6 -12 -2 -1.4 2.07
-6 -12 -2 2.3 1.66
-6 -12 -2 1.84 2.58
-12 -2 -6 0.77 2.63
6 12 -2 0.24 2.06
6 12 -2 -2.48 2.54
-6 12 2 2.48 2.12
-6 12 2 0.11 2.06
2 -6 12 0.52 2.22
2 -6 12 -0.38 3.35
2 -6 12 2.55 1.68
12 -2 6 -0.7 2.23
-6 12 2 1.63 1.63
12 -2 6 0.67 2.63
12 -2 6 2.36 1.6
-6 -12 2 1.82 2.04
-6 -12 2 -6.25 2.76
2 6 12 -0.65 2.24
6 -12 -2 -0.57 2.03
6 -12 -2 1.52 2.21
2 -6 -12 -0.64 1.97
-6 -12 2 2.79 2
12 -2 -6 0.85 2.26
6 -12 -2 -0.79 2.57
-12 2 -6 -0.95 2.58
-6 -12 2 -2.26 2.33
12 2 6 4.22 1.13
12 2 6 1.67 2.29
12 2 6 1.51 2.38
12 2 6 -0.66 2.87
6 12 2 0.19 2.26
12 -2 -6 0.38 2.52
12 -2 -6 0.35 2.05
-6 12 -2 -0.87 2
-6 12 -2 0.23 2.36
2 6 12 1.83 1.93
-2 6 -12 -0.61 2.09
6 12 2 -0.78 2.2
-2 6 -12 3.12 2.55
-2 6 -12 0.38 2.58
-6 12 -2 0.31 2.08
6 12 2 0.19 1.92
-2 -6 12 -0.59 2.57
-2 -6 12 0.53 3.35
6 12 2 -0.06 1.77
-12 2 -6 -1.13 2.55
-12 -2 6 -3.12 1.9
-12 -2 6 4.88 3
-12 2 -6 -3.18 1.46
-12 2 -6 -1.17 2.35
2 6 12 0.68 1.92
2 6 12 -0.01 2.37
2 6 12 1.4 2.6
-2 6 -12 -0.72 2.06
2 -6 -12 0.51 2.28
2 -6 -12 2.32 2.04
-12 -2 6 0.59 2.32
-2 6 -12 1.38 1.76
-2 -6 12 0.97 2.22
6 12 2 2.25 2.11
-12 -2 6 -1.37 2.02
-4 -6 -12 0.75 2.26
-12 4 6 0.14 2.7
-6 12 4 0.53 2.05
12 -4 6 -4.03 2.31
12 4 -6 -2.39 2.08
12 4 -6 -5.06 2.27
6 12 -4 -3.3 1.78
6 -12 4 -3.91 2.31
-12 4 6 1.08 1.81
6 -12 4 -2.7 3.16
4 -6 12 -6.08 3.07
4 -6 12 -9.03 3.06
6 -12 4 -5.19 2.51
-4 6 12 -2.11 2.62
-12 -4 -6 -3.59 2.03
-12 4 6 -1.14 2.32
4 6 -12 -3.18 2.18
-6 12 4 -1.94 1.72
4 -6 12 -2.54 2.37
-6 -12 -4 0.38 1.91
-6 -12 -4 0.05 2.51
-4 6 12 -0.24 2.07
-12 -4 -6 0.08 2.43
-12 -4 -6 -1.95 2.49
-12 4 6 -3.17 2.19
-12 4 6 -0.63 1.69
-6 12 4 0.86 1.92
-4 -6 -12 0.29 2.09
-12 4 6 -2.16 1.88
-4 6 12 -1.09 2.23
-4 6 12 -1.45 3.02
-6 -12 -4 -0.96 2.49
-6 -12 -4 1.11 1.97
-6 -12 -4 -3.03 2.17
-12 4 6 -3.61 2.22
12 -4 6 -4.75 2.17
12 -4 6 2.15 2.89
-12 -4 -6 -2.73 2.44
-4 -6 -12 -2.36 2.08
-4 -6 -12 -2.4 2.18
12 4 -6 -1.69 2.45
-4 6 12 -0.41 1.71
4 -6 12 -2.02 2.22
6 12 -4 -3.97 2.81
4 6 -12 -2.82 2.03
4 6 -12 0.78 1.91
4 6 -12 -0.04 2.48
6 12 -4 -1.05 2.09
6 12 -4 -0.17 2.13
-6 12 4 -1.66 2.55
12 -4 -6 -1.66 2
6 12 4 -4.26 2.16
-12 4 -6 -1.87 2.6
-6 12 -4 -0.43 2.53
-6 12 -4 1.17 1.69
4 -6 -12 -1.41 2.4
-6 12 -4 -3.24 2.09
-6 12 -4 -0.38 2.15
-12 4 -6 -5.87 2.32
-12 4 -6 -1.4 2.46
6 -12 -4 -0.34 2.7
-4 -6 12 -4.28 2.26
-4 -6 12 -0.65 2.08
-4 -6 12 0.08 3.42
-12 -4 6 3.31 3
6 12 4 -1.28 2.14
6 12 4 0.61 1.89
12 -4 -6 -4.12 2.38
-4 6 -12 -0.3 2.29
-4 6 -12 0.76 2.19
-4 6 -12 -6.85 2.58
-4 6 -12 -3.24 2.54
-6 -12 4 -1.77 2.1
-6 -12 4 0.54 2.02
-6 -12 4 -0.2 1.97
-12 -4 6 -2.33 2.34
-12 -4 6 -0.84 2.46
-12 -4 6 -1.28 2.07
4 -6 -12 -0.54 1.99
4 -6 -12 -3.45 2.09
6 12 4 -0.43 2.31
12 4 6 -3.93 1.96
12 4 6 -0.39 2.65
12 4 6 -7 2.86
4 6 12 -2.1 2.15
4 6 12 1.39 2.56
4 6 12 1.26 2.12
6 -12 -4 -4.73 2.23
6 -12 -4 0.2 2.14
4 6 12 -4.06 1.98
-6 -12 4 -5.6 3.17
4 6 12 -1.39 1.78
6 -12 6 -1.73 3.46
-12 6 6 -4.23 2.25
6 -12 6 -4.25 2.72
6 12 -6 -1.52 2.22
-6 -12 -6 -0.81 2.32
-6 -12 -6 -1.35 2.11
-6 -12 -6 -0.77 2.26
-6 12 6 0.26 1.91
-6 12 6 0.78 1.94
-6 12 6 -0.1 2.28
6 -6 12 -0.5 2.31
-6 -6 -12 6.01 2.56
12 -6 6 -3.31 2.81
12 6 -6 -2.2 2.17
-12 -6 -6 -3.57 2.11
-12 -6 -6 0.85 2.6
-12 -6 -6 -2.06 2.53
-6 6 12 -0.26 1.77
12 6 -6 -2.2 2.5
-6 6 12 -0.06 3.19
-6 6 12 0.47 2.28
6 -12 6 -0.56 2.21
6 -12 6 -4.02 2.39
6 12 -6 -5.85 2.8
-6 6 12 -0.3 2.87
-6 -12 -6 1.44 2.31
6 12 -6 -3.69 1.75
-6 -6 -12 0.84 2.13
-12 6 6 0.39 2.34
-12 6 6 -2.19 2.05
-12 6 6 0.21 2.01
-12 6 6 0.34 2.83
6 6 -12 -1.88 2.23
6 6 -12 -0.41 2.71
-6 -12 -6 -0.43 1.96
-6 -6 -12 -1.07 2.49
6 -6 12 -3.53 3.07
6 -6 12 -3.33 3.28
6 6 -12 0.85 2.38
12 -6 6 -1 2.26
12 6 -6 -1.59 2.51
12 -6 6 2.78 3.08
-6 -6 -12 -0.07 0.69
6 12 -6 0.19 2.07
-12 6 6 1.59 1.69
-12 6 6 -0.99 2.36
-6 6 12 -4.14 2.26
-6 12 6 -3.43 2.28
-6 -12 6 0.37 2
6 -6 -12 1.76 2.37
-6 -6 12 -1.68 2.35
6 12 6 -0.65 2.41
-6 -6 12 1.19 3.54
-6 6 -12 -1.59 2.39
6 6 12 -0.02 2
-6 -12 6 -3.45 3.33
6 -6 -12 -4.98 2.2
6 6 12 -2.28 2.18
6 -6 -12 -1.34 2.05
-6 12 -6 -0.18 2.55
-12 6 -6 -2.18 2.7
12 -6 -6 -1.8 1.94
12 -6 -6 0.92 3.06
6 12 6 -2.91 2.38
12 -6 -6 -1.46 2.52
-6 6 -12 -2.58 2.57
6 -12 -6 -3.92 2.9
-6 -6 12 2.43 2.27
6 12 6 -0.28 2.02
6 -12 -6 0.59 2.37
12 6 6 -1.43 2.56
12 6 6 -5.02 2.88
-12 -6 6 1.97 2.76
-12 -6 6 -1.44 2.23
-12 -6 6 -5.45 2.18
6 6 12 2.7 2.41
6 6 12 1.75 2.8
-6 12 -6 -3.9 2.34
-6 12 -6 -3.16 2.34
-6 6 -12 -3.37 2.62
6 -12 -6 -0.37 0.34
-6 -12 6 -6.87 2.39
-6 -12 6 -0.09 2.23
-6 6 -12 1.14 2.43
12 6 6 -1.16 2.05
-12 6 -6 -2.33 2.28
-6 12 -6 1.32 1.85
-12 6 -6 2.27 2.68
6 -12 -6 -2.7 2.41
-12 6 -6 0.86 2.66
-12 6 -6 -1.63 2.25
-12 -6 6 -0.19 2.42
-12 -6 6 4.04 3.13
8 6 -12 5.48 2.55
8 6 -12 2.8 2.56
8 -6 12 0.46 3.56
12 8 -6 4.99 2.68
12 8 -6 4.35 2.44
12 -8 6 6.82 3.25
-8 6 12 2.06 1.91
-8 6 12 3.7 2.4
-8 6 12 4.53 3.47
-12 -8 -6 5.12 2.69
-12 -8 -6 4.54 2.53
6 12 -8 3.78 2.3
6 12 -8 4.78 2.49
12 8 -6 3.77 2.75
-12 8 6 -2.35 2.41
-12 8 6 3.07 2.32
-12 8 6 2.94 2.46
-8 -6 -12 6.75 2.77
6 12 -8 3.3 3.03
-8 6 12 3.91 2.46
8 6 -12 8.16 3.07
6 12 -8 2.95 1.83
8 -6 12 4.38 2.51
12 -8 6 4.38 3.29
-12 -8 -6 5.45 2.9
-6 12 8 3.17 2.2
-6 12 8 9.79 2.27
-8 6 12 3.7 3.1
-6 -12 -8 6.62 2.69
-6 -12 -8 2.22 2.42
-6 -12 -8 6.31 2.43
-6 -12 -8 3.38 2.36
-6 12 8 4.71 2.74
6 -12 8 2.99 2.66
-12 -8 -6 3.31 2.45
-12 -8 -6 4.45 2.52
-8 -6 -12 6.94 2.46
-8 -6 -12 5.53 2.62
-8 -6 -12 4.16 2.59
-6 12 8 3.44 2.41
-12 8 6 3.38 2.91
6 -12 8 3.38 3.22
12 -8 6 4.29 2.4
8 -6 12 -0.37 3.33
-12 8 6 1.99 2.36
6 -12 8 1.6 3.63
-6 -12 8 4.71 2.46
-12 8 -6 5.83 2.72
-6 -12 8 0.45 2.64
-12 8 -6 5.05 2.76
-12 -8 6 5.87 3.48
-8 -6 12 6.6 3.68
-8 6 -12 6.09 2.61
-8 6 -12 6.4 2.83
-8 6 -12 3.22 2.71
-8 6 -12 0.32 2.9
-6 -12 8 3.1 3.64
-12 8 -6 8.98 2.5
-12 8 -6 5.46 2.95
6 12 8 4.22 2.68
6 -12 -8 2.61 3.12
-8 -6 12 3.84 2.73
-8 -6 12 3.56 2.37
12 8 6 2.85 2.17
12 8 6 3.01 2.77
12 8 6 4.45 3.07
8 6 12 6.46 2.81
8 6 12 2.75 3.28
-8 6 -12 -0.33 2.79
6 12 8 5.36 2.18
-6 12 -8 3.82 2.78
-6 12 -8 4.74 2.66
-6 -12 8 1.35 2.22
6 -12 -8 4.83 2.19
6 -12 -8 6.39 2.54
12 -8 -6 1.2 3.22
-6 12 -8 3 2.07
-6 12 -8 1.46 2.46
8 -6 -12 3.79 2.78
-12 -8 6 2.65 2.41
-12 -8 6 4.99 2.75
-12 -8 6 2.04 2.5
12 -8 -6 5.06 2.73
8 -6 -12 4.62 2.35
8 -6 -12 2.07 2.47
6 12 8 3.42 2.61
-12 8 -6 4.49 2.94
8 6 12 5.4 2.46
6 -12 -8 2.98 2.71
8 6 12 5.27 2.25
12 -10 6 0.93 0.47
-6 -12 -10 0.86 2.51
-12 10 6 -0.73 2.25
-10 6 12 -1.94 1.84
-10 -6 -12 0.93 2.39
-10 -6 -12 -1.41 2.57
10 -6 12 -1.72 3.26
12 10 -6 -0.56 2.06
-6 12 10 0.52 2.2
-6 12 10 6.48 2.11
-6 -12 -10 4.59 2.48
-6 -12 -10 -0.04 2.52
12 10 -6 0.32 2.67
12 -10 6 1.8 3.25
6 -12 10 0.75 2.53
-6 12 10 -0.68 2.69
-12 10 6 2.34 2.36
-10 6 12 1.53 2.37
-10 6 12 3.35 3.57
-10 6 12 -0.04 3.05
12 -10 6 4.33 3.55
6 -12 10 0.14 2.71
6 -12 10 -1.71 3.33
6 -12 10 -4.89 3.68
6 12 -10 -0.58 2.34
6 12 -10 0.07 2.49
6 12 -10 -2.28 3.06
-10 -6 -12 4.83 2.68
-10 -6 -12 5.32 2.65
-12 10 6 0.62 2.44
-12 10 6 -0.37 2.77
-6 12 10 -0.67 2.35
-6 -12 -10 -1.31 2.35
-12 -10 -6 -1.25 2.62
10 -6 12 -2.76 2.39
-10 6 12 -1.51 2.38
10 -6 12 -8.96 3.44
10 6 -12 -1.74 2.43
10 6 -12 1.56 3.06
-12 -10 -6 0.79 2.55
12 10 -6 3.29 2.48
12 10 -6 -0.49 2.62
-12 -10 -6 -3.78 2.65
-12 10 6 -3.02 2.31
-12 -10 -6 1.53 2.84
-12 -10 -6 -0.09 2.6
12 -10 -6 -2.45 3.14
12 -10 -6 1.12 2.36
10 6 12 3.01 3.52
10 -6 -12 -3.04 2.45
10 6 12 -0.35 2.24
-10 6 -12 2.18 2.9
12 10 6 -0.8 2.8
12 10 6 -2.87 3.04
-12 10 -6 1.3 2.85
-6 -12 10 -0.35 2.8
-6 -12 10 0.31 3.07
-10 6 -12 -0.98 2.9
-10 6 -12 -1.22 2.92
-10 6 -12 -2.41 2.69
10 -6 -12 1.5 2.81
10 -6 -12 -1.6 2.3
-12 -10 6 -1.88 2.37
6 -12 -10 -5.93 2.94
-12 10 -6 0.83 2.81
12 -10 -6 -2.44 2.73
6 -12 -10 2.97 2.85
6 12 10 2.68 2.63
6 12 10 -3.37 2.7
-10 -6 12 1.62 3.87
-10 6 -12 -0.37 2.44
6 12 10 2.35 2.02
6 12 10 -1.12 2.18
-10 -6 12 2.03 2.73
-10 -6 12 -2.3 2.34
-6 -12 10 -0.9 4.08
-6 12 -10 2.64 2.3
-6 -12 10 -1.22 2.38
-12 -10 6 3.62 3.79
-6 12 -10 -0.91 2.85
10 6 12 0.95 2.45
10 6 12 3.44 2.93
-12 10 -6 4.13 2.86
12 10 6 3.06 2.13
6 -12 -10 1.06 2.45
-12 -10 6 2.49 2.49
-6 12 -10 -2.75 2.45
-6 12 -10 1.07 2.88
6 -12 -10 3.26 2.01
-12 -10 6 0.33 2.69
-6 -12 10 0.68 2.34
0 8 -12 40.04 4.6
0 -8 -12 34.61 4.89
0 -8 12 36.53 4.41
0 -8 12 39.61 4.94
0 8 -12 30.52 4.66
0 -8 12 38.08 4.94
-12 0 -8 46.66 4.14
-12 0 -8 32.32 4.19
-12 0 -8 43.54 5.75
-12 0 8 28.47 4.87
-8 -12 0 35.99 4.8
-8 -12 0 39.78 4.5
-8 -12 0 26.86 4.15
-8 -12 0 38 5.48
-8 12 0 27.03 3.96
-8 12 0 41.19 5.16
-8 12 0 40.27 4.92
-8 12 0 44.3 5.46
0 -8 -12 47.43 4.9
0 -8 -12 47.51 4.53
0 8 -12 34.11 4.67
8 -12 0 32.77 4.37
8 -12 0 37.16 5.18
0 -8 12 26.36 4.42
0 -8 12 31.4 5.2
0 8 12 39.78 5.08
12 0 8 28.51 4.64
8 -12 0 42.52 5.86
8 12 0 34.95 4.46
0 8 12 37.65 5.21
-12 0 8 29.11 4.09
8 12 0 32.4 4.34
8 12 0 40.73 5.43
12 0 -8 34.58 4.31
12 0 -8 38.47 4.68
12 0 8 39.53 4.37
12 0 8 30.06 4.09
12 0 8 42.03 5.69
0 8 12 45.16 4.29
0 8 -12 36.48 5.12
-12 0 -8 28.29 4.47
-12 0 8 34.66 4.53
0 8 12 44.34 4.58
8 12 0 36.74 4.49
-8 -12 -2 22.81 3.01
12 -2 8 27.42 3.28
12 -2 8 16.52 3.12
-8 -12 -2 22.08 3.29
12 2 -8 26.43 3.26
12 2 -8 17.93 3.17
-8 12 2 21.87 3.33
-2 -8 -12 28.71 3.13
-2 -8 -12 25.88 2.97
8 -12 2 22.16 3.42
-8 12 2 21.07 3.6
-2 -8 -12 26.17 3.29
8 12 -2 23.95 3.06
8 12 -2 23.15 2.98
-12 -2 -8 22.35 2.88
-12 -2 -8 16.33 3.22
12 2 -8 18.97 3.57
-12 -2 -8 16.97 3.62
12 2 -8 20.87 3.44
2 8 -12 22.37 3.12
-12 2 8 18.23 4.1
-12 2 8 23.86 3.8
2 -8 12 14.18 4.2
12 -2 8 19.95 3.74
-12 2 8 18.54 3.25
-12 2 8 23.52 2.93
-12 2 8 14.85 2.85
2 8 -12 20.96 3.18
8 12 -2 24.14 3.4
-8 12 2 15.92 2.74
-2 8 12 21.48 3.34
-8 -12 -2 19.9 3.29
2 -8 12 20.52 3.29
-12 -2 -8 21.77 3.65
-2 8 12 26.15 3.73
-2 8 12 23.21 3.08
-2 -8 -12 20.93 3.28
8 -12 2 24.14 3.5
8 -12 2 23.47 4.03
12 -2 8 16.09 3.81
2 -8 12 19.9 3.3
2 8 -12 24.02 3.03
-8 12 2 29.15 3.32
2 8 -12 18.6 3.78
-8 12 2 28.32 3.54
2 -8 12 20.75 3.84
-2 8 -12 20.7 3.45
2 8 12 22.17 2.94
2 8 12 32.48 3.81
-8 -12 2 26.25 3.03
12 2 8 18.54 3.14
-2 -8 12 18.28 4.38
12 2 8 21.7 3.67
-2 8 -12 19.29 2.93
2 8 12 27 3.16
-8 12 -2 22.81 3.35
-8 12 -2 22.53 3.51
-8 -12 2 21.21 3.23
-8 -12 2 19.5 3.24
2 8 12 20.84 3.45
8 12 2 23.19 3.05
-2 8 -12 21.11 3.13
8 12 2 19.79 3.38
12 -2 -8 24.5 3.59
12 -2 -8 23.31 3.1
-12 -2 8 23.75 4.37
2 8 12 31.08 3.71
12 2 8 23.74 3
-12 -2 8 20.94 3.38
12 2 8 20.81 3.93
-12 2 -8 17.14 3.39
-12 2 -8 20.02 3.6
8 -12 -2 19.85 3.17
-2 -8 12 21.56 3.14
-2 -8 12 21.41 3.25
2 -8 -12 24.08 3.35
-2 -8 12 21.32 3.12
2 -8 -12 22.05 3.28
2 8 12 30.2 3.49
-2 -8 12 16.98 3.54
-12 -2 8 21.63 3.03
8 -12 -2 25.45 3.34
8 -12 -2 19.44 3.69
-12 2 -8 16.3 3.61
-2 8 -12 14.26 3.65
-8 -12 2 23.14 3.91
-8 12 -2 26.42 3.44
8 12 2 23.99 3.2
4 -8 12 12.23 3.93
-12 4 8 9.53 2.23
-12 4 8 11.96 2.4
8 12 -4 11.88 3.25
4 8 -12 14.4 2.66
4 -8 12 13.84 2.95
4 -8 12 9.64 3.54
-12 4 8 10.69 2.77
-12 -4 -8 14.09 2.57
-12 -4 -8 13.53 3.02
-8 12 4 13.11 2.71
-8 12 4 13.53 2.79
-8 12 4 12.66 2.43
-8 12 4 18.49 2.71
-8 -12 -4 16.19 2.94
4 -8 12 13.33 2.88
8 -12 4 13.61 2.42
8 -12 4 15.17 3.08
8 -12 4 13.34 3.24
12 4 -8 10.6 2.77
12 4 -8 13.27 2.7
12 4 -8 13.36 3.12
8 12 -4 14.61 2.93
12 -4 8 10.48 3.5
-4 -8 -12 15.5 2.71
-4 8 12 13.78 2.53
-4 8 12 13.51 2.81
-4 8 12 15.13 3.34
-12 4 8 12.94 3.79
-12 4 8 11.92 3.3
-8 -12 -4 17.52 3.03
-4 -8 -12 15.94 2.58
4 8 -12 11.44 2.59
4 8 -12 9.38 3.08
-4 -8 -12 15.26 2.79
-8 -12 -4 10.58 2.24
8 -12 4 15.76 3.81
-8 -12 -4 10.89 2.45
12 -4 8 9.76 2.76
-12 -4 -8 9.3 3.11
-8 12 4 10.55 3.09
-4 -8 -12 17.84 2.84
-12 -4 -8 11.9 3.08
8 12 -4 13.11 2.71
8 12 -4 14.33 2.48
-4 8 -12 9.78 3.24
-8 12 -4 13.72 2.95
-12 -4 8 12.24 2.67
12 -4 -8 12.81 2.53
-4 -8 12 15.1 2.83
-4 -8 12 12.11 2.7
4 -8 -12 16.55 3
4 -8 -12 14.47 2.74
-12 -4 8 11.73 3.66
4 8 12 15.73 2.78
-4 8 -12 9.76 3.15
-8 -12 4 12.82 3.65
-8 12 -4 15.23 2.96
12 4 8 13.17 3.47
4 8 12 14.1 2.39
4 8 12 17.82 2.63
12 -4 -8 11.63 2.94
-12 4 -8 14.05 3.01
-12 4 -8 11.31 3.11
-12 4 -8 14.51 3.34
8 12 4 14.22 2.52
-8 12 -4 15.15 3.29
-12 -4 8 11.91 2.87
12 4 8 13.89 2.64
12 4 8 11.48 2.81
8 -12 -4 10.14 3.35
8 12 4 12.08 2.9
8 12 4 12.45 2.78
12 4 8 14.31 3.54
-8 -12 4 12.39 2.85
-8 -12 4 15.65 2.66
-8 -12 4 11.91 2.67
-4 -8 12 12.03 2.5
-4 -8 12 15.81 4.05
-4 8 -12 14.66 2.67
4 8 12 15.22 3.12
8 -12 -4 12.17 2.84
8 -12 -4 16.24 2.74
-4 8 -12 12.75 2.84
8 12 -6 4.85 2.56
-12 -6 -8 3.73 2.47
8 -12 6 5.22 2.29
8 -12 6 5.54 2.72
8 -12 6 4.38 3.07
8 -12 6 4.38 3.51
8 12 -6 3.49 2.03
8 12 -6 5.34 2.52
-12 6 8 3.68 2.3
-6 -8 -12 6.24 2.38
6 -8 12 0.23 3.21
-8 12 6 2.29 2.05
-6 -8 -12 6.38 2.59
12 -6 8 5.7 3.2
6 8 -12 4.79 2.24
12 6 -8 3.23 2.62
-12 -6 -8 1.79 2.67
-12 -6 -8 2.32 2.78
-12 -6 -8 -2.43 2.69
6 -8 12 2.08 2.54
6 -8 12 1.96 2.8
-8 -12 -6 4.6 2.28
-8 -12 -6 1.43 0.97
-8 -12 -6 4.08 2.56
6 8 -12 5.44 2.9
12 6 -8 5.63 2.58
12 6 -8 4.03 2.91
-8 12 6 11.33 2.19
-12 6 8 2.23 3.06
-8 -12 -6 3.88 2.56
-8 -12 -6 4.08 2.64
6 -8 12 0.42 3.88
6 8 -12 3.89 2.43
-6 -8 -12 4.88 2.58
12 -6 8 3.37 3.26
-8 12 6 6 2.43
-8 12 6 2.84 2.59
12 -6 8 1.41 2.45
-12 6 8 7.33 1.79
8 12 -6 3.66 2.95
-6 8 12 4.75 3.03
-12 6 8 3.57 2.53
-6 8 12 4.79 2.31
-6 8 12 2.49 2.53
-6 8 -12 0.71 2.83
6 -8 -12 6.01 2.66
6 8 12 7.81 2.38
-6 8 -12 -3.89 2.92
6 8 12 7.09 2.76
-6 -8 12 4.76 2.13
-12 -6 8 1.19 2.24
-8 12 -6 2.51 2.56
-12 6 -8 3.92 2.69
-12 6 -8 2.82 2.85
-12 6 -8 3.32 2.89
6 8 12 5.51 2.54
-8 12 -6 8.07 2.27
-6 -8 12 3.02 2.49
-8 12 -6 2.85 2.79
-8 -12 6 3.61 2.24
-8 -12 6 6.92 3.61
-6 -8 12 2.35 2.7
-12 -6 8 6.28 2.75
-12 6 -8 2.34 2.75
-6 -8 12 9.69 4.08
-6 8 -12 2.86 2.46
-6 8 -12 3.53 2.6
-8 12 -6 3.3 2.87
8 12 6 2.5 2.17
8 12 6 3.48 2.59
12 -6 -8 5.6 2.21
-8 -12 6 4.27 2.43
6 8 12 5.94 2.15
6 -8 -12 3.04 2.46
8 -12 -6 3.34 2.48
8 -12 -6 1.3 3.11
-12 -6 8 7.72 3.53
-8 -12 6 -0.44 2.61
12 6 8 1.07 2.14
12 6 8 5.17 2.51
12 6 8 2.24 3.01
12 6 8 4.5 3.24
8 12 6 4 2.66
12 -6 -8 5.59 2.81
-12 -6 8 2.98 2.3
-12 -6 8 4.85 2.74
8 -12 -6 2.85 2.75
-12 6 -8 7.35 2.43
12 -6 -8 2.91 3.21
8 -12 8 24.81 4.34
8 12 -8 25.04 3.61
8 12 -8 28.02 4.22
-12 8 8 18.56 3.49
8 -12 8 25.8 3.95
12 8 -8 25.29 4.01
8 8 -12 26.18 3.56
8 8 -12 25.08 4.05
12 -8 8 25.3 4.38
12 8 -8 27.44 3.67
-12 -8 -8 26.15 3.64
-12 -8 -8 26.79 3.78
-12 -8 -8 25.3 3.88
-12 -8 -8 21.6 3.59
-8 8 12 27.14 3.59
-8 12 8 20.68 3.25
8 12 -8 24.03 3.3
-12 8 8 27.28 3.56
12 8 -8 29.01 3.73
-8 -8 -12 25.38 3.74
-12 8 8 21.87 3.59
-12 8 8 17.69 4.01
-8 -12 -8 30.48 3.57
-8 12 8 27.11 3.76
-8 12 8 20.58 3.88
-8 -8 -12 24.66 3.72
8 -8 12 24.91 3.64
-8 8 12 24.61 3.64
-8 8 12 25.98 4.18
12 -8 8 15.2 3.4
12 -8 8 22.82 4.28
-8 -12 -8 32.57 3.83
-8 -8 -12 32.12 3.64
-8 -12 -8 23.73 3.7
8 -12 8 21.66 4.75
-8 -12 -8 22.09 3.56
-8 -8 -12 30.01 3.62
8 -8 12 15.55 4.27
8 -8 12 13.77 4.78
-8 12 -8 28.53 3.38
-8 -8 12 22.82 3.42
12 8 8 19.91 3.29
-8 8 -12 19.28 3.92
-8 -8 12 20.39 3.72
8 -12 -8 26.18 3.89
8 -8 -12 25.91 3.88
-8 -12 8 24.14 3.69
-8 -12 8 26.45 3.55
-8 -12 8 22.43 3.38
-8 -12 8 23.38 4.83
-12 8 -8 24.44 3.64
8 -8 -12 28.79 3.71
12 -8 -8 20.3 4.28
12 8 8 24.28 4.27
8 -12 -8 26 3.79
8 -12 -8 21.51 4.34
-8 -8 12 31.18 4.04
-8 -8 12 31.63 4.96
-8 8 -12 21.41 3.55
-8 8 -12 25.06 3.81
-8 8 -12 14.2 3.96
8 12 8 22.81 3.79
-12 8 -8 18.06 3.57
-8 12 -8 26.86 3.75
-8 12 -8 30.3 4.03
-8 12 -8 18.59 3.88
8 12 8 24.96 3.38
8 8 12 36.15 4.28
8 8 12 38.15 4.5
8 8 12 27.79 3.76
8 8 12 27.58 4.18
8 12 8 22.86 3.91
12 -8 -8 26.25 3.79
-12 -8 8 27.26 4.69
-12 -8 8 29.77 4
-12 -8 8 20.91 3.34
-12 -8 8 24.36 3.41
-12 -8 8 29.22 3.94
-12 8 -8 23.11 3.89
-12 8 -8 24.78 3.81
-12 8 -8 21.61 3.99
12 8 8 21.87 3.84
8 -12 -8 33.35 4.32
8 -12 10 3.77 2.53
8 -12 10 2.32 2.84
10 -8 12 1.58 2.58
-12 10 8 -6.06 2.43
12 -10 8 3.77 2.5
8 -12 10 3.75 3.38
-10 -8 -12 5.14 2.78
-8 12 10 9.37 2.17
12 -10 8 0.12 3.32
12 -10 8 2.69 3.67
12 10 -8 2.57 2.61
10 -8 12 0.82 3.43
10 -8 12 3.4 3.8
10 8 -12 3.05 2.49
10 8 -12 3.49 2.45
-10 -8 -12 4.69 2.81
-8 -12 -10 4.33 2.66
-10 -8 -12 3.42 2.86
-8 -12 -10 5 2.58
-10 -8 -12 3.38 2.64
10 8 -12 3.53 3.01
-12 -10 -8 0.85 2.74
-8 12 10 2.29 2.18
12 10 -8 3.84 2.81
-10 8 12 3.75 2.6
12 10 -8 2.88 3.01
-10 8 12 0.91 3.1
-12 10 8 3.74 2.5
8 -12 10 0.09 3.9
8 12 -10 2.53 2.41
8 12 -10 1.59 2.66
8 12 -10 2.36 3.1
-8 -12 -10 3.57 2.71
-12 10 8 1.32 2.4
-10 8 12 2.06 2.51
-12 -10 -8 2.03 2.86
-12 -10 -8 -0.59 2.67
-8 -12 -10 1.48 2.53
-12 -10 -8 4.24 2.76
-8 12 10 -0.59 2.8
-12 10 8 4.08 2.98
-8 12 10 4.18 2.6
-12 -10 -8 3.2 2.77
-10 -8 12 2.21 2.86
-10 8 -12 1.33 2.75
-10 -8 12 4.21 2.15
8 12 10 2.44 2.33
-8 -12 10 1.81 4.11
8 -12 -10 4.47 3.09
-10 -8 12 1.83 2.42
8 -12 -10 1.41 3.11
-12 -10 8 2.18 2.48
-12 -10 8 4.19 3.93
-12 10 -8 7.48 2.59
12 10 8 1.95 3.26
-8 -12 10 -0.86 2.5
12 -10 -8 1.94 3.33
-10 8 -12 1.97 2.61
10 -8 -12 2.62 3.03
10 -8 -12 2.26 2.57
-12 10 -8 4.42 2.96
-10 8 -12 1.3 3.16
-10 8 -12 2.84 2.88
-12 10 -8 4.92 3
12 10 8 1.98 2.18
-8 12 -10 3.65 2.87
-12 -10 8 3.8 2.41
8 12 10 4.92 3.14
-10 -8 12 3.42 3.04
-10 -8 12 5.45 4.05
10 8 12 3.3 3.45
12 -10 -8 -0.04 3.01
-8 -12 10 4 2.33
-12 -10 8 3.01 2.96
-12 10 -8 3.62 2.79
8 -12 -10 4.96 2.56
10 8 12 4.53 2.45
12 10 8 3.06 2.8
-8 12 -10 5.15 2.53
-8 12 -10 2.83 2.75
-8 12 -10 4.21 3
-10 8 -12 2.36 3.01
-8 -12 10 1.44 3.13
8 12 10 4.08 2.82
-8 -12 10 2.21 2.94
10 8 12 3.84 2.79
10 8 12 4.1 2.49
12 -10 -8 1.96 2.24
-10 12 0 41.9 5.84
12 0 10 46.58 4.44
-10 -12 0 41.52 5.18
-12 0 -10 44.67 4.16
-10 -12 0 38.19 4.72
0 -10 12 27.04 5.06
12 0 10 34.68 4.68
12 0 10 34.11 5.04
0 -10 12 29.15 4.53
-12 0 -10 30.76 4.68
-12 0 10 28.61 4.24
-12 0 -10 40.27 5.13
-12 0 -10 45.77 6.01
-10 -12 0 28.91 4.27
0 10 -12 37.16 4.89
0 10 -12 29.46 4.3
0 10 -12 23.83 4.61
0 10 12 41.67 4.74
0 10 12 40.74 4.76
0 10 12 43.17 5.35
0 10 12 37.49 5.28
10 -12 0 39.55 4.37
10 -12 0 40.07 5.53
10 -12 0 33.14 4.79
10 12 0 39.58 4.78
10 12 0 40.69 4.82
10 12 0 32.66 4.45
0 -10 12 42.3 4.64
0 -10 12 29.81 4.05
-10 12 0 42.29 5.44
-10 12 0 35.71 5.07
10 12 0 38.98 5.61
0 -10 -12 43.94 4.58
0 -10 -12 37.34 5.15
12 0 -10 35.82 4.71
0 -10 12 29.45 3.86
0 -10 12 30.08 4.18
0 -10 -12 45.38 5.11
-12 0 10 44.21 4.71
-12 0 10 31.07 5.18
0 -10 -12 41.78 5.81
0 10 -12 29.56 4.01
12 0 10 29.87 4.05
12 0 -10 35.51 4.45
12 0 -10 42.22 4.89
-2 10 12 22.92 3.59
-2 10 12 27.32 3.91
2 10 -12 19.05 3.94
-2 -10 -12 23.67 3.5
2 10 -12 22.74 3.35
2 10 -12 21 3.3
12 -2 10 24.07 3.97
-2 -10 -12 28.92 3.43
-2 -10 -12 30.45 3.23
-2 -10 -12 26.28 3.22
-12 2 10 19.17 3.39
-12 2 10 22.91 3.15
-12 2 10 17.77 2.95
10 -12 2 22.46 3.67
2 -10 12 23.92 3.49
2 -10 12 18.61 3.38
2 -10 12 17.52 3.87
2 -10 12 21.98 4.56
12 -2 10 21.59 3.45
12 2 -10 22.14 3.84
-12 -2 -10 22.77 3.47
-10 12 2 21.71 3.8
-12 2 10 25.74 4.28
-12 2 10 22.75 3.96
-10 -12 -2 23.14 3.49
-10 -12 -2 23.13 3.29
-10 -12 -2 15.86 3.46
12 -2 10 20.03 4.28
12 2 -10 21.47 3.79
10 -12 2 27.19 3.69
10 -12 2 28.92 4.22
10 12 -2 22.95 3.17
10 12 -2 21.62 3.15
-12 -2 -10 25.7 3.92
-12 -2 -10 17.71 3.66
10 12 -2 21.95 3.73
-10 12 2 20.37 3.41
-2 10 12 23.83 3.17
-2 -10 -12 33.15 3.98
2 10 -12 21.17 3.47
12 2 -10 27.36 3.58
-12 -2 -10 27.68 3.18
-10 12 2 19.08 2.88
-10 12 2 27.78 3.56
-10 12 2 28.01 3.75
10 12 -2 23.9 3.65
10 -12 -2 23.6 3.21
2 10 12 28.96 3.22
10 12 2 22.06 3.21
10 12 2 22.73 3.51
2 -10 -12 29.5 3.73
12 -2 -10 22.33 3.54
12 -2 -10 24.1 3.34
12 -2 -10 21.19 3.32
-2 -10 12 18.54 3.32
-2 -10 12 22.11 3.34
-10 -12 2 21.41 3.42
-10 -12 2 24.21 3.27
10 -12 -2 26.06 3.58
10 -12 -2 26.43 4.01
12 2 10 29.52 3.17
12 2 10 23.57 3.46
12 2 10 23.23 3.81
-12 -2 10 16.7 3.44
-12 -2 10 22.26 3.24
-12 -2 10 22.79 4.49
-12 2 -10 20.68 3.5
-12 2 -10 18.25 3.68
-12 2 -10 14.82 3.79
-2 -10 12 22.79 3.39
2 -10 -12 22.4 3.43
2 -10 -12 27.59 4.14
10 12 2 18.63 3.59
12 2 10 23.48 4.34
-2 -10 12 22.09 4.74
-2 10 -12 20.52 3.17
-2 10 -12 22.61 3.3
-10 12 -2 24.31 3.73
-10 12 -2 23.37 3.52
-10 12 -2 22.72 3.67
2 10 12 25.29 3.28
2 10 12 26.19 3.74
2 10 12 32.02 3.74
-2 10 -12 19.18 3.94
-10 -12 2 22.71 3.94
-10 -12 2 20.33 3.47
-2 -10 12 22.15 3.3
-2 -10 12 18.67 3.66
-12 4 10 1.19 2.18
-10 -12 -4 11.76 2.71
-10 -12 -4 2.19 2.77
-12 4 10 11.97 2.37
-4 10 12 8.59 2.83
-4 10 12 6.73 3.22
-10 -12 -4 9.89 2.89
-12 -4 -10 10.59 3.03
-12 -4 -10 7.25 3.03
4 -10 12 7.95 2.71
4 -10 12 6.84 2.85
4 -10 12 4.42 3.49
4 -10 12 -2.57 4.19
4 10 -12 10.81 2.65
4 10 -12 6.61 2.58
4 10 -12 7.25 3.35
-12 4 10 6.81 2.73
12 4 -10 5.63 3.02
-4 -10 -12 8.62 2.42
-12 4 10 12.84 3.82
-12 4 10 10.71 3.44
-12 -4 -10 7.42 2.56
-10 12 4 6.39 2.25
-10 -12 -4 8.71 2.35
10 -12 4 7.16 2.99
10 -12 4 8.85 3.13
10 -12 4 5.8 3.61
10 12 -4 11.68 2.31
10 12 -4 7.82 2.51
10 12 -4 11.15 2.85
-10 12 4 15.2 2.8
-4 -10 -12 12.75 2.74
-10 12 4 9.48 2.79
-10 12 4 7.75 2.53
-10 12 4 9.15 3.06
-4 -10 -12 10.65 2.68
12 -4 10 7.78 2.76
12 -4 10 7.07 3.47
12 4 -10 8.65 3.01
-4 10 12 9.47 2.45
-4 -10 -12 12.24 2.7
-12 -4 -10 8.69 2.9
4 10 12 13.03 2.47
12 4 10 10.28 3.6
12 4 10 10.64 3.28
4 10 12 11.23 2.41
-10 -12 4 11.51 3.6
4 10 12 12.95 2.83
12 4 10 7.88 2.17
4 10 12 13.99 2.73
10 -12 -4 6.98 2.71
10 -12 -4 7.56 2.68
10 12 4 8.67 2.4
12 4 10 9.41 2.74
-4 -10 12 8.41 4.2
-4 10 -12 7.48 2.55
12 -4 -10 8.33 2.6
12 -4 -10 8.69 2.67
10 12 4 3.29 2.94
-10 12 -4 10.07 2.28
4 10 12 10.48 2.99
-10 -12 4 9.38 2.67
-10 -12 4 8.73 2.67
-4 10 -12 8.4 2.72
-4 10 -12 5.85 3.13
-4 10 -12 0.25 3.32
10 12 4 8.41 2.77
12 -4 -10 7.41 2.92
-10 12 -4 7.4 2.81
-10 12 -4 11.66 2.99
-10 12 -4 9.76 2.98
4 -10 -12 9.88 2.94
4 -10 -12 9.3 2.7
4 -10 -12 7.81 3.55
-12 -4 10 5.24 2.89
-12 -4 10 6.82 2.61
-12 -4 10 8.23 3.79
-12 4 -10 1.09 2.99
-12 4 -10 9.72 3.06
-12 4 -10 6.26 3.16
-4 -10 12 5.58 2.75
-4 -10 12 11.23 2.7
-4 -10 12 7.85 2.53
-10 -12 4 11.99 2.86
10 -12 -4 9.59 3.48
12 6 -10 0.05 2.92
6 -10 12 -9.12 3.8
6 10 -12 3.82 2.34
10 12 -6 -1.01 2.55
10 12 -6 2.15 2.51
12 6 -10 2.24 2.81
12 6 -10 0.6 2.44
-12 -6 -10 -1.07 2.43
-12 -6 -10 -0.92 2.7
10 12 -6 -4.9 2.96
-6 10 12 -0.86 3.07
12 -6 10 1.15 2.47
12 -6 10 -0.49 3.34
12 -6 10 0.46 3.41
10 12 -6 1.85 2
-6 -10 -12 2.76 2.22
6 10 -12 4.12 2.36
6 10 -12 -0.22 2.94
-6 10 12 -2.25 2.42
-10 12 6 2.07 2.56
-6 -10 -12 2.2 2.52
-12 6 10 1.47 2.47
-12 6 10 1.66 2.37
-12 6 10 -0.35 3.67
-12 6 10 1.12 3.15
-10 -12 -6 0.38 2.6
-10 -12 -6 2.54 2.74
-10 -12 -6 -0.47 2.46
-10 -12 -6 -4.19 2.47
-10 -12 -6 0.12 2.3
-12 -6 -10 2.28 2.66
10 -12 6 1.34 2.79
6 -10 12 1.44 2.62
6 -10 12 -3.38 2.76
6 -10 12 -2.51 3.38
-6 -10 -12 1.53 2.42
10 -12 6 0.77 3.16
10 -12 6 2.1 2.28
-10 12 6 1.13 2.06
-10 12 6 4.88 2.23
-10 12 6 -1.51 2.36
10 -12 6 -3.73 3.64
-6 -10 -12 -0.08 2.46
-6 10 12 -1.39 2.02
-12 -6 -10 0.25 2.77
-12 6 -10 2.93 2.45
-6 -10 12 1.73 2.71
-10 12 -6 0.11 2.61
-10 12 -6 -0.28 2.8
-12 6 -10 -4.41 2.94
-6 -10 12 -0.41 4.05
-6 10 -12 -0.01 2.33
-6 10 -12 1.71 2.64
-6 10 -12 -3.52 2.93
-6 10 -12 -5.09 2.97
-10 -12 6 1.89 2.37
-12 -6 10 -1.17 3.68
12 -6 -10 0.87 2.56
6 -10 -12 -1.93 2.87
6 -10 -12 -2.68 2.4
6 -10 -12 0.37 3.34
-10 -12 6 -1.28 2.44
-10 -12 6 -1.5 3.88
-10 12 -6 4.78 2.18
12 6 10 -0.62 2.27
12 6 10 -0.23 2.48
-12 6 -10 -0.54 2.77
-12 6 -10 0.36 2.86
6 10 12 3.11 2.26
6 10 12 3.52 2.33
6 10 12 3.07 2.72
6 10 12 4.99 3.04
10 -12 -6 -2.97 2.61
10 -12 -6 0.59 0.82
10 -12 -6 -0.49 3.38
-10 12 -6 -2.52 2.71
-6 -10 12 -0.9 2.73
-6 -10 12 1.08 2.45
-6 -10 12 0 2.17
-12 -6 10 -3.31 2.12
10 12 6 3.19 2.77
12 -6 -10 -0.21 2.65
12 -6 -10 -1.77 2.32
10 12 6 0.65 2.09
10 12 6 -6.04 2.72
-12 -6 10 -1.01 2.58
-12 -6 10 0.56 2.48
-10 -12 6 2.25 2.61
-12 -6 10 0.79 2.84
12 6 10 2.11 3.39
-12 6 -10 2.63 2.86
12 6 10 -0.16 2.97
8 10 -12 6.53 2.66
8 -10 12 -0.06 3.53
8 -10 12 1.33 3.94
12 8 -10 2.34 3.06
8 -10 12 2.36 2.99
12 8 -10 3.47 2.8
12 8 -10 4.84 2.66
-12 -8 -10 3.25 2.55
-12 -8 -10 5.5 2.8
-12 -8 -10 1.54 2.78
-12 -8 -10 4.64 2.76
10 -12 8 4.2 3.48
10 -12 8 -1.23 3.73
10 12 -8 4.92 2.73
10 12 -8 3.02 2.71
10 12 -8 2.91 2.98
8 10 -12 5.03 3
-8 10 12 4.14 2.55
-8 10 12 5.65 3.26
-8 -10 -12 3.02 2.6
12 -8 10 4.11 2.62
-12 8 10 4.51 2.5
-12 8 10 0.43 2.45
-12 8 10 3.35 3.24
-10 -12 -8 1.99 2.82
-10 -12 -8 3.27 2.75
-10 -12 -8 1.69 2.5
-10 -12 -8 2.76 2.58
-10 -12 -8 3.66 2.45
12 -8 10 3.22 3.61
10 -12 8 3.38 2.9
8 -10 12 1.75 2.58
-8 10 12 5.56 2.5
-8 -10 -12 3.15 2.62
12 -8 10 0.87 3.38
-8 -10 -12 3.11 2.51
8 10 -12 2.39 2.48
-10 12 8 2.32 2.23
-10 12 8 1.13 2.25
-10 12 8 2.59 2.6
-10 12 8 1.79 2.76
-8 -10 -12 4.61 2.63
-12 8 -10 3.61 3.09
-10 12 -8 2.26 2.9
-10 12 -8 5.09 2.51
-8 -10 12 3.1 2.96
-10 -12 8 -2.49 2.57
-8 -10 12 4.48 2.53
-8 -10 12 1.17 2.12
-12 8 -10 2.72 2.67
-10 12 -8 5.34 2.8
-10 -12 8 3.65 2.82
-8 10 -12 2.07 3.07
-8 10 -12 0.78 3.02
-10 -12 8 2.94 3.98
-12 8 -10 5.44 2.97
-12 8 -10 3.01 2.83
8 -10 -12 4.73 2.82
8 -10 -12 3.31 2.63
8 -10 -12 3.17 3.41
-10 -12 8 2.98 2.32
12 8 10 5.43 2.42
12 8 10 5.32 2.66
12 8 10 6.51 2.95
12 8 10 2.16 3.48
-10 12 -8 3.89 2.77
-12 8 -10 4.14 2.65
8 10 12 6.16 2.27
8 10 12 4.47 2.4
8 10 12 2.59 2.74
8 10 12 2.84 3.09
10 -12 -8 5.45 2.97
10 -12 -8 2.72 2.27
10 -12 -8 3.23 2.58
10 -12 -8 2.91 3.08
-8 -10 12 6.71 2.97
-12 -8 10 2.9 2.83
-12 -8 10 1.01 2.88
-12 -8 10 1.18 2.55
-12 -8 10 1.89 2.3
-12 -8 10 4.23 3.93
10 12 8 1.81 2.28
10 12 8 6.35 2.98
10 12 8 4.68 3.05
12 -8 -10 4.42 2.94
12 -8 -10 4.36 2.74
12 -8 -10 3.33 3.43
-8 -10 12 4.37 4.11
-8 10 -12 4.47 2.54
-8 10 -12 3.49 2.81
-12 -10 -10 6.39 2.73
-12 -10 -10 2.75 2.83
-12 -10 -10 3.06 2.89
-12 -10 -10 1.31 2.72
10 -10 12 3.08 3.5
10 -10 12 -0.17 4.05
10 10 -12 6.79 2.61
12 -10 10 3.32 2.62
12 -10 10 2.81 3.54
12 -10 10 2.33 3.79
12 10 -10 2.25 2.84
-12 10 10 3.89 2.53
-12 10 10 0.47 2.53
-10 -12 -10 5.5 2.84
-10 -12 -10 2.46 2.79
-10 -12 -10 3.21 2.65
-10 -12 -10 3.79 2.49
10 -12 10 1.1 2.5
10 -12 10 3.44 3.19
10 10 -12 3.04 2.66
10 10 -12 0.59 3.04
10 -12 10 -0.52 4.08
-10 -10 -12 5.49 2.78
-10 -10 -12 4.89 2.87
-10 -10 -12 0.46 2.68
-10 -10 -12 4.88 2.73
12 10 -10 -1.27 2.79
12 10 -10 0.63 3.02
-10 12 10 5.46 2.33
-10 12 10 1.83 2.16
-10 12 10 1.24 2.62
10 -10 12 1.5 2.56
10 -12 10 -0.06 3.39
10 12 -10 2.61 2.56
-10 10 12 1.25 2.46
-10 10 12 2.36 2.55
10 12 -10 -1.11 3.06
10 12 -10 3.42 2.81
-10 12 -10 1.45 2.93
-10 -12 10 -0.18 4.19
-10 -10 12 2.82 2.2
-10 -10 12 3.71 4.36
-10 10 -12 3.08 2.75
10 -12 -10 6.34 3.01
10 -12 -10 3.02 2.2
10 -12 -10 0.89 3.24
-10 -12 10 3.7 3.03
-10 12 -10 4.23 2.83
-10 12 -10 2.02 2.87
-10 10 -12 6.27 2.92
10 -10 -12 0.63 3
10 -10 -12 7.33 2.75
10 -10 -12 7.77 3.56
-10 10 -12 1.33 2.87
-12 -10 10 2.48 3.06
-12 -10 10 2.41 3.11
-12 -10 10 -0.97 2.39
-10 -12 10 5.49 2.73
-10 -12 10 -0.04 2.36
10 10 12 5.39 2.39
10 10 12 3.86 2.52
10 10 12 5.26 2.89
10 10 12 6 3.52
-10 -12 10 2.66 3.18
-10 10 -12 3.51 3.05
-10 12 -10 2.37 2.55
10 12 10 2.83 2.57
10 12 10 3.65 3.06
10 12 10 0.57 3.12
12 -10 -10 2.69 3.11
12 -10 -10 4.38 2.69
12 -10 -10 3.8 3.52
-12 -10 10 4.03 4.34
-12 10 -10 4.84 2.58
-12 10 -10 3.33 2.95
-12 10 -10 3.15 2.78
-10 -10 12 6.49 3.05
-10 -10 12 3.31 2.88
12 10 10 4.65 2.42
12 10 10 4.4 2.91
12 10 10 3.51 3.41
-12 -12 0 99.99 9.24
-12 -12 0 92.18 8.92
-12 -12 0 99.2 9.89
-12 0 -12 98.21 8.66
-12 0 -12 96.64 9.24
-12 0 -12 99.68 10.21
-12 0 -12 82.98 10.07
-12 0 12 86.29 9.24
-12 0 12 96.47 8.85
-12 0 12 92.45 11
-12 12 0 80.11 8.45
-12 12 0 100.04 9.85
-12 12 0 89.84 9.69
-12 12 0 102.62 10.06
0 -12 -12 115.43 9.32
0 -12 -12 117.43 9.43
0 -12 -12 106.28 9.73
0 -12 -12 112.76 10.25
0 -12 12 94.68 8.78
0 -12 12 107.63 8.93
0 -12 12 100.34 9.11
0 -12 12 96.66 9.76
0 -12 12 91.49 9.84
0 -12 12 112.01 11.16
0 12 -12 101.51 8.91
0 12 -12 97.1 9.65
0 12 -12 91.29 9.7
0 12 -12 87.36 10.4
0 12 12 106.54 8.89
0 12 12 119.46 9.52
0 12 12 112.59 9.87
0 12 12 112.03 9.99
12 -12 0 101.58 8.79
12 -12 0 109.83 10.02
12 -12 0 90.56 9.82
12 -12 0 105.05 10.36
12 0 -12 89.35 9.46
12 0 -12 101.56 8.95
12 0 -12 88.74 9.35
12 0 -12 96.48 10.43
12 0 12 103.19 8.76
12 0 12 90.97 9.12
12 0 12 100.53 10.24
12 0 12 98.76 10.54
12 12 0 97.01 9.05
12 12 0 95.86 9.02
12 12 0 90.89 9.93
-12 -12 -2 64.14 6.91
-12 -12 -2 60.2 6.78
-12 -12 -2 60.75 7.51
2 12 -12 60.4 6.64
12 -2 12 61.15 6.9
12 -2 12 62.69 7.88
12 -2 12 57.32 8.28
-12 -2 -12 61.46 6.42
-12 -2 -12 68.48 7.04
-12 -2 -12 71.15 7.8
-12 -2 -12 54.64 7.8
2 -12 12 59.66 6.9
2 -12 12 63.45 7.32
12 -12 2 74.12 7.72
12 12 -2 65.16 6.66
12 12 -2 64.31 6.72
12 12 -2 61.84 7.45
-12 2 12 57.26 6.99
-12 2 12 64.23 6.45
-12 2 12 64.66 6.81
-12 2 12 57.6 8.52
-12 2 12 71.17 8.13
12 2 -12 64.58 7.27
12 2 -12 70.52 6.77
12 2 -12 59.39 7.96
-12 12 2 69.1 7.46
-12 12 2 67.02 7.2
-12 12 2 57.09 7.26
-12 12 2 65.03 7.77
-2 -12 -12 75.36 6.95
-2 -12 -12 78.74 7
-2 -12 -12 66.57 7.23
-2 -12 -12 76.81 7.71
-2 12 12 65.97 6.7
12 -12 2 71.09 7.48
12 -12 2 71.35 8.13
12 12 -2 69.4 7.6
2 12 -12 59.03 7.18
2 12 -12 56.8 7.99
2 -12 12 70.89 8.83
2 -12 12 57.18 7.67
-2 12 12 73.31 7.73
-2 12 12 69.15 7.33
-2 -12 12 52.47 6.68
2 -12 -12 74.24 6.76
2 -12 -12 67.7 7.07
2 -12 -12 67.67 7.98
-12 -2 12 54.15 7.03
-12 -2 12 58.21 6.65
2 -12 -12 75.26 7.12
-2 12 -12 60.97 7.16
-2 -12 12 62.53 7.26
-2 -12 12 69.56 8.67
-2 12 -12 63.63 6.63
2 12 12 69.26 6.46
2 12 12 74.66 7.21
2 12 12 67.92 7.43
2 12 12 74.69 7.4
12 -12 -2 66.78 6.75
12 -12 -2 74.82 7.52
12 -12 -2 65.85 8.09
-12 -2 12 62.99 8.84
-2 -12 12 67.02 6.78
-2 -12 12 62.26 6.78
12 -2 -12 68.42 7.15
12 -2 -12 67.16 6.64
12 -2 -12 56.58 6.91
-12 -12 2 61.65 6.71
-12 -12 2 64.53 7.37
-12 -12 2 76.63 7.87
-12 12 -2 68.56 7.49
-12 12 -2 64.81 7.24
-12 12 -2 70.2 7.56
12 2 12 73.28 6.56
12 2 12 68.18 6.88
12 2 12 73.16 7.82
12 2 12 63.33 8.18
-12 2 -12 61.72 7.12
-12 2 -12 58.37 7.78
-12 2 -12 53.19 7.93
-12 -12 2 58.81 6.82
12 12 2 68.81 6.66
12 12 2 65.38 7.05
12 12 2 61.53 7.65
-12 -12 -4 26.09 3.91
-12 -12 -4 31.74 4
-12 -12 -4 30.07 3.84
-12 -12 -4 22.84 3.81
12 -12 4 27.61 4.14
12 -12 4 28.13 4.28
12 -12 4 30.14 4.62
4 12 -12 25.1 3.65
-12 -4 -12 29.76 3.62
-12 -4 -12 27.76 3.82
-12 -4 -12 29.72 4.1
-12 -4 -12 24 4.1
12 -4 12 32.96 4.49
12 4 -12 29.71 4.09
12 4 -12 40.71 4.71
12 4 -12 23.58 4.25
4 -12 12 27.55 3.96
4 -12 12 26.72 4.48
12 -12 4 23.19 3.43
-12 4 12 29.45 3.92
-12 4 12 24.18 3.3
-12 4 12 41.19 4.66
-12 4 12 27.23 4.85
-12 4 12 26.12 4.45
4 -12 12 24.96 3.79
12 -4 12 21.25 3.68
12 -4 12 22.28 4.57
4 -12 12 28.8 5.14
-12 12 4 25.74 3.49
-12 12 4 44.28 5.03
-12 12 4 27.71 4.05
-12 12 4 22.83 3.84
-12 12 4 23.96 4.19
-4 -12 -12 31.05 3.81
-4 -12 -12 26.96 3.87
-4 -12 -12 34.69 4.19
-4 12 12 29.97 4.35
-4 12 12 28.61 3.64
12 12 -4 25.5 3.59
12 12 -4 24.02 3.98
4 12 -12 26.85 3.86
4 12 -12 20.59 4.31
-4 12 12 27.81 4.01
12 12 -4 30.98 4.07
12 12 -4 28.74 3.53
-4 12 -12 27.38 3.79
-4 -12 12 23.48 3.84
4 -12 -12 29.46 4.05
4 -12 -12 27.92 3.89
4 -12 -12 29.79 4.49
-4 12 -12 21.98 4.06
-12 4 -12 29.72 4.43
-12 4 -12 25.72 4.16
-4 -12 12 22.72 3.65
-4 -12 12 22.85 3.73
-4 -12 12 25.45 5.07
-4 12 -12 37.36 4.58
4 12 12 38.91 4.54
4 12 12 41.78 4.41
4 12 12 33.68 3.92
4 12 12 30.8 4.28
4 12 12 44.22 4.91
-12 12 -4 25.24 3.42
12 -12 -4 29.62 3.9
12 -12 -4 24.78 4.51
-12 4 -12 15.92 4.1
-12 -12 4 24.49 3.85
-12 -12 4 28.33 3.6
-12 -12 4 21.85 3.81
12 -4 -12 26.68 3.97
12 -4 -12 31.37 3.75
12 -4 -12 26.71 3.73
-12 12 -4 30.42 4.15
-12 12 -4 30.7 4.13
-12 -4 12 25.38 3.87
-12 -4 12 24.15 3.6
-12 -4 12 24.1 4.89
-12 4 -12 30.43 3.96
12 4 12 24.17 3.81
12 4 12 26 4.07
12 4 12 24.61 4.63
-4 12 -12 20.75 4.21
-12 12 -4 27.08 3.99
-12 -12 4 34.18 4.87
12 -12 -4 31.58 3.94
12 12 4 25.65 3.61
12 12 4 24.43 4.15
12 12 4 22.98 4
-12 -12 -6 3.44 2.66
-12 -12 -6 4.48 3.09
-12 -12 -6 4.16 2.72
-12 -12 -6 -1.15 2.67
-12 -12 -6 1.72 2.41
12 -12 6 4.68 3.29
12 -12 6 9.04 4.02
6 -12 12 2.82 4.2
6 12 -12 2.17 2.53
-12 -6 -12 3.57 2.53
-12 -6 -12 4 2.8
-12 -6 -12 5.17 2.95
-12 -6 -12 4.74 2.73
12 6 -12 6.51 2.62
12 6 -12 2.36 3.17
-6 -12 -12 4.01 2.49
6 -12 12 3.84 2.79
6 -12 12 2.13 2.91
12 -12 6 5.23 2.46
12 12 -6 3.78 2.22
12 12 -6 4.73 2.5
-12 6 12 7.37 2.81
-12 6 12 -2.61 1.91
-12 6 12 4.86 2.46
-12 6 12 2.21 3.72
-12 6 12 2.87 3.23
12 -6 12 3.07 3.4
12 -6 12 4.95 3.65
-6 12 12 0.92 3.04
12 12 -6 3.48 2.88
-12 12 6 5.59 2.4
-12 12 6 7.91 2.56
-12 12 6 4.28 2.65
-12 12 6 -0.16 2.54
-12 12 6 4.39 2.76
-6 -12 -12 6.86 2.8
-6 -12 -12 6.32 2.69
6 12 -12 5.82 2.67
-6 -12 -12 4.56 2.54
6 -12 12 3.14 3.46
12 -12 6 5.95 3.01
-6 12 12 4.31 2.59
12 12 -6 0.23 2.84
12 -6 12 4.04 2.66
6 12 -12 4.05 3.32
-6 12 12 3.88 2.27
-6 -12 12 5.89 4.36
-6 12 -12 -1.7 3.14
-6 -12 12 3.54 2.94
-12 12 -6 8.94 3.03
-12 12 -6 5.3 3.07
6 -12 -12 4.14 3.09
6 -12 -12 6.86 2.63
6 -12 -12 3.19 3.43
-12 6 -12 4.57 2.7
-12 6 -12 3.08 3.11
-6 12 -12 6.63 2.76
-6 -12 12 4.13 2.66
-6 -12 12 2.44 2.41
-12 -6 12 3.54 4.04
-6 12 -12 3.58 2.5
6 12 12 6.1 2.31
6 12 12 7.82 2.38
6 12 12 3.37 2.83
6 12 12 7.67 3.08
12 -12 -6 4.87 3.02
12 -12 -6 5.38 3.5
-12 6 -12 4.09 3.05
-6 -12 12 4.53 3.06
-12 -12 6 4.37 2.82
-12 -12 6 3.56 2.5
12 -6 -12 3.23 2.94
12 -6 -12 3.97 2.61
12 -6 -12 5.75 2.68
-6 12 -12 6.31 3.11
-12 12 -6 10.32 2.4
-12 12 -6 7.39 2.96
-12 -6 12 0.68 2.73
-12 -6 12 4.81 2.62
12 6 12 8.41 2.59
12 6 12 2.92 2.63
12 6 12 6.56 3.3
12 6 12 4.11 3.67
-12 6 -12 0.82 3.07
-12 6 -12 4.27 2.84
-12 -12 6 3.77 2.55
-12 -12 6 5.2 3.93
12 12 6 5.27 2.4
12 12 6 -0.3 2.88
12 12 6 3.28 3.22
-12 -12 -8 0.56 2.87
-12 -12 -8 -1.37 2.92
-12 -12 -8 -3.01 2.5
-12 -12 -8 -0.86 2.39
8 -12 12 0.67 2.6
12 12 -8 -0.62 2.62
12 12 -8 -2.09 2.89
-12 -8 -12 1.83 2.64
-12 -8 -12 0.49 2.8
-12 -8 -12 -0.32 2.88
-12 -8 -12 1.29 2.66
12 -8 12 -3.96 3.54
12 -8 12 2.98 3.75
12 8 -12 2.18 2.61
12 8 -12 2.94 2.61
12 8 -12 -3 3.05
8 -12 12 -0.91 3.87
12 -12 8 -1.27 3.44
-12 8 12 1.96 2.49
-12 8 12 0.48 2.39
8 12 -12 1.89 3.16
8 -12 12 -0.57 2.9
12 12 -8 -0.39 2.88
-12 12 8 0.59 2.32
-12 12 8 -4.84 2.3
-12 12 8 -3.02 2.45
-8 -12 -12 1.97 2.64
-8 -12 -12 -0.9 2.67
-8 -12 -12 -0.16 2.41
-8 -12 -12 -2.12 2.53
8 12 -12 1.05 2.62
12 -8 12 0.48 2.54
8 -12 12 -0.19 3.55
-8 12 12 -2.02 2.4
12 -12 8 -1.62 3.94
8 12 -12 -0.82 2.69
-8 12 12 1.09 2.19
-8 12 -12 2.07 2.92
-8 12 -12 -0.78 2.97
-8 -12 12 -4.92 4.08
8 -12 -12 -1.37 3.15
8 -12 -12 -1.3 3.44
-12 -12 8 -0.29 2.76
-12 12 -8 1.91 2.96
-12 12 -8 5.84 2.52
-12 8 -12 -1.64 2.9
-8 -12 12 -0.13 2.98
-8 12 -12 -1.57 2.69
-8 -12 12 -1.18 2.31
8 12 12 1.83 2.41
8 12 12 0.7 2.88
8 12 12 1.01 3.14
12 -12 -8 -0.51 2.94
12 -12 -8 1.63 2.3
12 -12 -8 -2.04 3.12
-12 8 -12 2.82 2.77
-8 12 -12 0.05 2.63
12 -8 -12 -4.28 2.86
12 -8 -12 0.09 2.35
12 -8 -12 -1.15 2.6
-8 -12 12 4.1 3.1
-12 -8 12 1.48 3.15
-12 -8 12 0.57 2.16
-12 -8 12 -4.68 3.96
-12 8 -12 1.09 2.65
-12 8 -12 2.24 3
12 8 12 0.01 2.42
12 8 12 3.01 2.59
12 8 12 -0.81 3.06
12 8 12 2.07 3.69
-12 -12 8 0.19 2.42
-12 -12 8 2.7 4.15
-12 12 -8 1.55 2.84
12 12 8 0.32 2.93
12 12 8 -2.33 3.32
-12 -12 -10 7.58 2.95
-12 -12 -10 6.12 3.11
-12 -12 -10 6.84 2.85
12 -10 12 7.81 3.76
12 -10 12 12.1 4.31
12 10 -12 6.73 2.85
-12 -10 -12 6.27 2.87
-12 -10 -12 7.67 3.18
-12 -10 -12 4.62 3.33
-12 -10 -12 9.95 3.13
12 12 -10 9.11 2.94
12 12 -10 2.23 3.07
12 12 -10 5.35 3.19
-10 -12 -12 6.08 2.85
12 -10 12 5.28 2.74
10 -12 12 4.02 3.76
-12 10 12 4.94 2.74
10 12 -12 9.62 2.72
12 10 -12 8.14 3.05
12 -12 10 7.66 3.71
-12 12 10 5.34 2.65
-12 12 10 1.53 2.53
-12 12 10 5.93 2.8
-10 -12 -12 8.09 3.05
-10 -12 -12 6.27 3.06
10 -12 12 8.21 2.88
-10 -12 -12 6.45 2.76
12 -12 10 5.04 4.21
10 12 -12 5.12 2.99
-10 12 12 7.08 2.9
10 -12 12 9.93 4.4
12 -12 10 6.89 2.75
-10 12 -12 9.91 3.15
-10 -12 12 3.8 4.61
10 -12 -12 7.87 3.25
10 -12 -12 4.38 3.62
-12 10 -12 3.84 2.89
-12 10 -12 8.43 3.07
-10 12 -12 4.11 2.89
-12 12 -10 10.99 2.92
-10 -12 12 7.44 2.49
10 12 12 6.19 2.65
10 12 12 8.47 3.19
10 12 12 6.99 3.54
12 -12 -10 7.14 3.35
12 -12 -10 9.03 2.51
12 -12 -10 6.09 3.61
-10 12 -12 7.98 3.09
-12 12 -10 6.01 2.91
-10 -12 12 9.07 3.37
12 -10 -12 7.36 3.46
12 -10 -12 6 3.68
-12 10 -12 6.61 3.22
-12 -12 10 8.63 3.32
-12 -12 10 6.36 2.58
-12 -12 10 3.38 4.54
-12 12 -10 8 3.27
12 10 12 7.58 2.86
12 10 12 6.48 3.19
12 10 12 5.06 3.73
-12 -10 12 8.5 3.34
-12 -10 12 5.05 2.38
-12 -10 12 5.19 4.57
12 12 10 4.02 3.15
12 12 10 5.19 3.71
-12 -12 -12 18.66 3.5
-12 -12 -12 15.39 3.59
-12 -12 -12 12.65 3.57
12 12 -12 14.72 3.28
12 12 -12 14.21 3.48
12 -12 12 13.06 4.22
12 -12 12 17.25 4.87
-12 12 12 10.52 3.16
12 -12 12 11 3.18
-12 12 -12 12.85 3.63
12 -12 -12 16.03 3.89
12 -12 -12 14.52 4.26
-12 12 -12 14.81 3.56
-12 -12 12 12.42 4.96
-12 12 -12 15.4 3.31
-12 -12 12 14.8 3.77
-12 -12 12 9.19 2.92
12 12 12 15.19 3.66
12 12 12 16.01 4.3
-13 -1 -1 3.73 2.11
-13 -1 -1 0.19 2.35
-13 -1 -1 0.8 2.23
-13 -1 -1 2.27 2.63
-13 -1 -1 2.23 2.3
13 1 -1 3.4 2.41
13 1 -1 1.75 2.37
13 1 -1 3.89 2.26
-1 1 13 6.72 3.15
1 -13 1 2.7 2.14
1 -13 1 3.47 2.22
1 -13 1 3.01 2.9
1 13 -1 3.1 1.7
1 13 -1 4.3 2.2
1 13 -1 3.46 1.81
1 13 -1 0.98 1.82
1 13 -1 2.74 2.55
1 -1 13 0.7 2.8
-13 1 1 1.76 1.85
-13 1 1 1.99 1.97
-13 1 1 2.23 2.32
-13 1 1 0.13 2.44
-13 1 1 1.46 2.11
-13 1 1 6.78 2.36
-1 -13 -1 3.67 2.26
-1 -13 -1 1.14 1.98
-1 -13 -1 2.98 2.09
-1 -13 -1 1.52 2.87
1 -1 13 1.14 2.15
-1 1 13 3.44 2.53
1 -1 13 3.84 3.05
-1 -1 -13 5.25 2.38
-1 -1 -13 3.61 2.26
-1 -1 -13 4.87 2.48
-1 -1 -13 2.49 2.49
-1 1 13 4.83 2.12
-1 13 1 2.41 1.67
-1 13 1 3.17 2.05
13 -1 1 1.71 2.64
13 -1 1 4.87 2.51
1 1 -13 3.64 2.27
1 1 -13 2.77 2.09
1 1 -13 4.94 2.34
-1 13 1 2.17 2.39
-1 1 13 3.9 2.15
1 1 -13 3.63 2.58
-1 13 1 4.19 1.97
-1 -13 1 3.42 2.2
-1 13 -1 3.7 2.26
-1 13 -1 2.15 1.94
-1 -1 13 4.45 2.07
-1 13 -1 3.83 2.54
-1 -1 13 3.71 2.02
-1 -1 13 3.81 2.6
-13 -1 1 -1.53 2.47
-1 13 -1 1.88 1.64
1 -13 -1 2.33 2.16
1 -13 -1 2.33 2.14
1 -13 -1 3.34 3.04
-13 -1 1 9.81 2.37
-13 -1 1 2.72 2.44
-13 -1 1 1.94 2.21
1 -1 -13 2.71 2.18
1 -1 -13 4.97 2.19
1 -1 -13 2.13 2.18
1 -1 -13 1.55 2.46
-1 -13 1 5.72 2.25
-13 1 -1 0.53 2.35
-1 -13 1 3.91 3.06
-1 1 -13 2.42 2.09
-1 1 -13 3.46 2.26
-1 1 -13 2.48 2.44
-1 13 -1 2.3 1.69
1 1 13 4.37 1.86
1 1 13 5.92 2.18
1 1 13 2.92 2.67
1 1 13 2.42 2.83
-13 1 -1 4.76 1.8
-13 1 -1 1.58 1.91
-13 1 -1 2.05 2.31
-13 1 -1 1.93 2.13
-13 1 -1 2.47 2.61
1 13 1 1.56 1.77
1 13 1 0.97 2.16
1 13 1 2.94 1.91
1 13 1 0.67 2.54
13 -1 -1 2.04 2.53
13 -1 -1 4.88 2.34
-1 -1 13 3.71 3.01
-1 1 -13 3.76 2.21
-13 -1 1 3.55 2.1
-13 -1 1 3.06 2.37
-13 -1 1 1.83 2.24
13 1 1 3.92 1.91
13 1 1 0.84 2.45
13 1 1 1.66 2.42
1 -13 3 7.03 2.28
1 -13 3 8.35 2.52
3 -1 13 9.47 2.03
3 -1 13 7.73 2.48
3 -1 13 8.9 3.11
3 -1 13 8.28 3.16
3 1 -13 9.56 2.51
3 1 -13 11.33 2.51
3 1 -13 8.82 2.34
3 1 -13 10.46 2.98
-3 -1 -13 10.99 2.58
-3 -1 -13 10.92 2.61
-3 -1 -13 10.87 2.71
-13 3 1 12.03 2.45
-1 -13 -3 10.64 2.33
-13 -3 -1 10.45 2.4
-13 -3 -1 7.84 2.52
13 -3 1 10.96 3.04
13 -3 1 7.13 2.82
13 -3 1 8.6 2.76
13 3 -1 9.43 2.17
13 3 -1 9.43 2.61
13 3 -1 8.88 2.82
13 3 -1 10.38 2.37
-3 1 13 11.29 2.68
-3 1 13 11.13 3.53
-1 -13 -3 7.42 2.48
-1 -13 -3 11.04 2.41
1 -13 3 9.56 3.36
1 13 -3 12.31 2.06
1 13 -3 9.97 2.07
1 13 -3 9.38 2.54
1 13 -3 10.46 2.13
1 13 -3 10.54 2.12
1 13 -3 11.28 2.78
-13 3 1 9.1 2.31
-3 -1 -13 12.21 2.52
-3 1 13 10.49 2.42
-1 13 3 11.76 2.09
-1 13 3 10.65 2.55
-1 13 3 10.08 2.41
-1 13 3 6.83 2.72
-13 3 1 5.52 2.63
-13 3 1 8.44 2.44
-1 -13 -3 10.47 3
-13 -3 -1 6.16 2.55
-13 3 1 11.78 2.24
-13 -3 -1 9.3 2.8
-13 3 1 11.45 2.28
-3 1 13 12.38 2.39
-1 13 -3 10.34 1.93
-1 13 -3 11.13 2.81
13 -3 -1 8.75 2.58
13 -3 -1 7.96 2.79
3 1 13 10.11 3.05
1 -13 -3 8.75 3.08
-13 -3 1 12.18 2.61
-13 -3 1 9.94 2.52
-13 -3 1 10.39 2.88
-13 -3 1 14.03 2.53
-13 3 -1 10.07 1.95
-13 3 -1 11.9 2.25
-13 3 -1 11.15 2.58
-13 3 -1 9.58 2.21
-13 3 -1 7.03 2.83
-13 3 -1 6.46 2.76
-13 3 -1 12.72 2.25
3 -1 -13 9.91 2.44
-1 -13 3 9.25 2.5
-1 -13 3 6.88 3.3
1 -13 -3 10.72 2.53
13 -3 -1 11.32 2.87
1 13 3 10.33 2.09
1 13 3 12.78 2.44
3 1 13 6.75 1.76
3 1 13 12.48 2.5
3 1 13 10.85 3.21
-3 -1 13 8.96 2.42
-3 -1 13 8.64 2.35
-3 -1 13 12.74 2.72
-3 -1 13 11.07 3.36
-3 1 -13 14.15 2.44
-3 1 -13 9.31 2.49
-3 1 -13 12.67 2.39
-3 1 -13 9.47 2.64
-3 1 -13 12.23 2.76
1 13 3 10.08 2.3
-1 13 -3 10.77 2.54
13 3 1 9.14 2.22
13 3 1 8.73 2.93
13 3 1 7.64 2.61
3 -1 -13 6.42 2.83
1 -13 -3 11.5 2.53
1 -13 -3 12.51 2.5
-1 -13 3 8.53 2.37
-1 -13 3 9.39 2.16
3 -1 -13 12.68 2.48
3 -1 -13 12.21 2.71
1 13 3 10.21 2.71
-1 13 5 16.44 2.74
-1 13 5 15.92 2.75
-1 13 5 12.57 2.97
-1 13 5 15.04 2.38
5 1 -13 14.88 3.21
5 1 -13 7.47 2.07
5 -1 13 12.38 2.29
5 -1 13 14.03 2.66
5 -1 13 13.27 3.46
5 -1 13 13.73 3.35
5 1 -13 15.86 2.88
5 1 -13 12.23 2.8
1 -13 5 12.09 3.58
1 13 -5 14.95 2.21
1 13 -5 15.7 2.42
-13 5 1 20.21 2.52
-13 5 1 14.07 2.56
-13 5 1 18.01 2.49
-13 5 1 11.32 2.85
-5 1 13 12.25 2.79
-5 1 13 13.14 3.8
-1 -13 -5 15.57 2.83
-1 -13 -5 17.37 2.58
-1 -13 -5 13.5 2.64
-1 -13 -5 12.71 3.12
1 13 -5 11.94 2.61
-13 5 1 10.61 2.88
-13 5 1 11.6 2.73
-13 5 1 9.74 2.68
-5 -1 -13 18.62 2.58
-5 -1 -13 14.46 2.74
-5 -1 -13 19.11 2.81
-5 -1 -13 10.79 2.82
-5 -1 -13 14.32 2.82
-13 -5 -1 12.81 2.7
-13 -5 -1 12.85 2.88
-13 -5 -1 5.09 2.55
13 -5 1 14.35 3.16
13 -5 1 10.11 3.08
13 5 -1 15.74 2.55
13 5 -1 12.06 2.69
13 5 -1 13.7 2.97
-13 -5 -1 14.38 3.02
-5 1 13 13.82 2.73
-5 1 13 14.12 2.56
1 -13 5 13.54 2.52
1 -13 5 11.41 2.41
1 13 -5 13.3 2.36
1 13 -5 14.34 3.19
1 -13 5 14.46 2.73
1 -13 5 14.58 2.85
-1 -13 5 13.88 2.5
-1 -13 5 11.22 2.47
1 13 5 18.15 2.75
5 -1 -13 13.65 2.58
-1 13 -5 13.33 2.08
-1 13 -5 16.89 2.32
-1 13 -5 13.2 2.7
-5 -1 13 12.76 2.75
-1 13 -5 15.04 3.06
5 1 13 14.74 2.25
5 1 13 18.38 2.82
5 1 13 16.91 2.89
5 1 13 15.81 3.56
1 -13 -5 14.64 2.72
1 -13 -5 18.4 2.72
1 -13 -5 15.95 2.71
1 -13 -5 9.53 3.1
1 13 5 12.71 2.55
-1 -13 5 12.94 2.78
-1 -13 5 10.84 3.58
5 -1 -13 16 2.8
-13 5 -1 8.2 3.02
-13 5 -1 13.35 3.02
-13 5 -1 12.56 2.72
5 -1 -13 12.97 3.16
1 13 5 18.01 3.01
5 -1 -13 16.8 2.96
1 13 5 14.68 2.41
-1 13 -5 11.97 2.49
-13 -5 1 13.48 2.79
-13 -5 1 12.96 2.71
-13 -5 1 11.81 2.98
-13 5 -1 15.84 2.41
-13 5 -1 12.81 2.57
-13 5 -1 16.42 2.41
-13 5 -1 13.31 3.17
-5 1 -13 12.21 2.46
-5 1 -13 14.48 2.8
-5 1 -13 15.26 2.83
-5 1 -13 13.82 2.99
-5 1 -13 12.71 2.81
13 -5 -1 13.22 2.95
13 -5 -1 14.06 3.22
-5 -1 13 14.11 2.81
-5 -1 13 7.39 2.57
13 5 1 14.91 2.48
13 5 1 9.99 2.89
5 1 13 13.98 3.24
13 -5 -1 13.71 2.81
-5 -1 13 12.48 3.73
-7 1 13 14.25 2.85
1 13 -7 9.42 3.32
-13 -7 -1 13.21 3.06
-7 -1 -13 14.56 3.14
1 13 -7 12.8 2.8
1 13 -7 15.76 2.63
-1 13 7 16.45 3.18
-13 7 1 13.49 2.7
-13 7 1 19.16 2.6
-13 7 1 13.09 3.02
-13 7 1 12.87 2.96
-13 7 1 12.35 2.92
-13 -7 -1 12.93 2.79
-13 -7 -1 14.55 2.86
13 7 -1 12.43 2.99
7 -1 13 12.86 2.76
7 -1 13 14.33 3.68
7 -1 13 16.87 3.39
7 1 -13 13.66 3.02
7 1 -13 14.76 2.84
7 1 -13 11.97 2.45
7 1 -13 11.67 3.22
1 13 -7 13.82 2.51
-1 13 7 14.69 2.76
-1 -13 -7 16 2.64
-1 -13 -7 18.23 2.85
13 -7 1 13.01 2.7
-13 7 1 9.35 2.83
-7 -1 -13 14.49 2.54
-7 -1 -13 14.82 2.85
13 -7 1 13.01 3.12
13 -7 1 11 3.28
13 7 -1 16.06 2.68
13 7 -1 11.99 2.76
-1 -13 -7 17.97 2.99
-13 7 1 18.74 2.45
-1 -13 -7 12.9 3.16
-1 13 7 16 2.43
1 -13 7 11.11 2.44
1 -13 7 12.34 2.91
7 -1 13 13.32 2.22
1 -13 7 12.89 3.79
-7 1 13 13.98 2.56
-7 1 13 11.25 2.69
-7 1 13 11.99 3.97
1 13 -7 13.41 2.1
-1 13 7 15.74 2.72
1 -13 7 10.42 2.91
7 1 13 13.51 3.09
-7 -1 13 13.6 2.74
-1 -13 7 14.4 2.64
-7 -1 13 14.42 3.95
-1 -13 7 9.06 2.71
-1 -13 7 15.26 3.94
-1 13 -7 12.63 1.94
13 -7 -1 16.94 2.95
-1 13 -7 14.38 2.69
-1 13 -7 11.83 2.78
-1 13 -7 11.3 3.22
-7 1 -13 12.01 2.73
-7 1 -13 15.15 2.45
7 1 13 13.06 2.73
7 -1 -13 14.99 2.9
1 -13 -7 15.95 3.03
1 -13 -7 17.64 2.7
1 -13 -7 15.32 2.79
1 -13 -7 10.06 3.26
-7 1 -13 8.64 2.42
-7 1 -13 11.75 3.13
7 1 13 14.83 3.57
-13 7 -1 13.48 3.15
-1 -13 7 11.92 2.55
7 1 13 15.51 2.39
-13 -7 1 10.43 3
-13 7 -1 16.59 2.35
-13 7 -1 8.95 2.55
1 13 7 15.84 2.5
-13 7 -1 12.69 3.07
-13 7 -1 12.24 3.01
-13 7 -1 10.47 2.93
-1 -13 7 10.81 2.8
1 13 7 17.13 2.81
1 13 7 15.33 2.84
1 13 7 17.95 3.02
-13 -7 1 12.63 2.77
7 -1 -13 15.18 2.79
7 -1 -13 11.21 3.12
-7 1 -13 12.76 2.72
13 -7 -1 11.03 3.01
13 -7 -1 12.26 3.44
-1 13 -7 14.56 2.55
-13 -7 1 15.1 2.93
13 7 1 11.35 2.8
-7 -1 13 11.73 2.8
-7 -1 13 13.42 2.65
13 7 1 13.17 3.04
13 7 1 12.32 2.61
-9 -1 -13 12.34 3.06
1 -13 9 12.1 2.74
-9 -1 -13 12.79 3.19
9 -1 13 11.64 2.28
9 -1 13 11.1 2.74
9 -1 13 14.67 3.29
9 -1 13 10.32 3.59
9 1 -13 10.07 2.8
9 1 -13 8.91 2.84
9 1 -13 7.04 2.38
9 1 -13 10.18 3.3
-9 1 13 10.12 3.87
-1 -13 -9 10.02 2.75
-1 -13 -9 13.55 2.4
-1 -13 -9 12.49 2.63
13 9 -1 10.43 3.11
1 -13 9 9.84 4.05
1 13 -9 10.48 2.5
1 13 -9 10.28 2.82
1 13 -9 4.83 2.62
1 13 -9 8.6 3.37
13 9 -1 10.21 2.62
-13 -9 -1 6.89 2.97
-1 -13 -9 13.66 3.36
-13 9 1 12.82 2.35
-1 13 9 9.11 2.29
1 -13 9 9.52 2.79
1 -13 9 6.39 3.18
13 -9 1 11.09 3.22
-13 9 1 11.47 3.02
-13 9 1 11.27 2.85
-13 9 1 8.82 2.98
-1 13 9 13.57 2.83
-1 13 9 10.32 2.88
-9 -1 -13 12.65 2.47
-9 1 13 7.3 2.79
-9 1 13 12.42 2.52
-13 9 1 13.31 2.44
-13 -9 -1 11.42 2.83
-9 -1 -13 10.02 2.89
-9 1 13 11.07 2.61
13 -9 1 12.61 3.4
13 9 -1 11.74 2.45
-13 -9 -1 8.51 2.75
-1 13 9 17.12 2.76
13 -9 -1 11.1 3.49
-13 9 -1 11.9 2.76
9 -1 -13 7.4 2.5
-1 13 -9 9.33 2.63
1 13 9 14.46 2.5
-1 13 -9 9.64 2.89
-1 13 -9 4.09 3.25
-13 9 -1 9.64 2.89
9 1 13 12.97 3.18
-13 9 -1 5.07 2.65
-13 9 -1 8.83 3.1
1 -13 -9 16.95 2.89
1 13 9 12.37 2.74
1 13 9 13.95 2.88
-1 13 -9 11.49 2.47
9 -1 -13 13.56 2.9
13 9 1 12.66 2.98
13 9 1 9.43 3.14
1 13 9 9.17 2.28
9 -1 -13 10.48 2.92
-9 -1 13 9.36 2.73
-9 -1 13 11.08 2.58
-9 -1 13 13.11 2.55
-9 -1 13 8.94 4.04
-9 1 -13 8.25 2.31
-9 1 -13 8.42 2.8
-9 1 -13 11.48 3.05
-9 1 -13 9.89 2.98
9 -1 -13 10.75 3.34
9 1 13 13.1 3.68
-13 -9 1 12.25 2.93
9 1 13 12.04 2.43
1 -13 -9 11.12 3.46
13 -9 -1 13.02 2.81
13 -9 -1 9.64 3.07
13 9 1 12.57 2.49
-1 -13 9 6.5 2.52
-1 -13 9 10.32 2.7
-1 -13 9 9.52 2.87
-1 -13 9 7.65 2.98
-1 -13 9 11.9 4.21
9 1 13 9.81 2.79
-13 -9 1 10.35 2.75
-13 -9 1 8.67 2.94
-13 9 -1 12.88 2.2
1 -13 -9 12.77 2.77
13 -11 1 8.4 3.17
1 -13 11 2.04 2.75
-1 13 11 13.43 2.77
-1 13 11 11.97 2.89
13 -11 1 15.27 3.21
-13 11 1 10.46 3.13
-13 11 1 11.82 2.76
-13 11 1 7.61 3.25
-11 -1 -13 8.89 2.55
1 -13 11 7.06 2.82
13 -11 1 11.09 3.62
-11 -1 -13 10.61 3.29
-1 -13 -11 15.58 2.96
-1 -13 -11 12.23 2.49
-1 -13 -11 9.33 2.75
1 -13 11 7.78 3.01
1 -13 11 3.22 3.47
1 -13 11 3.69 4.4
-1 13 11 10.66 3.08
-11 -1 -13 8.78 3
-11 -1 -13 16.44 3.49
11 -1 13 15.96 3.91
-13 -11 -1 6.44 2.8
-13 -11 -1 5.17 3.01
-11 1 13 8.38 2.62
11 -1 13 9.71 2.44
11 -1 13 10.23 2.89
11 -1 13 8.85 3.38
1 13 -11 7.92 2.93
11 1 -13 13.33 3.14
-13 11 1 4.5 2.25
1 13 -11 10.02 2.76
13 11 -1 10.91 3.2
-1 13 11 9.89 2.33
-11 1 13 11.52 2.88
-11 1 13 11.33 2.54
-13 -11 -1 9.33 2.97
-11 1 13 12.88 4.13
1 13 -11 3.98 2.99
1 13 -11 4.24 3.44
11 1 -13 9.22 2.92
-1 -13 -11 9.96 3.34
11 1 -13 13.92 3.37
13 11 -1 10.78 2.49
13 11 -1 10.82 2.73
11 1 -13 8.76 2.63
-13 -11 1 10.92 2.78
1 -13 -11 12.18 3.39
1 -13 -11 13.82 2.47
1 -13 -11 14.03 3.25
-1 -13 11 6.75 2.92
-1 -13 11 1.95 2.77
-11 1 -13 12.4 3.19
13 -11 -1 11.58 3.75
-11 -1 13 13.01 4.35
-11 1 -13 7.84 2.33
-11 -1 13 9.93 2.63
-1 -13 11 6 2.89
1 -13 -11 13.55 2.82
11 1 13 12.5 2.63
11 1 13 10.77 2.91
11 1 13 16.64 3.43
11 1 13 13.19 3.88
13 -11 -1 8.63 2.94
13 -11 -1 9.95 3.1
-1 -13 11 6.49 3.08
-13 11 -1 8.5 2.83
-11 -1 13 7.35 2.83
-11 -1 13 9.49 2.6
1 13 11 12.81 2.38
1 13 11 11.36 2.81
1 13 11 15.17 3.14
11 -1 -13 9.62 2.97
11 -1 -13 6.91 2.82
11 -1 -13 3.62 2.66
-13 -11 1 9.54 2.8
-13 -11 1 8.27 2.92
-13 11 -1 8.29 3.12
-1 13 -11 7.26 2.67
-13 11 -1 11.97 3.19
-1 -13 11 4.48 3.29
-1 13 -11 9.7 2.58
-11 1 -13 11.99 3.32
-11 1 -13 13.81 3.33
13 11 1 7.3 2.92
13 11 1 7.45 3.18
-1 13 -11 8.58 3.1
-1 13 -11 6 3.47
13 11 1 11.61 2.63
-1 -13 11 11.22 4.21
-3 13 1 9.81 2.37
-3 13 1 10.22 2.29
-13 1 3 9.89 2.44
-13 -1 -3 9.31 2.68
-13 -1 -3 14.18 2.23
1 -3 13 9.92 3.14
-1 3 13 13.3 2.36
-1 3 13 14.23 2.36
-1 3 13 8.38 2.65
-13 -1 -3 9.69 2.48
1 3 -13 11.79 2.92
-3 13 1 10.78 2.84
-3 -13 -1 10.95 2.16
-3 -13 -1 8.64 3.03
3 13 -1 8.91 2.74
13 -1 3 10.26 2.1
13 -1 3 10.31 2.91
-3 13 1 9.91 1.96
3 -13 1 9.42 2.25
3 -13 1 7.91 2.56
-13 1 3 10.29 2.53
-3 -13 -1 9.53 2.57
3 13 -1 10.66 2.17
-13 1 3 5.96 2.54
-13 1 3 9.79 2.36
-13 1 3 6.3 2.88
-1 3 13 11.4 3.33
1 3 -13 10.07 2.36
1 3 -13 12.24 2.45
-13 -1 -3 8.66 2.98
-3 -13 -1 10.32 2.37
-13 -1 -3 5.21 2.75
1 -3 13 9.98 2.17
-13 1 3 11.06 2.58
-1 -3 -13 10.96 2.6
-1 -3 -13 9.74 2.63
-1 -3 -13 11.41 2.64
13 1 -3 8.65 2.24
3 -13 1 8.53 3.31
1 -3 13 10.79 2.61
3 13 -1 11.61 2.13
1 -3 13 9.26 3.43
-3 13 1 10.86 2.46
-1 -3 -13 12.91 2.62
1 3 -13 10.58 2.39
3 13 -1 8.84 2.02
13 -1 3 6.82 2.85
13 1 -3 10.91 2.42
13 1 -3 8.9 2.75
3 13 -1 11.48 2.35
3 13 1 12.54 2.23
-13 -1 3 12.68 2.64
-13 -1 3 11.71 2.43
-3 -13 1 9.35 2.13
13 -1 -3 10.43 2.8
13 -1 -3 6.78 2.36
-13 -1 3 10.31 2.66
-13 -1 3 12.83 2.48
1 3 13 10.51 2.21
1 3 13 10.35 2.4
1 3 13 10.22 2.87
1 3 13 10.54 3.2
3 -13 -1 8.46 2.33
3 -13 -1 10.06 2.52
-13 1 -3 6.76 2.85
-1 3 -13 10.74 2.66
-3 -13 1 11.28 3.27
3 13 1 8.77 2.43
-3 13 -1 9.9 2.38
3 13 1 11.43 2.9
13 1 3 9.37 2.81
13 1 3 8.3 2.85
-3 13 -1 8.11 1.82
3 -13 -1 7.82 3.2
-13 1 -3 9.66 2.72
-13 1 -3 8.17 2.87
-13 -1 3 8.72 2.61
-13 -1 3 11.88 2.5
-13 -1 3 3.61 2.48
-3 13 -1 13.33 2.47
-3 13 -1 8.54 2.31
-3 13 -1 9.61 2.97
-13 1 -3 8.92 1.95
-3 -13 1 8 2.34
-1 -3 13 10.27 2.44
-1 -3 13 11.31 2.96
-1 -3 13 9.95 3.39
-1 3 -13 12.1 2.46
-1 3 -13 10.44 2.53
3 13 1 9 2.14
1 -3 -13 11.81 2.79
13 -1 -3 7.15 2.44
1 -3 -13 11.29 2.66
1 -3 -13 15.99 2.54
1 -3 -13 10.73 2.45
-1 3 -13 9.46 2.73
-3 -13 1 7.34 2.42
-13 -3 -3 19.42 2.9
-3 3 13 18.22 3.12
-3 3 13 18.69 3.84
3 -3 13 13.61 3.59
-3 3 13 19.62 2.71
3 3 -13 19.9 3.02
3 -13 3 17.26 2.59
3 -13 3 18 3.03
-13 3 3 16.81 2.85
-13 3 3 21.89 2.72
-13 3 3 17.98 2.94
-13 3 3 15.95 2.82
-13 3 3 19.03 3.2
-3 -13 -3 17.29 3.07
-3 -13 -3 19.36 2.89
-3 -13 -3 20.51 2.78
-3 -13 -3 21.5 3.59
-13 -3 -3 18.3 3.22
3 13 -3 20.49 2.7
3 13 -3 23.42 2.64
3 13 -3 16.31 2.83
-3 -3 -13 22.94 2.99
-3 -3 -13 19.9 2.98
-3 -3 -13 21.51 3.28
13 3 -3 14.43 2.77
3 3 -13 18.58 2.92
13 3 -3 15.42 3.27
13 3 -3 18.32 3.17
3 -3 13 20.11 2.55
3 -3 13 19.81 3.02
3 13 -3 21.91 3.44
3 -3 13 17.84 3.81
-3 13 3 17.84 3.31
13 -3 3 18.53 3.43
-13 -3 -3 16.61 3.28
-3 -3 -13 23.19 3.17
-3 13 3 25.92 3.1
-3 3 13 21.83 3.07
-13 -3 -3 14.34 2.76
-3 13 3 21.15 2.99
3 3 -13 20.93 2.85
3 -13 3 19.03 3.83
3 3 -13 18.78 3.52
-13 -3 -3 10.23 3.05
-3 13 3 18.85 2.55
13 -3 3 15.12 3.32
13 -3 3 14.72 3.08
-3 3 -13 24.78 2.82
-3 3 -13 17.75 3.24
-13 3 -3 20.03 3.14
-13 3 -3 15.67 3.36
-3 -13 3 18.87 2.84
-13 3 -3 24.38 2.74
-3 13 -3 18.38 2.32
13 3 3 19.58 2.8
13 3 3 17.37 3.39
13 3 3 16.41 3.22
-3 3 -13 20.52 3.09
3 -3 -13 20.78 3.11
3 -3 -13 22.76 2.92
3 -3 -13 18.78 2.93
3 -3 -13 20.25 3.55
-3 -3 13 21.51 4.04
-3 3 -13 18.71 3.24
-3 -3 13 15.99 2.84
-3 -3 13 20.44 3.35
3 3 13 23.47 2.77
3 3 13 21.16 2.97
-3 -13 3 21.94 2.77
-3 -13 3 16.22 2.86
-3 -13 3 17.07 3.68
-3 3 -13 21.28 2.97
-13 3 -3 16.6 2.45
13 -3 -3 20.72 2.92
13 -3 -3 17.35 3.25
13 -3 -3 15.37 3
-13 3 -3 17.18 3.45
-13 3 -3 20.8 2.81
-3 -3 13 19.24 2.93
-3 3 -13 20.86 2.97
3 -13 -3 16.71 2.92
3 -13 -3 24.52 3.1
3 -13 -3 20.63 3.06
3 -13 -3 19.66 3.59
13 -3 -3 18.59 3.11
-13 -3 3 17.44 3.12
-13 -3 3 23.05 3.3
-13 -3 3 17.96 2.95
-13 -3 3 12.27 3.05
-13 -3 3 17.28 3.37
-3 13 -3 17.76 2.87
-3 13 -3 19.99 3.43
13 -3 -3 17.1 3.41
3 3 13 24.21 3.63
3 3 13 21.46 3.54
-3 13 -3 17.8 2.89
3 13 3 17.94 2.75
3 13 3 14.33 2.56
3 13 3 19.03 2.74
3 13 3 22.38 3.06
-3 13 5 33.38 4.37
-3 13 5 23.48 3.8
13 -5 3 22.27 3.26
-13 -5 -3 24.29 3.69
5 -3 13 22.12 3.31
5 -3 13 18.13 4.1
3 -13 5 27.01 3.09
3 -13 5 22.53 3.43
3 -13 5 21.74 3.57
3 -13 5 22.51 4.23
3 13 -5 28.87 3.55
3 13 -5 33.5 3.77
5 3 -13 21.05 3.09
5 3 -13 22.66 3.92
-13 5 3 25.69 3.15
13 -5 3 26.79 3.92
-13 -5 -3 22.08 3.36
5 -3 13 22.62 4.17
-13 -5 -3 26.18 3.46
-13 -5 -3 24.87 3.71
-5 3 13 28.05 3.42
-5 3 13 31.74 3.84
-5 3 13 23.76 3.43
-5 3 13 25.12 4.28
-3 -13 -5 29.17 3.48
-3 -13 -5 23.39 3.28
-3 -13 -5 30.45 4.08
-3 -13 -5 29.18 3.75
13 5 -3 22.89 3.5
-13 5 3 36.65 3.75
-13 5 3 27.21 3.48
-13 5 3 21.23 3.35
-13 5 3 18.34 3.23
-13 5 3 23.47 3.75
-5 -3 -13 28.77 3.3
-5 -3 -13 23.75 3.33
-5 -3 -13 32.58 4.2
-5 -3 -13 23 3.56
-3 13 5 20.92 3.01
13 -5 3 23.74 3.55
5 3 -13 25.7 3.36
5 3 -13 21.87 3.36
5 -3 13 24.1 2.81
13 5 -3 22.03 3.57
3 13 -5 24.26 3.46
3 13 -5 25.79 3.94
-3 13 5 34.69 4.3
-13 -5 -3 16.42 3.44
13 5 -3 17.81 3.2
-5 -3 13 20.49 3.23
5 -3 -13 31.2 3.75
5 -3 -13 31.04 3.33
-13 5 -3 26.83 3.32
-13 -5 3 17.14 3.64
-5 -3 13 20.07 3.41
3 -13 -5 18.38 3.95
5 3 13 29.32 3.68
-5 -3 13 22.88 4.33
-3 13 -5 23.46 3.76
-13 5 -3 24.92 3.85
-5 -3 13 21.66 3.38
13 -5 -3 25.59 3.86
3 13 5 25.96 3.35
3 13 5 14.88 2.93
5 3 13 29.51 3.38
5 3 13 23.49 3.42
5 3 13 22.85 4.05
13 -5 -3 29.5 3.45
-5 3 -13 30.83 3.62
-5 3 -13 27.43 3.46
-5 3 -13 25.42 3.46
-5 3 -13 23.49 3.34
-5 3 -13 20.65 3.75
-5 3 -13 25.04 3.62
5 -3 -13 25.06 3.35
-3 -13 5 24.11 3.24
-3 -13 5 23.11 3.38
-3 -13 5 19.92 4.15
-3 13 -5 32.94 3.52
-3 13 -5 24.17 3.23
-3 13 -5 24.33 3.29
-13 5 -3 17.15 3.66
3 -13 -5 33.59 4.28
-13 5 -3 26.22 3.81
-13 5 -3 21.46 3.24
3 -13 -5 24.49 3.43
3 -13 -5 33.4 4.34
3 13 5 26.59 3.12
13 5 3 22.64 3.11
13 5 3 24.19 3.69
13 5 3 27.24 3.62
-13 -5 3 26.35 3.5
-13 -5 3 24.57 3.32
3 13 5 30.12 3.57
-13 -5 3 24.15 3.54
7 3 -13 36.03 4.34
7 3 -13 29.96 4.76
7 -3 13 31.83 4.99
7 -3 13 30.95 4.77
-13 -7 -3 33.48 4.92
-13 7 3 49.64 4.4
-3 13 7 38.81 4.5
-3 13 7 41.64 5.18
-3 13 7 40.91 5.59
-7 -3 -13 43.86 4.73
-7 -3 -13 33.15 4.3
7 -3 13 40.98 5.01
3 13 -7 38.3 4.61
3 13 -7 38.37 5.36
7 3 -13 45.97 4.95
7 3 -13 36.29 4.53
13 -7 3 40.81 5.61
13 -7 3 32.26 4.61
13 7 -3 36.52 4.62
13 7 -3 37.07 4.8
13 7 -3 34.53 4.49
13 7 -3 37.51 5.39
-13 7 3 42.44 4.75
-13 -7 -3 36.12 4.35
-13 7 3 43.41 5.17
-13 7 3 37.08 5.03
-13 7 3 35.84 5.04
-13 7 3 29.13 4.49
3 -13 7 33.72 4.44
3 -13 7 39.1 5.39
3 -13 7 28.52 5.04
-7 -3 -13 36.9 5.24
-7 3 13 43.71 5.06
-7 3 13 45.36 4.48
-7 3 13 36.73 4.98
-7 3 13 33.27 5.06
-3 -13 -7 48.1 5.05
-3 -13 -7 43.68 4.98
-3 -13 -7 43.17 4.96
-3 -13 -7 47.06 5.5
3 -13 7 32.57 4.39
3 13 -7 33.33 4.8
-13 -7 -3 33.5 4.55
-13 -7 -3 37.91 4.97
3 13 -7 39.14 4.17
-13 -7 -3 32.94 4.17
-13 7 3 34.75 4.5
-7 -3 13 37.41 5
-7 3 -13 31.36 4.41
13 7 3 39.11 4.82
7 3 13 31.38 4.91
-3 -13 7 32.88 5.29
13 7 3 29.63 4.43
-3 13 -7 41.37 5.15
-3 -13 7 36.44 5.16
-3 -13 7 35.22 4.67
-7 3 -13 43.64 5.55
-7 3 -13 45.12 5.53
-7 3 -13 27.13 4.51
-3 13 -7 41.77 4.51
-3 13 -7 36.65 4.92
-3 13 -7 42.75 5.7
-3 -13 7 38.09 4.68
3 13 7 42.84 4.69
3 13 7 49.31 5.36
3 13 7 43.58 5.16
3 13 7 48.24 5.26
7 -3 -13 38.85 4.49
7 -3 -13 42.69 4.77
7 -3 -13 39.05 4.92
-13 7 -3 41.09 5.5
-13 7 -3 28.3 4.33
7 3 13 46.2 5.05
13 -7 -3 35.55 4.23
-7 -3 13 34.45 5.21
-7 3 -13 38.48 4.98
-13 7 -3 41.55 4.71
-13 7 -3 43.11 5.72
-13 7 -3 34.04 4.56
3 -13 -7 45.98 5.14
3 -13 -7 36.15 4.85
-13 -7 3 40.02 5.15
-13 -7 3 35.54 4.79
-13 -7 3 28.67 4.34
7 3 13 27.43 3.86
-7 -3 13 40.59 4.86
13 -7 -3 28.67 4.64
7 3 13 42.18 5.5
13 7 3 41.54 5.37
-7 -3 13 40.09 4.87
3 -13 -7 26.03 4.16
3 -13 -7 41.07 4.99
-9 3 13 23.37 3.06
-9 3 13 22.51 3.46
-13 9 3 16.72 3.32
-13 9 3 16.17 3.48
-13 9 3 25.1 3.41
-13 9 3 20.61 3.37
-3 13 9 23.18 3.11
3 -13 9 19.35 3.26
-3 -13 -9 26.38 3.34
3 -13 9 15.89 3.85
3 -13 9 21.49 4.48
3 13 -9 21.72 3.12
3 -13 9 22.59 3.5
-9 3 13 18.49 3.18
-9 3 13 23.16 4.29
-9 3 13 19.21 3.88
3 13 -9 18.92 3.42
13 9 -3 19.65 3.2
13 9 -3 17.7 3.59
-13 9 3 19.94 3.02
-3 13 9 23.46 3.36
9 -3 13 18.46 3.24
9 -3 13 21.2 4.22
9 -3 13 20.95 4.12
9 3 -13 23.48 3.58
9 3 -13 21.12 3.44
9 3 -13 20.95 3.89
-9 -3 -13 18.76 3.56
3 13 -9 20.86 4.06
-13 -9 -3 19.93 3.25
-13 -9 -3 22.41 3.43
-13 -9 -3 16.99 3.57
13 -9 3 20.53 3.08
13 -9 3 23 3.78
13 -9 3 24.84 3.88
13 9 -3 21.14 3.08
-3 -13 -9 23.34 3.37
-3 -13 -9 28.36 3.76
13 9 -3 22.5 3.49
-3 13 9 17.47 3.55
-9 -3 -13 24.19 3.12
-9 -3 -13 23.96 3.57
-9 -3 -13 25.74 3.63
-3 -13 -9 29.08 3.62
-3 13 9 28.8 3.24
-3 -13 9 20.13 3.3
-13 -9 3 19.6 3.48
-13 9 -3 19.03 3.43
-9 -3 13 18.78 3.43
-9 -3 13 18.33 3.13
-9 -3 13 21.69 4.43
-9 3 -13 19.03 3.27
-9 3 -13 21.71 3.77
-9 3 -13 23.53 3.65
-9 3 -13 18 3.85
-9 3 -13 21.44 3.39
3 -13 -9 17.41 4
-13 9 -3 19.49 3.61
9 -3 -13 18.01 3.28
-13 -9 3 27.01 4.13
3 -13 -9 24.09 3.52
3 -13 -9 22.41 3.09
9 3 13 23.3 3.69
-3 13 -9 21.95 2.98
-3 13 -9 21.22 3.23
9 3 13 24.03 3.39
-3 13 -9 18.44 3.79
9 3 13 22.27 4.15
13 -9 -3 23.38 3.43
13 -9 -3 18.19 4.05
-13 -9 3 19.6 3.43
-13 -9 3 23.37 3.28
-3 13 -9 13.9 2.93
-3 -13 9 20.87 4.44
13 9 3 21.32 3.74
9 -3 -13 19.23 3.48
-13 9 -3 19.24 3.03
3 -13 -9 24.09 3.48
13 9 3 23.67 3.24
3 13 9 26.18 3.17
3 13 9 24.56 3.33
3 13 9 26.71 3.62
3 13 9 26.23 3.54
-13 9 -3 22.12 3.74
9 -3 -13 24.25 3.28
-3 -13 9 21.39 3.24
-3 -13 9 17.68 3.32
-3 -13 -11 34.01 4.08
-11 3 13 24.45 4.64
-13 -11 -3 21.84 3.64
-13 -11 -3 16.74 3.78
3 -13 11 23.04 3.83
3 -13 11 17.3 4.22
-3 13 11 25.79 4
-11 3 13 28.57 3.27
11 3 -13 24.3 4.17
13 -11 3 25.86 4.01
13 -11 3 28.75 4.16
11 3 -13 26.19 3.87
-11 3 13 22.26 3.42
-13 -11 -3 21.46 3.56
-3 -13 -11 28.85 3.78
-13 11 3 24.57 3.64
-13 11 3 18.06 4.04
-11 -3 -13 26.56 3.42
-11 -3 -13 29.45 3.8
11 3 -13 25.06 3.64
-11 -3 -13 22.8 3.97
3 13 -11 16.85 4.14
13 -11 3 27.65 4.37
13 11 -3 23.41 3.36
13 11 -3 22.75 3.49
13 11 -3 22.11 3.92
13 11 -3 23.45 3.7
-11 3 13 25.16 3.73
3 13 -11 22.24 3.47
3 13 -11 22.49 3.68
-11 3 13 24.91 4.25
-3 -13 -11 33.17 3.81
-3 -13 -11 19.38 3.08
3 -13 11 23.5 4.9
-3 13 11 30.82 3.82
-13 11 3 26.79 3.95
3 -13 11 23.34 3.68
-11 -3 -13 25.37 4.01
-13 11 3 41.31 5
11 -3 13 18.49 3.6
11 -3 13 21.79 4.57
-13 11 3 18.6 3.2
13 -11 3 22.5 3.31
-3 13 11 25.21 3.44
11 3 13 25.98 3.36
-3 13 -11 22.57 3.49
-11 -3 13 20.29 4.83
-3 -13 11 23.73 3.67
11 3 13 28.37 4.08
3 -13 -11 34.77 4.27
3 -13 -11 27.01 3.73
3 -13 -11 24.72 4.12
11 3 13 25.81 3.65
-13 -11 3 24.41 3.69
11 3 13 28.29 4.54
3 13 11 34.64 4.27
-3 -13 11 26 4.96
-3 13 -11 26.56 3.38
-11 -3 13 23.5 3.79
11 -3 -13 38.89 4.56
13 11 3 22.71 4.08
13 -11 -3 24.49 4.38
-13 -11 3 23.72 3.48
-3 13 -11 14.16 4.09
-13 -11 3 21.51 3.7
-13 -11 3 46.36 5.99
-13 11 -3 23.85 3.39
-13 11 -3 25.02 3.84
-13 11 -3 23.06 3.9
-13 11 -3 26.25 3.91
-11 -3 13 23.46 3.48
3 13 11 32.15 3.76
-11 3 -13 22.96 3.76
-11 3 -13 23.99 4.13
-11 3 -13 22.83 4.19
13 11 3 20.43 3.38
13 -11 -3 24.07 3.66
13 -11 -3 24.74 3.82
-3 -13 11 24.81 3.63
-3 -13 11 28.62 3.94
-3 -13 11 19.76 3.54
3 -13 -11 26.43 3.81
3 13 11 27.74 3.95
3 13 11 36.65 4.81
11 -3 -13 27.78 3.92
-1 -5 -13 17.03 2.86
-1 -5 -13 16.65 2.8
-1 -5 -13 15.64 2.75
-13 1 5 8.92 2.54
-5 13 1 12.83 2.13
-5 13 1 18.09 2.69
-5 13 1 17.72 2.8
13 -1 5 13.35 3.31
-5 -13 -1 13.3 2.31
-5 -13 -1 15.98 3.3
-1 5 13 14.32 2.5
-5 -13 -1 8.45 2.63
-5 -13 -1 14.72 2.86
-5 -13 -1 15.73 2.43
-13 -1 -5 13.34 3.36
-13 -1 -5 10.44 3.08
5 13 -1 17.42 2.45
-13 -1 -5 18.26 2.43
-13 1 5 15.49 2.91
1 -5 13 14.74 2.33
1 -5 13 15.18 2.8
1 -5 13 15.29 2.71
13 -1 5 12.56 3.09
1 5 -13 16.18 2.6
13 1 -5 13.68 2.6
-1 5 13 17.61 2.52
-1 5 13 15.55 3.01
-1 5 13 17.04 3.4
-1 5 13 14.73 3.1
5 13 -1 13.87 2.71
5 13 -1 12.87 2.98
13 -1 5 14.9 2.27
13 -1 5 11.56 2.77
-13 1 5 13.98 2.57
5 -13 1 11.3 2.39
-13 1 5 14.65 2.58
13 1 -5 12.68 2.96
-13 1 5 14.64 3.38
-13 1 5 13.97 3.05
5 -13 1 17.63 3.01
-13 -1 -5 12.65 2.93
-5 13 1 15.97 2.59
-5 13 1 16.5 3.07
-13 1 5 17.27 2.85
1 5 -13 15.2 3.18
5 13 -1 13.66 2.48
5 -13 1 13.75 3.64
1 5 -13 13.2 2.6
1 -5 13 6.6 3.35
1 -5 13 5.43 3.77
5 -13 -1 13.93 2.61
-5 -13 1 17.15 2.82
-1 -5 13 14.19 2.78
13 1 5 12.95 2.43
1 5 13 17.39 3.38
-1 5 -13 16.81 2.51
-1 -5 13 15.53 3.89
-1 5 -13 12.43 3.08
1 -5 -13 19.97 2.7
-1 -5 13 13.55 3.2
-1 -5 13 12.15 2.52
1 5 13 14.75 2.57
-5 13 -1 14.78 2.59
-5 13 -1 13.7 2.02
-5 13 -1 14.53 2.62
5 13 1 12.77 2.37
13 -1 -5 14.09 2.93
13 -1 -5 12.82 2.63
13 -1 -5 15.02 2.91
5 13 1 15.41 2.44
5 -13 -1 13.07 2.72
5 -13 -1 13.39 3.42
-5 13 -1 14.65 2.97
-13 -1 5 17.85 3.28
-13 1 -5 13.94 2.19
-13 1 -5 6.03 2.95
-5 -13 1 17.51 2.46
-5 -13 1 14.01 2.61
-1 5 -13 12.09 2.97
1 5 13 18.38 2.59
1 5 13 15.24 2.99
-13 -1 5 11.61 2.77
-13 -1 5 10.46 2.58
-13 -1 5 10.12 2.59
-13 -1 5 12.33 2.48
-1 5 -13 15.52 2.68
1 -5 -13 17.91 2.94
1 -5 -13 15 2.73
-13 1 -5 11.87 3.19
-13 1 -5 11.78 3.18
-5 -13 1 11.78 3.34
13 1 5 12.14 2.99
-1 5 -13 18.36 2.59
5 13 1 15.01 2.41
5 13 1 11.71 2.82
13 1 5 11.77 3.2
13 1 5 11.62 2.72
5 13 -3 30.41 3.82
3 -5 13 16.66 4.1
-3 5 13 26.09 3.81
-13 -3 -5 24.64 3.6
-3 5 13 26.83 3.33
-3 5 13 30.34 3.82
5 -13 3 26.14 3.56
5 -13 3 26.95 4.29
5 13 -3 27.35 3.16
-13 -3 -5 25.1 3.26
13 -3 5 17.87 3.84
13 3 -5 25.76 3.3
13 3 -5 23.45 3.6
-5 -13 -3 26.42 3
5 13 -3 25.05 3.9
-13 3 5 22.87 3.26
-13 3 5 18.69 3.14
13 -3 5 25.07 3.86
3 5 -13 21.95 3.88
-3 5 13 23.01 3.54
-3 5 13 26.69 4.15
-5 -13 -3 28.42 3.96
-5 -13 -3 24.53 3.83
-3 -5 -13 25.42 3.59
13 -3 5 28.68 3.3
3 -5 13 23.65 2.89
5 13 -3 22.6 3.4
5 -13 3 24.61 3.56
-13 -3 -5 21.19 3.7
-5 13 3 22.57 2.96
-5 13 3 32.04 4.33
-5 13 3 36.47 4.33
-5 13 3 24.44 3.73
3 -5 13 17.6 4.36
3 5 -13 23.52 3.42
3 5 -13 27.4 3.35
-13 3 5 24.16 3.45
-13 3 5 23.7 2.97
-13 3 5 38.93 4.53
-13 -3 -5 20.27 3.7
-13 3 5 22.87 3.84
-5 -13 -3 31.38 3.64
3 5 -13 26.16 3.29
-3 -5 -13 29.89 3.5
-3 -5 -13 29.15 3.36
-5 -13 -3 23.55 3.48
3 -5 13 25.99 3.43
13 -3 5 22.28 3.3
-13 3 -5 24.49 2.84
5 13 3 28.23 3.71
5 -13 -3 19.08 3.88
13 -3 -5 24.07 3.15
13 -3 -5 25.32 3.58
5 13 3 26.57 3.22
13 -3 -5 25.49 3.6
5 -13 -3 33.23 4.37
-13 3 -5 22.32 3.77
-13 3 -5 23.79 3.82
13 3 5 24.29 3.25
3 5 13 33.21 4.04
-5 13 -3 28.8 3.92
-13 -3 5 15.18 3.3
-3 -5 13 22.02 3.3
-3 -5 13 26.83 3.38
-3 -5 13 21.15 3.73
3 5 13 30.35 3.91
5 -13 -3 24.4 3.39
-5 -13 3 21.85 4.03
-5 13 -3 25.25 3.35
-5 13 -3 28.59 3.47
5 13 3 23.44 3.3
-13 -3 5 24.9 3.54
-13 -3 5 25.38 3.28
-5 -13 3 23.69 3.44
-5 -13 3 21.87 3.31
-13 -3 5 29.03 4.09
13 3 5 26.09 3.93
13 3 5 21.46 3.83
3 5 13 28.85 3.84
-3 5 -13 26.05 3.36
-3 5 -13 26.71 3.36
-3 5 -13 21.12 3.69
-3 5 -13 21.15 3.83
-3 -5 13 25.85 4.41
-13 -3 5 25 3.53
-3 5 -13 30.6 3.69
3 -5 -13 32.97 3.83
3 -5 -13 28.91 3.26
3 -5 -13 21.89 3.35
5 13 3 30.95 3.23
5 13 3 22.01 3.58
3 5 13 28.45 3.24
-13 3 -5 18.99 3.45
-13 -5 -5 27.61 3.52
-13 -5 -5 30.76 3.92
-13 -5 -5 28.72 3.65
5 5 -13 27.31 4.22
-5 -13 -5 33.25 3.82
-5 5 13 29.2 3.71
5 5 -13 31.79 3.63
-13 5 5 22.83 3.63
-5 5 13 34.87 3.96
-5 5 13 24.26 3.8
5 -5 13 26.61 4.55
5 5 -13 31.19 3.78
13 5 -5 24.64 3.81
-13 -5 -5 26.79 3.86
-5 -5 -13 39.32 4.6
-5 5 13 28.34 4.17
-5 -5 -13 29.51 4.01
-5 13 5 26.29 3.38
-5 13 5 34.24 4.52
-5 13 5 36.45 4.72
-5 13 5 28.73 4.16
-5 -13 -5 28.43 4.01
13 -5 5 21.14 3.52
13 5 -5 25.93 3.51
-13 5 5 38.08 3.92
5 -13 5 30 3.45
5 -13 5 27.38 3.88
5 -13 5 35.66 4.87
5 -13 5 28.2 4.7
-13 5 5 22.21 3.48
13 -5 5 27.01 4.25
13 -5 5 30.55 3.94
5 -5 13 28.31 3.72
5 -5 13 25.13 4.42
5 13 -5 26.27 3.75
5 13 -5 26.35 4.25
-13 5 5 41.54 4.83
-5 -13 -5 36.39 4.31
-5 -13 -5 32.17 4.01
-5 -13 -5 29.44 3.74
-5 -13 -5 35.31 4.25
-5 -5 -13 33.66 4.59
5 5 -13 29.99 4.16
-13 5 5 26.14 4.19
-13 5 5 28.55 3.77
-5 5 13 33.67 4.66
-5 -5 -13 36.35 4.33
-13 5 5 26.85 3.55
5 13 -5 33.27 3.98
5 13 -5 31.34 3.46
-13 -5 -5 26.66 4.07
-13 5 -5 21.03 3.54
5 13 5 36.59 4.27
-5 13 -5 33.6 4.63
-5 13 -5 26.33 4.05
5 5 13 31.15 4.28
5 5 13 35.32 4.11
5 5 13 37.45 4.4
5 -5 -13 32.51 3.9
5 -5 -13 36.73 4.24
5 -5 -13 24.27 3.76
5 -13 -5 31.33 3.96
-5 5 -13 28.29 3.78
13 5 5 25.51 4.1
-5 5 -13 26.84 4.02
-5 -5 13 30.08 3.74
-5 -5 13 26.67 3.55
-5 -5 13 25.08 4.68
5 13 5 36.97 4.9
13 -5 -5 29.92 3.77
13 -5 -5 27.29 3.39
13 -5 -5 29.03 4.43
5 -13 -5 37.81 4.64
5 5 13 35.17 4.83
-13 -5 5 29.57 3.79
-5 5 -13 26.47 4.15
-5 13 -5 37.64 3.78
5 -13 -5 27.54 3.73
-5 -13 5 26.6 3.55
-5 -13 5 27.85 3.51
-5 5 -13 26.28 3.55
-5 -13 5 27.05 4.66
13 5 5 37.59 4.33
-13 -5 5 29.83 4.01
13 5 5 29.48 4.16
-13 5 -5 26.24 4.15
-5 -13 5 23.48 3.6
5 13 5 30.31 3.84
5 13 5 32.66 4.44
5 -13 -5 24.31 4.24
-5 13 -5 28.7 3.78
-13 -5 5 28.46 3.6
-13 -5 5 22.68 3.78
-13 -5 5 48.55 5.53
-13 5 -5 31.94 3.87
-13 5 -5 27.42 4.13
-13 5 -5 26.69 4.08
-13 7 5 48.68 7.01
5 -13 7 49.65 5.87
5 -13 7 50.89 6.55
-13 7 5 59.28 6.4
-13 7 5 63.77 6.45
-7 -5 -13 59.02 5.9
-7 -5 -13 64.72 6.2
-7 -5 -13 59.48 6.62
13 -7 5 51.41 5.89
-5 13 7 54.07 6.35
-5 13 7 54.82 6.76
13 7 -5 42.52 5.99
-13 7 5 49.95 6.22
5 -13 7 59.24 6.64
13 7 -5 56.51 5.92
13 7 -5 50.56 6.7
-7 5 13 53.73 6.1
-5 13 7 70.85 6.14
-5 -13 -7 61.89 6.2
-5 -13 -7 53.41 6.49
-5 13 7 46.46 5.69
5 13 -7 52.34 7.21
-13 7 5 45.42 6.26
-7 5 13 52.7 7.12
-5 -13 -7 57.5 6.11
-5 -13 -7 61.02 5.72
-5 -13 -7 65 5.63
-5 -13 -7 62.2 6.34
7 5 -13 59.81 6
7 5 -13 49.88 7.08
-7 5 13 54.81 5.48
-7 5 13 51.15 6.28
-7 5 13 55.21 7.75
-13 -7 -5 52.37 6.25
5 13 -7 55.06 5.49
5 -13 7 54.7 7.62
-13 7 5 63.3 5.48
7 5 -13 58.6 6.33
7 -5 13 49.9 6.12
13 -7 5 50.7 6.82
13 -7 5 47.81 6.73
-13 -7 -5 57.15 5.92
-13 -7 -5 53.6 6.42
-13 -7 -5 53.95 6
-13 -7 -5 53.4 6.84
5 13 -7 54.25 5.76
7 -5 13 50.76 7.36
7 -5 13 52.4 7.08
-13 7 5 58.31 5.95
5 13 -7 58.49 6.47
-13 -7 5 72.23 7.33
-5 -13 7 47.72 6.17
-13 7 -5 56.66 6.88
-13 7 -5 50.81 6.76
-13 7 -5 43.86 6.37
-5 -13 7 62.46 6.08
5 -13 -7 47.87 6.98
5 -13 -7 51.91 6.3
-13 7 -5 61.98 5.91
-5 13 -7 51.83 5.55
-5 13 -7 53.49 6.31
-5 13 -7 56.87 6.46
-7 -5 13 57.57 6.32
-7 -5 13 57.38 6.03
7 5 13 59.49 5.87
7 5 13 67.46 6.09
7 5 13 54.19 6.62
-5 -13 7 56.03 7.54
-13 -7 5 53.12 6.19
-13 -7 5 54.5 5.91
-13 -7 5 46.99 6.39
-5 13 -7 52.91 6.81
-7 5 -13 57.79 6.67
-7 5 -13 58.12 6.61
-7 5 -13 47.27 6.85
-7 5 -13 50.02 6.69
5 -13 -7 54.68 6.22
13 7 5 59.56 5.85
13 7 5 55.52 6.8
13 7 5 59.74 6.72
5 13 7 57.2 5.8
5 13 7 56.81 6.47
5 13 7 51.65 6.33
5 13 7 64.31 6.33
7 -5 -13 48.43 6.32
7 -5 -13 62.98 5.79
7 -5 -13 45.71 6.12
-7 5 -13 54.47 6.22
13 -7 -5 60.31 6.24
-13 7 -5 54.33 6.82
13 -7 -5 55.31 7.12
-5 -13 7 56.59 5.9
-7 -5 13 51.81 7.8
13 -7 -5 50.14 5.58
7 5 13 57.74 7.24
-9 5 13 14.75 2.43
-5 13 9 21.46 2.83
13 9 -5 16.56 3.13
-9 5 13 13.53 3.54
5 13 -9 11.6 2.81
-5 -13 -9 15.27 2.76
-5 -13 -9 14.61 2.88
-5 -13 -9 11.86 2.87
-5 -13 -9 15.39 3.18
-9 5 13 11.26 2.89
-9 -5 -13 12.14 3.09
-13 9 5 13.99 2.83
-13 9 5 11.53 2.85
-13 9 5 11.25 3.24
-13 9 5 8.36 2.88
9 -5 13 11.46 2.91
5 -13 9 10.95 2.75
5 -13 9 13.28 3.69
5 -13 9 11.69 4.09
5 13 -9 12.42 2.78
-5 13 9 13.08 3.18
-9 -5 -13 16.65 3.31
-9 5 13 13.73 4.12
-13 -9 -5 11.65 3.01
-5 -13 -9 17.18 3.15
-13 -9 -5 18.08 3.09
-13 -9 -5 12.82 3.28
-13 -9 -5 10.56 2.8
-13 9 5 13.73 3.01
13 -9 5 14.93 3.72
13 -9 5 16.95 3.72
-9 -5 -13 17 2.82
-13 -9 -5 14.88 3.33
-5 13 9 11.28 2.57
9 5 -13 13.53 3.19
-5 13 9 14.64 2.95
-9 -5 -13 14.79 3.12
5 13 -9 8.16 3.51
5 -13 9 16.41 3.12
13 9 -5 12.96 3.2
9 5 -13 13.26 3.51
13 9 -5 10.86 2.59
13 9 -5 14.18 2.84
9 -5 13 4.21 3.96
9 5 -13 12.99 3.02
9 -5 13 10.02 3.79
-9 5 13 12.31 2.93
5 -13 -9 15.91 2.73
9 5 13 18.12 3.53
9 5 13 14.71 2.67
9 5 13 11.47 2.88
-9 5 -13 7.14 3.26
5 13 9 17.03 2.7
-5 13 -9 11.85 3.35
13 9 5 10.52 3.23
5 -13 -9 9.78 3.61
-13 9 -5 16.65 3.46
-13 9 -5 11.08 3.39
13 -9 -5 12.27 3.54
13 9 5 14.22 2.74
5 13 9 14.67 3.17
5 -13 -9 15.19 3.02
-9 -5 13 12.43 3.1
-9 -5 13 12.8 2.8
-9 -5 13 11.38 4.16
-13 -9 5 11.72 3.1
-9 5 -13 11.64 3.31
-9 5 -13 16.58 3.33
5 -13 -9 11.81 3.2
-5 -13 9 11.99 2.94
-5 -13 9 8.48 4.12
-5 13 -9 12.25 2.56
-5 13 -9 11.98 2.88
5 13 9 17.08 2.86
9 -5 -13 11.81 3.13
9 -5 -13 19.03 2.89
9 -5 -13 10.78 2.89
-9 5 -13 14.07 3.04
13 9 5 12.24 3.44
-5 13 -9 11.1 3.23
-13 -9 5 9.84 2.73
-13 -9 5 9.65 2.89
-13 -9 5 15.29 4.07
-13 9 -5 18.24 2.77
-13 9 -5 17.96 3.07
-5 -13 9 14.78 3.11
-5 -13 9 14.65 2.85
9 5 13 13 3.9
5 13 9 9.82 3.27
13 -9 -5 14.51 3.09
-9 5 -13 8.8 3.17
-13 11 5 12.64 2.94
11 -5 13 19.12 4
-13 11 5 11.95 3.4
-11 -5 -13 21.83 3.1
-11 5 13 15.73 3.25
-11 5 13 15.15 2.65
-13 11 5 20.28 3.2
-13 11 5 14.34 3.23
-11 -5 -13 18.26 3.38
-5 13 11 15.91 2.88
-5 13 11 19.5 3.22
-5 13 11 17.15 3.6
13 -11 5 18.84 4.09
11 5 -13 17.9 3.46
11 5 -13 14.24 3.11
11 5 -13 12.17 3.73
-5 -13 -11 20.72 3.44
-11 -5 -13 19.57 3.39
-13 11 5 16.79 3.4
5 -13 11 19.42 4.53
5 13 -11 17 3.1
5 13 -11 16.14 3.33
5 13 -11 11.9 3.66
-5 -13 -11 19.06 3.13
-5 -13 -11 24.94 3.45
-13 -11 -5 13.17 3.31
13 11 -5 17.65 2.88
-5 -13 -11 20.73 3.27
-13 -11 -5 15.91 3.22
13 -11 5 14.69 2.88
13 -11 5 16.63 3.84
11 -5 13 17.57 4.08
-11 -5 -13 20.55 3.6
13 11 -5 18.37 3.14
13 11 -5 21.41 3.55
13 11 -5 15.86 3.19
5 -13 11 15.94 3.24
5 -13 11 16.84 3.39
5 -13 11 16.59 3.96
-13 -11 -5 22.09 3.73
-13 -11 -5 14.19 3.28
-11 5 13 15.78 3.83
-13 -11 -5 17.78 3.07
-5 -13 -11 22.4 3.04
-11 5 13 14.23 4.32
-11 5 13 16.41 3.15
11 -5 13 15.49 3.17
-11 5 -13 13.66 3.61
-11 5 -13 15.23 3.36
5 13 11 21.38 3
5 -13 -11 19.35 3.55
-11 5 -13 18.09 3.69
-11 5 -13 15.96 3.23
11 5 13 16.23 4.15
11 5 13 25.35 3.18
11 -5 -13 17.07 3.42
13 -11 -5 11.96 2.85
13 -11 -5 15.27 3.99
-13 11 -5 20.53 3.5
-5 -13 11 16.25 3.43
-5 -13 11 17.18 3.38
-5 -13 11 16.08 3.16
-5 -13 11 16.38 3.18
-5 -13 11 16.26 4.51
-5 13 -11 18.03 2.87
-5 13 -11 16.37 3.21
-5 13 -11 15.23 3.53
-5 13 -11 16.18 3.7
-11 -5 13 14.77 3.25
-11 -5 13 14.28 3.01
-11 -5 13 10.29 4.43
-13 -11 5 15.34 3.08
-13 -11 5 17.63 3.23
-13 -11 5 21.3 4.35
-13 11 -5 24.89 3.09
5 -13 -11 18.29 3.75
13 -11 -5 20.07 3.5
5 13 11 19.71 3.38
11 -5 -13 20.58 3.02
11 -5 -13 15.33 3.17
-11 5 -13 13.13 3.6
13 11 5 20.16 3.72
5 -13 -11 19.87 2.88
5 -13 -11 19.6 3.24
-13 11 -5 16.92 3.52
-13 11 -5 14.68 3.53
-13 -11 5 16.4 3.32
5 13 11 21.17 3.73
11 5 13 22.64 3.77
13 11 5 18.33 3.13
13 11 5 17.1 3.49
11 5 13 18.61 3.11
5 13 11 23.98 3.05
7 13 -1 14.04 2.53
-7 13 1 13.14 2.79
-7 13 1 13.86 3.13
-1 -7 -13 15.66 2.84
-1 7 13 16.35 3.19
-7 -13 -1 12.46 2.76
-7 -13 -1 13.61 3.31
-13 -1 -7 10.03 3.16
-13 -1 -7 13.49 3.03
-13 1 7 13.33 2.7
-13 1 7 8.62 2.39
-13 1 7 15.05 3.34
-13 -1 -7 11.94 3.4
7 13 -1 15.01 2.62
1 -7 13 11.49 4.01
1 7 -13 13.67 2.63
1 7 -13 14.3 2.78
1 7 -13 11.64 2.37
7 -13 1 14.36 2.46
7 -13 1 17.69 3.05
-13 -1 -7 20.57 2.47
-7 -13 -1 13.38 2.81
1 -7 13 14.81 2.42
1 -7 13 12.61 2.75
1 7 -13 14.15 2.87
1 7 -13 13.38 3.28
-13 1 7 9.42 2.53
-13 1 7 14.46 3.7
13 -1 7 14.11 3.29
-1 7 13 14.72 2.67
-1 7 13 15.88 2.47
-1 7 13 13.42 3.01
-13 1 7 9.59 2.77
-13 1 7 13.3 2.55
-7 13 1 18.21 3.09
1 -7 13 14.2 2.77
13 1 -7 15.26 2.92
-1 7 13 14.26 3.5
-1 -7 -13 18.06 2.87
7 13 -1 13.93 2.95
1 -7 13 12.57 3.51
-1 -7 -13 13.69 2.82
13 -1 7 15.53 2.36
13 -1 7 10.85 2.75
-7 13 1 15.19 2.76
13 -1 7 11.28 3.41
13 1 -7 13.89 3.03
13 1 -7 12.49 2.68
-7 13 1 10.05 2.11
7 -13 -1 13.94 2.67
-13 1 -7 14.59 2.25
1 7 13 14.55 3.41
13 1 7 13.55 3.21
7 -13 -1 14.29 2.91
-7 -13 1 14.8 2.84
-7 -13 1 15.83 2.48
-7 -13 1 12.61 2.78
-7 -13 1 12.75 3.35
-7 13 -1 15.71 2.77
-7 13 -1 14.93 2.8
-7 13 -1 12.76 3.13
13 1 7 13.63 2.5
7 13 1 11.81 2.41
1 -7 -13 17.97 2.99
13 -1 -7 12.48 3.05
13 -1 -7 15.2 2.66
13 -1 -7 11.05 2.82
7 -13 -1 14.9 3.48
1 7 13 17.16 2.52
-1 -7 13 12.91 2.67
-1 -7 13 10.73 2.69
-1 -7 13 14.64 2.64
-1 -7 13 16.21 3.4
-1 -7 13 12.4 4.08
-1 7 -13 15.95 2.48
-1 7 -13 12.8 2.64
-1 7 -13 11.73 2.51
-1 7 -13 7.42 2.51
-1 7 -13 8.95 3.27
-13 1 -7 11.28 2.91
-13 1 -7 12.22 3.23
-13 1 -7 14.2 3.35
1 7 13 13.3 2.99
7 13 1 14.92 3.06
-13 -1 7 13.28 3.71
1 -7 -13 18.67 2.64
1 -7 -13 14.38 2.79
7 13 1 15.74 2.64
7 13 1 12.67 2.92
1 7 13 16.46 2.58
13 1 7 13.05 2.82
-13 -1 7 18.41 2.69
13 1 7 11.3 3.47
-13 -1 7 11.39 2.9
-13 -1 7 12.65 2.62
3 7 -13 45.46 4.93
13 -3 7 31.44 4.85
13 3 -7 38.56 4.85
7 -13 3 43.37 5.36
-13 3 7 36.5 4.93
3 7 -13 42.33 4.88
3 7 -13 42.45 4.73
3 7 -13 32.33 4.74
13 -3 7 32.75 4.58
-7 -13 -3 33.06 4.13
13 3 -7 28.41 4.3
13 3 -7 31.98 4.61
-3 7 13 39.05 4.71
-3 7 13 41.95 4.34
-13 3 7 33.07 4.25
13 -3 7 27.34 4.14
-3 7 13 44.05 5.85
7 13 -3 44.72 4.76
7 13 -3 43.94 5.49
7 13 -3 34.18 4.75
3 -7 13 40.3 5.03
3 -7 13 36.62 5.29
3 -7 13 32.34 4.89
3 -7 13 33.01 5.22
-3 7 13 41.61 5.38
-3 7 13 41.12 5.09
7 -13 3 36.67 5.08
-7 -13 -3 40 5.43
-7 -13 -3 40.2 4.57
-7 -13 -3 42.68 5.13
7 13 -3 41.58 4.58
-13 3 7 33.29 4.61
-13 -3 -7 45.18 4.62
-13 -3 -7 31.65 4.31
-13 3 7 29.69 4.58
-7 13 3 39.33 4.46
-7 13 3 43.71 5
-7 13 3 41.66 5.14
-7 13 3 35.37 5.06
-7 13 3 43.68 5.65
-3 -7 -13 46.4 5.03
-3 -7 -13 48.13 4.82
7 -13 3 36.43 5.19
-3 -7 -13 41.35 5.11
-13 -3 -7 28.77 4.55
-7 -13 -3 41.78 5.28
-13 -3 -7 32.28 4.62
-3 -7 -13 47.26 4.78
-13 3 7 32.32 5.09
-13 3 7 29.06 4.71
7 13 3 36.98 4.66
13 -3 -7 40.26 4.62
-3 -7 13 35.35 5.24
13 3 7 35.42 4.85
13 3 7 37.84 4.85
-13 -3 7 32.27 5.19
3 -7 -13 41.16 5.1
-13 3 -7 28.2 4.59
13 3 7 30.4 4.19
3 7 13 49.05 5.25
7 -13 -3 37.29 4.81
7 -13 -3 46.93 5.21
7 -13 -3 32.99 4.84
-3 -7 13 31.24 5.2
-13 -3 7 47.33 5.18
-13 -3 7 31.16 4.26
-3 7 -13 29.54 4.58
-3 7 -13 25.55 4.56
3 7 13 41.4 4.91
-13 3 -7 32.94 4.72
-7 13 -3 44.3 5.22
-7 13 -3 40.57 5.16
13 -3 -7 33.17 4.44
3 -7 -13 49.75 4.7
-3 -7 13 40.59 4.91
-13 -3 7 25.78 4.01
-3 7 -13 32.13 4.1
-3 7 -13 37.93 5.12
-7 -13 3 45.12 4.71
3 -7 -13 40.9 5.22
-7 -13 3 34.45 4.98
-7 -13 3 41.39 5.05
3 7 13 47.4 5.66
-13 -3 7 42.67 4.81
-7 13 -3 41.36 5.79
7 13 3 43.87 5.56
7 13 3 38.77 4.9
7 13 3 43.53 5.25
3 7 13 44.91 4.67
3 7 13 43.7 4.69
-13 3 -7 34.38 4.28
3 7 13 42.56 5.52
-7 -13 3 36.02 5.04
-5 -7 -13 59.84 6.05
7 13 -5 53.84 5.58
7 13 -5 51.73 7.23
7 13 -5 59.16 6.59
5 7 -13 50.61 6.88
-5 7 13 58.31 6.07
-5 7 13 60.71 5.35
-5 7 13 47.14 6.26
-5 7 13 62.83 7.53
-7 13 5 51.02 5.65
-7 13 5 68.38 6.1
-7 13 5 52.73 6.29
7 -13 5 53.23 5.61
7 -13 5 54.94 6.5
-5 -7 -13 64.71 6.25
7 13 -5 55.8 5.8
5 -7 13 49.68 6.51
5 -7 13 47.17 6.07
5 -7 13 47.85 7.42
13 -5 7 51.41 5.9
-13 5 7 50.54 6.03
7 -13 5 55.74 6.61
7 -13 5 48.19 7.41
-7 13 5 51.49 6.79
-5 -7 -13 63.89 6.06
-13 5 7 50 7.16
5 -7 13 50.15 7.1
-7 -13 -5 61.14 5.91
5 7 -13 56.06 6.05
5 7 -13 58.22 6.01
-13 -5 -7 46.54 6.5
13 -5 7 53.38 6.51
13 5 -7 55.67 5.89
13 5 -7 48.28 6.31
13 5 -7 52.86 6.86
-13 -5 -7 55.73 5.84
-13 5 7 59.16 5.28
-13 5 7 51.02 6.28
-13 5 7 54.41 6.26
-13 5 7 52.3 5.96
-13 5 7 52.81 5.98
-13 -5 -7 51.78 6.92
-7 -13 -5 58.18 6.1
13 -5 7 50.42 6.94
-7 -13 -5 56.1 5.72
-7 -13 -5 59.07 6.44
-7 -13 -5 57.52 5.89
-5 -7 -13 54.98 6.4
-13 -5 -7 54.07 6.2
-5 7 13 55.6 6.95
-13 -5 7 55.69 5.92
-7 -13 5 47.97 6.27
-7 -13 5 57.08 5.88
-13 -5 7 50.98 6.13
7 -13 -5 52.98 6.14
-13 -5 7 52.47 6.25
13 5 7 50.89 7.06
13 5 7 62.15 5.89
-13 5 -7 44.36 6.13
-13 5 -7 47.03 6.73
-7 13 -5 51.21 6.86
-7 -13 5 55.04 7.37
-5 -7 13 57.76 6.01
-5 -7 13 51.96 5.84
-5 -7 13 54.39 7.91
-5 7 -13 50.14 6.08
-5 7 -13 53.16 6.4
-5 7 -13 49.77 6.75
-7 -13 5 49.04 6.01
5 7 13 60.66 5.7
5 7 13 65.33 5.92
5 7 13 61.52 6.31
5 7 13 54.07 6.6
-13 -5 7 58.89 7.47
5 -7 -13 58.4 6.21
5 -7 -13 60.27 5.59
5 -7 -13 46.9 6.18
13 5 7 59.52 7.04
7 13 5 52.5 6.59
7 13 5 57.13 6.22
13 -5 -7 49.69 6.22
-13 5 -7 43.47 6.19
-5 7 -13 47.4 6.81
7 -13 -5 61.86 6.23
7 -13 -5 47.18 7.05
-7 13 -5 55.56 6.53
7 13 5 54.23 5.78
13 -5 -7 58 5.59
-7 13 -5 58.56 5.39
-13 5 -7 53.91 6.96
-7 13 -5 52.42 6.46
-13 5 -7 50.73 6.8
-13 7 7 103.5 9.72
7 -7 13 95.93 9.26
7 -7 13 77.44 10.39
-13 7 7 94.74 9.16
-13 7 7 104.59 9.76
7 13 -7 95.56 10.49
13 7 -7 97.95 9.93
-7 13 7 92.13 10.16
-13 -7 -7 93.79 10.1
-7 13 7 120.36 9.51
-13 7 7 111.89 8.56
7 7 -13 108.56 9.13
7 7 -13 92.21 10.41
7 -7 13 72.84 10.82
-7 13 7 94.41 9.07
7 13 -7 108.49 8.96
7 13 -7 101.69 9.9
-13 -7 -7 94.44 9.82
13 7 -7 95.38 10.25
7 13 -7 97.27 8.86
7 -13 7 115.72 10.2
-13 -7 -7 105.61 9.29
-13 -7 -7 108.37 9.4
-7 13 7 113.19 9.91
-7 7 13 105.04 10.82
-7 7 13 104.08 10.51
13 -7 7 106.77 10.33
-7 7 13 105.56 9.32
-7 7 13 105.57 8.6
-7 7 13 90.5 9.84
-7 -7 -13 109.89 9.97
7 -13 7 97.62 9.95
13 -7 7 93.28 9.07
7 -13 7 105.91 10.9
13 -7 7 100.99 10.24
-7 -7 -13 108.89 9.18
-7 -7 -13 123.76 9.25
-7 -13 -7 121.2 9.09
13 7 -7 96.29 9.08
7 7 -13 96.2 9.37
-7 -13 -7 101.81 9.63
-13 7 7 93.4 10.42
-7 -13 -7 114.33 8.98
-7 -13 -7 96.37 9.8
7 -13 7 99.89 9.09
-13 7 7 90.21 9.74
-13 7 7 95.69 9.72
-7 -13 -7 116.06 9.4
-13 7 -7 99.59 10.18
7 -13 -7 102.68 9.94
7 -13 -7 82.37 10.5
7 -13 -7 99.74 9.43
-7 -13 7 101.75 9.32
-13 -7 7 101.34 9.55
-7 13 -7 107.2 8.8
-7 13 -7 91.38 9.99
-7 13 -7 102.2 10.37
-13 7 -7 95.66 9.31
7 7 13 109.74 9.07
-7 -7 13 97.96 9.36
13 7 7 99.2 10.11
13 7 7 93.85 10.18
13 -7 -7 97.02 10.47
-7 -13 7 103.99 9.07
-7 -13 7 86.38 9.6
-7 -13 7 94.57 10.83
-13 7 -7 108.29 10.18
-7 7 -13 81.68 10.15
-13 7 -7 101.24 9.96
7 13 7 93.91 9.82
-13 -7 7 108.27 9.47
7 -7 -13 105.22 9.57
7 -7 -13 100.08 9.77
-7 13 -7 106.08 10.04
-13 -7 7 86.95 9.62
-13 -7 7 103.49 10.73
-13 7 -7 108.59 10.29
-7 -7 13 101.58 9.18
-7 -7 13 97.5 11.04
7 7 13 120.2 9.14
7 7 13 117.54 9.98
7 7 13 101.81 10.24
13 7 7 108.51 9.15
7 13 7 100.38 10.04
-13 -7 7 89.57 9.09
13 -7 -7 96.2 9.37
13 -7 -7 102.86 8.68
-7 7 -13 98.43 9.22
-7 7 -13 100.5 9.9
7 13 7 112.26 9.16
-7 7 -13 80.36 10.3
-7 13 9 19.69 3.11
-9 7 13 18.69 3.29
-13 -9 -7 23.72 3.44
-7 13 9 17.94 3.52
-13 -9 -7 20.19 3.6
-13 -9 -7 18.22 3.33
-9 7 13 20.46 3.4
-13 9 7 17.65 3.38
-13 9 7 18.47 3.3
-13 9 7 16.91 3.31
7 -13 9 20.21 4.13
7 -13 9 23.35 4.64
7 13 -9 14.91 3.03
-7 -13 -9 24.09 3.48
13 -9 7 18.69 4.05
13 -9 7 22.81 4.18
9 -7 13 19.8 3.28
9 -7 13 16.35 4.03
9 -7 13 18.26 4.41
9 7 -13 24.69 3.39
-13 9 7 14.46 3.7
-9 -7 -13 25.25 3.26
-9 -7 -13 23.46 3.41
-9 -7 -13 23.01 3.55
-9 -7 -13 17.38 3.55
-13 -9 -7 19.33 3.64
-7 13 9 32.73 4.09
-7 13 9 20.46 3.43
7 13 -9 17.51 3.4
-9 7 13 26.4 4.52
-9 7 13 17.99 3.91
-7 -13 -9 19.46 3.35
7 13 -9 18.31 3.98
7 -13 9 20.89 3.57
-13 9 7 21.91 3.22
13 9 -7 19.46 3.77
13 -9 7 19.89 3.19
-7 -13 -9 26.72 3.31
-13 -9 -7 19.38 3.28
13 9 -7 18.8 3.16
9 7 -13 17.83 3.87
13 9 -7 17.62 3.5
-7 -13 -9 21.85 3.31
-7 13 -9 19.26 3.7
-13 9 -7 20.63 3.53
-9 7 -13 19.24 3.33
-7 13 -9 18.42 3.36
9 -7 -13 20.35 3.37
-9 7 -13 20.76 3.74
9 7 13 18.98 3.65
9 7 13 20.17 4.18
7 13 9 21.64 3.51
-9 7 -13 18.75 3.56
-9 7 -13 11.69 3.64
9 -7 -13 24.46 3.05
-13 -9 7 17.14 3.18
-7 13 -9 21.71 3.03
13 -9 -7 16.89 3.53
-7 13 -9 15.48 3.54
-13 -9 7 18.25 4.51
-13 9 -7 22.48 3.33
-13 9 -7 19.33 3.79
-13 9 -7 18.38 3.55
7 -13 -9 24.01 3.72
7 -13 -9 18.56 3.06
7 13 9 22.88 3.25
7 -13 -9 18.75 3.38
7 -13 -9 18.96 4.05
-9 -7 13 15.88 3.14
-9 -7 13 13.29 4.56
-9 -7 13 21.84 3.51
-13 -9 7 21.35 3.2
-7 -13 9 17.24 3.5
-7 -13 9 16.7 3.24
-7 -13 9 16.03 3.08
-7 -13 9 17.96 4.49
-13 9 -7 19.9 3.85
-9 7 -13 17.42 3.69
13 9 7 21.41 3.14
-13 -9 7 20.5 3.65
7 13 9 21.23 3.56
9 -7 -13 19.48 3.71
13 9 7 17.01 3.51
13 9 7 19.83 3.99
9 7 13 22.82 3.24
13 -9 -7 19.79 4.12
9 7 13 23.39 3.09
13 -11 7 16.59 4.38
-11 7 13 18.39 4.43
13 -11 7 18.66 4.02
7 -13 11 18.13 3.32
-7 -13 -11 25.38 3.31
-7 13 11 16.82 2.95
-7 13 11 14.05 3.21
-7 13 11 14.61 3.49
-11 7 13 18.68 3.27
-13 11 7 17.07 3.09
-13 11 7 14.31 3.18
7 -13 11 18.81 3.54
7 -13 11 17.46 4
11 7 -13 17.86 3.11
13 11 -7 12.92 3.39
13 11 -7 17.45 3.59
-11 7 13 18.19 3.33
7 13 -11 20.75 3.27
7 13 -11 16.9 3.44
-11 -7 -13 20.9 3.42
13 11 -7 14.27 3.04
-11 -7 -13 15.36 3.33
-13 11 7 18.04 3.32
-13 -11 -7 19.9 3.69
-13 -11 -7 14.19 3.36
-13 -11 -7 13.92 3.51
-7 -13 -11 18.4 3.19
11 7 -13 14.25 3.83
7 13 -11 12.8 3.86
-13 11 7 15.11 3.26
-13 11 7 8.9 3.68
-11 -7 -13 21.58 3.59
-13 -11 -7 18.62 3.23
7 -13 11 14.91 4.53
-13 -11 -7 22.93 3.51
11 -7 13 16.68 3.17
11 -7 13 14.42 3.96
11 -7 13 23 4.36
-7 -13 -11 17.91 3.15
-7 -13 -11 25.28 3.48
-11 -7 -13 18.67 3.18
-11 7 -13 14 3.45
7 -13 -11 12.39 3.83
-7 -13 11 20.86 3.73
13 11 7 13.66 3.52
-13 -11 7 16.66 4.52
-13 -11 7 15.53 3.2
11 -7 -13 19.2 3.62
11 7 13 17.38 4.25
-7 13 -11 15.15 3.3
-7 13 -11 17.39 3.6
-7 -13 11 18.19 3.51
7 -13 -11 21.54 3.72
7 -13 -11 20.97 2.93
-7 -13 11 13.43 3.08
-7 -13 11 14.95 3.13
-11 7 -13 14.15 3.64
-7 -13 11 14.4 4.75
-7 13 -11 15.86 2.92
11 7 13 23.01 3.28
11 -7 -13 18.96 2.88
11 -7 -13 16 3.25
-11 -7 13 13.32 4.53
-11 7 -13 16.5 3.32
-11 7 -13 13.91 3.62
11 7 13 25.53 3.28
7 13 11 23.17 3.58
7 13 11 20.26 3.67
-11 -7 13 17.51 3.45
13 -11 -7 21.97 3.68
13 -11 -7 17.91 3.13
13 -11 -7 14.43 3.91
13 11 7 16.94 2.95
-13 -11 7 17.83 3.45
-13 -11 7 15.61 3.2
11 7 13 19.66 3.67
-7 13 -11 18.66 3.64
-13 11 -7 15.69 3.53
-13 11 -7 19.42 3.51
13 11 7 17.43 3.89
9 -13 1 14.34 3.07
-13 1 9 10.33 2.92
13 -1 9 7.53 2.77
-9 13 1 11.31 2.8
-13 1 9 10.66 3.69
-1 -9 -13 13.65 2.65
-1 -9 -13 7.76 2.7
-9 13 1 9.52 2.54
-9 13 1 12.4 3.13
-1 -9 -13 12.81 2.77
9 13 -1 10.52 2.47
1 -9 13 13.53 4.06
1 9 -13 10.64 2.57
13 -1 9 15.59 2.33
13 -1 9 9.69 3.39
13 -1 9 10.1 3.58
13 1 -9 9.06 3.05
13 1 -9 9.03 2.8
13 1 -9 12.57 3.34
-1 9 13 12.42 3.15
-13 1 9 11.35 3.32
-9 -13 -1 12.2 2.91
-13 1 9 7.13 2.39
1 -9 13 12.98 2.72
1 -9 13 7.39 3.42
1 -9 13 10.66 2.69
-13 -1 -9 6.52 2.84
-13 -1 -9 8.79 3.34
-9 -13 -1 8.01 2.81
-9 -13 -1 -1.22 3.21
1 9 -13 9.07 2.48
1 9 -13 10.45 2.76
1 9 -13 7.45 3.28
9 13 -1 8.67 3.2
-9 -13 -1 9.71 2.54
-13 1 9 3.56 2.24
1 -9 13 12.92 2.38
-9 13 1 8.46 2.06
-9 13 1 10.15 2.87
-1 9 13 10.24 2.94
-13 -1 -9 5.83 3.25
9 13 -1 9.48 2.56
9 13 -1 8.13 2.85
9 -13 1 10.56 2.93
-1 9 13 11.96 2.54
9 -13 1 9.3 3.51
-13 -1 -9 16.21 2.42
-1 9 13 11.64 2.27
9 -13 -1 10.51 3.39
-9 -13 1 9.35 3.31
9 13 1 8.54 2.49
9 -13 -1 12.56 2.84
9 13 1 8.6 2.86
9 13 1 9.83 3.01
13 -1 -9 10.06 3.06
-1 9 -13 8.9 2.65
-1 9 -13 10.35 2.52
-9 -13 1 12.34 2.99
-9 -13 1 9.86 2.57
-9 -13 1 10.08 2.77
-1 -9 13 10.71 2.73
-1 -9 13 10.02 2.76
-13 1 -9 9.22 3.25
-1 -9 13 10.58 3.32
-1 9 -13 6.53 3.16
13 -1 -9 10.59 2.84
9 13 1 12.61 2.67
1 9 13 11.45 3.12
13 1 9 14.9 2.56
13 1 9 8.19 2.72
13 1 9 12.49 3.29
-9 13 -1 10.19 2.97
-9 13 -1 12.11 2.7
-9 13 -1 11.64 3.03
-1 -9 13 12.3 4.17
-1 -9 13 13.69 2.7
1 9 13 10.26 2.48
9 -13 -1 8.27 2.62
13 1 9 10.91 3.79
-13 -1 9 7.95 2.45
-13 -1 9 12.88 3.87
-13 1 -9 6.75 2.91
1 -9 -13 12.12 2.73
-13 1 -9 6.07 3.17
-13 -1 9 9.88 2.89
1 -9 -13 15.29 3
1 9 13 15.33 2.41
-3 -9 -13 27.18 3.4
-3 -9 -13 32.51 3.28
-3 -9 -13 26.02 3.11
-3 -9 -13 23.45 3.36
-9 -13 -3 22.5 3.51
-9 13 3 28.78 3.41
-9 13 3 23.86 3.52
-9 13 3 20.17 3.3
-9 13 3 18.67 3.69
13 3 -9 20.47 3.8
-3 9 13 20.3 3.05
-3 9 13 20.67 3.48
-3 9 13 22.42 3.84
13 -3 9 20.25 3.25
-9 -13 -3 15.77 3.39
-13 -3 -9 20.88 3.15
-13 -3 -9 20 3.43
-13 -3 -9 20.31 3.8
-13 -3 -9 16.62 3.53
3 9 -13 18.63 3.17
3 9 -13 23.52 3.04
3 9 -13 20.42 3.83
9 -13 3 19.18 3.54
9 -13 3 21.02 3.57
9 -13 3 17.75 4.24
9 13 -3 20.74 3
-9 13 3 17.9 2.9
9 13 -3 23.36 3.47
-13 3 9 16.42 3.22
-13 3 9 15.9 2.85
3 -9 13 20.21 3.44
3 -9 13 23.79 3.47
3 -9 13 14.58 4.08
3 -9 13 13.17 4.5
13 -3 9 19.45 3.83
13 -3 9 16.54 3.96
13 3 -9 19.07 3.31
13 3 -9 19.58 3.24
-9 -13 -3 20.33 2.89
-13 3 9 18.11 2.97
-13 3 9 23.02 4.34
-13 3 9 19.38 3.92
-9 -13 -3 21.77 3.14
9 13 -3 21.86 3.1
-9 13 -3 18.27 3.52
-13 -3 9 19.45 4.43
3 9 13 25.28 3.3
-13 3 -9 18.78 3.77
-13 -3 9 20.66 3.1
3 9 13 25.04 3.05
3 9 13 31.29 3.21
9 13 3 26 3.26
13 -3 -9 22.1 3.53
-3 -9 13 14.48 2.92
-3 -9 13 22.04 3.3
-3 -9 13 20.51 3.14
-3 -9 13 23.89 4.62
-3 9 -13 17.98 3.16
-3 9 -13 11.7 3.8
3 9 13 22.9 3.57
13 -3 -9 20.5 3.08
-9 -13 3 20.68 3.16
-13 3 -9 11.73 3.61
-9 -13 3 21.06 3.35
9 -13 -3 21.72 4
-13 3 -9 17.43 3.88
9 13 3 20.3 3.06
9 13 3 13.9 3.51
13 3 9 21.68 3.34
13 3 9 16.88 3.54
13 3 9 25.83 4.31
-3 9 -13 24 3.29
-3 9 -13 16.74 3.64
9 -13 -3 23.09 3.37
-13 -3 9 18.73 3.44
3 9 13 34.32 3.95
3 9 13 28.41 3.53
3 -9 -13 23.12 3.56
3 -9 -13 19.01 3.3
-9 13 -3 22.31 3.5
-9 13 -3 24.72 3.41
-9 -13 3 19.52 3.32
-9 -13 3 20.05 4.16
9 -13 -3 18.64 3.35
13 -5 9 10.63 2.9
-9 13 5 10.85 3.29
-5 -9 -13 16.43 2.94
5 -9 13 13.62 3.23
5 -9 13 12.11 3.05
5 9 -13 14.38 2.81
5 9 -13 12.62 3.4
-13 -5 -9 11.35 3.38
-13 -5 -9 13.88 3.23
-9 13 5 11.13 2.58
-9 13 5 19.28 2.86
-9 13 5 14.53 2.93
-9 13 5 13.1 3.02
-5 9 13 12.82 3.5
-5 9 13 11.32 2.66
-5 -9 -13 18.88 3.05
13 5 -9 14.42 3.38
-5 -9 -13 16.25 2.78
-5 -9 -13 14.43 2.94
-13 5 9 11.79 3.54
-9 -13 -5 11.64 3.1
-9 -13 -5 16.88 3.27
-9 -13 -5 13.14 2.77
-9 -13 -5 10.62 3.06
-9 -13 -5 10.53 2.67
9 -13 5 12.2 2.58
9 -13 5 10.04 3.05
9 -13 5 13.65 3.38
9 -13 5 12.48 4.15
9 13 -5 16.51 2.59
9 13 -5 11.1 2.83
9 13 -5 13.78 3.1
9 13 -5 11.15 3.44
-13 -5 -9 14.2 3.14
-13 5 9 10.33 4.11
5 9 -13 11.96 2.87
-13 5 9 14.92 3.03
-13 5 9 13.07 2.32
5 -9 13 0.25 4.39
13 -5 9 7.55 3.79
13 5 -9 12.16 3.05
13 5 -9 11.26 2.87
-5 9 13 13.4 3.11
5 -9 13 5.14 3.68
-13 -5 -9 13.84 2.92
-13 5 9 15.63 2.69
9 13 5 7.19 3.15
9 -13 -5 15.44 2.83
13 5 9 19.22 3.11
13 5 9 15.12 2.78
-9 13 -5 12.11 3.39
9 13 5 12.76 3.12
-13 5 -9 13.34 3.3
-13 5 -9 10.74 3.27
-9 13 -5 16.37 3.12
-9 13 -5 12.28 3.09
5 9 13 14.25 3
5 -9 -13 17.83 3.3
5 -9 -13 16.11 3.01
-5 9 -13 8.65 3.36
-5 9 -13 1.75 3.52
-9 -13 5 12.87 2.97
-9 -13 5 10.49 2.77
-13 5 -9 15.79 3.63
-13 5 -9 11.17 2.83
13 -5 -9 17.64 3.36
13 -5 -9 15.61 2.71
13 5 9 15.58 3.6
13 5 9 11.56 3.69
-5 -9 13 14.28 2.7
9 -13 -5 12.4 3.64
9 13 5 13.35 2.61
5 9 13 15.38 2.61
5 9 13 18.8 2.76
-13 -5 9 15.5 3.33
-13 -5 9 13.79 3.09
-13 -5 9 11.17 2.71
-13 -5 9 12.26 3.97
-5 -9 13 14.75 3.15
-5 -9 13 12.14 2.82
-13 5 -9 8.85 3.13
-5 -9 13 14.2 4.35
-5 9 -13 13.04 2.78
9 -13 -5 11.34 3.19
-9 -13 5 10.76 2.75
-9 -13 5 9.77 4.01
-9 13 -5 20.37 2.63
-5 9 -13 12.42 3.08
5 9 13 12.87 3.39
-7 -9 -13 22.86 3.29
-7 -9 -13 24.74 3.38
-7 -9 -13 18.15 3.09
-7 -9 -13 16.59 3.35
-9 -13 -7 14.53 2.63
13 7 -9 18.28 3.38
-9 13 7 21.49 3.36
13 7 -9 20.54 3.38
-7 9 13 18.47 3.18
13 7 -9 20.32 3.72
-7 9 13 20.56 3.95
-9 13 7 14.22 3.41
13 -7 9 21.35 4.05
9 -13 7 15.74 2.99
-9 -13 -7 19.59 3.53
-9 -13 -7 24.02 3.51
9 -13 7 22.42 4.05
9 -13 7 16.89 4.35
9 13 -7 18.31 2.84
9 13 -7 18.81 3.24
9 13 -7 19.67 3.48
9 13 -7 19.1 3.97
-13 -7 -9 19.59 3.67
-13 -7 -9 19.45 3.43
7 9 -13 14.92 3.59
-13 7 9 16.85 3.29
-13 7 9 27.73 3.29
-13 7 9 16.15 3.18
-13 7 9 15.44 3.97
9 -13 7 18.83 3.61
-9 13 7 19.15 3
-13 -7 -9 20.51 3.33
-9 -13 -7 20.9 3.42
-9 -13 -7 19.78 3.1
7 -9 13 20.74 3.35
7 -9 13 15.04 3.68
7 -9 13 17.69 4.01
7 -9 13 16.82 4.53
7 9 -13 17.67 3.09
7 9 -13 20.08 3.15
-13 -7 -9 19.91 3.45
13 -7 9 17.48 3.21
-7 9 13 17.83 3.35
13 -7 9 18.55 4.04
9 -13 -7 21.36 3.02
9 -13 -7 17.26 4
-9 -13 7 17.84 4.37
-13 7 -9 16.5 3.33
-9 -13 7 18.65 3.31
-7 9 -13 20.98 3.53
-7 9 -13 16.28 3.69
-9 13 -7 19.88 3.67
7 9 13 19.07 3.7
-9 -13 7 15.17 3.03
13 7 9 17.73 3.02
7 -9 -13 18.93 3.41
-13 7 -9 19.06 3.68
9 13 7 20.28 3.11
9 13 7 20.09 3.53
9 13 7 20.94 3.62
13 -7 -9 15.29 3.46
13 -7 -9 16.96 2.88
13 -7 -9 20.43 4.19
7 9 13 19.64 3.38
-7 9 -13 21.85 3.36
13 7 9 19.91 3.29
-7 -9 13 19.93 3.25
-7 -9 13 20.63 2.99
7 -9 -13 17.14 3.28
-9 -13 7 19.31 3.41
-13 -7 9 21.95 4.49
-7 -9 13 21.28 3.55
-7 9 -13 14.35 3.71
-13 -7 9 18.79 3.48
9 -13 -7 20.86 3.65
-7 -9 13 19.61 4.62
-13 7 -9 20.51 3.52
-9 13 -7 25.93 3.12
-9 13 -7 19.72 3.48
-9 13 -7 20.77 3.63
7 9 13 27.13 3.2
7 9 13 24.26 3.11
9 -13 -7 21.5 3.44
-7 -9 13 19.37 3.48
13 7 9 19.07 3.73
13 7 9 18.23 4.1
-13 7 -9 22.48 3.74
-13 7 -9 14.85 3.73
-13 -7 9 18.21 3.08
-13 -7 9 21.01 3.59
-13 -7 9 16.1 3.09
-13 -9 -9 -1.2 2.65
9 13 -9 -1.42 2.45
-13 9 9 -2.44 3.13
-13 -9 -9 1.17 2.76
-9 13 9 -1.6 2.48
-9 13 9 0.7 2.9
9 -13 9 -2.94 4.05
-9 -9 -13 -0.29 2.59
9 13 -9 0.2 3.2
9 13 -9 -1.13 2.68
9 -13 9 2.51 0.87
9 -13 9 -0.81 2.85
9 -13 9 2.62 3.52
-13 9 9 1.19 2.46
-13 9 9 1.54 2.46
9 9 -13 1.04 2.45
9 9 -13 -0.79 3.06
-9 -13 -9 0.04 2.64
-9 -13 -9 1.11 2.75
-9 -9 -13 1.53 2.53
-9 -9 -13 -1.3 2.65
-9 -9 -13 -1.03 2.71
9 9 -13 -0.15 2.62
-13 -9 -9 0.05 2.77
13 9 -9 -1.89 2.58
13 -9 9 1.73 2.47
13 -9 9 2.35 3.44
13 -9 9 -0.56 3.63
-9 -13 -9 1.07 1.49
13 9 -9 -0.78 2.79
13 9 -9 0.66 2.97
-9 9 13 1.54 2.43
-9 9 13 -0.66 2.44
-9 9 13 -0.38 3.08
-9 -13 -9 1.43 2.59
-9 -13 -9 0.13 2.41
9 -9 13 -8.19 3.84
-13 -9 -9 3.45 2.62
-9 13 9 1.77 2.12
-9 13 9 4.35 2.26
9 -9 13 2.14 3.45
9 -9 13 -0.05 2.53
-13 9 -9 0.52 2.6
-13 9 -9 0.5 3.07
-9 9 -13 -0.67 3.01
-9 9 -13 0.01 2.78
-9 -13 9 0.64 2.27
-9 -13 9 -1.41 4.12
-13 -9 9 0.95 2.92
-9 13 -9 3.14 2.43
-9 13 -9 1.74 2.75
-9 -13 9 5.12 2.91
-9 -13 9 0.29 2.56
-13 9 -9 0.5 2.54
-13 9 -9 -1.61 2.85
9 9 13 -2.2 3.29
-9 -9 13 1.88 2.54
-9 9 -13 -3.36 2.84
-9 -9 13 2.22 3.05
-9 13 -9 2 2.84
9 -13 -9 1.35 2.09
9 -9 -13 1.76 2.53
-13 -9 9 3.08 2.47
-13 -9 9 0.55 2.43
-13 -9 9 0.95 4.03
13 9 9 1.3 2.19
9 -13 -9 3.44 3.1
13 9 9 0.83 3.51
9 9 13 1.65 2.14
-9 -9 13 1.37 2.84
9 13 9 1.61 2.25
9 13 9 -1.01 2.81
9 13 9 2.23 3.06
13 -9 -9 -2.09 2.77
13 -9 -9 -4.83 3.52
-9 -9 13 0.79 2.07
-9 -9 13 -1.59 4.15
-9 9 -13 -0.05 2.65
-13 9 -9 0.21 2.78
9 -13 -9 0.93 2.81
9 -13 -9 2.69 3.14
9 9 13 -0.02 2.77
13 9 9 0.73 2.84
-13 -9 9 0.71 2.9
9 9 13 1.95 2.49
9 -9 -13 -0.92 2.89
-9 13 -9 -2.2 2.94
9 -13 11 7.33 3.7
11 9 -13 7.43 2.74
13 -11 9 7.6 2.73
-13 -11 -9 9.03 3.22
-9 -13 -11 10.23 3.01
13 11 -9 5.59 3.25
9 13 -11 3.73 3.01
9 -13 11 5.92 4.37
9 13 -11 6.97 2.59
-9 13 11 5.82 2.8
-13 -11 -9 10.33 2.93
11 -9 13 7.51 2.83
11 9 -13 6.41 2.79
13 -11 9 5.03 4.13
13 11 -9 4.59 2.85
13 11 -9 6.58 3.15
-11 -9 -13 3.47 3.04
11 -9 13 6.01 4.16
-11 9 13 3.88 2.79
-9 -13 -11 9.44 3.02
-9 -13 -11 7.01 2.76
-9 13 11 4.73 2.4
-13 11 9 0.51 2.62
-9 -13 -11 5.38 2.77
13 -11 9 6.91 3.62
-13 11 9 10.43 2.85
-13 -11 -9 8.91 2.96
11 -9 13 9.61 3.84
-11 -9 -13 7.18 2.92
-11 -9 -13 9.63 3.1
-13 -11 -9 3.1 2.86
-11 -9 -13 6.96 3.01
9 -13 11 4.14 2.84
-13 11 9 5.25 2.82
11 9 13 8.7 3.12
11 9 13 7.38 3.75
11 9 13 8.98 2.78
-13 -11 9 9.32 3.29
-9 13 -11 8.31 3.25
-9 13 -11 6.95 3.19
-11 -9 13 6.8 3.35
-11 -9 13 8.39 2.33
-13 11 -9 9.7 2.97
13 -11 -9 6.61 2.42
-9 -13 11 5.47 4.47
9 -13 -11 6.04 3.31
9 -13 -11 6.87 3.54
13 11 9 7.04 3.1
-13 11 -9 6.78 3.12
13 -11 -9 6.05 3.22
-9 -13 11 7.78 3.28
-9 -13 11 10.62 3.44
-9 -13 11 5.28 2.53
-11 9 -13 9.6 3.31
-11 9 -13 5.97 3.11
-9 13 -11 7.4 2.74
-9 13 -11 3.98 2.95
-13 -11 9 7.71 2.67
-11 -9 13 3.55 4.43
9 13 11 6.66 3.09
13 11 9 5.64 3.55
11 9 13 10.74 2.73
-11 9 -13 6.93 2.85
11 -9 -13 8.19 2.87
13 -11 -9 6.35 3.8
9 13 11 10.57 3.42
11 -9 -13 6.11 3.26
-13 -11 9 6.6 4.31
-13 11 -9 9.54 2.81
11 13 -1 13.69 2.76
11 13 -1 9.28 3.09
11 -13 1 13.43 3.66
11 13 -1 10.41 2.49
-1 -11 -13 9.7 2.55
11 -13 1 8.67 3.13
-1 -11 -13 10.29 3.51
13 -1 11 12.32 3.51
13 -1 11 8.49 2.79
-13 -1 -11 8.53 3.35
-11 13 1 10.21 3.07
-1 -11 -13 9.05 2.79
-13 -1 -11 12.91 2.49
13 1 -11 13.55 2.61
13 1 -11 12.12 3.49
1 -11 13 7.49 2.44
-11 13 1 4.42 2.16
1 -11 13 7.55 4.25
1 11 -13 12.7 2.75
-13 -1 -11 11.38 3.04
-13 -1 -11 14.78 3.47
13 -1 11 7.68 3.8
13 -1 11 14.25 2.45
11 -13 1 4.99 3.1
-11 13 1 9.94 3.01
-1 -11 -13 10.78 3
-13 1 11 7.45 2.86
-13 1 11 5.4 2.4
-13 1 11 11.26 3.99
1 -11 13 9.2 2.75
1 -11 13 10.98 2.91
1 -11 13 8.32 3.57
13 1 -11 12.37 3.1
11 13 -1 8.36 3.21
1 11 -13 13.3 2.71
1 11 -13 6.77 3.03
1 11 -13 5.4 3.25
-1 11 13 9.19 2.59
13 1 -11 9.34 3.09
-1 11 13 7.94 3.27
-11 -13 -1 5.5 2.86
-11 -13 -1 10.42 2.79
-11 13 1 7.88 2.83
-13 1 11 5.13 2.64
-11 -13 -1 6.91 2.91
-1 11 13 13.48 3.03
1 11 13 11.49 2.37
1 11 13 9.09 3.02
-1 -11 13 12.45 3.41
1 -11 -13 11.97 2.84
1 -11 -13 7.43 3.58
13 1 11 10.25 2.5
11 13 1 5.82 3
13 -1 -11 10.71 3.28
13 -1 -11 8.43 3.01
-1 -11 13 10.81 2.89
-13 -1 11 8.19 2.75
13 -1 -11 8.01 2.71
-13 -1 11 2.6 2.97
-1 -11 13 14.14 4.25
1 11 13 7.99 2.74
13 1 11 6.41 2.79
11 -13 -1 6.48 2.73
11 -13 -1 8.86 3.1
-1 -11 13 3.96 2.74
-11 -13 1 11.73 3.07
-11 -13 1 13.07 2.68
-11 -13 1 9.83 2.88
-11 -13 1 14.46 3.66
-11 13 -1 6.82 3.09
-11 13 -1 10.34 2.89
-11 13 -1 11.99 3.1
-1 11 -13 10.41 2.58
1 -11 -13 12.67 3.09
-1 11 -13 1.75 3.31
-1 -11 13 9.6 2.81
11 -13 -1 11.12 3.56
-1 -11 13 8.72 2.84
-13 1 -11 8.86 3.34
-13 1 -11 1.65 3.36
-13 1 -11 15.5 2.27
-1 11 -13 9.73 2.57
-1 11 -13 4.54 3.08
13 1 11 12.53 3.4
11 13 1 5.68 2.51
11 13 1 8.4 2.75
-13 -1 11 5 2.38
-13 -1 11 16.46 4.28
13 1 11 11.26 3.91
-13 1 -11 6.2 2.99
-3 -11 -13 26.87 3.82
-3 -11 -13 30.41 3.6
-13 -3 -11 24.73 3.7
-3 -11 -13 38.97 4.39
-13 3 11 28.9 4.86
-13 3 11 25.87 4.39
13 3 -11 22.34 4.17
11 -13 3 29.03 4.55
11 13 -3 26.08 3.42
11 13 -3 28.14 3.48
11 13 -3 23.21 3.87
11 13 -3 30.99 4.24
-11 -13 -3 23.08 3.81
-11 -13 -3 24.37 3.83
-13 -3 -11 34.19 4.25
-11 -13 -3 26.14 3.51
-13 -3 -11 29.57 4.16
-3 -11 -13 32.22 3.75
-13 3 11 19.13 3.58
-13 3 11 21.77 3.31
-13 3 11 20.97 3.29
3 -11 13 20.01 5.08
3 11 -13 23.81 3.49
3 11 -13 24.43 3.51
-11 13 3 17.16 3.06
-11 13 3 40.04 5.06
-11 13 3 25.55 3.84
-11 13 3 17.74 3.6
-11 13 3 22.08 4.07
-13 -3 -11 20.8 4.07
13 -3 11 19.46 4.59
13 3 -11 27.54 4.03
13 3 -11 26.62 3.83
11 -13 3 22.49 3.91
-3 11 13 23.55 3.42
-3 11 13 24.15 3.82
-3 11 13 27.66 4.2
3 -11 13 26.78 3.77
13 -3 11 23.32 3.6
3 -11 13 22.86 4.38
3 -11 13 24.63 3.66
11 -13 3 25.91 4.15
3 11 -13 22.62 4.28
3 -11 -13 25.89 4.47
3 -11 -13 29.65 3.96
-11 13 -3 25.37 3.91
-11 13 -3 22.77 3.91
3 11 13 33.91 4.22
3 11 13 28.82 3.75
3 11 13 28.57 4.22
3 11 13 32.1 3.89
11 -13 -3 26.67 3.67
11 -13 -3 27.25 3.83
11 -13 -3 20.09 4.33
-3 11 -13 14.31 4.19
-11 13 -3 26.71 3.75
13 3 11 32.19 4.04
13 3 11 24.43 3.71
-3 -11 13 22.32 3.56
-3 -11 13 24.44 3.6
-3 -11 13 20.44 5.02
11 13 3 21.72 3.5
11 13 3 24.61 3.91
13 -3 -11 26.23 3.82
13 -3 -11 29.91 3.6
3 -11 -13 25.18 3.61
-3 11 -13 28.32 3.47
-3 11 -13 24.28 3.52
-3 11 -13 22.13 3.9
-11 -13 3 27.69 4.47
-13 3 -11 26.54 4.2
13 3 11 28.16 4.12
13 3 11 25.03 4.56
-3 -11 13 23.63 3.59
-3 -11 13 30.35 3.69
-11 -13 3 22.85 3.66
-11 -13 3 22.68 3.64
-13 -3 11 18.06 3.75
-13 -3 11 24.86 3.61
-13 -3 11 24.02 5
-13 3 -11 25.63 3.79
-11 -13 3 24.33 3.45
11 -13 5 14.73 3.47
11 -13 5 13.39 2.89
-13 -5 -11 18.08 3.43
-13 -5 -11 17.87 3.63
-13 -5 -11 12.64 3.5
11 -13 5 18.95 4.31
11 13 -5 19.38 2.96
11 13 -5 17.86 3
5 11 -13 16.66 3.22
5 11 -13 16.76 3.7
-5 11 13 20.43 3.45
-5 11 13 18.95 3.74
-11 -13 -5 19.85 3.51
-13 5 11 17.12 3.26
11 13 -5 15.16 3.55
-11 13 5 22.85 3.16
-11 13 5 14.57 3.27
5 -11 13 15.88 4.02
5 -11 13 16.5 4.6
11 -13 5 16.95 3.7
13 -5 11 15.9 3.14
13 -5 11 9.87 3.89
13 -5 11 18.38 3.9
13 5 -11 18.52 3.43
13 5 -11 17.71 3.67
-13 5 11 11.89 2.66
-13 5 11 17.62 2.9
-13 5 11 15.37 4.27
-13 5 11 16.66 3.83
-13 -5 -11 20.72 3.15
11 13 -5 16.14 3.39
-11 13 5 15.87 3.1
-11 13 5 13.69 3.53
-5 -11 -13 19.31 3.21
-5 -11 -13 25.49 3.35
-11 -13 -5 16.05 3.3
-5 -11 -13 14.95 3.15
5 -11 13 16.44 3.53
-11 13 5 16.69 2.76
-11 -13 -5 16.14 3.35
5 11 -13 16.84 3.12
5 -11 13 15.07 3.29
-5 11 13 17.15 2.98
-11 -13 -5 17.45 2.93
-11 -13 -5 19.26 3.39
-5 11 -13 15.84 3.62
-5 11 -13 16.55 3.14
-13 5 -11 16.95 3.6
-13 5 -11 14.76 3.77
-13 5 -11 16.43 3.19
-5 -11 13 13.53 3.08
13 -5 -11 17.77 3.37
-5 -11 13 19.64 4.69
-5 -11 13 20 3.43
11 13 5 18.65 3.46
13 -5 -11 18.08 3.46
-5 -11 13 15.17 3.02
-13 5 -11 21.42 3.54
-13 5 -11 15.82 3.68
5 11 13 19.27 2.93
-5 -11 13 20.13 3.27
5 11 13 21.26 3.4
5 11 13 20.14 3.68
11 -13 -5 20.7 3.42
11 -13 -5 18.2 3.28
11 -13 -5 16.06 3.88
-11 -13 5 17.87 3.17
-11 -13 5 23.34 4.32
13 -5 -11 20.27 3.14
-13 -5 11 13.25 3.33
-13 -5 11 13.35 3.15
-13 -5 11 15.19 4.4
-5 11 -13 17.89 3.26
-11 -13 5 16.77 3.3
-11 -13 5 17.84 3.09
-11 13 -5 19.14 3.74
5 11 13 26.89 3.08
11 13 5 19.43 3.05
11 13 5 19.69 3.66
13 5 11 20.44 3.07
13 5 11 19.38 3.29
13 5 11 21.33 3.9
13 5 11 19.74 4.2
-5 11 -13 14.6 3.89
5 -11 -13 11.6 3.48
5 -11 -13 20.27 3.28
5 -11 -13 15.75 3.98
-11 13 -5 18.6 3.38
-11 13 -5 19.26 3.47
-11 13 -5 21.25 2.85
-7 11 13 20.57 3.77
-11 -13 -7 20.89 3.63
-11 -13 -7 22.07 3.33
7 -11 13 15.13 3.24
-11 -13 -7 21.48 3.61
-7 11 13 15.6 2.95
-7 11 13 15.06 3.2
-7 -11 -13 20.14 3.21
-7 -11 -13 18.33 3.09
-7 -11 -13 15.48 3.29
-13 -7 -11 16.6 3.32
-7 -11 -13 18.91 3.28
-13 7 11 14.39 2.45
-13 7 11 15.43 3.06
-13 7 11 4.39 4.5
7 11 -13 18.3 3.16
7 -11 13 16.79 3.61
11 -13 7 17.59 3
11 -13 7 20.23 3.98
11 -13 7 19.68 4.59
11 13 -7 13.55 2.76
11 13 -7 15.14 3.16
11 13 -7 12.69 3.37
11 13 -7 17.33 3.75
-13 7 11 14.46 3.21
-11 13 7 25.92 3.13
-11 13 7 18.18 3.27
-11 13 7 15.39 2.89
-13 -7 -11 20.62 3.26
13 -7 11 14.01 3.12
13 -7 11 15.42 4.11
13 -7 11 19.76 4.16
13 7 -11 19.43 3.4
13 7 -11 16.77 3.19
13 7 -11 17.87 3.77
7 -11 13 15.23 4.14
7 -11 13 9.2 4.64
7 11 -13 15.29 3.24
-11 -13 -7 17.22 3.33
7 11 -13 13.07 3.87
-11 -13 -7 17.81 3.09
-13 -7 -11 13.64 3.43
-13 -7 -11 20.07 3.52
-7 -11 13 11.82 4.68
-7 11 -13 18.64 3.48
-7 11 -13 12.82 3.7
11 -13 -7 14.14 3.9
11 13 7 15.29 3.6
13 -7 -11 18.33 3.52
7 11 13 22.45 3.04
13 -7 -11 16.32 3.37
13 -7 -11 22.1 2.97
-7 -11 13 15.93 2.97
-7 -11 13 12.56 3.37
-13 -7 11 21.04 3.7
-13 -7 11 14.67 2.89
-13 -7 11 15.89 4.6
-13 7 -11 15.72 3.44
-13 7 -11 16.41 3.7
11 -13 -7 15.56 2.98
-13 7 -11 17.55 3.3
-7 11 -13 10.6 3.59
7 11 13 14.84 3.38
7 11 13 21.44 3.89
11 -13 -7 20.38 3.55
7 -11 -13 20.43 3.77
7 -11 -13 20.18 3.55
7 -11 -13 17.27 4.1
11 13 7 19.74 3.7
-7 -11 13 14.77 3.26
-11 -13 7 19.54 3.49
-11 -13 7 16.01 3.05
-11 -13 7 16.35 3.09
-11 -13 7 19.58 4.66
-11 13 -7 24.04 3.04
-11 13 -7 18.43 3.42
-11 13 -7 17.3 3.57
-11 13 -7 18.41 3.62
-7 11 -13 16.05 3.02
7 11 13 18.81 2.99
-13 7 -11 16.49 3.52
-7 -11 13 21.61 3.51
13 7 11 19.17 3.29
13 7 11 21.3 3.75
13 7 11 15.24 4.17
13 7 11 17.95 3.07
11 13 -9 2.27 2.94
11 13 -9 3.85 3.21
-13 -9 -11 10.84 3.12
-13 -9 -11 6.9 2.92
-13 -9 -11 10.89 2.91
-11 -13 -9 6.95 3.1
-11 -13 -9 4.42 2.72
-11 -13 -9 5.2 2.66
13 9 -11 3.77 3.23
9 -11 13 5.95 2.83
9 -11 13 3.18 3.24
9 -11 13 5.23 3.62
9 -11 13 8.69 4.27
9 11 -13 8.86 2.85
-11 13 9 9.98 2.51
-11 13 9 6.91 2.48
-11 13 9 5.26 2.74
-9 -11 -13 6.72 2.85
-9 -11 -13 8.27 2.97
-9 -11 -13 7.88 2.89
-9 -11 -13 7.9 2.8
11 -13 9 5.7 3.79
11 -13 9 5.49 4.14
11 13 -9 7.26 2.87
13 -9 11 10.6 2.85
13 -9 11 3.32 3.68
13 -9 11 7.56 3.99
13 9 -11 5.59 3.01
-9 11 13 7.32 2.86
-13 9 11 7.65 2.81
-13 9 11 5.95 2.75
13 9 -11 6.49 2.95
-11 -13 -9 3.56 2.92
9 11 -13 3.91 2.84
-11 13 -9 6.95 3.02
-11 -13 9 5.95 2.56
-11 13 -9 10.91 2.78
9 11 13 6.65 2.63
9 11 13 3.65 2.89
9 11 13 7.37 3.49
-11 -13 9 2.04 4.3
11 -13 -9 6.66 2.44
11 -13 -9 4.85 3.44
-9 -11 13 5.74 3.15
-9 -11 13 8.09 3.14
-9 -11 13 5.14 2.37
-13 -9 11 6.6 3.11
-13 -9 11 3.68 2.44
11 13 9 7.08 3.22
11 13 9 5.3 3.38
13 -9 -11 7.66 3.29
13 -9 -11 8.53 2.88
13 -9 -11 4.51 3.69
-9 -11 13 3.55 4.4
-9 11 -13 10.57 2.89
-9 11 -13 8.53 3.07
-9 11 -13 6.78 3.32
-11 13 -9 7.46 3.13
-11 -13 9 5.83 3.07
13 9 11 6.18 2.57
13 9 11 7.23 2.78
13 9 11 5.58 3.15
13 9 11 7.73 3.92
-13 -9 11 4.64 4.31
-13 9 -11 8.29 2.9
-13 9 -11 9.92 3.28
-13 9 -11 9.73 2.88
9 -11 -13 10.33 3.26
9 -11 -13 7.73 3.76
11 -13 -9 9.69 3.18
-13 -11 -11 7.68 3.09
-13 -11 -11 11.38 3.3
-13 -11 -11 9.8 3.17
13 -11 11 8.2 4.38
13 11 -11 7.66 3.08
13 11 -11 6.94 3.3
11 -13 11 14.11 4.79
11 13 -11 9.94 3
11 13 -11 7.55 3.23
-13 11 11 8.78 3.02
-11 -13 -11 6.87 3.17
-11 -13 -11 9.85 3.21
-11 -13 -11 4.77 2.8
13 -11 11 11.07 3.07
13 -11 11 11.14 4.03
11 -11 13 9.68 4.53
-11 -11 -13 10 3.22
-11 -11 -13 11.14 3.23
-11 -11 -13 10.77 3.33
11 11 -13 9.83 3.1
11 -13 11 3.82 3.79
11 -13 11 8.61 2.97
11 -11 13 8.65 3.94
-11 13 11 11.43 2.63
11 11 -13 8.35 2.77
-11 11 13 8.8 3.05
-11 13 11 10.08 2.9
-11 13 -11 7.41 3.26
-11 13 -11 9.71 3.13
-11 -13 11 7.76 4.63
-11 -11 13 9.21 2.52
11 -13 -11 11.1 3.46
11 -13 -11 7.77 3.85
-11 -11 13 5.55 4.64
-11 13 -11 11.36 3.03
-13 11 -11 9.6 3.11
11 -11 -13 8.64 3.46
11 -11 -13 10.91 3.97
-11 11 -13 9.92 3.07
-11 11 -13 8.47 3.35
-11 11 -13 10.61 3.27
-11 -11 13 8.22 3.42
11 11 13 12.01 2.91
11 11 13 12.27 3.32
11 11 13 10.67 4.03
-13 11 -11 10.03 3.32
-13 11 -11 10.74 3.12
11 13 11 7.29 3.29
11 13 11 12.44 3.82
13 -11 -11 9.34 3.52
13 -11 -11 8.44 4.07
-11 -13 11 9.3 3.44
-11 -13 11 6.09 2.67
-13 -11 11 11.91 3.54
-13 -11 11 6.2 2.66
-13 -11 11 8.06 4.69
13 11 11 8.1 3.28
13 11 11 7.67 3.86
-13 -13 -1 0.15 2.68
-13 -13 -1 -5.33 2.62
-1 -13 -13 -0.47 2.26
13 -13 1 -5.33 2.86
13 13 -1 5.01 2.62
13 13 -1 5.76 3.09
-13 -1 -13 2.4 2.35
-13 -1 -13 4.59 2.82
-13 -1 -13 7.02 3.41
-13 -1 -13 3.35 2.95
13 -1 13 11.61 3.61
13 -1 13 4.53 4.01
13 1 -13 7.99 3.12
13 1 -13 6.78 2.98
13 1 -13 2.53 2.61
-13 1 13 -2.65 2.46
-13 1 13 5.93 2.46
-13 1 13 14.96 4.32
1 -13 13 2.28 2.64
1 -13 13 2.82 2.88
-13 13 1 -0.45 3.01
-13 13 1 1.48 2.93
-1 -13 -13 3.68 2.76
1 13 -13 0.73 2.68
-1 -13 -13 0.13 2.61
-1 -13 -13 4.05 3.4
1 -13 13 -0.75 3.48
1 -13 13 0.96 4.37
1 13 -13 2.81 2.68
13 -1 13 3.06 2.36
1 13 -13 2.09 2.89
13 -13 1 4.07 3.08
13 -13 1 3.14 3.46
-1 13 13 4.3 3
-1 13 13 3.1 2.5
-1 13 13 5.24 2.94
-1 13 -13 -3.18 3
1 -13 -13 3.26 2.95
1 -13 -13 5.68 2.22
1 -13 -13 4.02 3.48
-13 13 -1 2.2 3
-13 13 -1 5.31 2.97
-1 -13 13 -4.73 2.82
-1 -13 13 0.83 2.69
-1 -13 13 0.46 2.84
-13 -13 1 0.9 2.72
-1 -13 13 8.96 4.24
1 13 13 0.46 2.69
1 13 13 3.5 2.9
13 -13 -1 -2.07 2.86
13 -13 -1 -0.85 2.96
13 -13 -1 7.66 3.65
-13 -13 1 0.43 2.47
-1 13 -13 5.95 2.53
-1 13 -13 1.45 2.48
13 -1 -13 2.06 2.97
13 -1 -13 1.73 2.86
13 -1 -13 -3.4 2.6
-1 -13 13 5.24 3.46
-13 -1 13 2.24 2.57
-13 -1 13 2.87 2.44
-13 -1 13 14.5 4.45
-13 1 -13 0.93 2.14
-13 1 -13 5.56 2.93
-13 1 -13 6.07 3.27
13 1 13 1.04 2.48
13 1 13 13.94 3.48
13 1 13 12.33 4.08
-13 -13 1 5.01 2.79
-13 -13 1 11.55 3.42
13 13 1 0.37 2.8
13 13 1 2.09 3.15
-13 -13 -3 5.71 3.25
-13 -13 -3 5.26 2.96
13 13 -3 18.05 3.35
13 -13 3 16.55 3.64
13 -13 3 18.86 4.02
3 -13 13 4.39 3.7
-13 -3 -13 12.12 2.84
-13 -3 -13 14.55 3.24
-13 -3 -13 15.64 3.61
-13 -3 -13 9.81 3.28
13 3 -13 17.69 3.22
13 3 -13 14.98 3.75
3 -13 13 11.06 3.14
3 -13 13 12.63 3.15
-13 3 13 9.46 2.68
-13 3 13 16.39 2.89
-13 3 13 10.01 4.19
3 13 -13 12.04 3.15
13 3 -13 9.65 3.29
-13 13 3 7.74 2.44
-13 13 3 14.96 3.26
-13 13 3 11.68 3.26
-13 13 3 10.13 3.83
-3 -13 -13 16.38 3.18
-3 -13 -13 23.07 2.97
-3 -13 -13 11.51 2.81
-3 -13 -13 12.68 3.05
-3 -13 -13 14.9 3.63
13 13 -3 13.48 3.3
13 -3 13 7.13 4.06
-3 13 13 11.84 3.33
-3 13 13 13.28 3.13
3 -13 13 10.63 4.78
3 13 -13 9.47 2.83
13 13 -3 13.72 2.95
-3 13 -13 12.29 2.91
-3 -13 13 8.79 3.08
-13 13 -3 13.13 3.29
3 -13 -13 11.44 3.35
3 -13 -13 13.43 3.8
-13 3 -13 15.51 3.39
-13 3 -13 11.26 3.57
-13 -13 3 20.56 3.95
-3 -13 13 17.89 4.32
-3 13 -13 14.28 2.93
-13 13 -3 12.76 3.29
3 13 13 10.35 3.14
3 13 13 9.5 3.45
3 13 13 16.52 3.19
13 -13 -3 9.84 3.29
13 -13 -3 11.28 3.2
13 -13 -3 14.2 3.96
-13 -13 3 13.7 2.96
-13 -13 3 11.71 3.06
13 -3 -13 13.15 3.18
13 -3 -13 12.87 3.18
-3 -13 13 11.53 3.22
-3 -13 13 9.95 3.04
-13 -3 13 11.3 2.92
-13 -3 13 10.71 4.56
13 3 13 14.32 2.91
13 3 13 16.05 3.62
13 3 13 21.52 4.2
-3 13 -13 5.19 3.79
-3 -13 13 10.36 3.23
-13 -13 3 12.07 3.01
13 13 3 9.95 3.42
-13 -13 -5 9.36 3.21
-13 -13 -5 17.33 3.54
-13 -13 -5 12.35 3.3
-13 -13 -5 10.75 2.78
13 -13 5 13.04 3.61
13 -13 5 18.69 4.32
5 13 -13 12.9 3
-13 -5 -13 14.96 3.04
-13 -5 -13 16.5 3.33
-13 -5 -13 16.58 3.53
-13 -5 -13 17.98 3.47
13 5 -13 15.43 3.16
5 -13 13 14.38 3.43
5 -13 13 20.17 4.1
5 -13 13 12.84 4.52
13 13 -5 14.46 3.01
-13 5 13 12.6 2.61
-13 5 13 18.85 3.11
-13 5 13 13.64 4.46
13 -5 13 21.12 4.02
-5 13 13 16.22 3.25
13 -5 13 10.82 4.02
-13 13 5 12.44 2.73
-13 13 5 19.73 3.18
-13 13 5 11.25 3.28
-5 -13 -13 15.02 3.18
-5 -13 -13 19.66 3.1
-5 -13 -13 9.28 2.48
-5 -13 -13 12.89 3.22
13 13 -5 9.92 2.7
13 -13 5 14.7 2.86
-5 13 13 13.51 3.46
13 13 -5 17.74 3.51
5 13 -13 14.32 3.33
5 -13 13 11.7 3.29
-5 13 -13 5.28 3.79
-13 13 -5 12.79 3.4
-13 13 -5 16.11 2.87
5 -13 -13 15.79 3.56
5 -13 -13 15.27 3.85
-5 13 -13 10.02 3.49
-5 -13 13 13.29 3.1
-13 5 -13 16.83 3.71
-13 5 -13 12.2 3.51
-5 13 -13 13.67 2.85
-5 13 -13 12.18 3.05
5 13 13 14.37 2.79
5 13 13 14.09 3.34
5 13 13 12.54 3.52
5 13 13 16.5 2.97
13 -13 -5 16.52 3.49
13 -13 -5 14.11 3.13
13 -13 -5 10.53 4.04
-13 5 -13 15.83 3.37
-13 -13 5 12.49 3.22
-13 -13 5 12.78 3.13
13 -5 -13 17.95 3.5
13 -5 -13 16.01 3.14
13 -5 -13 15.68 3.12
-13 13 -5 14.53 3.42
-5 -13 13 18.44 4.81
-13 -5 13 11.99 4.59
13 5 13 16.9 2.93
13 5 13 17.51 3.78
13 5 13 16.24 4.21
-13 5 -13 8.11 3.07
-13 -13 5 18.63 4.53
-5 -13 13 16.14 3.43
13 13 5 15.42 3.51
13 13 5 10.28 3.48
-13 -13 -7 15.03 3.45
-13 -13 -7 15.17 3.6
-13 -13 -7 12.32 3.17
-13 -13 -7 11.99 2.83
13 -7 13 10.89 4.08
13 -7 13 18.32 4.23
13 7 -13 12.87 3.19
-13 -7 -13 15.19 3.09
-13 -7 -13 13.92 3.33
-13 -7 -13 11.45 3.47
13 13 -7 12.6 3.04
13 13 -7 12.62 3.53
13 13 -7 10.93 3.45
-7 -13 -13 18.77 3.16
-7 -13 -13 12.78 2.99
-13 7 13 7.72 2.34
-13 7 13 12.71 3.04
-13 7 13 14.54 4.4
7 13 -13 12.13 3.07
13 -13 7 12.63 2.88
13 -13 7 11.59 3.74
-13 13 7 15.1 2.87
-13 13 7 13.79 3.08
-13 13 7 11.45 3.25
-7 -13 -13 14.15 3.31
7 -13 13 10.31 3.22
7 -13 13 12.83 4.02
7 -13 13 16.72 4.71
13 -13 7 18.36 4.61
7 13 -13 10.57 3.24
-7 13 13 11.24 3.06
-7 13 -13 11.61 2.86
-7 13 -13 11.29 3.21
-7 13 -13 10.21 3.41
-7 -13 13 6.19 4.65
7 -13 -13 16.56 3.63
7 -13 -13 15.36 4.05
-13 7 -13 11.18 3.63
-13 7 -13 8.66 3.23
-7 -13 13 11.77 3.44
-13 13 -7 18.8 2.93
-7 -13 13 10.78 2.89
7 13 13 16.52 2.94
7 13 13 12.77 3.31
7 13 13 15.26 3.76
13 -13 -7 17.52 3.69
13 -13 -7 12.21 2.9
13 -13 -7 9.77 4.05
-13 13 -7 14.45 3.57
-13 13 -7 13.97 3.41
-7 -13 13 13.53 3.42
13 -7 -13 13.74 3.48
13 -7 -13 14.4 2.91
13 -7 -13 11.15 3.14
-13 -13 7 11.98 3.28
-13 -13 7 13.81 3.01
-13 -13 7 18.41 4.58
13 7 13 14.97 2.98
13 7 13 13.03 3.81
13 7 13 12.08 4.17
-13 -7 13 10.67 3.46
-13 -7 13 10.51 4.7
-13 7 -13 12.2 3.19
13 13 7 12.51 3.51
13 13 7 15.94 3.8
-13 -13 -9 3.19 3.06
-13 -13 -9 7.37 3.32
-13 -13 -9 3.81 2.92
-13 -13 -9 9.47 2.92
13 13 -9 5.19 3.32
13 13 -9 10.71 3.34
13 -13 9 8.39 3.89
-13 -9 -13 10.89 3.1
-13 -9 -13 8.06 3.17
13 -9 13 13.43 4.21
13 -9 13 16.12 4.45
13 9 -13 4.33 2.92
13 9 -13 11.88 3.12
9 -13 13 14.35 4.84
9 13 -13 6.54 2.85
-13 9 13 5.87 2.85
13 -13 9 9.49 4.55
9 -13 13 7.55 2.97
9 -13 13 11.32 4.04
-13 13 9 7.29 2.64
-13 13 9 2.71 2.8
-13 13 9 7.78 3.07
-9 -13 -13 8.68 3.11
-9 -13 -13 12.63 3.18
-9 -13 -13 8.77 2.89
9 13 -13 9.26 3.2
-9 13 13 9.33 3.08
13 13 -9 7.68 3.01
-9 13 -13 5.87 3.02
-9 13 -13 8.51 3.25
-9 -13 13 6.77 2.71
-9 -13 13 2.89 4.63
9 -13 -13 6.64 3.97
-13 13 -9 7.85 3.39
-13 13 -9 6.94 3.05
-13 9 -13 9.11 3.51
-13 9 -13 10.44 3.12
-9 -13 13 8.31 3.46
9 13 13 7.18 2.81
9 13 13 7.34 3.28
9 13 13 11.14 3.48
13 -13 -9 10.33 3.52
13 -13 -9 8.97 2.66
13 -13 -9 4.3 3.65
-13 -13 9 6.73 4.55
-13 13 -9 16.7 3
13 -9 -13 12.04 3.59
-13 -9 13 10.24 3.44
-13 -9 13 10.52 2.5
-13 -9 13 2.69 4.56
-13 9 -13 9.67 3.1
13 9 13 8.54 3.52
13 9 13 6.16 4.06
9 -13 -13 8.12 3.35
-13 -13 9 10.31 3.36
-13 -13 9 5.55 2.79
13 13 9 8.8 3.37
13 13 9 6.67 3.86
-13 -13 -11 8.15 3.27
-13 -13 -11 9.49 3.3
-13 -13 -11 6.85 3.05
13 -11 13 5.28 3.89
13 -11 13 11.01 4.74
13 11 -13 7.25 3.15
-13 -11 -13 6.44 3.17
-13 -11 -13 12.1 3.46
13 -13 11 9.45 2.97
13 13 -11 5.93 3.1
13 13 -11 4.03 3.4
13 -13 11 4.95 4.6
-11 -13 -13 8.86 3.33
11 -13 13 5.85 4.06
-13 11 13 7.12 2.96
13 11 -13 5.45 3.29
13 -13 11 6.77 3.98
-13 13 11 1.63 2.72
-13 13 11 6.61 3.12
-11 -13 -13 3.5 3.18
-11 13 13 7.24 2.93
11 13 -13 10.83 3.34
11 -13 13 11.24 4.79
11 13 -13 4.39 2.78
-11 13 -13 5.49 3.05
-11 13 -13 6.76 3.26
-13 11 -13 5.45 3.36
11 -13 -13 7.68 3.6
11 -13 -13 8.68 4.25
-13 11 -13 8.25 3.21
-11 -13 13 4.01 2.58
-13 11 -13 4.26 3.14
-11 -13 13 2.34 3.55
11 13 13 3.66 3.27
11 13 13 7.56 3.86
13 -13 -11 13.85 3.8
13 -13 -11 5.53 3.89
-13 -11 13 4.13 3.59
-13 13 -11 7.79 3.45
-11 -13 13 1.96 4.84
13 -11 -13 7.09 3.6
-13 -13 11 8.14 3.64
-13 -13 11 7.65 2.71
-13 -13 11 6.28 4.93
-13 13 -11 9.13 3.11
13 11 13 8.09 3.43
13 11 13 4.81 3.99
-13 -11 13 5.62 2.53
-13 -11 13 1 4.91
13 13 11 8.25 3.43
13 13 11 4.36 4.08
-13 -13 -13 2.61 3.3
-13 -13 -13 0.93 3.4
13 13 -13 5.43 3.48
13 -13 13 4.66 5.03
13 13 -13 -0.21 3.25
-13 13 13 1.23 2.96
13 -13 13 3.26 4.17
-13 13 -13 4.19 3.17
13 -13 -13 3.87 3.84
13 -13 -13 -1.31 4.13
-13 13 -13 4.05 3.45
-13 -13 13 2.8 2.61
-13 -13 13 0.34 5.12
-13 -13 13 2.4 3.7
13 13 13 -0.44 3.38
13 13 13 2.02 4.18
-14 0 0 218.49 16.78
-14 0 0 203.76 16.77
-14 0 0 208.95 16.69
-14 0 0 187.74 18.24
-14 0 0 200.51 18.05
0 -14 0 194.9 16.78
0 -14 0 214.47 18.15
0 -14 0 196.18 18.64
0 0 -14 215.1 16.9
0 0 -14 210.62 16.65
0 0 -14 189.65 18.12
0 0 -14 216.99 18.71
0 0 14 209.78 16.78
0 0 14 209.89 16.62
0 0 14 206.46 18.29
0 0 14 208.55 18.78
0 14 0 196.16 16.63
0 14 0 224.11 18.15
0 14 0 205.55 17.91
0 14 0 213.24 18.58
14 0 0 202.45 18.23
14 0 0 179.73 17.98
2 0 14 146.3 13.27
14 -2 0 117.78 12.86
14 -2 0 116.93 12.67
14 -2 0 140.47 12.89
14 2 0 147.18 11.6
14 2 0 135.8 12.88
14 2 0 135.01 12.5
2 0 14 142.4 11.67
2 0 14 123.24 13.05
0 14 -2 141.55 11.49
0 14 -2 146.66 12.64
0 14 -2 134.54 12.39
0 14 -2 130.5 12.31
0 14 -2 142.99 13.03
0 14 2 123.52 11.57
0 14 2 157.5 12.7
0 14 2 142.85 12.54
0 14 2 142.67 13.07
2 0 -14 142.65 11.95
2 0 -14 137.97 11.71
2 0 -14 131.86 12.58
2 0 -14 145.08 13.22
-2 0 14 138.67 13.47
0 -14 -2 135.43 11.85
0 -14 -2 143.49 12.65
0 -14 -2 155.34 12.66
0 -14 -2 122.41 13.16
0 -14 2 131.97 11.66
0 -14 2 142.19 12.72
0 -14 2 146 13.48
-2 0 -14 137.58 12.75
-2 0 -14 149.86 13.16
-2 0 14 140.88 11.82
-14 -2 0 135.46 11.81
-14 -2 0 140.88 11.81
-14 -2 0 124.72 12.77
-14 -2 0 156.52 12.63
-14 2 0 137.91 11.53
-14 2 0 147.53 11.66
-14 2 0 120.84 11.74
-14 2 0 138.42 11.65
-14 2 0 122.52 12.99
-14 2 0 117.21 12.61
-14 2 0 153.46 12.72
-2 0 -14 155.24 11.8
-2 0 -14 152.16 11.8
-2 0 14 138.15 12.68
-2 0 14 133.72 11.64
-14 4 0 58.07 7.32
-14 4 0 64.6 6.23
-14 4 0 60.52 6.37
4 0 14 66.29 6.43
4 0 14 57.97 7.63
4 0 14 65.86 7.59
-14 -4 0 63.47 6.56
-14 -4 0 66.61 6.59
-14 -4 0 61.59 7.32
-14 4 0 70.24 6.05
-14 4 0 67.25 6.18
0 14 -4 75.67 5.98
0 14 -4 62.05 6.79
0 14 -4 63.61 6.53
0 14 -4 65.73 7.26
0 14 4 61.65 6.18
0 14 4 71.29 6.86
0 14 4 65.92 6.79
0 14 4 65.81 7.22
4 0 -14 60.4 6.61
4 0 -14 61.87 6.44
4 0 -14 60.29 6.67
4 0 -14 60.9 7.49
4 0 14 63.93 6.06
0 -14 4 61.22 7.94
0 14 -4 63.24 5.99
-4 0 14 59.61 8.04
14 -4 0 51.65 6.89
14 -4 0 62.88 7.27
14 4 0 65.45 6.21
14 4 0 60.26 6.51
14 4 0 58.74 7.29
0 -14 -4 69.22 6.73
0 -14 -4 61.78 7.47
0 -14 4 63.31 6.22
0 -14 4 70.68 6.13
0 -14 4 59.81 6.96
-4 0 14 61.84 6.29
-4 0 14 61.32 6.9
-4 0 -14 67.11 7.23
0 -14 -4 62.35 6.56
0 -14 -4 73.71 6.91
-4 0 -14 54.99 6.93
-4 0 -14 71.16 6.77
-4 0 14 66.14 6.61
-14 4 0 46.69 6.85
-14 4 0 66.42 6.79
-4 0 -14 67.94 6.41
-4 0 -14 67.14 6.6
14 -6 0 9.68 3.37
14 -6 0 10.11 2.99
0 -14 -6 10.79 3.14
14 6 0 8.45 2.36
0 -14 -6 11.84 2.5
0 -14 -6 10.57 2.55
6 0 -14 9.73 2.69
0 -14 6 6.22 2.4
0 -14 6 9.59 2.48
-6 0 14 14.31 2.78
-6 0 14 12.34 2.49
-6 0 14 9.58 2.68
-6 0 14 7.88 3.8
0 -14 -6 14.33 2.89
6 0 14 15.29 3.36
-14 -6 0 8.43 2.65
-14 6 0 10 2.62
-14 6 0 10.26 2.31
-14 6 0 10.56 3.06
-14 6 0 6.89 2.87
-14 6 0 10.47 2.87
-14 6 0 3.72 2.51
-6 0 -14 13.19 2.59
-6 0 -14 10.65 2.65
-6 0 -14 11.31 2.82
-6 0 -14 8.62 2.92
-6 0 -14 11.61 2.72
6 0 14 12.14 2.92
6 0 14 9.31 3.46
0 14 6 13.19 2.94
14 -6 0 9.58 2.71
14 6 0 8.64 2.8
14 6 0 8.01 2.93
0 14 -6 8.78 2.64
0 14 -6 6.97 2.45
0 14 -6 13.35 3.21
-14 -6 0 6.89 2.63
-14 -6 0 5.17 2.93
-14 6 0 14.63 2.37
0 -14 6 10.1 2.75
0 -14 6 10.88 2.69
0 -14 6 9.31 3.66
0 14 -6 9.3 1.95
0 14 -6 14.29 2.36
6 0 -14 12.42 2.79
6 0 -14 8.24 3.11
6 0 14 10.4 2.19
6 0 14 10.57 2.62
0 14 6 13.41 2.31
0 14 6 13.75 2.7
0 14 6 11.79 2.59
0 14 -8 14.91 3.71
-8 0 -14 15.25 3.06
-8 0 -14 19.28 3.26
-8 0 -14 12.86 3.31
-8 0 14 13.38 3.12
-8 0 14 13.56 2.91
-8 0 14 21.45 3.06
-8 0 14 18.08 4.31
0 -14 -8 20.36 3.2
0 -14 -8 23.53 3.04
0 -14 -8 20.33 3.2
0 -14 -8 13.65 3.78
0 -14 8 16.71 2.8
0 -14 8 18.95 2.98
0 -14 8 17.24 3.24
0 -14 8 20.44 3.28
14 -8 0 18.9 3.08
-14 -8 0 20.15 3.25
-14 -8 0 14.2 3.13
-14 -8 0 13.53 3.38
0 -14 8 14.14 4.14
0 14 -8 17.29 2.31
-14 8 0 22.53 2.74
-14 8 0 18.44 3.01
-14 8 0 22.83 2.81
-14 8 0 13.93 3.51
0 14 -8 18.84 3.2
0 14 -8 18.13 3.09
8 0 14 21.12 3.55
0 14 8 21.04 2.85
8 0 -14 14.88 3.56
8 0 14 16.11 2.62
8 0 14 15.52 3.05
14 8 0 18.44 3.2
8 0 14 18.52 4.02
-14 8 0 7.05 3.4
-14 8 0 13.9 3.17
-14 8 0 18.19 3.36
-8 0 -14 21.44 2.85
0 14 8 26.71 3.25
0 14 8 20.47 3.22
0 14 8 15.12 3.55
8 0 -14 18.33 3.23
8 0 -14 15.76 3.21
8 0 -14 17.42 2.94
0 14 -8 18.08 2.84
14 -8 0 19.28 3.52
14 -8 0 19.74 3.83
14 8 0 18.31 2.86
14 8 0 15.74 3.38
-10 0 -14 55.49 6.43
-14 10 0 53.49 4.99
-14 10 0 50.61 6.24
-14 10 0 44.08 5.85
-14 10 0 48.71 6.33
-10 0 -14 31.52 5.15
-10 0 14 40.53 5.63
-10 0 14 43.82 5.2
-10 0 14 43.67 5.43
-10 0 14 34.52 5.9
-14 -10 0 30.65 5.09
14 -10 0 38.49 5.58
-14 -10 0 49.75 5.54
14 10 0 47.19 5.28
-14 10 0 51.99 4.8
-14 10 0 48.25 5.27
10 0 14 33.29 4.73
10 0 14 50.67 6.51
10 0 14 39.41 5.61
14 -10 0 42.19 5.28
14 -10 0 45.11 5.97
0 14 -10 31.08 5.29
10 0 14 41.09 5
-14 -10 0 47.98 5.55
0 14 10 52.94 5.81
0 14 10 50.77 5.99
10 0 -14 44.5 5.79
14 10 0 47.27 5.7
10 0 -14 39.29 5.41
10 0 -14 47.55 6.57
-10 0 -14 44.14 5.75
0 14 -10 30.89 4.87
0 -14 -10 54.65 5.7
0 -14 -10 46.5 5.67
0 -14 -10 49.39 6.49
0 -14 10 33.35 4.51
0 -14 10 46.85 5.45
0 -14 10 39.44 5.89
0 -14 10 40.19 5.86
0 -14 10 37.65 5.96
0 14 -10 49.99 5.32
0 14 -10 47.72 5.9
14 10 0 35.33 5.24
-10 0 -14 48.31 5.07
0 14 10 52.26 5.08
0 14 10 63.68 5.87
10 0 -14 50.61 5.66
-12 0 -14 129.63 12.5
-12 0 14 128.71 11.05
0 -14 -12 134.11 12.05
14 -12 0 119.02 12.29
-14 12 0 142.37 12.33
0 -14 -12 144.58 11.8
-14 -12 0 130.49 11.43
12 0 14 130.92 12.51
12 0 14 116.22 12.87
-12 0 14 100.77 11.7
-12 0 -14 135.88 11.52
0 -14 -12 148.63 12.53
0 -14 12 115.32 11.03
-14 12 0 133.67 12.56
-12 0 -14 122.95 10.96
0 14 -12 102.09 12.05
0 14 12 151.8 11.96
0 14 12 138.67 12.24
0 14 12 144.81 12.44
-12 0 14 114.57 13.61
0 -14 -12 150.73 11.65
0 -14 12 119.93 12.3
0 -14 12 128.61 13.31
0 14 -12 128.05 11.09
0 14 -12 126.18 12.09
14 -12 0 138.64 12.81
14 12 0 126.79 11.22
14 12 0 129.56 12.49
-14 -12 0 121.22 11.19
-14 -12 0 112.45 12.26
-14 12 0 114.67 10.78
14 -12 0 127.65 11.08
14 -12 0 136.12 12.38
0 -14 12 138.24 11.19
0 -14 12 122.88 11.23
0 -14 12 115.39 12.16
12 0 14 130.46 11.07
12 0 -14 131.27 11.13
12 0 -14 125.22 11.57
14 0 2 135.67 12.65
14 0 2 135.94 12.81
14 0 -2 134.01 12.79
14 0 -2 141.85 11.63
0 2 14 163.35 13.41
2 -14 0 111.75 11.57
2 -14 0 130.66 13.26
2 14 0 145.38 11.57
-14 0 -2 127.21 11.68
-14 0 -2 134.01 12.95
-14 0 -2 138.43 12.7
-14 0 2 140.97 11.7
-14 0 2 138.09 11.79
-14 0 2 142.21 11.65
-14 0 2 126.11 12.74
-14 0 2 119.91 12.52
0 -2 14 130.04 11.65
0 -2 14 126.7 12.87
0 -2 14 121.15 13.39
0 2 -14 136.94 11.78
0 2 -14 145.92 11.63
-14 0 -2 132.28 11.55
-14 0 -2 124.46 11.85
-2 14 0 133.36 13.03
0 -2 -14 145.01 11.8
0 -2 -14 154.19 11.59
0 2 -14 125.28 12.67
0 2 -14 123.74 13.19
0 2 14 147.03 11.65
0 2 14 143.6 11.55
0 2 14 137.01 12.77
-2 14 0 159.2 12.48
0 -2 -14 142.68 13.07
2 -14 0 147.22 12.65
-14 0 2 140.74 12.86
-2 -14 0 148.61 11.81
-2 -14 0 126.06 12.56
-2 -14 0 148.53 13.17
-2 14 0 125.93 11.43
-2 14 0 161.53 12.68
-2 14 0 143.68 12.43
2 14 0 133.79 12.58
0 -2 -14 132.91 12.57
2 14 0 151.62 13.04
-14 0 2 145.07 13.01
2 14 0 137.6 12.35
-14 -2 -2 92.53 9.3
2 -2 14 90.23 10.13
2 2 -14 91.66 8.65
2 2 -14 95.35 8.55
14 2 -2 74.27 8.87
-14 2 2 73.28 9.04
-14 2 2 105.77 9.41
-2 -14 -2 91.53 8.57
-2 -14 -2 88.72 9.2
-14 -2 -2 96.79 9.64
-14 2 2 95.05 8.42
-14 -2 -2 93.43 8.58
-2 14 2 106.73 9.1
-2 14 2 99.74 9.13
2 -2 14 78.97 9.78
14 -2 2 95.66 9.36
2 -2 14 96.96 8.37
14 2 -2 94.42 9.5
-14 -2 -2 89.15 8.83
-14 -2 -2 88.5 8.68
2 2 -14 93.97 9.84
-2 -2 -14 109.08 8.64
-2 -2 -14 112.59 8.63
-2 -2 -14 99.16 9.39
-2 -2 -14 104.36 9.55
2 14 -2 101.06 8.32
14 -2 2 92.05 9.68
2 14 -2 97.25 9.29
2 14 -2 90.93 8.78
2 14 -2 96.91 8.76
2 14 -2 100.24 9.63
2 2 -14 89.86 9.1
-2 2 14 106.51 8.69
-14 2 2 86.92 8.35
-14 2 2 96.61 8.47
-2 2 14 97.34 8.45
-14 2 2 77.03 9.39
-2 2 14 107.97 10.18
2 14 -2 104.6 8.13
-2 -14 -2 99.28 8.99
-2 -14 -2 98.85 9.71
2 -14 2 101.85 9.26
2 -14 2 95.38 9.98
14 2 -2 96.41 8.54
2 -14 2 80.6 8.29
-2 2 14 95.88 9.3
-2 14 2 96.88 9.71
-2 14 2 81.94 8.27
2 -2 14 99.09 8.6
2 2 14 103.67 9.62
-14 -2 2 91.85 8.67
-14 -2 2 97.43 8.83
-2 2 -14 81.58 9.31
-2 2 -14 101.77 8.64
2 -14 -2 103.61 9.23
2 -14 -2 89.94 9.99
-2 2 -14 107.81 8.55
-2 -2 14 92.35 8.6
-2 -2 14 88.95 9.47
2 -2 -14 100.11 8.78
2 -2 -14 102.73 8.55
2 -2 -14 97.12 9.16
2 -2 -14 98.69 9.78
-2 -2 14 86.93 10.05
14 2 2 95.12 9.56
2 -14 -2 80.6 8.57
-14 2 -2 90.04 8.25
-14 -2 2 101.35 8.58
-14 -2 2 83.95 9.31
2 2 14 105.36 8.56
-2 -14 2 101.64 10
2 2 14 104.9 9.85
14 2 2 98.97 8.39
-2 14 -2 104.83 9.3
14 2 2 100.01 9.24
-2 -2 14 91.31 8.55
-14 -2 2 84.54 9.09
-14 2 -2 82.32 9.67
-14 2 -2 97.47 9.52
-14 2 -2 112.3 9.06
2 2 14 102.38 8.43
2 14 2 99.46 8.44
2 14 2 98.67 9.28
2 14 2 95.29 9.02
2 14 2 103.43 9.59
-2 -14 2 105.78 8.2
-2 -14 2 86.29 9.2
-14 2 -2 86.65 8.81
-14 2 -2 102.27 8.49
14 -2 -2 85.22 9.53
-2 14 -2 100.49 8.9
-2 14 -2 94.24 9.64
-2 2 -14 82.86 9.65
-2 14 -2 88.64 8.12
-14 2 -2 87.95 8.58
-14 -2 2 85.77 9.32
-2 14 -2 88.85 9.13
-2 -14 2 95.15 8.54
-14 -2 2 83.57 9.62
4 -2 14 54.64 5.58
2 -14 4 44.2 5.04
-4 -2 -14 52.54 5.98
4 -2 14 47.8 6.69
4 2 -14 41.97 5.6
-14 -4 -2 42.93 5.55
-14 4 2 45.08 5.91
14 4 -2 43.38 6.25
14 4 -2 50.29 5.85
-14 4 2 37.64 5.87
-14 4 2 50.67 5.15
-4 -2 -14 50.41 5.97
-2 14 4 43.48 5.06
-2 14 4 55.36 5.86
-2 14 4 46.76 5.82
-2 14 4 49.96 6.27
2 -14 4 47.16 5.92
2 -14 4 40.3 5.86
2 14 -4 46.15 4.98
2 14 -4 52.73 5.04
2 14 -4 49.68 6.05
2 14 -4 57.26 6.44
-14 4 2 34.29 5.52
2 -14 4 53.76 5.04
-4 2 14 48.66 7.01
-2 -14 -4 46.07 5.46
4 2 -14 49.1 5.43
4 2 -14 50.37 6.56
14 -4 2 48.14 6.18
4 -2 14 45.76 4.95
-4 2 14 45.3 5.47
4 -2 14 48.52 6.6
-4 -2 -14 50.36 5.65
-14 -4 -2 45.11 5.46
-14 -4 -2 49.05 5.67
-14 4 2 50.4 5.13
-14 -4 -2 47.17 6.38
-4 2 14 48.87 5.25
-4 2 14 48.45 5.75
14 4 -2 47.63 5.44
-4 -2 -14 53.67 5.35
-2 -14 -4 47.72 5.59
-2 -14 -4 53.25 5.47
-2 -14 -4 48.7 6.42
14 -4 2 49.76 6.18
-14 4 -2 47.43 6.2
-14 4 -2 52.14 5.62
-4 -2 14 48.73 5.42
-2 14 -4 55.93 4.79
2 -14 -4 49.3 5.82
-14 4 -2 50.81 6.33
-2 14 -4 44.44 4.76
14 4 2 48.12 6.43
14 4 2 51.8 5.83
-2 14 -4 48.46 5.79
-2 14 -4 47.21 6.29
-14 4 -2 47.97 5.47
-2 -14 4 47.3 5.32
-2 -14 4 51.77 5.17
-2 -14 4 45.3 5.94
4 -2 -14 50.19 5.73
4 -2 -14 49.9 5.42
4 -2 -14 45.55 5.56
-4 -2 14 45.61 5.84
-4 2 -14 39.62 6.11
-4 2 -14 47 6
-14 -4 2 49.66 5.6
-14 -4 2 40.19 6.03
-14 -4 2 35.1 5.29
-14 4 -2 49.23 4.85
-14 4 -2 48.31 5.04
4 2 14 51.75 5.18
-4 -2 14 44.74 5.38
4 2 14 49.02 6.58
4 2 14 51.17 6.24
14 -4 -2 53.15 5.61
14 -4 -2 39.13 5.77
14 -4 -2 42.23 6.36
-4 -2 14 42.87 5.95
-14 -4 2 48.49 5.57
-2 -14 4 49.47 6.9
-4 2 -14 46.05 5.82
-4 2 -14 49.78 5.81
2 -14 -4 47.19 5.47
4 2 14 52.82 5.45
2 14 4 51.3 5.56
2 14 4 54.91 6.09
2 14 4 49.62 5.24
2 -14 -4 42.2 6.27
4 -2 -14 49.77 6.41
14 4 2 51.14 5.24
2 14 4 52.15 6.03
2 -14 -4 57.17 5.75
-4 2 -14 50.03 5.23
-4 2 -14 48.08 5.58
6 2 -14 9.21 3.23
2 14 -6 12.24 2.13
-6 -2 -14 12.03 2.66
2 -14 6 9.55 2.32
2 -14 6 9.94 2.52
2 -14 6 10.51 2.79
6 2 -14 10.71 2.66
6 2 -14 6.95 2.35
-14 6 2 7.45 2.84
-6 -2 -14 12.19 2.54
-6 -2 -14 12.96 2.81
-14 -6 -2 9.31 2.84
14 6 -2 8.03 2.91
14 6 -2 12.18 2.7
-2 -14 -6 12.83 2.84
-2 -14 -6 14.12 2.57
-2 -14 -6 12.73 2.61
6 -2 14 14.03 2.27
6 -2 14 11.28 2.74
6 -2 14 9.84 3.62
6 -2 14 11.16 3.52
6 2 -14 11.74 2.92
2 -14 6 7.68 3.73
-2 14 6 13.4 2.67
-2 14 6 12.1 2.69
-2 14 6 10.21 2.99
-14 6 2 10.53 2.32
-14 6 2 10.37 2.74
-6 2 14 10.46 2.7
2 14 -6 12.62 2.85
2 14 -6 9.71 3.24
2 14 -6 12.12 2.49
-6 2 14 11.9 2.51
-6 2 14 9.77 2.73
-6 2 14 8.02 3.69
14 -6 2 11.1 3.16
14 -6 2 12.2 3.22
14 6 -2 12.64 2.48
14 6 -2 9.64 2.59
-6 -2 -14 15.49 2.8
-14 -6 -2 7.29 2.54
2 -14 6 6.88 2.91
-14 6 2 14.38 2.68
-14 6 2 13.13 2.5
-14 6 2 10.57 2.85
-2 -14 -6 12.21 3.08
-14 6 2 9.99 2.82
-14 -6 -2 2.49 2.61
-2 14 6 10.56 2.2
-14 -6 -2 8.29 3.06
-2 -14 6 8.24 2.69
-6 2 -14 11.34 2.83
-6 2 -14 9.28 2.61
-6 2 -14 10.29 3.06
-2 -14 6 6.9 3.65
6 2 14 13.7 2.7
2 14 6 11.1 2.36
2 14 6 11.38 2.65
-6 2 -14 9.25 2.8
-6 -2 14 9.47 2.82
-6 -2 14 9.84 3.74
-2 14 -6 9.22 2.59
-14 -6 2 10.82 2.76
2 -14 -6 11.02 2.86
2 -14 -6 11.03 2.55
2 -14 -6 11.76 2.69
2 -14 -6 7.42 3.22
6 -2 -14 9.64 2.95
14 6 2 10.36 2.45
14 6 2 9.11 2.95
-6 2 -14 13.27 2.5
-2 14 -6 12.82 2.42
6 -2 -14 11.67 3.29
-6 2 -14 9.49 2.77
-2 -14 6 8.67 2.54
6 2 14 12.89 3.53
6 -2 -14 7.52 2.47
-14 6 -2 12.56 2.04
-14 6 -2 13.88 2.32
-14 6 -2 12.79 2.56
-14 6 -2 13.47 3.2
-14 6 -2 10.55 3.04
-14 6 -2 11.94 3.08
-14 6 -2 2.37 2.61
14 -6 -2 10.95 3.24
6 -2 -14 12.2 2.73
6 2 14 12.73 3
-6 -2 14 8.12 2.48
14 -6 -2 10.56 2.83
14 -6 -2 9.49 2.92
-14 -6 2 12.88 2.94
-14 -6 2 9.48 2.87
2 14 6 13.45 2.38
2 14 6 13.89 2.81
-6 -2 14 7.45 2.59
-2 14 -6 10.66 2.9
14 6 2 9.87 2.93
-2 14 -6 9.94 1.88
-8 -2 -14 11.19 2.35
-14 -8 -2 10.97 2.78
-14 8 2 14.97 2.49
-8 -2 -14 13.48 2.93
2 -14 8 11.08 3.27
8 2 -14 11.27 3.25
-2 14 8 5.8 3.3
-2 -14 -8 13.35 2.61
-2 -14 -8 9.98 2.8
-2 -14 -8 11.85 3.33
-8 2 14 12.82 2.89
2 14 -8 14.27 2.91
2 14 -8 13.05 3.42
-8 2 14 11.09 2.52
-14 8 2 15.18 2.82
-14 8 2 16.63 2.63
-14 8 2 9.98 2.95
-14 8 2 4 2.86
-2 -14 -8 16.91 3.06
14 -8 2 13.23 3.38
14 8 -2 12.68 2.55
2 -14 8 10.2 3.94
8 -2 14 14.21 2.22
8 -2 14 10.35 2.82
-14 -8 -2 13.04 2.98
-14 -8 -2 8.71 3.11
8 2 -14 9.53 2.46
-2 14 8 17.04 2.81
-2 14 8 14.89 2.87
8 -2 14 11.43 3.74
8 -2 14 11.43 3.67
8 2 -14 13.35 3.03
8 2 -14 5.35 2.93
14 8 -2 9.95 2.76
14 8 -2 9.05 3.12
-8 -2 -14 11.49 3.05
-8 2 14 12.7 2.85
2 14 -8 13.57 2.64
2 -14 8 12.91 3.01
-14 8 2 7.12 2.7
-14 8 2 11.15 2.98
-8 -2 -14 11.17 2.55
14 -8 2 14.59 3.28
-2 14 8 11.14 2.44
-8 2 14 11.09 3.93
2 14 -8 10.4 2.07
-14 8 -2 13.07 3.17
-14 -8 2 13.35 2.96
-14 8 -2 14.64 2.97
8 2 14 12.75 2.83
14 -8 -2 12.1 3.62
-14 -8 2 10.51 2.82
-2 -14 8 12.37 2.75
-2 -14 8 12.08 2.91
-2 -14 8 7.78 4.1
-2 14 -8 15.62 2.57
8 2 14 14.21 3.22
-8 -2 14 10.64 2.83
-8 -2 14 7.2 2.72
8 2 14 12.39 2.51
-8 -2 14 10.74 3.88
-8 2 -14 13.99 2.52
2 -14 -8 13.53 2.85
-8 2 -14 11.5 3.17
-8 2 -14 9.03 3.08
-8 2 -14 11.18 2.79
-14 8 -2 4.37 3.16
8 -2 -14 13 2.81
8 2 14 14.13 3.72
14 -8 -2 10.75 2.91
-14 -8 2 12.68 3.06
-14 -8 2 11.4 3.39
-14 8 -2 7.97 2.64
-14 8 -2 14.9 3.4
2 14 8 15.08 2.59
2 14 8 18.26 2.94
2 14 8 9.54 2.99
8 -2 -14 9.86 3.06
2 -14 -8 13.39 2.43
8 -2 -14 9 2.55
8 -2 -14 10.84 3.44
14 8 2 9.05 3.15
-2 14 -8 11.49 2.69
-2 14 -8 12.99 2.66
-2 14 -8 14.04 3.34
-8 -2 14 12.25 2.72
14 8 2 14.28 2.59
14 -8 -2 8.01 3.13
-8 2 -14 12.1 2.85
2 -14 -8 10.16 2.89
-2 -14 8 10.31 2.68
2 14 -10 18.8 3.07
-2 -14 -10 22.14 3.31
2 14 -10 11.96 3.98
-2 -14 -10 22.24 3.4
10 -2 14 17.93 2.75
2 -14 10 16.23 4.47
-14 -10 -2 16.76 3.36
-14 -10 -2 11.28 3.44
10 -2 14 18.69 4.33
-10 2 14 18.95 3.01
-2 14 10 18.07 2.88
-2 14 10 25.94 3.34
-2 14 10 19.52 3.3
-2 14 10 18.51 3.48
-14 -10 -2 22.44 3.5
10 2 -14 15.88 3.81
-10 2 14 20.29 4.46
10 2 -14 19.3 3.56
2 -14 10 19.59 3.26
10 2 -14 13.72 2.91
-10 2 14 18.51 3.2
2 14 -10 15.23 3.21
-14 10 2 23.78 3.54
-14 10 2 12.25 3.18
-14 10 2 13.39 3.63
-10 -2 -14 19.42 2.99
-10 -2 -14 19.92 3.5
-10 -2 -14 29.04 3.74
-10 2 14 18.82 3.39
14 -10 2 23.04 4.04
-10 -2 -14 19.61 3.67
2 -14 10 17.61 3.5
-2 -14 -10 24.5 3.1
-14 10 2 13.05 2.81
-2 -14 -10 20.57 3.89
2 -14 10 18.68 3.93
14 10 -2 21.51 3.01
14 10 -2 20.16 3.2
14 10 -2 18.49 3.67
14 10 -2 23.72 3.44
14 -10 2 18.1 3.01
10 -2 14 16.04 3.27
14 -10 2 25.35 3.85
10 2 -14 24.83 3.42
-2 14 -10 15.62 3.88
-14 -10 2 14.47 3.44
-10 -2 14 18.33 3.07
-2 -14 10 13.16 3.16
-10 -2 14 15.17 4.58
-14 10 -2 20.64 3.72
-14 10 -2 18.17 3.13
-10 -2 14 13.13 3.23
-2 -14 10 14.9 3.19
-2 14 -10 20.07 3.08
-2 14 -10 17.72 3.14
-2 14 -10 16.11 3.41
14 10 2 21.91 3.15
14 10 2 18.57 3.76
-10 -2 14 19.04 3.13
2 -14 -10 21.66 3.96
10 -2 -14 22.92 3.35
-2 -14 10 20.78 4.7
-14 10 -2 19.45 3.59
2 -14 -10 24.26 3.63
2 -14 -10 25.18 3.08
2 -14 -10 21.69 3.37
10 2 14 18.03 3.22
10 2 14 23.63 3.81
10 2 14 17.81 4.18
-14 -10 2 29.76 4
10 -2 -14 22.45 3.63
2 14 10 26.74 3.41
2 14 10 24.05 3.63
-10 2 -14 18.91 2.82
-10 2 -14 14.14 3.32
-10 2 -14 16.03 3.59
-10 2 -14 16.26 3.59
-2 -14 10 15.16 3.33
2 14 10 18.06 2.98
14 -10 -2 20.41 3.38
14 -10 -2 20.2 4.1
2 14 10 23.27 3.04
-14 -10 2 16.65 3.11
-14 -10 2 17.92 3.38
-14 10 -2 21.01 3.61
10 2 14 18.27 2.97
14 12 -2 69.16 8.07
-12 2 14 67.37 7.27
-12 2 14 65.07 9.19
14 -12 2 64.89 6.7
2 -14 12 67.28 7.24
14 12 -2 78.02 7.74
-2 14 12 75.09 7.96
2 -14 12 69.02 9.19
2 14 -12 73.63 7
12 2 -14 70.9 7.17
-12 -2 -14 66.96 6.8
14 12 -2 69.23 7.12
-14 -12 -2 69.82 7.3
12 2 -14 69.52 7.56
-2 14 12 89.92 7.52
-12 2 14 68.31 6.76
2 -14 12 58.38 7.96
-2 -14 -12 78.91 7.47
-14 12 2 54.12 6.57
-14 12 2 85.95 7.91
-14 12 2 60.6 8.25
-2 14 12 75.08 7.7
-12 -2 -14 75.02 7.45
-12 -2 -14 67.99 8.04
14 -12 2 77.52 8.05
14 -12 2 68.31 7.98
2 -14 12 74.31 7.89
-2 -14 -12 72.34 7.55
-2 -14 -12 85.09 8.02
12 -2 14 47.11 7.5
-14 -12 -2 75.08 7.29
14 -12 2 76.99 8.42
2 14 -12 60.67 7.6
-2 -14 12 54.77 7.61
-2 -14 12 72.17 7.19
2 -14 -12 80.52 7.49
14 -12 -2 62.03 8.44
-14 -12 2 64.46 7
14 12 2 64.83 8.06
12 -2 -14 62.93 7.54
-2 -14 12 60.38 7.08
-2 14 -12 70.87 6.95
-2 -14 12 81.06 9.02
14 -12 -2 77.02 7.97
2 14 12 76.87 7.55
2 14 12 68.78 7.69
-12 -2 14 62.51 6.93
12 2 14 75.73 6.88
12 2 14 72.09 8.17
2 -14 -12 75.23 8.14
-14 -12 2 65.17 7.24
-2 14 -12 74.15 7.64
-12 2 -14 61.62 6.48
-14 12 -2 70.68 7.84
2 -14 -12 78.47 7.22
12 2 14 71.64 8.63
14 -12 -2 69.19 7.08
-2 14 -12 53.25 7.54
-2 -14 12 64.45 7.21
-12 -2 14 48.67 7.95
12 -2 -14 76.64 7.03
12 -2 -14 56.03 7.18
-14 -12 2 54.8 7.74
-14 -12 2 95.56 8.38
-14 12 -2 75.05 7.85
-12 2 -14 59.33 8.09
-12 2 -14 62.53 7.31
2 14 12 77.31 7.57
-4 -14 0 62.4 6.82
-4 -14 0 65.04 6.41
14 0 4 62.9 7.15
4 14 0 69.71 7.27
0 -4 -14 73.33 6.39
0 -4 -14 62.81 6.83
0 -4 14 67.36 6.21
0 -4 14 57.44 6.49
-14 0 4 49.66 6.79
-14 0 4 55.47 6.56
-14 0 4 49.51 7.31
-4 -14 0 67.59 7.63
0 4 -14 62.41 6.47
0 4 -14 52.73 6.78
14 0 -4 64.72 6.32
0 -4 -14 76.54 6.74
4 14 0 63.67 5.97
4 14 0 63.75 7.04
4 14 0 59.41 6.36
0 4 -14 60.57 7.31
0 4 14 68.6 6.22
0 4 14 70.67 6.28
0 4 14 65.39 7.06
0 4 14 69.82 7.77
4 -14 0 54.99 6.18
4 -14 0 71.97 6.96
4 -14 0 60.92 7.79
4 14 0 71.66 6.21
-4 14 0 67.62 7.38
-14 0 -4 51 6.77
-14 0 -4 59.64 7.38
-14 0 -4 61.42 7.17
-14 0 4 74.05 6.53
-14 0 4 63.54 6.54
-14 0 4 61.17 6.38
14 0 -4 58.61 7.12
14 0 4 67.82 6.09
-14 0 -4 58.45 6.05
-14 0 4 60.98 7
14 0 4 62.18 7.27
0 -4 14 60.02 7.44
0 -4 14 57.71 8.15
0 4 -14 66.67 6.36
-4 -14 0 64.91 6.02
-4 14 0 55.47 5.86
-4 14 0 72.83 6.81
-4 14 0 72.84 6.85
-4 14 0 67.44 6.72
-4 -14 0 65.46 6.61
2 -4 14 48.68 5.54
-2 -4 -14 55.9 5.48
-2 -4 -14 56.25 5.49
-2 -4 -14 46.63 5.79
-2 -4 -14 51.62 6.1
-4 14 2 49.32 5.52
-4 14 2 39.27 4.73
-4 14 2 58.27 5.73
2 4 -14 40.7 5.46
-14 -2 -4 41.75 5.94
-14 2 4 42.14 5.06
-14 2 4 38.54 5.82
4 14 -2 45.86 4.91
4 14 -2 45.46 5.86
2 -4 14 43.31 4.93
14 2 -4 47.01 6.1
4 -14 2 50.98 5.7
-14 2 4 46.59 5.31
2 4 -14 53.87 5.46
2 4 -14 45.64 5.41
14 -2 4 43.47 5.24
14 -2 4 43.02 6.25
14 -2 4 42.78 5.96
14 2 -4 50.59 5.36
-4 -14 -2 48.93 5.64
-4 -14 -2 49.48 5.26
-4 -14 -2 48.65 6.25
-14 2 4 34.59 5.44
2 -4 14 52.03 7.04
-4 14 2 52.44 6.06
4 14 -2 47.79 6.07
-4 -14 -2 53.98 5.53
4 -14 2 37.24 5.6
-14 2 4 49.77 5.45
-14 -2 -4 54.67 5.12
-14 -2 -4 40.31 4.97
-14 -2 -4 41.54 5.43
-2 4 14 49.61 5.15
-2 4 14 43.51 5.67
-2 4 14 51.36 6.85
4 14 -2 47.7 5.01
-14 2 4 44.16 5.89
2 -4 14 39.35 5.4
4 -14 2 41.98 4.99
-2 4 14 46.12 5.23
-14 -2 -4 51.01 6.47
4 -14 -2 44.33 5.29
-4 -14 2 46.81 6.51
-4 14 -2 42.6 4.55
4 14 2 49.66 5.24
2 4 14 51.04 5.11
-4 -14 2 39.51 5.54
2 4 14 59.49 6.53
-14 -2 4 44.3 5.36
4 14 2 44.22 4.82
4 14 2 49.28 5.95
-14 2 -4 38.45 4.77
-14 2 -4 49.03 5.61
-14 2 -4 35.71 5.2
-14 2 -4 46.97 6.21
-2 4 -14 44.01 6.17
-2 -4 14 41.93 4.95
-2 -4 14 47.76 5.34
-2 -4 14 48.84 6.14
-4 14 -2 51.16 6.3
4 -14 -2 52.47 5.83
4 -14 -2 38.21 5.45
-14 -2 4 48.21 5.46
-14 -2 4 48.2 5.5
4 14 2 49.57 5.14
14 -2 -4 49.45 5.63
14 -2 -4 49.15 5.3
14 -2 -4 41.59 6.08
14 2 4 48.81 6
14 2 4 47.8 5.96
-14 -2 4 32.04 4.93
2 -4 -14 49.92 5.62
2 -4 -14 54.58 5.24
2 -4 -14 45.05 5.49
-4 -14 2 56.35 5.11
-4 14 -2 49.57 5.64
-4 14 -2 52.89 5.46
14 2 4 38.05 4.48
2 4 14 54.37 5.23
-2 -4 14 42.41 5.88
-2 4 -14 47.32 5.11
-2 4 -14 50.05 5.41
-2 4 -14 42.55 5.31
-2 4 -14 46.73 5.8
4 14 2 32.77 5.09
-4 -14 2 48.95 5.45
-14 -2 4 36.41 5.31
2 4 14 48.26 6.02
-4 -4 -14 21.08 2.94
4 -4 14 18.89 3.75
-14 4 4 16.07 2.94
-4 4 14 14.68 3.13
-4 4 14 15.73 3.86
4 4 -14 14.44 3.49
-14 4 4 15.04 3.37
-14 -4 -4 15.84 2.81
-14 -4 -4 14.35 3.31
-14 4 4 18.99 2.66
-14 4 4 15.57 3.09
14 4 -4 16.33 3.27
14 4 -4 18.22 3.15
-4 4 14 19.82 2.99
-4 4 14 18.39 2.66
4 14 -4 13.94 2.93
4 14 -4 15.4 3.51
4 -14 4 13.9 3.15
4 -14 4 18.53 4.05
-4 -4 -14 20.54 3.13
-4 14 4 16.82 2.52
-4 14 4 22.21 3.02
-14 -4 -4 13.47 2.84
-14 -4 -4 15.19 3.35
-14 -4 -4 12.96 3.22
14 -4 4 17.93 3.54
14 -4 4 16.86 3.16
14 -4 4 14.06 2.9
4 14 -4 21.93 2.71
-4 -4 -14 20.73 3.08
-4 -4 -14 21.82 2.85
-4 -4 -14 20.35 3.3
4 4 -14 17.51 2.99
4 4 -14 15.66 2.82
4 -4 14 19.14 3.04
-4 -14 -4 17.48 3.1
4 14 -4 14.72 2.58
-4 -14 -4 18.06 2.77
-4 14 4 18 2.99
-14 4 4 15.1 2.72
-4 -14 -4 14.96 2.83
-4 14 4 16.59 3.27
4 -14 4 15.61 3.21
-4 -14 -4 16.09 3.51
4 4 -14 20.22 3.1
4 -4 14 14.01 2.3
14 4 -4 17.83 2.94
4 -4 14 16.67 3.89
-4 -14 4 13.97 2.84
-4 -4 14 16.37 3.39
-4 14 -4 13.28 2.73
-14 4 -4 15.92 2.71
-4 14 -4 13 2.9
4 4 14 14.78 3.51
-4 4 -14 19.72 2.75
-4 4 -14 17.31 3.03
-4 14 -4 17.46 3.53
4 14 4 16.75 3.11
14 -4 -4 18.69 3.21
4 4 14 21.46 3.59
14 4 4 19.47 2.72
14 4 4 15.86 3.53
4 14 4 19.27 2.81
4 14 4 17.93 3.09
4 -4 -14 16.33 3.11
4 -4 -14 20.17 3.01
-4 -14 4 16.55 3.08
14 -4 -4 17.59 2.9
14 -4 -4 17.98 3.6
-4 -14 4 12.61 3.8
-14 -4 4 14.75 3.13
-14 -4 4 18.75 3.32
-14 -4 4 16.01 2.89
14 4 4 16.46 3.42
-14 -4 4 18.17 3.51
-14 4 -4 14.46 2.34
4 -14 -4 13.82 3.01
-14 4 -4 19.58 2.57
-4 4 -14 18.94 3.09
-4 4 -14 17.49 3.01
-4 4 -14 13.74 3.3
-4 4 -14 15.48 3.15
4 -4 -14 16.3 2.85
4 -14 -4 11.27 2.88
4 -14 -4 18.9 2.99
-14 -4 4 11.18 3.06
-4 -4 14 14.85 2.9
4 -14 -4 13.09 3.37
-14 4 -4 17.35 3.36
-14 4 -4 13.45 3.44
4 4 14 19.48 2.77
4 4 14 23.22 2.93
4 14 4 16.82 2.76
-4 -4 14 14.85 2.91
-14 4 -4 14.83 3.04
-4 -4 14 14.03 3.92
4 14 -6 2.49 2.96
-6 4 14 3.7 3.42
4 -14 6 3.39 3.7
4 14 -6 6.43 1.96
14 -6 4 4.11 2.42
14 -6 4 6.92 3.24
-14 6 4 5.32 2.58
-14 6 4 0.34 2.34
-14 6 4 3.6 2.37
-14 6 4 3.13 2.95
6 -4 14 7 2.53
-6 -4 -14 7.41 2.41
-4 14 6 -0.49 2.94
-14 -6 -4 3.33 2.59
14 -6 4 3.49 3
4 14 -6 7.26 2.37
-6 -4 -14 6.89 2.52
-6 -4 -14 7.69 2.7
-14 -6 -4 5.89 2.81
-14 -6 -4 -0.08 2.65
4 14 -6 6.51 2.31
-6 -4 -14 7.02 2.67
-14 6 4 5.55 2.62
4 -14 6 7.02 2.76
4 -14 6 1.67 2.87
-6 4 14 7.19 2.13
-6 4 14 2.28 2.54
6 4 -14 4.34 2.5
6 4 -14 4.93 2.15
6 4 -14 5.92 3.02
6 -4 14 -0.43 3.5
6 -4 14 -1.01 3.55
6 4 -14 3.32 2.65
-4 -14 -6 4.03 2.72
-4 -14 -6 7.47 2.38
-4 -14 -6 5.96 2.25
-4 -14 -6 4.37 2.78
14 6 -4 4.53 2.79
-4 14 6 7.06 2.52
-4 14 6 6.83 2.05
-4 14 6 9.42 2.31
14 6 -4 4.13 2.6
4 -14 6 5.33 2.43
-14 -6 -4 4.13 2.9
-14 -6 -4 5.55 2.63
-14 6 4 -2.64 2.26
-14 6 4 9.85 2.17
-6 4 14 4.72 2.4
14 6 -4 6.56 2.52
6 4 14 7.81 2.62
-14 6 -4 9.42 2.61
6 4 14 5.75 3.37
4 -14 -6 -6.49 3.06
-14 6 -4 3.97 2.89
14 -6 -4 7.66 2.74
14 6 4 4 3.05
14 -6 -4 -0.06 3.13
-6 4 -14 1.46 2.67
4 -14 -6 4.48 2.52
4 -14 -6 1.74 2.71
4 -14 -6 5.96 2.34
4 14 6 6.66 2.22
-6 -4 14 2.28 2.52
-14 6 -4 5.23 2.86
14 6 4 4.93 2.97
6 4 14 6.27 2.38
4 14 6 6.65 2.59
4 14 6 -2.12 2.56
4 14 6 8.04 2.77
6 -4 -14 9.01 2.88
6 -4 -14 4.8 2.48
6 -4 -14 4.54 2.44
-4 -14 6 6.1 2.51
-4 -14 6 3.37 3.65
-4 14 -6 6.9 2.15
-14 -6 4 12.28 3.13
-6 4 -14 1.44 2.76
-4 14 -6 3.93 2.33
-4 -14 6 7.37 2.53
-4 -14 6 5.22 2.38
-6 -4 14 5.74 3.74
-6 4 -14 4.1 2.56
-6 4 -14 5.46 2.77
-14 6 -4 7.93 3.03
-6 -4 14 2.06 2.34
-6 -4 14 3 2.66
6 4 14 6.05 2.09
-4 14 -6 3.22 2.87
-14 6 -4 -2.16 2.23
-4 14 -6 3.36 2.52
14 6 4 4.38 2.33
-14 -6 4 1.81 2.71
-14 -6 4 4.42 2.72
-14 -6 4 3.23 2.43
8 4 -14 12.81 3.25
4 -14 8 8.6 3.4
8 -4 14 3.93 3.93
-14 -8 -4 12 2.95
-14 -8 -4 12.39 3.26
14 8 -4 11.88 3.21
4 -14 8 8.2 4.19
8 -4 14 5.78 3.93
14 -8 4 15.56 3.46
14 8 -4 13.2 2.73
14 8 -4 10.43 2.79
4 14 -8 19.01 2.86
4 14 -8 17.7 3.08
4 14 -8 8.94 3.68
-14 8 4 10.91 3.2
-8 -4 -14 14.41 2.84
-8 -4 -14 17.6 3.07
-8 -4 -14 10.86 2.22
-8 -4 -14 13.64 3.08
14 8 -4 13.74 3.19
4 -14 8 9.95 2.54
4 -14 8 14.92 3.16
14 -8 4 17.5 3.72
-14 -8 -4 9.81 2.89
-4 14 8 8.63 3.11
-14 -8 -4 12.32 3.26
-4 14 8 15.74 3.11
-4 -14 -8 17.31 3
-4 -14 -8 11.58 2.94
-14 8 4 7 2.61
-14 8 4 16.02 2.81
-14 8 4 20.59 2.61
8 4 -14 11.97 3.06
-8 4 14 15.5 3.03
-8 4 14 14.69 2.49
8 4 -14 14.03 2.44
8 4 -14 13.14 3.46
8 -4 14 11.39 2.88
-8 4 14 17.87 3.97
-14 -8 -4 16.28 3.05
-4 14 8 12.02 2.58
-14 8 4 17.1 3.09
-14 8 4 7.45 2.96
-14 8 4 11.12 3.1
4 14 -8 14.77 2.31
-8 4 14 14.83 2.99
-14 8 4 13.41 2.95
-8 4 14 12.73 3.51
-4 -14 -8 18.34 3.16
-4 14 8 22.52 3.02
-4 -14 -8 17.13 3.36
8 4 14 17.82 3.06
-4 -14 8 15.08 3.03
-4 -14 8 13.96 2.82
-4 -14 8 12.91 2.93
-4 -14 8 12.19 4.26
14 8 4 12.34 2.81
4 -14 -8 20.11 3.11
-4 14 -8 15.1 3.13
-14 -8 4 13.23 2.89
-14 -8 4 10.67 3.03
4 -14 -8 3.65 3.64
4 -14 -8 13.86 3.32
8 4 14 13.84 3.83
-14 8 -4 7.22 3.2
-14 8 -4 14.42 3.43
-14 8 -4 12.05 3
8 4 14 17.67 3.25
-4 14 -8 13.41 3.33
-8 4 -14 5.68 3.46
14 8 4 13.55 3.33
14 8 4 13.14 3.46
8 -4 -14 15.98 3.24
-14 -8 4 19.18 3.9
4 14 8 16.12 2.58
4 14 8 15.77 3.06
4 14 8 11.35 3.21
4 14 8 18.96 3.17
-8 -4 14 10.99 3.06
-8 -4 14 12.24 2.93
14 -8 -4 12.43 3.12
14 -8 -4 9.96 3.55
-8 4 -14 8.89 3.12
-8 4 -14 17.45 3.36
-8 4 -14 12.95 3.23
-4 14 -8 13.16 2.62
-4 14 -8 12.38 2.86
-14 8 -4 16.55 2.94
-14 8 -4 17.42 3.52
-8 4 -14 13.03 3.04
-8 -4 14 14.37 4.18
8 -4 -14 19.18 2.92
-14 -8 4 16.5 3.18
8 4 14 17.6 2.69
8 -4 -14 15.77 2.91
10 4 -14 11.04 3.45
-10 -4 -14 11.18 2.94
-10 -4 -14 11.55 2.91
-4 14 10 10.71 2.54
14 -10 4 10.34 2.61
-10 4 14 9.53 2.38
14 10 -4 11.67 2.99
-10 4 14 10.55 2.91
-14 10 4 1.32 2.4
-4 -14 -10 10.98 3.09
-4 -14 -10 10 2.66
-4 -14 -10 10.42 2.75
-4 -14 -10 11.89 3.29
-10 -4 -14 13.59 3.12
4 14 -10 2.27 3.4
4 -14 10 7.43 4.13
10 -4 14 9.73 2.82
-4 14 10 10.21 2.74
-10 4 14 9.73 2.79
-4 14 10 8.88 2.98
4 -14 10 9.41 3.05
4 -14 10 5.45 3.61
-14 -10 -4 10.48 3.18
14 -10 4 10.97 3.49
4 -14 10 9.19 2.89
14 10 -4 9.44 3.2
-4 14 10 13.84 2.58
14 -10 4 8.92 3.46
14 10 -4 9.24 2.43
14 10 -4 7.69 2.66
10 -4 14 8.87 3.92
10 -4 14 9.84 3.75
-14 -10 -4 7.05 2.93
-14 -10 -4 5.63 2.97
-14 -10 -4 5.74 2.67
-14 10 4 10.27 2.8
-14 10 4 6.22 3.09
-14 -10 -4 11.24 2.87
4 14 -10 9.51 2.72
-10 -4 -14 12.94 2.7
4 14 -10 5.17 2.86
10 4 -14 10.06 3.07
10 4 -14 10.54 2.93
-14 10 4 7.95 3
-10 4 14 9.04 3.37
-10 4 14 11.97 3.78
-14 10 4 8.52 2.68
-14 10 -4 11.49 3.38
-4 -14 10 8.75 4.16
-4 14 -10 9.23 2.58
10 4 14 10.21 1.93
-10 4 -14 7.78 3.43
-4 14 -10 6.62 3.32
14 10 4 12.49 2.59
14 10 4 6.96 3.13
-10 -4 14 9.36 2.65
-10 -4 14 6.24 4.05
10 4 14 12.77 2.81
-10 -4 14 12.15 3.04
-4 -14 10 7.73 2.79
-14 10 -4 8.02 3.11
4 14 10 8.91 2.85
4 14 10 10.68 3.05
4 14 10 11.71 2.83
-4 -14 10 6.76 2.85
-14 -10 4 9.97 2.78
-14 -10 4 7.21 2.89
-14 -10 4 13.18 3.8
14 -10 -4 2.55 3.61
4 -14 -10 12.26 2.81
4 -14 -10 8.28 3.54
-14 10 -4 8.97 2.95
-14 -10 4 7.21 2.87
10 -4 -14 10.92 3.02
10 -4 -14 15.52 2.9
10 4 14 8.92 3.2
-4 -14 10 8.06 2.84
-14 10 -4 13.46 2.67
-10 4 -14 2.92 2.81
4 14 10 10.87 2.44
-4 14 -10 10.04 2.77
10 4 14 10.62 3.78
-10 4 -14 11.14 3.32
-10 4 -14 7.33 3.16
-10 4 -14 9.83 2.82
4 -14 -10 11.66 3.12
4 -14 -10 14.21 2.58
10 -4 -14 6.88 2.77
14 10 4 5.58 3.28
-4 14 -10 8.2 3.11
14 -10 -4 7.92 3.1
14 12 -4 26.56 3.86
-4 14 12 24.6 3.97
14 12 -4 24.22 3.96
14 12 -4 17.15 3.26
14 -12 4 24.7 3.3
14 -12 4 25.95 4.11
14 -12 4 28.22 4.52
-14 12 4 20.08 3.76
-12 -4 -14 25.88 3.46
-12 -4 -14 19.9 3.63
-12 -4 -14 25.18 3.89
4 14 -12 19.95 3.75
-14 12 4 38.19 4.82
-4 -14 -12 35.94 4.49
-4 -14 -12 23.21 3.63
-14 -12 -4 24.74 3.75
-14 -12 -4 27.86 3.89
4 -14 12 26.04 3.75
4 -14 12 22.44 3.72
4 -14 12 22.72 4.34
-4 -14 -12 24.22 3.65
-14 -12 -4 21.86 3.68
-12 4 14 20.04 3.04
12 4 -14 20.57 3.8
12 4 -14 18.88 3.43
4 -14 12 17.95 4.91
4 14 -12 21.42 3.43
-4 14 12 23.82 3.69
-12 4 14 20.6 4.5
-14 12 4 17.22 3.19
12 -4 14 20.37 4.48
-4 -14 -12 29.49 4
-12 4 14 36.03 4.58
-14 -12 -4 20.77 3.35
12 -4 -14 20.6 3.56
-4 14 -12 22.13 3.54
-14 -12 4 20.48 3.65
4 14 12 39.76 5
14 -12 -4 23.14 3.75
14 -12 -4 22.02 3.7
4 -14 -12 23.95 3.89
4 14 12 30.19 4.15
-12 4 -14 17.38 3.55
-12 4 -14 22.41 4.03
-12 4 -14 17.03 4.02
-4 14 -12 22.27 3.37
12 4 14 24.13 4.08
12 4 14 22.87 4.58
-4 14 -12 16.65 3.93
4 14 12 23.63 3.78
-4 -14 12 24.18 3.79
-4 -14 12 24.96 3.61
-4 -14 12 15.15 3.42
-4 -14 12 14.42 3.55
-4 -14 12 22.99 4.89
12 -4 -14 24.93 3.41
-14 -12 4 28.47 4.65
-14 12 -4 26.27 3.45
-14 12 -4 22.5 3.86
-14 12 -4 22.97 3.8
-12 -4 14 19.35 3.5
-12 -4 14 13.27 4.67
4 -14 -12 21.3 4.12
-14 -12 4 17.53 3.57
12 -4 -14 23.96 3.85
4 -14 -12 37.99 4.3
14 -12 -4 22.03 4.61
-12 4 -14 15.24 3.59
14 12 4 20.11 4
-6 14 0 11.51 2.61
0 6 -14 10.46 2.29
6 14 0 9.94 2.79
0 6 -14 8.42 3.03
0 6 14 10.94 2.52
0 6 14 12.13 2.38
0 6 14 8.38 2.73
-6 14 0 13.04 3.03
0 6 14 11.25 2.89
0 -6 -14 13.68 2.79
14 0 6 6.5 2.7
14 0 6 9.59 3.17
-14 0 -6 5.29 2.77
-14 0 -6 9.12 3.19
-14 0 -6 10.38 3.24
-14 0 6 6.77 2.76
0 6 -14 12.13 2.51
14 0 -6 7.91 2.78
14 0 6 11.86 2.25
0 -6 -14 13.22 2.76
0 -6 -14 10.84 2.7
-14 0 6 10.19 2.57
-14 0 6 12.12 2.67
-14 0 6 6.44 2.32
-14 0 6 10.83 3.31
-14 0 6 6.26 2.89
-6 -14 0 9.94 2.8
-6 -14 0 10.96 2.28
-6 -14 0 11.78 2.56
-6 -14 0 9.77 3.32
-6 14 0 10.28 1.95
-6 14 0 11.11 2.51
-6 14 0 12.65 2.83
0 6 -14 11.26 2.65
6 -14 0 7.05 2.44
6 -14 0 11.16 2.82
6 -14 0 8.84 3.47
6 14 0 11.59 2.34
14 0 -6 9.61 2.56
-14 0 6 7.15 2.38
0 -6 14 9.96 2.4
0 -6 14 9.21 2.58
0 -6 14 11.96 3.33
0 -6 14 8.65 3.89
0 6 14 10.45 3.28
6 14 0 14.08 2.43
-14 0 -6 16.33 2.28
14 0 -6 12.62 2.93
14 0 6 8.6 3.3
-2 6 14 11.67 2.97
-2 6 14 13.2 2.39
-2 6 14 12.31 3.13
6 14 -2 9.54 3.2
14 -2 6 10.75 3.44
-6 14 2 12 2.67
2 -6 14 12.88 2.21
-6 -14 -2 10.91 2.29
-6 14 2 12.04 2.79
-14 2 6 11.95 3.17
-2 6 14 11.18 2.44
-2 -6 -14 11.49 2.67
-14 -2 -6 9.06 2.95
-14 2 6 6.94 2.44
2 6 -14 11.56 2.7
2 6 -14 12.51 2.63
14 2 -6 9.13 2.61
14 2 -6 9.98 3.02
14 -2 6 14.98 3.28
6 -14 2 11.12 3.81
-14 -2 -6 8.24 3.11
-6 14 2 10.87 3.06
-2 -6 -14 13.72 2.77
-2 -6 -14 11.03 2.77
-14 2 6 8.36 3.45
-14 -2 -6 13.15 2.42
2 -6 14 12.21 2.83
2 -6 14 12.68 2.78
2 -6 14 9.87 3.54
2 -6 14 9.4 3.86
-2 6 14 13.24 3.56
-14 -2 -6 7.18 3.07
2 6 -14 11.36 2.53
2 6 -14 10.04 3.06
6 -14 2 7.7 2.75
-14 2 6 11.71 2.82
-6 -14 -2 10.13 3.16
14 -2 6 12.82 2.2
14 -2 6 9.9 2.68
6 14 -2 12.13 2.4
-6 -14 -2 10.71 2.85
-14 2 6 8.07 2.7
-6 14 2 13.61 2.61
-6 -14 -2 11.58 2.34
-14 2 6 10.55 2.45
-14 2 6 8.72 2.4
6 14 -2 10.89 2.77
6 14 -2 12.58 2.41
-6 -14 -2 8.77 2.55
-6 14 2 7.63 2.07
-14 2 -6 8.33 3.22
-2 6 -14 6.74 2.92
-6 -14 2 10.14 3.49
2 6 14 14.13 3.3
-6 14 -2 11.18 2.59
-14 -2 6 5.93 2.53
-14 -2 6 10.12 2.58
14 2 6 9.53 2.67
14 2 6 13.53 3.2
-2 6 -14 9.11 3.04
-14 -2 6 12.28 3.53
6 -14 -2 11.75 2.85
6 14 2 13.76 2.92
14 -2 -6 8.32 2.93
2 6 14 12.41 2.84
-6 -14 2 10.58 2.72
-14 2 -6 6.52 2.07
-14 2 -6 9.58 2.84
14 2 6 7.18 1.61
2 -6 -14 15.27 2.67
2 -6 -14 9.5 2.68
14 2 6 7.03 3.36
-6 -14 2 9.01 2.47
-2 6 -14 13.91 2.51
-2 6 -14 13.42 2.69
-2 -6 14 9.45 3.23
-2 -6 14 11.21 4.14
6 -14 -2 8.14 2.59
6 -14 -2 10.95 3.32
-2 6 -14 11.27 2.58
2 -6 -14 15.95 2.95
6 14 2 11.29 2.34
6 14 2 9.9 2.49
6 14 2 10.89 2.84
6 14 2 10.4 2.5
2 6 14 12.23 2.48
2 6 14 14.48 2.55
14 -2 -6 8.06 2.67
14 -2 -6 10.36 2.9
-14 -2 6 13.35 2.9
-6 14 -2 10.21 2.61
-6 14 -2 11.61 3.09
-2 -6 14 13.2 2.7
-14 2 -6 12.29 3.04
-14 -2 6 11.48 2.82
2 6 14 11.21 3.05
6 14 -4 6.65 2.51
-14 -4 -6 0.39 2.35
4 -6 14 -5.58 3.9
4 6 -14 2.86 2.55
-14 -4 -6 7.97 2.76
-14 -4 -6 3.56 2.8
4 6 -14 5.1 2.9
-14 4 6 2.32 2.05
-4 6 14 8.55 2.25
-4 6 14 4.51 2.63
-4 6 14 6.52 3.54
-4 6 14 7.76 3.04
6 14 -4 5.25 2.36
14 -4 6 3.89 2.45
-6 -14 -4 0.79 2.49
-14 4 6 0.87 2.46
4 -6 14 5.57 2.58
4 -6 14 -3.7 3.47
6 -14 4 4.64 3.61
6 14 -4 3.93 2.02
-6 -14 -4 5.87 2.62
-6 -14 -4 5.48 2.16
-4 6 14 6.48 2.34
-14 -4 -6 -0.41 2.9
4 6 -14 6.24 2.5
4 6 -14 7.03 2.33
-14 4 6 2.83 2.14
-14 4 6 2.84 2.17
-4 -6 -14 5.01 2.62
-6 14 4 6.7 2.43
14 -4 6 4.67 3.14
14 4 -6 5.5 2.45
14 4 -6 -0.28 2.65
14 4 -6 2.31 2.58
-6 -14 -4 2.57 2.1
-6 -14 -4 2.79 3.06
6 -14 4 1.95 2.65
-14 4 6 6.52 2.61
-4 -6 -14 9.95 2.4
-14 4 6 1.01 2.97
-4 -6 -14 8.24 2.61
6 14 -4 0.64 2.93
6 -14 4 0.01 2.69
-6 14 4 5.41 2
-6 14 4 5.05 2.4
-4 -6 -14 4.42 2.57
-6 14 4 4.73 2.81
-14 4 -6 5.51 2.87
-6 14 -4 4.27 2.45
-6 -14 4 4.34 2.27
-14 4 -6 -3.17 2.72
-4 -6 14 2.73 2.51
14 4 6 1.65 3.31
-14 4 -6 1.95 2.96
-4 -6 14 5.49 3.85
-4 6 -14 2.79 2.4
-4 6 -14 7.5 2.55
-4 6 -14 0.61 2.87
4 6 14 7.92 3.01
-14 -4 6 6.24 2.71
-14 -4 6 4.07 2.76
-14 -4 6 4.4 2.38
-14 -4 6 10.72 3.48
4 6 14 6.42 2.35
4 6 14 7.45 2.58
-6 -14 4 3.61 3.53
4 -6 -14 8.17 2.71
-6 -14 4 4.44 2.59
-6 14 -4 4.85 2.82
6 -14 -4 4.08 2.36
14 4 6 8.37 2.35
4 -6 -14 2.58 2.43
4 6 14 3.24 2.79
6 14 4 6.71 2.22
-6 -14 4 5.83 2.38
6 14 4 4.77 2.78
14 -4 -6 1.3 2.8
14 -4 -6 3.93 2.38
-6 14 -4 3.33 2.49
6 -14 -4 1.62 3.11
-4 -6 14 3.86 2.46
-4 -6 14 6.21 2.98
4 -6 -14 5.13 2.4
4 6 14 6.91 2.12
4 6 14 5.92 2.43
6 -14 -4 0.99 2.66
-4 6 -14 -1.67 2.92
14 4 6 2.98 3.2
6 14 4 1.38 2.6
6 14 4 1.58 2.47
14 6 -6 0.91 1.19
-6 -6 -14 6.94 2.55
-6 14 6 7.11 2.42
6 6 -14 -4.43 2.7
-6 -6 -14 6.52 2.65
-14 -6 -6 -6.14 2.53
-6 -14 -6 0.92 2.76
14 6 -6 -4.07 2.69
6 -14 6 5.38 2.48
6 14 -6 3.62 2.02
6 -14 6 2.21 3.79
-6 -14 -6 0.28 2.34
-6 6 14 1.43 2.62
-6 14 6 -5.42 2.89
-6 -6 -14 12.34 2.9
-6 14 6 4.24 2.42
-6 -14 -6 4.8 2.73
14 -6 6 11.81 3.42
-14 -6 -6 5.72 2.94
-14 -6 -6 2.03 2.51
-14 -6 -6 0.03 2.75
-14 -6 -6 -3.88 2.77
-6 14 6 -1.08 2.12
-14 6 6 3.2 2.74
-14 6 6 0.16 2.61
-14 6 6 3.49 2.36
-14 6 6 -0.07 2.37
-14 6 6 3.65 3.01
14 -6 6 8.18 3.03
-6 -14 -6 5.32 2.58
-6 -14 -6 2.65 2.29
6 14 -6 3.38 3.3
-14 6 6 -2.28 2.48
6 -6 14 5.08 2.6
6 -6 14 -9.55 3.65
-6 6 14 2.57 3.57
6 6 -14 1.55 2.55
6 6 -14 3.42 2.87
6 14 -6 2.36 2.5
6 -14 6 -0.57 2.93
-6 -6 -14 11.47 2.67
14 6 -6 1.14 2.42
6 14 -6 6.84 2.43
14 -6 6 3.37 2.59
6 -14 6 0.22 2.73
-14 6 6 7.57 2.13
-6 -14 -6 -2.38 2.52
-6 6 14 3.3 2.05
-6 6 14 6.7 2.53
-6 6 14 1.79 3.01
-6 6 -14 -9.25 3.14
-14 6 -6 6.01 2.91
6 -14 -6 5.59 2.32
-6 14 -6 4.38 2.08
-6 14 -6 3.46 2.51
-6 -6 14 0.07 2.36
-6 14 -6 3.61 2.78
-14 -6 6 2.93 2.82
-14 -6 6 2.91 2.93
-14 -6 6 0.43 2.39
-14 -6 6 -2.94 2.46
6 -6 -14 0.72 2.44
-6 -14 6 5.95 2.38
6 6 14 8.34 3.23
-6 -6 14 -2.96 2.75
-6 -14 6 3.15 3.89
6 -6 -14 4.88 2.44
6 6 14 4.62 2.14
6 6 14 8.11 2.57
6 14 6 6.27 2.31
6 14 6 -6.68 2.69
6 14 6 -2.82 2.66
6 14 6 7.24 2.78
14 -6 -6 0.46 2.74
-6 6 -14 4.71 2.52
-6 6 -14 4.77 2.67
6 -6 -14 3.48 2.69
-14 -6 6 4.28 3.49
6 -14 -6 5.6 2.72
6 -14 -6 -3.61 2.92
-6 -14 6 2.43 2.56
-6 -14 6 5.6 2.51
14 6 6 -0.47 2.26
14 6 6 -3.43 3.32
6 6 14 7.46 2.76
-14 6 -6 6.96 3.1
-14 6 -6 -0.73 2.3
-6 -6 14 2.54 3.86
14 6 6 0.86 3.07
14 -6 -6 3.55 2.4
14 -6 -6 1.18 3.4
-6 14 -6 3.6 2.66
-14 6 -6 5.31 2.9
-14 6 -6 -0.36 2.82
6 14 -8 6.47 2.04
6 -14 8 -0.96 3.95
-6 -14 -8 5.88 2.56
-8 6 14 8.62 2.68
-8 6 14 6.86 2.14
-8 -6 -14 10.12 2.91
-14 -8 -6 6.33 3.11
14 8 -6 5.53 2.58
8 -6 14 9.36 2.78
8 -6 14 1.36 3.54
8 -6 14 1.48 3.98
8 6 -14 7.01 2.84
8 6 -14 7.59 2.64
8 6 -14 8.14 3.17
-8 6 14 6.4 3.24
-6 -14 -8 6.97 2.84
-14 -8 -6 5.72 2.69
-8 -6 -14 5.94 2.92
-14 -8 -6 6.25 2.68
-8 -6 -14 5.94 2.2
14 -8 6 4.27 2.54
14 -8 6 5.41 3.48
14 -8 6 6.55 3.32
6 -14 8 5.69 2.65
6 -14 8 5.91 2.79
6 -14 8 3.05 3.2
6 14 -8 6.01 2.83
6 14 -8 3.37 3.27
-6 -14 -8 11.21 2.6
-6 -14 -8 5.06 2.38
-6 -14 -8 4.97 2.66
-6 14 8 3.67 2.23
-6 14 8 11.48 2.58
-6 14 8 8.78 2.64
-6 14 8 3.1 2.74
-14 -8 -6 5.12 2.59
14 8 -6 3.2 2.97
-8 6 14 4.73 2.68
-14 8 6 3.29 2.55
-14 8 6 7.31 2.89
-14 8 6 5.53 2.76
-14 8 6 6.63 2.69
-14 8 6 -0.58 2.57
-14 8 6 3.53 3.13
-8 -6 -14 5.91 2.47
6 14 -8 6.49 2.45
-6 -14 -8 6.52 2.89
-8 6 14 4.89 3.73
-14 -8 -6 6.14 2.98
-14 8 -6 7.85 3.15
14 8 6 5.67 3.35
8 6 14 5.22 3.57
-8 -6 14 1.67 2.74
-8 -6 14 5.49 2.61
-8 6 -14 0.61 2.89
-8 6 -14 4.26 2.8
-8 6 -14 6.53 2.99
8 -6 -14 7.01 2.62
-14 8 -6 5.4 2.67
-6 14 -8 3.89 2.87
8 -6 -14 4.38 3.04
8 -6 -14 8.42 2.6
14 8 6 6.43 2.46
14 8 6 6.98 3.01
-6 -14 8 5.15 2.4
-6 -14 8 5.13 3.91
-6 14 -8 6.68 2.38
-6 14 -8 6.21 2.59
14 -8 -6 5.93 2.88
14 -8 -6 2.15 3.49
6 -14 -8 4.53 2.99
6 -14 -8 8.95 2.36
-8 6 -14 0.8 3.22
-14 8 -6 9.53 3.07
8 6 14 10.99 2.51
8 6 14 6.96 2.61
-8 -6 14 3.42 3.88
-6 -14 8 2.61 2.77
-8 6 -14 1.86 2.88
6 14 8 7.08 2.44
8 6 14 7.24 3.09
-14 -8 6 4.05 2.99
6 -14 -8 6.68 2.72
6 -14 -8 5.26 3.47
-6 14 -8 6.75 2.87
6 14 8 3.73 2.81
-14 8 -6 5.17 3.11
-14 8 -6 4.52 2.72
-14 -8 6 4.72 2.53
-14 -8 6 7.82 3.71
-6 -14 8 4.67 2.57
-14 -8 6 6.65 2.64
6 14 8 4.72 2.97
14 -10 6 0.34 0.8
-10 6 14 1.35 1.96
-10 6 14 3.48 2.5
-10 6 14 1.77 3.63
14 -10 6 2.32 3.37
-14 -10 -6 1.12 2.53
-14 -10 -6 -1.89 2.78
-6 -14 -10 1.69 2.5
10 -6 14 1.61 3.51
10 -6 14 -1.12 3.68
10 6 -14 0.5 2.73
10 6 -14 2.79 2.67
10 6 -14 3.77 3.05
-6 -14 -10 0.97 2.25
6 14 -10 -5.13 3.01
6 -14 10 3.59 2.55
-10 -6 -14 -0.44 2.46
-14 10 6 -0.34 2.49
-14 10 6 -4.73 2.53
-14 -10 -6 -2.49 2.83
-10 -6 -14 3.27 2.71
6 14 -10 -1.77 2.6
-14 10 6 -0.37 2.86
-14 -10 -6 -0.61 2.63
-6 14 10 3.26 2.16
-6 14 10 6.41 2.39
-6 14 10 0.6 2.49
14 10 -6 -0.14 0.49
14 -10 6 0.67 3.37
14 10 -6 1.72 2.47
-10 6 14 1.87 2.55
6 -14 10 -0.33 2.73
6 -14 10 -2.31 3.4
-6 -14 -10 2.52 2.57
-6 -14 -10 -2.33 2.7
-10 -6 -14 6.78 2.78
14 10 -6 2.74 2.98
10 -6 14 -0.87 2.52
-14 10 6 -1.84 2.32
6 14 -10 -0.55 2.55
-14 10 6 1.08 2.62
-6 14 10 -1.37 2.62
-14 -10 -6 2.18 3.02
-10 -6 -14 1.3 2.74
6 -14 10 -0.81 4.16
10 6 14 4.16 3.62
10 6 14 3.08 2.45
10 6 14 1.53 2.22
-6 -14 10 -2.2 2.88
10 6 14 1.01 3.1
6 14 10 0.71 2.71
-10 6 -14 -1.06 2.99
-10 6 -14 1.64 2.92
-10 6 -14 -1.22 2.96
14 10 6 1.06 2.24
14 10 6 -1.99 2.79
-14 10 -6 1.95 3.02
-14 10 -6 3.22 2.78
-6 -14 10 -3.16 2.5
-6 -14 10 4.66 3.9
6 14 10 2.2 3.04
-10 6 -14 -5.1 2.83
6 -14 -10 2.23 2.91
6 -14 -10 2.96 2.13
14 10 6 0.33 3.28
-14 -10 6 1.94 2.73
-14 -10 6 -2.46 2.51
-14 -10 6 -0.74 2.52
6 14 10 0.68 2.44
-10 -6 14 -3.89 3.98
10 -6 -14 -4.4 2.86
10 -6 -14 1.85 2.49
-6 -14 10 -2.11 2.46
14 -10 -6 0.55 2.88
14 -10 -6 -3.37 3.25
-10 -6 14 3.12 2.67
-14 -10 6 4.75 3.78
-14 10 -6 11.99 2.62
6 -14 -10 -0.09 3.1
10 -6 -14 0.73 2.53
-6 14 -10 0.32 2.29
-6 14 -10 -0.39 2.5
-6 14 -10 1.53 2.86
-6 14 -10 -1.03 2.98
-10 -6 14 0.16 2.4
-10 6 -14 0.88 2.63
6 -14 12 5.61 3.65
12 -6 14 10.08 3.93
12 6 -14 5.49 2.76
-6 -14 -12 4.34 2.62
-14 12 6 6.26 2.77
-14 12 6 2.94 2.63
-12 -6 -14 4.38 2.71
-12 -6 -14 5.97 2.94
-12 -6 -14 5.93 3.04
14 12 -6 2.31 3.08
-14 -12 -6 5.61 2.9
-14 -12 -6 1.88 3.15
-14 -12 -6 5.43 2.66
-6 -14 -12 5.72 2.97
6 -14 12 6.22 4.3
-12 6 14 5.48 2.72
-12 6 14 3.42 3.83
14 12 -6 8.39 2.72
14 -12 6 6.68 3.92
-6 -14 -12 9.73 2.73
-12 6 14 3.73 2.14
14 -12 6 4.46 2.53
6 14 -12 2.4 2.69
6 -14 12 5.28 2.93
-6 14 12 11.57 2.61
-6 14 12 5.01 2.67
6 14 -12 3.74 2.89
12 -6 14 3.79 3.69
-14 12 6 4.36 2.56
-14 -12 -6 1.72 2.91
-6 -14 -12 5.59 2.69
14 -12 6 5.86 3.44
12 -6 -14 4.52 3.1
-6 14 -12 3.69 2.69
-14 12 -6 15.53 2.84
-6 14 -12 -1.16 2.94
6 14 12 5.36 3.15
12 6 14 3.75 2.57
12 6 14 10.02 3.48
12 6 14 5.44 3.89
14 -12 -6 3.19 3.17
14 -12 -6 2.98 3.78
-14 12 -6 4.5 3.08
12 -6 -14 8.01 2.62
6 14 12 4.04 2.9
-6 14 -12 7.19 2.61
-14 -12 6 4.56 4.11
6 -14 -12 7.66 2.3
-14 -12 6 1.73 2.62
12 -6 -14 5.4 2.74
-6 -14 12 4.58 3.14
-6 -14 12 6.73 3.29
-6 -14 12 2.68 2.68
-6 -14 12 5.75 4.27
-14 12 -6 5.59 3
14 12 6 6.76 3.57
-12 6 -14 7.19 2.9
-12 6 -14 5.39 3.31
-12 6 -14 0.16 3.13
-12 6 -14 -1.52 2.92
-14 -12 6 5.15 2.99
6 14 12 4.37 2.46
-12 -6 14 -1.57 4.19
6 -14 -12 7.2 3.27
14 12 6 4.15 3.03
6 -14 -12 3.98 3.48
-14 0 -8 10.89 3.36
-8 -14 0 18.59 2.8
-8 -14 0 11.86 3.17
-14 0 8 20.27 3.72
-14 0 8 15.86 3.22
-8 14 0 17.67 3.06
-8 -14 0 17.15 3.24
-14 0 8 17.13 2.99
-8 14 0 21.08 3.52
0 -8 -14 24.01 3.4
14 0 8 20.29 2.87
14 0 8 15.22 3.06
0 8 14 19.92 2.93
0 8 14 24.68 2.86
0 8 14 19.03 3.5
0 -8 14 13.77 3.82
0 -8 14 17.82 4.57
8 -14 0 17.19 2.93
8 -14 0 18.79 3.33
8 -14 0 17.01 3.89
8 14 0 18.05 2.83
-8 14 0 21.75 3.15
14 0 -8 15.86 3.41
14 0 -8 17.38 3.02
14 0 -8 17.2 3.2
-14 0 8 14.4 2.89
-14 0 8 13.73 4
-14 0 -8 19.73 3.68
-14 0 -8 11.46 3.53
0 8 -14 21.22 3.01
14 0 8 17.45 3.75
-8 -14 0 16.62 3.67
-8 14 0 17.62 2.44
-14 0 -8 29.6 3.45
0 8 -14 17.92 2.8
0 8 -14 16.05 3.08
8 14 0 22.72 2.96
0 -8 -14 22.3 3.12
0 -8 -14 18.43 3.21
0 -8 14 17.51 2.83
0 -8 14 17.29 3.09
0 -8 14 19.73 3.03
14 0 8 17.47 3.98
-14 0 8 11.13 2.71
-8 14 0 19.29 3.16
0 8 -14 17.42 2.96
0 8 14 24.44 4.02
8 14 0 14.35 3.37
0 8 -14 11.86 3.65
8 14 0 20.79 3.57
0 8 14 21.53 3.47
14 2 -8 10.46 3.3
-14 -2 -8 6.77 2.61
-14 2 8 3.51 2.44
2 -8 14 -3.67 4.38
2 8 -14 10.73 2.85
2 8 -14 12.59 2.73
2 8 -14 9.85 2.52
-14 -2 -8 10.35 3.35
-14 -2 -8 11.52 3.1
-14 2 8 8.54 2.73
14 2 -8 10.32 2.71
14 2 -8 11.66 3.09
-14 2 8 9.48 2.6
8 14 -2 16.48 2.67
8 14 -2 12.05 3.06
-8 14 2 8.48 3.01
2 8 -14 9.61 3.17
-2 8 14 11.84 2.38
-2 8 14 12.97 3.08
2 8 -14 11.25 2.74
14 -2 8 15.3 2.3
14 -2 8 10.66 2.86
14 -2 8 9.63 3.46
-14 2 8 13.8 2.94
-14 2 8 5.54 2.6
-2 8 14 13.01 2.64
-14 -2 -8 5.88 3.31
-8 -14 -2 13.9 3.07
2 -8 14 14.08 2.31
2 -8 14 10.42 2.9
2 -8 14 17.24 2.97
2 -8 14 0.32 3.72
-8 14 2 7.11 2.28
-8 14 2 13.18 2.83
-8 14 2 15.27 3
-8 14 2 11.25 2.77
8 -14 2 10.64 2.99
-2 -8 -14 13.17 2.95
-2 -8 -14 17.83 2.89
-2 -8 -14 12.52 2.82
14 -2 8 10.12 3.67
8 -14 2 14.65 3.89
8 14 -2 15.19 2.68
-2 8 14 6.96 3.74
-2 8 14 13.66 3.26
-14 2 8 14.43 3.88
-14 2 8 14.86 3.5
-8 -14 -2 10.11 3.29
8 -14 2 13.74 3.14
-14 -2 8 9.63 2.97
-8 -14 2 18.46 3.2
-2 8 -14 13.81 2.47
2 -8 -14 10.04 2.75
-2 8 -14 13.42 2.7
-2 8 -14 5.93 3.22
14 -2 -8 13.99 3.17
14 2 8 12.59 2.65
2 -8 -14 11.91 2.98
2 -8 -14 15.17 2.7
2 8 14 13 3.04
2 8 14 14.49 3.45
2 8 14 14.54 3.02
14 2 8 6.79 3.23
-8 14 -2 15.16 2.81
-14 -2 8 11.87 2.8
-14 -2 8 12.99 2.58
-14 -2 8 10.42 3.99
-14 2 -8 16.2 2.16
-2 -8 14 8.51 2.79
-2 -8 14 13.62 2.81
14 2 8 9.57 3.72
8 14 2 13.71 3.08
-2 -8 14 13.91 3.49
-2 -8 14 15.9 4.4
8 14 2 15.16 2.59
8 14 2 14.73 2.8
8 14 2 0.55 3.05
14 -2 -8 12.61 2.74
14 -2 -8 10.75 2.96
-2 8 -14 10.91 2.62
-8 -14 2 12.72 2.67
14 2 8 9.48 2.83
-8 14 -2 14.61 3.11
-14 2 -8 11.35 3.17
-2 8 -14 0.22 3.39
-8 -14 2 13.09 2.76
8 -14 -2 13.15 2.96
8 -14 -2 10.15 3.32
2 8 14 15.5 2.63
2 8 14 16.18 2.6
-14 2 -8 7.45 3.28
-2 -8 14 12.48 2.7
-8 -14 2 11.75 3.57
-8 14 -2 12.45 2.86
-14 -4 -8 13.29 3.02
14 4 -8 12.19 3.06
-14 4 8 13.04 2.94
4 8 -14 17.3 2.66
-14 -4 -8 11.55 3.27
-14 -4 -8 11.26 3.24
-4 8 14 14.64 3.11
-4 -8 -14 21.36 3.03
8 -14 4 14.46 3.15
8 -14 4 13.87 3.38
8 -14 4 15.89 4.15
8 14 -4 17.08 2.64
8 14 -4 17.23 2.94
8 14 -4 10.4 3.1
8 14 -4 14.24 3.63
-14 4 8 18.02 3.6
-8 14 4 11.41 2.54
-8 14 4 18.22 2.88
-8 14 4 15.55 3.02
-8 14 4 13.2 2.96
-14 4 8 7.91 2.41
-14 4 8 13 2.67
-14 4 8 9.82 2.62
4 -8 14 3.41 4.21
4 8 -14 12.73 2.94
4 8 -14 15.11 2.96
-8 -14 -4 9.31 3.04
-8 -14 -4 8.92 2.68
-8 -14 -4 12.43 3.28
-4 8 14 15.03 2.71
-4 -8 -14 19.66 2.97
-8 -14 -4 18.71 3.26
4 -8 14 13.24 2.99
4 -8 14 15.45 3.24
4 -8 14 3.79 3.83
14 -4 8 9.88 2.97
14 -4 8 15.06 3.85
-4 8 14 8.92 4.08
-4 8 14 14.98 3.47
-4 -8 -14 16.11 2.68
14 4 -8 14.24 3.44
-14 4 8 18.87 4.17
14 4 -8 15.17 2.97
4 8 -14 13.55 3.39
-8 -14 -4 9.06 2.2
-14 -4 -8 12.58 2.88
-8 14 4 12.29 3.41
-4 -8 -14 14.46 2.92
-14 4 -8 14.48 3.5
-4 -8 14 10.07 2.86
-8 14 -4 14.1 2.93
14 4 8 13.43 3.61
-4 -8 14 16.23 4.49
-4 8 -14 13.97 2.8
-4 8 -14 15.95 3
-4 8 -14 7.86 3.5
-4 -8 14 13.4 2.92
8 -14 -4 7.01 3.63
14 4 8 13.71 3
-8 -14 4 12.29 2.8
-8 -14 4 12.49 4.01
14 -4 -8 14.4 2.81
-14 -4 8 18.88 3.32
-4 -8 14 14.17 3.33
-14 -4 8 11.63 2.87
-14 -4 8 5.02 2.68
4 8 14 15.76 2.92
4 8 14 16.82 3.44
4 8 14 20.93 3.36
4 8 14 16.17 3.04
8 -14 -4 6.04 3.09
8 -14 -4 17.16 3
-14 4 -8 5.83 3.13
-14 4 -8 13.05 3.33
4 -8 -14 14.77 3.25
8 14 4 14.28 2.67
8 14 4 7.4 3.18
8 14 4 9.4 3.05
14 -4 -8 16.16 3.31
14 4 8 12.46 2.76
-8 14 -4 16.49 3.44
4 -8 -14 14.61 2.91
14 4 8 16.95 3.92
-14 -4 8 13.48 4.08
4 8 14 16.65 2.62
4 8 14 23.07 2.92
-8 -14 4 15.39 3.09
-8 -14 4 15.31 2.77
-4 8 -14 1.73 3.46
-8 14 -4 13.5 2.96
-14 -4 8 11.48 3.01
-8 14 6 6.68 3.04
14 -6 8 4.28 2.57
-8 14 6 10.78 2.47
-6 -8 -14 9.98 2.57
8 14 -6 7.78 2.17
-14 -6 -8 8.98 2.69
-14 -6 -8 6.21 2.87
-14 -6 -8 4.71 3.06
-8 14 6 6.24 2.27
8 -14 6 5.92 2.44
6 8 -14 4.02 2.68
6 8 -14 8.87 3.09
8 -14 6 4.2 3.88
14 6 -8 5 2.64
-6 8 14 6.38 3.75
14 6 -8 7.08 3.14
-8 -14 -6 5.76 2.37
8 -14 6 2.41 2.82
-6 -8 -14 9 2.66
-14 6 8 4.04 2.65
-14 6 8 10.23 2.11
-14 6 8 5.07 2.79
-14 6 8 7.65 2.65
-14 6 8 7.87 2.48
-14 6 8 3.71 2.45
-14 6 8 4.52 3.39
-8 -14 -6 7.04 3
-8 -14 -6 10.95 2.87
-8 -14 -6 5.28 2.55
-8 -14 -6 5.55 2.71
-8 14 6 6.03 2.55
-6 -8 -14 7.09 2.68
14 6 -8 7.49 2.82
6 -8 14 2.26 4.01
-6 8 14 5.25 2.45
-6 8 14 6.96 2.72
6 -8 14 3.93 3.63
-6 8 14 6.82 3.17
14 -6 8 9.37 3.29
6 -8 14 4.58 3.05
8 14 -6 6.22 2.62
8 14 -6 6.53 2.79
8 14 -6 2.72 3.24
14 -6 8 3.03 3.5
-14 -6 -8 4.54 2.86
-6 -8 -14 8.87 2.85
6 -8 14 3.5 2.71
8 -14 6 7.09 3.2
-14 6 -8 2.58 3.02
-8 -14 6 6.03 2.76
-8 14 -6 8.28 2.32
-14 -6 8 3.63 3.76
-8 14 -6 4.88 3.18
-6 8 -14 0.33 3.02
14 6 8 9.43 2.46
14 6 8 5.35 3.15
6 -8 -14 3.48 2.84
-8 -14 6 6.8 2.52
-14 6 -8 5.47 2.74
-14 -6 8 7.61 3
-14 -6 8 3.9 2.94
-14 -6 8 4.34 2.57
-14 -6 8 0.31 2.42
6 8 14 12.76 2.61
6 8 14 8.19 2.81
-14 6 -8 6.37 3.11
8 -14 -6 8.25 3.09
8 -14 -6 8.06 2.44
6 -8 -14 6.2 2.57
8 14 6 4.94 2.85
8 14 6 7.87 2.87
14 -6 -8 10.08 3.09
14 -6 -8 5.16 2.44
-8 -14 6 6.16 2.71
-8 -14 6 5.84 3.77
-6 8 -14 7.36 2.85
-8 14 -6 4.74 2.76
-8 14 -6 5.73 2.83
-6 -8 14 6 2.77
6 8 14 7.12 2.37
-6 8 -14 5.4 3.13
-6 -8 14 8.26 4.33
-14 6 -8 5.63 3.02
-14 6 -8 3.66 2.61
8 -14 -6 -0.62 3.43
-6 -8 14 2.94 2.5
8 14 6 4.47 2.34
6 8 14 3.77 3.1
-6 8 -14 6.6 2.82
14 6 8 6.71 3.56
8 8 -14 10.44 2.84
-14 -8 -8 14.36 2.93
-8 -14 -8 12.43 2.83
-14 -8 -8 10.68 3.19
-14 -8 -8 11.12 3.33
-14 -8 -8 12.39 3
-8 -8 -14 10.24 2.83
8 -8 14 12.43 2.88
-8 -14 -8 12.77 2.91
8 -8 14 8.1 4.3
-8 -14 -8 18.32 3.1
-8 8 14 13.4 3.1
-8 8 14 10.78 4.02
8 14 -8 12.08 2.85
14 -8 8 10.07 2.81
14 -8 8 12.73 3.78
8 -14 8 13.21 3.19
-14 8 8 5.99 3.39
-8 -14 -8 14.88 3.12
14 8 -8 12.4 3.35
-14 8 8 9.7 2.88
-14 8 8 9.9 2.88
-14 8 8 10.05 2.83
8 8 -14 8.56 3.35
-8 14 8 21.3 2.81
-8 14 8 9.12 2.85
-8 14 8 9 3.02
-8 -14 -8 11.57 2.77
-8 14 8 8.78 2.67
8 -14 8 9.5 3.62
8 -14 8 11.36 4.38
8 -14 8 10.34 2.79
-14 8 8 10.33 2.96
-8 -8 -14 13.93 2.82
-8 -8 -14 12.19 3.13
-14 8 8 17.23 2.25
-8 -8 -14 14.58 3.1
8 -8 14 7.05 3.69
8 14 -8 11.57 3.1
8 14 -8 7.25 3.43
8 14 -8 9.94 2.38
-8 8 14 12.07 2.94
-14 8 8 9.89 2.89
14 -8 8 13.87 3.75
14 8 -8 11.77 2.85
14 8 -8 12.24 3.17
-8 8 14 12.95 3.47
-14 -8 8 11.5 3.29
-8 8 -14 10.05 3.06
14 8 8 13.69 2.72
14 8 8 7.1 3.11
-14 8 -8 13.28 3.34
8 14 8 8.78 3.1
-14 8 -8 14.45 3.05
-8 14 -8 14.31 3.07
-8 14 -8 12.72 3.21
-8 14 -8 14.24 3.43
-8 -14 8 13.67 3.15
8 8 14 15.27 2.71
8 8 14 12.59 2.77
8 8 14 11.97 3.13
8 8 14 12.1 3.72
8 14 8 11.17 2.67
14 -8 -8 8.49 3.88
-8 8 -14 8.27 3.35
-8 -14 8 11.92 2.68
-8 -14 8 9.31 4.11
8 -14 -8 13.65 3.1
8 -14 -8 12.09 3.74
8 -8 -14 9.25 3.17
8 -8 -14 11.61 2.9
-14 -8 8 13.34 3.33
-14 -8 8 10.91 2.81
-14 -8 8 7.52 2.78
-14 -8 8 12.71 4.15
-8 14 -8 14.08 2.63
8 14 8 13.21 3.29
14 -8 -8 12.33 3.23
-8 8 -14 2.13 3.28
14 8 8 13.56 3.78
-8 -14 8 10.11 2.88
-14 8 -8 14.41 3.39
-14 8 -8 9.33 3.3
-14 8 -8 11.02 2.96
-8 -8 14 11.17 3.07
-8 8 -14 12.13 3.05
-8 -8 14 6.05 4.42
8 -14 -8 11.36 3.25
8 -14 -8 11.82 2.66
-8 -8 14 11.88 2.85
-10 8 14 1.85 2.52
-8 14 10 1.22 2.52
-8 14 10 3.32 2.35
-8 -14 -10 0.92 2.5
-8 14 10 1.61 2.32
-14 -10 -8 2.2 2.75
8 -14 10 -3.76 4.11
8 14 -10 0.62 2.43
-14 10 8 -2.07 2.45
-14 10 8 -5.79 2.58
8 -14 10 2.32 2.24
-10 -8 -14 1.61 2.69
14 -10 8 3.16 2.54
-8 -14 -10 0.23 2.54
14 -10 8 4.1 3.83
14 10 -8 -0.26 2.51
14 10 -8 -1.66 2.89
14 10 -8 -0.74 3.03
-8 -14 -10 -2.01 2.75
-14 10 8 -1.51 2.52
8 14 -10 -2.79 3.27
8 -14 10 -1.76 3.6
-10 -8 -14 0.78 2.65
-10 -8 -14 1.06 3
8 14 -10 -2.18 2.78
14 -10 8 -2.39 3.38
-8 -14 -10 1.75 2.73
-10 -8 -14 -1.41 2.46
10 -8 14 2.97 2.7
10 -8 14 -4.04 3.4
10 -8 14 -2.62 3.88
10 8 -14 0.79 2.67
-10 8 14 1.58 3.67
-14 -10 -8 0.8 2.62
-14 10 8 1.14 2.53
-14 -10 -8 0.79 2.57
-14 -10 -8 3.07 3.03
-14 10 -8 3.6 2.67
-14 -10 8 -2.86 4.03
-10 8 -14 -3.02 2.77
-14 -10 8 -1.58 2.88
14 10 8 -1.94 2.81
14 -10 -8 -1.91 3.46
10 8 14 -1.57 3.46
-8 14 -10 -1.29 2.6
-10 8 -14 -8.12 2.9
-14 -10 8 -2.29 2.44
-10 -8 14 5.49 2.86
10 -8 -14 0.65 2.58
14 -10 -8 0.56 2.93
-8 14 -10 3.73 2.89
10 -8 -14 -0.64 2.96
-10 8 -14 0.52 2.66
-10 8 -14 -0.69 3.07
-8 -14 10 -0.19 2.55
-8 14 -10 4.83 2.95
-8 -14 10 -2 2.32
8 -14 -10 0.93 3.14
-8 14 -10 0.74 2.33
-8 -14 10 -0.21 2.92
8 14 10 -0.93 2.81
8 14 10 1 3.08
10 8 14 1.03 2.24
10 8 14 0.47 2.45
10 8 14 -2.26 2.94
8 -14 -10 0.97 2.1
-14 10 -8 1.44 2.99
-14 10 -8 -1.34 2.73
-10 -8 14 -1.92 4.16
-8 -14 10 -2.35 4
14 10 8 -4.26 3.47
14 10 8 1.17 2.23
8 -14 -10 -0.94 2.96
14 -12 8 -3.62 4.05
8 14 -12 -1.24 2.52
-12 8 14 -0.68 3.78
12 8 -14 -1.4 2.57
-12 -8 -14 -2.46 2.64
-8 14 12 -1.71 2.67
-14 -12 -8 -0.73 2.82
-14 -12 -8 -2.27 3.06
-14 -12 -8 -2.39 2.65
8 -14 12 1.78 2.8
-12 -8 -14 -3.38 2.85
14 -12 8 -0.01 3.5
-12 -8 -14 -1.84 2.76
-12 8 14 -0.91 2.65
12 -8 14 1.56 4.09
-14 12 8 -1.95 2.44
14 12 -8 0.47 2.66
14 12 -8 -2.75 2.99
14 12 -8 -1.85 3.09
8 -14 12 -1.52 3.63
8 -14 12 1.54 4.38
8 14 -12 -3.84 2.83
-8 -14 -12 -0.96 2.54
-8 -14 -12 -0.75 2.74
-14 12 8 -0.08 2.65
-8 -14 -12 -1.52 2.44
12 -8 14 -1.16 3.65
-8 -14 -12 -1.29 2.81
8 -14 -12 1.62 2.13
-8 14 -12 -0.4 2.47
-12 8 -14 -4.81 2.84
-8 14 -12 -1.39 2.81
12 8 14 1.82 3.17
12 8 14 -0.4 2.38
-14 12 -8 1.66 2.99
8 -14 -12 -1.87 3.25
-12 -8 14 -1.19 3.11
-12 -8 14 -5.51 4.22
14 12 8 -3.7 2.84
14 12 8 -1.84 3.61
8 14 12 -1.6 2.95
12 -8 -14 0.95 2.51
-12 8 -14 -1.99 3.09
8 14 12 -2.04 3.22
12 -8 -14 -0.2 3.17
8 -14 -12 -0.64 3.47
-14 -12 8 -1.54 2.93
-14 -12 8 -1.55 2.54
-8 -14 12 0.8 3.12
-8 -14 12 -1.26 3.2
-8 -14 12 -4 2.51
-8 -14 12 -3.92 4.41
-14 12 -8 0.93 2.97
-14 -12 8 -5.53 4.31
-12 8 -14 -0.57 2.72
12 8 14 -1.79 3.86
14 -12 -8 -1.9 3.16
14 -12 -8 1.5 2.48
14 -12 -8 -6.14 3.33
-14 12 -8 5.44 2.61
10 14 0 38.88 5.25
14 0 -10 46.64 6.11
14 0 -10 43.07 5.59
0 10 -14 50.68 5.52
0 10 14 52.84 5.37
14 0 10 50.31 6.65
14 0 10 31.3 5.55
0 10 14 43.67 6.09
0 10 -14 31.9 5.35
-10 14 0 54.35 6.35
0 10 -14 41.7 5.94
-14 0 -10 53.49 4.83
-14 0 -10 45.16 5.82
-14 0 -10 46.71 6.53
-14 0 -10 33.78 5.36
0 10 -14 51.7 5.51
0 -10 14 34.35 5.97
10 -14 0 55.76 6.73
10 14 0 44.95 5.27
0 -10 -14 50.04 5.71
0 -10 -14 43.01 5.65
0 -10 14 50.41 5.19
0 -10 14 47.02 5.55
0 -10 14 51.55 5.73
-14 0 10 37.8 5.89
-10 -14 0 48.88 5.63
-10 -14 0 46.23 5.27
-10 -14 0 43.47 6
-10 -14 0 48.09 6.43
-10 14 0 34.07 4.61
-10 14 0 38.97 5.12
14 0 10 54.69 5.14
14 0 10 32.63 4.69
-10 14 0 44.13 5.68
-14 0 10 46.19 5.28
10 14 0 54.89 5.41
0 10 14 49.98 6.11
10 -14 0 36.97 5.08
10 -14 0 43.1 6.09
0 -10 14 36.3 5.4
-14 0 10 35.73 4.89
10 14 0 35.35 5.02
-10 14 2 15.89 2.77
-14 -2 -10 24.2 3.06
2 -10 14 21.41 3.48
-14 2 10 16.51 3.36
14 -2 10 22.43 4
14 -2 10 15.08 4.31
-14 2 10 14.32 2.97
-14 2 10 17.81 4.18
-14 2 10 18.55 3.97
-10 -14 -2 20.38 3.56
-10 -14 -2 18.5 3.16
14 -2 10 18.44 3.26
2 10 -14 20.4 3.23
-14 -2 -10 20.1 3.85
-14 -2 -10 14.79 3.7
14 2 -10 20.53 3.7
-2 -10 -14 16.48 3.41
-10 -14 -2 16.75 3.41
10 -14 2 17.31 3.56
10 -14 2 20.47 3.68
-14 2 10 18.19 3.04
14 2 -10 22.5 3.39
2 10 -14 21.06 3.34
2 10 -14 20.98 3.27
-14 -2 -10 21.65 3.6
2 10 -14 17.13 3.92
10 14 -2 24.7 3.13
-10 14 2 18.86 3.36
-10 14 2 19.85 3.55
2 -10 14 21.9 3.43
2 -10 14 13.69 3.91
2 -10 14 19.39 4.57
10 14 -2 20.46 3.53
-2 -10 -14 25.82 3.53
-2 -10 -14 29.1 3.24
-2 -10 -14 24.51 3.1
14 2 -10 19.27 3.92
-2 10 14 20.6 3.88
10 14 -2 15.74 3.81
-2 10 14 21.8 3.13
10 -14 2 24.43 4.3
10 14 -2 19.11 2.98
-10 14 2 18.29 3.58
-10 14 2 16.76 3.32
-2 10 14 19.39 3.48
14 2 10 17.73 3.21
-14 2 -10 8.88 3.74
-2 10 -14 19.12 3.15
10 -14 -2 20.28 3.51
-10 -14 2 20.9 4.21
-2 10 -14 12.35 3.79
-10 14 -2 21 3.56
14 2 10 19.36 3.75
-14 -2 10 15.4 3.4
-14 -2 10 18.62 3.11
-14 2 -10 18.07 3.53
-14 2 -10 20.51 3.84
10 -14 -2 21.27 3.36
-2 -10 14 17.24 3.21
2 -10 -14 18.03 3.49
2 -10 -14 18.95 3.29
14 2 10 24.16 3.1
2 10 14 30.03 4.14
2 10 14 28 3.66
2 10 14 21.73 3.83
-2 -10 14 19.39 3.81
-14 -2 10 20.99 4.61
-10 -14 2 19.95 3.54
-10 -14 2 20.13 3.07
-2 10 -14 22.35 3.19
10 14 2 18.66 3.13
10 14 2 22.84 3.38
10 14 2 16.98 3.48
10 14 2 17.74 3.6
14 2 10 13.07 4.27
-10 14 -2 21.14 3.66
2 10 14 21.78 3.02
2 10 14 30.7 3.17
2 10 14 20.22 3.25
-2 -10 14 16.74 3.25
14 -2 -10 19.16 3.82
-2 -10 14 20.92 4.81
10 -14 -2 15.28 4.01
-2 -10 14 19.01 3.14
-10 -14 2 18.6 3.33
-10 14 -2 19.58 3.47
14 -2 -10 22.55 3.29
-4 -10 -14 11.36 2.87
-10 14 4 6.53 2.55
10 14 -4 8.03 2.59
-10 14 4 9.9 2.88
-14 4 10 4.01 2.25
-14 4 10 9.76 2.39
-14 4 10 12.03 3.97
-14 4 10 7.42 3.41
-10 -14 -4 8.84 2.97
-10 -14 -4 9.82 2.68
-10 -14 -4 9.29 2.88
-10 -14 -4 9.63 2.34
-10 14 4 9.82 2.37
-4 -10 -14 14.63 2.93
14 4 -10 10.57 3.05
4 -10 14 10.78 3.58
-4 -10 -14 10.77 2.83
-14 -4 -10 7.95 3.26
-10 14 4 5.7 3.16
10 14 -4 8.42 2.88
10 14 -4 -0.4 2.59
4 -10 14 7.38 3
-14 4 10 6.36 2.81
-4 10 14 11.61 2.96
-14 -4 -10 10.46 3.11
-14 -4 -10 13.46 3.2
-4 10 14 11.38 3.44
14 -4 10 9.4 2.79
-4 10 14 7.12 2.47
4 -10 14 11.4 2.96
4 10 -14 10.78 2.76
4 10 -14 8.84 3.25
-10 14 4 13.88 2.76
10 -14 4 11.84 3.18
14 4 -10 10.78 2.8
14 4 -10 9.12 3.33
4 -10 14 6.71 4.13
10 14 -4 9.34 2.43
-4 -10 -14 8.76 2.55
10 -14 4 11.56 3.4
10 -14 4 10.18 3.96
14 -4 10 6.57 3.68
4 10 -14 11.53 2.66
-14 -4 -10 10.1 2.71
-4 10 -14 8.7 2.73
-10 -14 4 11.26 2.71
-14 -4 10 1.3 2.31
4 -10 -14 9.73 3.13
-4 10 -14 9.38 2.76
4 10 14 15.76 2.6
4 10 14 7.4 2.93
-10 -14 4 8 2.77
4 10 14 17.51 3.33
-14 4 -10 10.4 2.99
14 4 10 7.16 3.88
-4 10 -14 6.83 3.18
-4 10 -14 5.15 3.34
-10 -14 4 7.32 2.77
14 4 10 9.23 3.36
14 -4 -10 5.7 2.99
-4 -10 14 6.29 3.01
-4 -10 14 6.98 2.69
-4 -10 14 8.42 2.61
-4 -10 14 15.14 4.44
10 14 4 8.77 2.49
10 14 4 6.65 3.05
10 14 4 11.55 2.96
4 10 14 8.79 3.18
4 -10 -14 10.68 2.69
-14 -4 10 8.65 4.11
-14 4 -10 6.59 3.3
-14 -4 10 5.57 3.01
14 4 10 9.1 2.85
14 -4 -10 10.82 2.73
4 10 14 11.19 2.34
-10 -14 4 9.88 3.76
-10 14 -4 9.4 3
-10 14 -4 10.27 2.98
-10 14 -4 8.37 3.22
4 10 14 14.42 2.88
10 -14 -4 10.37 3.05
10 -14 -4 9.13 2.79
10 -14 -4 7.95 3.59
-14 4 -10 10.65 3.28
-14 -4 10 7.96 2.63
6 10 -14 2.83 2.45
-6 10 14 -0.95 3.03
-14 -6 -10 1.53 2.6
-10 14 6 -2.46 2.52
-6 -10 -14 -0.01 2.43
-10 -14 -6 0.57 2.58
6 10 -14 -0.53 3.06
10 14 -6 2.88 3.27
-14 6 10 0.43 3.16
10 -14 6 -2.15 3.87
14 -6 10 1.68 2.53
-10 -14 -6 -3.09 2.88
-6 -10 -14 2.32 2.68
-14 6 10 -3.51 1.73
6 10 -14 0.6 2.41
-6 10 14 -1.29 2.11
-6 10 14 -2.7 2.58
14 -6 10 -1.47 3.54
14 -6 10 1.06 3.35
14 6 -10 1.96 2.73
14 6 -10 1.36 2.63
14 6 -10 0.9 2.94
-14 6 10 2.34 2.31
-14 6 10 -2.1 3.83
-14 -6 -10 1.27 2.7
10 -14 6 2.4 2.27
10 -14 6 -0.5 3.07
10 14 -6 -0.15 2.71
10 14 -6 -2.62 1.99
10 14 -6 -0.23 2.53
-14 -6 -10 0.71 2.91
-14 -6 -10 -1.09 2.82
-14 6 10 0.63 2.55
-10 -14 -6 -1.09 2.45
-6 -10 -14 0.5 2.48
-10 -14 -6 0.49 2.26
-10 14 6 3.14 2.1
-6 -10 -14 -0.31 1.44
6 -10 14 -2.19 2.65
6 -10 14 1.89 2.94
6 -10 14 -0.96 3.44
6 -10 14 -7.7 4.22
-10 -14 -6 3.21 2.93
-10 14 6 3.28 2.35
-10 -14 6 2.16 2.66
-10 14 -6 1.85 2.9
-6 -10 14 -2.4 4.19
-6 10 -14 1 2.4
-14 6 -10 3.85 3.02
-10 -14 6 1.54 2.44
14 6 10 -1.15 2.53
-6 -10 14 0.88 2.98
-6 -10 14 3.43 2.85
-6 -10 14 -1.57 2.4
-6 -10 14 0.93 2.25
-14 6 -10 1.94 3.12
6 -10 -14 -1.48 2.95
6 10 14 2.51 2.18
10 14 6 -4.41 2.83
10 14 6 0.65 2.83
-6 10 -14 0.76 2.74
14 -6 -10 0.45 2.34
-14 -6 10 0.51 2.35
-14 -6 10 -5.54 2.2
-14 -6 10 2.25 3.88
14 6 10 0.38 2.3
10 -14 -6 -0.05 2.09
6 10 14 -1.34 3.05
10 -14 -6 -1.04 2.98
-6 10 -14 -2.27 2.9
-6 10 -14 -8.09 3.11
-14 6 -10 -1.22 2.33
14 6 10 1.56 3.55
6 10 14 5.06 2.35
6 10 14 0.36 2.68
6 -10 -14 -0.18 2.44
-10 -14 6 2.7 2.38
-10 -14 6 -0.93 3.73
-10 14 -6 3.19 2.28
-10 14 -6 2.17 2.64
-10 14 -6 1.63 2.78
14 6 10 2.38 3.25
-14 -6 10 -0.1 2.91
-14 -6 10 1.01 2.9
14 -6 -10 2.14 2.95
-14 6 -10 -2.55 2.9
10 -14 -6 -1.49 3.26
-14 6 -10 -2.86 3.22
-8 -10 -14 -0.39 2.38
-10 -14 -8 -4.92 2.57
10 14 -8 -2.5 3.17
-10 -14 -8 1.77 2.94
-10 14 8 1.76 2.23
-14 -8 -10 -1.66 2.65
14 8 -10 0.15 2.76
-8 10 14 -0.98 2.47
-8 -10 -14 3 2.7
8 -10 14 0.62 2.56
8 -10 14 -5.2 3.05
8 -10 14 -1.77 3.51
8 -10 14 -1.91 4.02
-8 -10 -14 2.36 2.75
8 10 -14 1.99 2.54
10 14 -8 -0.23 2.83
-10 -14 -8 0.31 2.36
-10 14 8 6.06 2.33
14 -8 10 1.55 2.57
14 -8 10 -3.63 3.31
14 -8 10 -2.38 3.61
14 8 -10 0.98 2.75
-10 -14 -8 -1.69 2.39
10 -14 8 -0.86 3.4
10 -14 8 -2.36 4.01
10 14 -8 -2.42 2.02
10 14 -8 -0.47 2.62
-14 8 10 -1.27 2.47
-10 14 8 -0.65 2.48
8 10 -14 0.91 2.64
-14 -8 -10 0.78 2.83
14 8 -10 -0.02 2.97
10 -14 8 -0.93 2.4
-14 -8 -10 -0.1 2.5
-14 8 10 -1.15 2.48
-8 -10 -14 0.39 2.58
10 -14 -8 -0.54 2.99
10 14 8 0.06 2.98
8 10 14 3.19 2.31
-14 8 -10 -0.1 2.59
8 10 14 1.32 2.49
-8 -10 14 -1.31 3.08
-8 -10 14 0.86 2.87
-8 -10 14 0.64 2.29
-8 -10 14 0.58 4.26
-8 10 -14 0.32 2.6
-14 8 -10 1.01 2.72
-14 -8 10 -2.32 3.93
-14 -8 10 0.2 2.92
10 -14 -8 -0.56 2.24
10 -14 -8 -1.47 3.28
10 14 8 -3.46 2.82
-10 14 -8 2.9 3.05
-10 14 -8 1.45 2.78
-14 -8 10 -1.31 2.29
8 10 14 -1.64 2.78
-8 10 -14 -3.11 2.97
8 10 14 0.78 3.29
8 -10 -14 -1.4 2.82
-10 14 -8 3.29 2.38
-10 14 -8 -0.89 2.65
-8 10 -14 1 2.8
14 8 10 -1.88 3.53
14 -8 -10 1.07 2.94
-8 10 -14 -7.68 3.01
-14 8 -10 1.59 3.05
14 8 10 0.36 2.23
14 8 10 -1.41 3.03
-10 -14 8 -2.04 2.73
-10 -14 8 1.48 2.33
-10 -14 8 -1.8 3.92
-10 -14 8 -2.06 2.66
-14 -10 -10 5.68 2.95
-14 -10 -10 1.53 2.9
10 -10 14 -2.45 3.65
-14 10 10 1.99 2.63
-14 10 10 2.39 2.73
14 10 -10 0.74 3.17
14 -10 10 6.17 2.72
-10 14 10 6.16 2.4
-10 -10 -14 1.96 2.94
-10 -10 -14 1.73 2.78
-10 10 14 1.33 2.74
-10 14 10 0.33 2.19
14 -10 10 0.73 4.08
10 10 -14 1.93 2.51
10 10 -14 1.47 2.67
14 10 -10 3.24 2.88
-10 -14 -10 4.28 2.97
-10 -14 -10 3.84 2.96
-10 -14 -10 4.63 2.73
-10 -14 -10 3.81 2.66
14 10 -10 -0.39 3.04
-14 -10 -10 2.23 2.8
10 -14 10 3.34 4.44
-10 -10 -14 1.98 2.61
10 14 -10 -0.07 3.05
14 -10 10 2.87 3.69
-14 10 10 2.35 2.69
10 14 -10 2.16 2.7
10 -14 10 0.12 3.67
-10 14 10 0.69 2.58
10 -10 14 3.66 4.27
-14 10 -10 0.52 2.78
-14 10 -10 2.69 3.11
-14 -10 10 3.53 4.36
-10 -14 10 2.15 3.06
10 10 14 2.02 2.94
-14 10 -10 5.04 2.96
10 14 10 2.76 3.07
14 10 10 0.52 3.01
10 -10 -14 1.09 3.17
14 -10 -10 -0.57 3.76
-10 14 -10 2.12 2.97
-10 10 -14 0.07 2.97
-10 10 -14 -0.72 3.11
10 14 10 1.29 3.09
14 -10 -10 1.64 3.18
10 10 14 4 3.74
-10 -10 14 5.58 3.24
-10 -10 14 3.62 2.21
10 -14 -10 1.74 3.27
-10 -14 10 4.51 4.51
-14 -10 10 2.53 3.34
10 -14 -10 7.02 3.21
10 -14 -10 3.2 2.25
-10 10 -14 3.25 2.84
14 10 10 3.58 3.87
-10 -14 10 1.34 2.39
10 10 14 7.75 2.63
-10 14 -10 5.22 2.65
-10 -10 14 -2.54 4.56
-14 -10 10 2.35 2.51
10 -14 12 10.17 4.71
-10 14 12 7.46 2.91
-12 -10 -14 9.46 3.3
10 -14 12 5.88 3.97
14 12 -10 8.99 3.04
14 12 -10 7.71 3.34
-14 12 10 5.32 2.99
-10 -14 -12 7.74 3.21
-12 -10 -14 5 3.02
14 -12 10 8.41 2.94
14 -12 10 4.39 3.82
14 -12 10 5.66 4.5
10 -14 12 6.34 2.93
-14 -12 -10 9.08 3.13
-14 -12 -10 7.04 3.24
-14 -12 -10 6.29 2.98
12 -10 14 6.05 4.1
12 10 -14 7.95 3.09
-14 12 10 -2.93 2.82
-10 -14 -12 12.48 3.35
10 14 -12 6.7 2.75
12 10 -14 6.66 2.84
10 14 -12 5.5 3.28
12 -10 14 3.85 4.53
-12 10 14 8.8 3.04
10 14 12 8.1 3.6
10 -14 -12 5.64 3.75
-12 -10 14 3.19 4.8
-10 -14 12 5.21 2.65
12 -10 -14 5.15 3.52
14 -12 -10 5.77 3.96
10 -14 -12 7.58 3.33
-10 14 -12 8.56 3.29
-12 10 -14 8.77 3.35
14 12 10 5.48 3.24
14 12 10 4.3 3.84
-10 14 -12 8.49 2.94
-14 -12 10 3.91 3.41
-10 -14 12 6.78 4.79
-14 -12 10 3.04 4.62
-12 -10 14 8.7 2.47
-14 12 -10 9.52 2.98
-14 12 -10 5.73 3.28
-14 12 -10 5.97 3.17
12 10 14 6.62 3.32
12 10 14 7.43 4
14 -12 -10 4.59 3.56
-12 10 -14 3.19 3.28
-10 -14 12 6.42 3.44
-12 10 -14 9.6 3.09
-12 -10 14 3.2 3.4
10 14 12 3.4 3.36
-14 -12 10 5.82 2.78
0 12 -14 124.01 12.22
12 14 0 124.44 11.25
0 -12 14 122.77 11.42
0 -12 14 135.4 13.45
0 12 -14 131.13 11.25
-14 0 12 133.32 13.65
-12 -14 0 124.59 11.49
0 12 -14 132.82 12.12
0 -12 14 124.88 12.4
-12 14 0 141.91 12.39
-12 14 0 130.77 12.68
-14 0 -12 135.76 10.99
0 12 14 131.3 12.37
0 12 14 136.31 12.58
12 -14 0 133.83 11.13
12 -14 0 129.63 12.42
12 -14 0 134.65 12.87
0 -12 14 125.77 12.16
0 -12 -14 146.31 11.68
-12 -14 0 134.76 11.22
-12 14 0 105.88 10.86
14 0 12 109.18 12.88
0 -12 14 126.55 11.16
-14 0 -12 140.37 11.53
-14 0 -12 124.65 12.75
-14 0 -12 104.95 12.66
-14 0 12 122.51 11.18
14 0 12 141.15 11.14
12 14 0 123.22 12.55
14 0 12 131.17 12.6
0 -12 -14 141.18 12.79
14 0 -12 119.84 11.74
14 0 -12 133.56 11.27
0 -12 14 143.83 11.23
0 -12 -14 138.44 11.82
12 14 0 134.49 12.55
12 -14 2 64.97 7.82
2 -12 14 74.96 8.08
-2 -12 -14 69.16 7.27
14 -2 12 66.18 8.4
-2 -12 -14 78.6 7.38
2 -12 14 70.14 7.4
2 -12 14 78.58 7.68
14 2 -12 56.57 7.6
14 2 -12 68.16 7.2
14 2 -12 62.47 8.33
12 14 -2 65.44 7.01
-14 2 12 63.55 9.06
-14 2 12 65.09 8.31
-12 -14 -2 71.66 7.14
12 14 -2 69.94 8.16
12 -14 2 80.59 8.64
-2 12 14 67.72 7.78
-2 12 14 68.22 8.09
12 14 -2 69 8.1
14 -2 12 81.59 6.59
-14 -2 -12 76.73 6.77
-14 -2 -12 72.83 7.36
-14 -2 -12 69.84 8.14
-12 -14 -2 70.08 7.51
-14 -2 -12 56.26 7.92
12 -14 2 76.5 7.96
2 12 -14 70.49 7.57
2 12 -14 61.1 7.45
-12 14 2 67.07 7.9
-12 14 2 75.33 7.86
-14 2 12 61.65 6.84
-14 2 12 67.43 7.2
-12 14 2 54 6.52
2 12 -14 68.54 7.12
2 -12 14 84.64 9.3
-2 -12 14 58.84 7.5
14 2 12 70.2 8.79
-12 14 -2 69.98 8.03
-14 2 -12 74.5 7.47
12 -14 -2 73.65 7.01
12 -14 -2 68.91 7.87
14 -2 -12 72.57 7.08
14 -2 -12 50.45 7.35
2 12 14 86.15 6.72
14 2 12 74.32 8.31
2 -12 -14 63.79 7.51
2 -12 -14 70.7 8.47
-14 2 -12 76.15 6.35
-2 -12 14 70.49 7.08
-2 -12 14 64.27 7.16
12 14 2 72.22 7.34
-2 -12 14 67.22 7.69
-2 12 -14 77.69 7.49
-2 12 -14 56.95 8.31
2 12 14 67.28 7.44
2 12 14 68.34 8.06
-12 -14 2 58.69 7.6
-12 -14 2 82.73 8.39
-14 -2 12 60.64 7.04
14 2 12 83.22 6.97
12 -14 -2 65.26 8.37
-12 -14 2 61.09 7.26
-12 14 -2 72.8 7.98
-12 -14 2 69.18 7
-2 -12 14 80.59 9.19
-14 2 -12 53.48 8.31
14 -2 -12 70.85 7.61
-2 12 -14 72 7.06
2 12 14 80.86 7.96
-2 -12 14 64.9 7.04
12 14 2 76.19 8.03
-14 -2 12 62.49 9.27
-4 -12 -14 22.26 3.43
14 4 -12 16.52 4.07
-4 -12 -14 26.39 3.83
-4 12 14 27.4 3.87
14 4 -12 23.41 3.77
4 12 -14 20.17 3.41
-14 4 12 20.77 3.14
-4 -12 -14 32.37 3.57
-14 -4 -12 20.11 3.87
4 -12 14 26.9 4.45
4 -12 14 30.57 5.33
12 14 -4 22.46 3.97
4 -12 14 23.32 3.69
-12 14 4 20.72 3.11
-14 -4 -12 23.29 3.38
-14 -4 -12 20.89 3.67
-4 12 14 21.44 4.14
4 12 -14 25.6 3.75
14 -4 12 14.74 4.44
12 14 -4 18.59 4
-14 4 12 20.76 4.72
-12 -14 -4 21.4 3.84
-12 -14 -4 22.26 3.51
-14 4 12 32.69 4.3
4 -12 14 23.15 3.79
12 -14 4 23.46 4.16
12 -14 4 23.85 4.62
-12 14 4 19.9 3.71
12 -14 4 19.54 3.23
-14 -4 -12 17.02 3.82
12 14 -4 22.78 3.41
-12 14 -4 19.34 3.76
14 4 12 20.57 3.94
14 -4 -12 20.14 3.73
-4 -12 14 23.45 3.7
14 4 12 23.41 4.62
4 12 14 26.97 3.57
12 -14 -4 26.93 3.73
12 -14 -4 20.88 3.7
12 -14 -4 19.45 4.41
-4 -12 14 19.96 3.52
-4 -12 14 21.57 5.13
-4 12 -14 21.03 3.29
-4 12 -14 22.41 3.54
-4 12 -14 22.88 3.96
-4 12 -14 14.55 4.27
-14 4 -12 27.49 3.9
-4 -12 14 34.6 3.86
14 -4 -12 16.92 3.12
12 14 4 26.24 4
4 12 14 20.62 3.99
-14 -4 12 23.48 4.93
-12 -14 4 21.42 3.59
-12 -14 4 20.27 3.46
4 -12 -14 19.88 3.87
4 -12 -14 20.11 4.38
-12 14 -4 25.12 3.89
-12 -14 4 25.75 4.62
-14 -4 12 20.93 3.75
-12 -14 4 21.85 3.55
4 12 14 36.96 4.24
4 12 14 29.7 3.81
14 -4 -12 24.74 3.54
-14 6 12 -0.75 2.04
14 6 -12 5.05 3.05
-14 -6 -12 7.04 2.78
-14 -6 -12 6.27 3.07
-6 12 14 6.76 2.94
14 -6 12 2.76 3.79
14 -6 12 7.23 3.69
6 -12 14 2.86 4.23
12 -14 6 3.75 2.49
-12 -14 -6 6.37 3.17
-12 -14 -6 5.75 3.19
-12 -14 -6 1.07 2.85
-12 -14 -6 6.02 2.49
6 -12 14 3.54 3.08
-6 -12 -14 6.41 2.78
-6 -12 -14 10.68 2.91
6 12 -14 5 2.8
-14 -6 -12 6.23 3
-12 14 6 9.3 2.74
-12 14 6 2.25 2.8
12 -14 6 6.78 3.34
12 -14 6 7.55 4.11
12 14 -6 5.27 2.55
-14 6 12 7.37 2.55
14 6 -12 5.94 3.33
6 12 -14 4.56 2.64
6 -12 14 5.29 2.95
-12 14 6 4 2.29
6 -12 14 6.71 3.85
12 14 -6 5.7 3.2
-14 6 12 3.79 3.98
12 14 -6 4.08 3.11
-6 12 -14 7.61 2.74
6 12 14 6.37 3.08
14 6 12 4.77 3.91
6 12 14 10.5 2.65
12 -14 -6 4.69 2.46
12 -14 -6 5.44 3.78
-6 -12 14 5.47 2.93
-12 -14 6 7.33 2.88
-6 -12 14 8.3 4.48
-12 14 -6 8.36 3.07
-12 -14 6 5.16 2.72
-12 -14 6 10.16 4.07
14 -6 -12 3.07 3.1
-6 -12 14 5.36 3.09
14 -6 -12 4.41 2.85
-6 -12 14 4.57 2.61
-12 14 -6 2.71 2.91
14 -6 -12 8.18 2.75
-14 -6 12 8.76 3.3
-14 -6 12 2.93 4.19
-14 6 -12 5.47 2.98
-14 6 -12 6.57 3.36
-14 6 -12 9.79 2.81
14 6 12 8.1 2.63
14 6 12 7.29 3.53
12 -14 -6 5.38 3.14
6 -12 -14 2.8 3.14
6 -12 -14 4.77 3.67
6 12 14 8.5 3.4
-6 12 -14 8.09 2.89
-12 14 -6 10.91 2.61
12 14 6 7.77 3.25
12 14 6 5.41 3.18
-6 12 -14 3.44 3.27
-6 12 -14 -5.51 3.25
12 -14 8 -1.75 3.53
12 -14 8 2.07 4.27
-12 14 8 -4.25 2.61
-14 -8 -12 -4.47 2.75
-14 -8 -12 -0.24 2.72
12 -14 8 -2.1 2.47
14 8 -12 -1.12 2.94
14 8 -12 0.9 2.77
-12 14 8 -0.44 2.5
14 -8 12 -0.12 3.8
14 -8 12 -1.87 3.78
-8 -12 -14 0.31 2.73
-8 -12 -14 0.15 2.74
-8 -12 -14 -2.98 2.41
8 12 -14 1.06 2.62
8 12 -14 -0.5 2.79
-8 12 14 -2 2.47
12 14 -8 0.02 2.7
12 14 -8 1.1 3.01
12 14 -8 -3.12 3.1
-14 8 12 -4.54 1.79
-14 8 12 0.38 2.52
-14 8 12 -11.33 3.98
-12 -14 -8 -1.27 2.85
-12 -14 -8 -4.41 2.66
-12 -14 -8 -3.5 2.5
8 -12 14 2.12 3.71
-12 14 8 -3.88 2.17
-12 -14 -8 -0.67 3.05
8 -12 14 -1.65 4.31
-14 -8 -12 -1.79 2.91
14 8 12 -3.68 3.72
-14 8 -12 -2.1 2.79
-14 8 -12 2.02 3.18
-12 14 -8 -1.9 2.88
14 8 12 -1.29 3.18
-8 -12 14 -1.94 3.04
-8 -12 14 0.02 2.96
14 -8 -12 4.28 2.76
14 8 12 0.86 2.43
-12 -14 8 -2.41 4.33
-12 14 -8 3.77 2.65
-12 -14 8 -1.5 2.93
-12 -14 8 -1.34 2.41
-14 -8 12 3.49 3.2
-14 -8 12 -1.43 2.31
-14 -8 12 -0.68 4.18
12 14 8 -2.42 3.06
12 14 8 -0.16 3.31
14 -8 -12 -1.63 3.04
8 12 14 0.63 2.4
8 12 14 -2.41 2.95
8 12 14 -0.82 3.16
12 -14 -8 -2.72 3.15
12 -14 -8 0.96 2.42
12 -14 -8 -3.65 3.49
-8 12 -14 1.02 2.58
-8 12 -14 0.84 2.9
-8 12 -14 -4.9 3.09
-8 -12 14 -3.13 2.28
8 -12 -14 -3.82 3.04
8 -12 -14 -5.02 3.52
-14 8 -12 1.88 2.73
-8 -12 14 -4.94 4.44
12 -14 10 7.02 3.97
-12 -14 -10 4.19 2.96
12 14 -10 13.37 3.11
12 14 -10 4.27 3.31
-12 14 10 6.35 2.99
-12 14 10 8.36 2.75
10 -12 14 4.61 3.95
14 -10 12 5.81 3.9
14 -10 12 9.56 4.28
14 10 -12 5.6 3.04
14 10 -12 5.79 3.24
-12 -14 -10 12.86 3.4
-12 -14 -10 9.61 2.91
12 -14 10 5.79 4.57
10 12 -14 9.64 2.97
10 12 -14 7.93 3.18
-12 -14 -10 9.98 3.21
-14 -10 -12 5.44 3.11
-14 -10 -12 9.33 3.32
-10 -12 -14 5.92 3.15
-10 -12 -14 8.2 3.07
-14 10 12 6.32 2.91
-10 12 14 7.62 3.05
10 -12 14 9.65 4.72
12 -14 -10 8.93 2.67
12 14 10 6.31 3.53
10 -12 -14 9.83 3.54
10 -12 -14 7.23 3.91
14 -10 -12 8.88 3.45
14 10 12 6.01 3.4
14 10 12 2.99 4.18
12 -14 -10 4.26 3.48
-10 -12 14 6.08 3.49
-10 -12 14 5.75 2.58
-10 -12 14 2.02 4.74
-10 12 -14 3.38 3.03
-10 12 -14 7.24 3.26
12 -14 -10 6.02 3.6
-12 -14 10 8.05 3.38
-12 -14 10 6.21 2.68
-12 -14 10 2.92 4.7
-12 14 -10 10.76 2.93
-12 14 -10 7.06 3.27
12 14 10 8.6 3.78
10 12 14 7.94 2.9
10 12 14 7.09 3.29
10 12 14 7.28 3.82
-14 -10 12 7.91 3.56
-14 -10 12 4.73 2.63
-14 -10 12 1.92 4.7
-14 10 -12 3.57 3.06
-14 10 -12 12.08 3.54
-14 10 -12 6.48 3
-14 -12 -12 16.79 3.7
-14 -12 -12 18.68 3.8
12 -12 14 15.26 5.27
12 12 -14 14.35 3.32
14 -12 12 14.52 4.51
14 -12 12 23.01 5.22
14 12 -12 20.09 3.66
-14 12 12 17.73 3.58
-12 -14 -12 21.93 3.85
-12 -14 -12 20.97 3.77
12 -12 14 12.02 4.41
12 12 -14 17.43 3.72
12 -14 12 21.59 5.46
-12 -12 -14 17.9 3.68
-12 -12 -14 22.51 3.86
12 14 -12 14.93 3.87
14 12 -12 16.84 3.87
-12 14 12 18.91 3.6
12 14 -12 16.05 3.64
12 -14 12 14.72 4.49
-12 12 14 18.07 3.63
-12 14 -12 17.86 3.62
-12 14 -12 14.17 3.71
-12 -12 14 8.24 5.22
-12 -14 12 16.97 4.06
12 -14 -12 15.56 3.09
12 -14 -12 14.66 4.45
-12 12 -14 15.16 3.87
-12 -14 12 10.58 5.24
12 -12 -14 23.99 4.27
-12 12 -14 15.41 3.62
-14 -12 12 17.51 4.08
-14 -12 12 12.23 3.1
-12 -14 12 15.23 3.19
12 12 14 16.19 3.91
12 12 14 15.44 4.61
12 -14 -12 19.03 4.2
-12 -12 14 14.49 4.05
12 14 12 15.61 3.93
12 14 12 17.79 4.39
14 -12 -12 13.45 4.13
14 -12 -12 18.58 4.64
-14 -12 12 14.52 5.36
-14 12 -12 14.99 3.61
-14 12 -12 17.96 3.97
-12 -12 14 14.1 3.02
14 12 12 13.42 3.93
14 12 12 16.27 4.57
-14 -14 0 148.13 13.36
-14 0 -14 146.73 12.73
-14 0 -14 162.66 13.34
-14 0 14 145.18 12.86
-14 0 14 122.22 13.64
-14 0 14 140.5 15.52
-14 14 0 160.12 14.28
0 -14 -14 167.56 13.39
0 -14 -14 166.6 13.78
0 -14 -14 168.91 14.67
0 -14 14 142.95 12.9
0 -14 14 154.76 12.94
0 -14 14 145.68 14.11
0 -14 14 140.22 14.29
0 -14 14 173.18 15.27
0 14 -14 159.23 12.96
0 14 -14 166.53 14.07
0 14 -14 123.06 14.03
0 14 14 171.29 13.85
0 14 14 161.82 14.33
0 14 14 168.71 14.5
14 -14 0 157.06 12.88
14 -14 0 156.94 14.77
14 0 -14 147.86 13.48
14 0 -14 155.9 13.02
14 0 -14 120.43 13.72
14 0 14 159.01 12.89
14 0 14 154.77 14.61
14 0 14 135.07 14.87
14 14 0 151.94 13.08
14 14 0 153.86 14.41
-14 -14 -2 95.64 9.61
2 -14 14 100.36 10.06
2 -14 14 93.79 10.32
-14 -2 -14 106.61 8.99
-14 -2 -14 96.33 9.35
14 14 -2 103.22 10.1
14 -2 14 73.35 10.71
-14 2 14 91.47 8.91
-14 2 14 95.49 9.49
-14 2 14 87.74 11.5
14 2 -14 90.62 9.8
-14 14 2 105.38 10.09
-14 14 2 95.27 10.1
-2 -14 -14 107.2 9.41
-2 -14 -14 106.29 9.59
-2 -14 -14 104.66 10.28
14 -2 14 79.8 10.35
-2 14 14 98.25 10.2
14 -14 2 98.64 10.17
14 2 -14 107.61 9.29
2 14 -14 97.26 9.13
2 14 -14 96.63 9.92
14 14 -2 93.18 9.17
-2 14 14 114.61 9.59
-2 14 14 99.5 10.06
2 -14 14 113.68 11.52
14 14 -2 92.64 10.15
14 -14 2 115.15 10.85
2 -14 -14 105.92 10.67
2 -14 -14 101.89 9.44
-2 14 -14 81.43 9.89
-14 2 -14 94.22 9.47
-2 14 -14 89.27 9.1
-2 14 -14 103.4 9.84
2 14 14 105.19 9.88
2 14 14 100.5 10.16
2 14 14 113.47 10.08
2 -14 -14 96.48 9.59
14 -14 -2 94 10.07
14 -14 -2 100.54 10.77
-2 -14 14 83.86 9.89
-14 -14 2 89.16 9.37
14 -2 -14 98.06 9.58
14 -2 -14 100.26 9.16
14 -2 -14 74.27 9.5
-2 -14 14 93.59 9.17
-2 -14 14 106.86 9.26
-14 14 -2 107.86 10.22
-2 -14 14 101.44 11.34
14 2 14 106.29 9.11
14 2 14 100.35 10.53
14 2 14 82.71 10.72
-14 -14 2 116.21 10.45
14 -14 -2 104.86 9.14
-14 -2 14 89.64 11.61
14 14 2 99.71 9.41
14 14 2 101.21 10.34
-14 -14 -4 48.28 6.08
4 -14 14 37.32 5.53
4 -14 14 43.06 6.25
-14 -4 -14 51.07 5.33
-14 -4 -14 32.6 4.77
14 14 -4 33.79 5.02
-4 -14 -14 53.16 6.35
4 -14 14 48.12 6.07
-14 4 14 41.38 5.07
-14 4 14 53.01 5.67
-14 4 14 31.68 5.78
14 4 -14 46.12 5.82
14 -14 4 29.52 4.32
-14 14 4 40.24 4.97
-14 14 4 32.74 4.91
-4 -14 -14 56.71 5.89
-4 14 14 48.19 6.04
14 4 -14 32.21 4.92
14 -14 4 47.56 6.51
14 -14 4 51.07 7.04
4 14 -14 34.42 4.95
14 -4 14 28.06 5.73
14 14 -4 30.55 4.43
14 14 -4 46.61 6.42
4 14 -14 30.85 4.55
4 -14 -14 50.01 6.15
4 -14 -14 42.03 5.66
-14 4 -14 33.87 5.36
-14 -14 4 45.08 5.75
-4 14 -14 31.32 4.45
-14 4 -14 30.9 4.73
-4 -14 14 35 5.87
4 14 14 53.43 5.17
4 14 14 42.12 5.96
4 14 14 50.66 6.67
4 14 14 54 5.86
14 -14 -4 46.91 5.84
14 -14 -4 46.45 5.99
14 -14 -4 32.79 5.54
-14 14 -4 47.18 6.42
-4 -14 14 49.79 5.73
-4 -14 14 29.03 4.79
14 -4 -14 38.75 5.13
14 -4 -14 46.34 5.56
-14 -14 4 57.82 7.17
-4 -14 14 33.62 4.82
-14 14 -4 39.33 5.16
14 4 14 45.13 4.57
14 4 14 52.91 6.79
14 4 14 34.85 5.62
-4 14 -14 46.2 5.92
-4 14 -14 28.8 5.18
-14 -4 14 25.8 5.92
14 14 4 48.2 6.44
-14 -14 -6 7.6 3.22
-14 -14 -6 10.53 3.58
-14 -14 -6 8.57 2.77
14 14 -6 5.34 2.83
14 14 -6 8.14 3.48
-14 -6 -14 11.31 3.08
-14 -6 -14 9.36 3.28
-6 14 14 11.15 3.16
-6 -14 -14 12.22 3.11
14 -6 14 6.13 3.99
14 -6 14 12.8 4.08
-14 6 14 8.34 2.41
-14 6 14 11.03 3
-14 6 14 4.98 4.34
14 -14 6 6.49 4.37
14 6 -14 9.68 3.2
-14 14 6 8.63 2.65
-14 14 6 15.93 3.14
-14 14 6 4.78 2.91
-6 -14 -14 8.93 2.94
6 -14 14 10.82 4.08
-6 -14 -14 9.94 2.94
6 14 -14 7.78 2.91
6 14 -14 6.32 3.2
14 -14 6 10.88 3.61
14 -14 6 10.99 2.82
6 -14 14 9.37 4.77
-6 14 -14 4.24 3.39
-14 -6 14 1.24 4.5
-6 -14 14 4.82 2.91
6 -14 -14 11.3 4.01
-14 6 -14 7.16 3.06
-14 14 -6 4.7 3.31
-6 -14 14 9.99 3.46
-6 -14 14 8.47 3.29
6 14 14 13.35 2.77
6 14 14 10.37 3.32
6 14 14 10.22 3.59
14 -14 -6 9.65 3.53
14 -14 -6 3.75 3.92
-6 -14 14 7.23 4.84
6 -14 -14 7.18 3.53
-14 14 -6 14.52 2.8
14 -6 -14 6.42 3.35
14 -6 -14 9.52 3.03
14 -6 -14 8.66 3.02
-14 6 -14 9.57 3.6
-14 6 -14 5.84 3.01
-6 14 -14 11.64 3.04
14 6 14 10.17 2.89
14 6 14 11.03 3.78
14 6 14 7.07 4.13
-14 -14 6 8.31 3.07
-14 -14 6 10.35 4.56
-6 14 -14 12.44 2.95
14 14 6 9.08 3.43
14 14 6 7.69 3.57
-14 -14 -8 -2.75 3.02
-14 -14 -8 -1.03 3.3
-14 -14 -8 -3.22 2.48
14 -14 8 -2.21 3.48
14 -14 8 -2.8 4.43
-14 -8 -14 -0.15 2.82
-14 -8 -14 2.27 3.15
14 -8 14 -1.46 3.83
14 -8 14 -0.63 4.17
14 8 -14 -3.62 2.91
8 14 -14 -3.7 2.75
14 -14 8 -2.86 2.56
-14 8 14 -3.13 2.72
-14 8 14 -5.34 3.98
14 14 -8 -3.79 3.04
8 -14 14 1.78 4.47
-14 14 8 0.78 2.39
-14 14 8 -4.32 2.61
-14 14 8 -2.24 2.7
-8 -14 -14 -3.55 2.86
-8 -14 -14 -5.96 2.84
-8 -14 -14 -0.92 2.62
14 14 -8 -0.44 3.33
-8 14 14 -3.69 2.73
8 -14 14 -4.43 3.88
8 14 -14 -2.02 3.08
14 14 -8 -4.28 2.65
-8 -14 14 -0.71 2.56
-8 14 -14 1.14 2.94
8 -14 -14 -4.42 3.84
-8 -14 14 -4.15 4.69
-14 14 -8 -0.8 3.2
-14 8 -14 -0.76 3.33
-8 14 -14 -2.32 2.62
8 14 14 2.69 2.57
8 14 14 -2.96 3.05
8 14 14 -1.56 3.54
14 -14 -8 -1.14 3.42
14 -14 -8 -2.55 2.47
14 -14 -8 -2.56 3.53
-14 8 -14 -3.81 2.89
-14 -14 8 0.4 3.02
-14 -14 8 -0.13 4.51
14 -8 -14 -3.26 3.19
14 -8 -14 -2.44 2.66
-14 -8 14 0.37 3.46
-14 -8 14 -8.18 4.35
-14 8 -14 -0.8 2.88
14 8 14 -1.41 3.5
14 8 14 -4.99 3.98
8 -14 -14 -0.78 3.45
-8 -14 14 -3.09 3.31
-14 14 -8 5.74 2.76
14 14 8 -2.91 3.08
14 14 8 -3.43 3.56
-14 -14 -10 11.8 3.6
-14 -14 -10 17.63 3.71
-14 -14 -10 12.62 3.24
10 14 -14 13.32 3.74
14 -10 14 12.43 4.4
-14 -10 -14 13.51 3.49
-14 -10 -14 13.3 3.6
14 10 -14 11.63 3.45
10 -14 14 13.21 5.21
10 14 -14 10.97 3.12
14 14 -10 11.03 3.41
14 14 -10 12.44 3.92
14 -14 10 13.28 5.07
-14 10 14 7.82 3.26
-14 10 14 11.39 4.77
14 10 -14 10.69 3.57
-10 -14 -14 15.12 3.58
-14 14 10 10.85 3.21
-14 14 10 14.4 3.47
-10 -14 -14 16.33 3.61
14 -14 10 9.56 4.29
14 -10 14 16.7 5.11
-10 14 14 11.84 3.44
10 -14 14 7.55 4.44
-14 10 -14 14.33 3.55
-14 14 -10 14.76 3.84
-10 -14 14 11.92 3.07
10 -14 -14 16.85 3.92
10 -14 -14 6.9 4.46
-10 14 -14 10.1 3.66
-14 -10 14 13.02 2.82
-14 -10 14 8.73 5.22
-14 -14 10 13.28 3.87
10 14 14 15.54 3.2
10 14 14 16.4 3.76
10 14 14 13.56 4.06
14 -14 -10 16.43 4.1
14 -14 -10 11.1 3.01
14 -14 -10 14.84 4.42
-10 -14 14 10.97 5.18
-10 14 -14 11.02 3.44
14 -10 -14 14.97 3.82
-14 -14 10 7.68 5.13
-10 -14 14 13.24 3.94
-14 14 -10 18.91 3.41
-14 -10 14 11.35 3.76
14 10 14 10.66 3.92
14 10 14 6.14 4.57
-14 10 -14 10.01 3.42
-14 10 -14 11.77 3.86
14 14 10 11.08 3.75
14 14 10 6.31 4.2
-14 -14 -12 38.61 4.69
-14 -14 -12 33.76 4.75
14 12 -14 23.88 4.63
12 -14 14 25.35 5.45
-14 -12 -14 29.27 4.54
-14 -12 -14 30.75 4.69
14 14 -12 24.78 4.83
-12 -14 -14 33.46 4.63
14 -12 14 26.02 5.37
14 -12 14 40.42 6.3
14 12 -14 27.8 4.53
-14 12 14 28.76 4.45
14 -14 12 27.18 5.36
14 -14 12 37.37 6.24
-14 14 12 29.48 4.52
14 14 -12 29.99 4.34
-12 -14 -14 39.34 4.76
12 14 -14 33.92 4.74
12 -14 14 39.13 6.27
12 14 -14 24.36 4.14
-12 14 14 27.55 4.6
-14 -12 14 26.7 4.08
-12 14 -14 30.95 4.42
12 -14 -14 40.2 5.16
12 -14 -14 29.32 5.51
-14 -14 12 25.86 6.31
-12 -14 14 24.58 4.04
-12 -14 14 27.32 6.28
-12 -14 14 34.24 5.08
12 14 14 28.06 4.7
12 14 14 34.34 5.45
14 -14 -12 33.85 5.15
14 -14 -12 39.04 5.2
14 -14 -12 29.84 5.59
-14 14 -12 36.53 4.57
-14 14 -12 26.76 4.81
14 -12 -14 35.03 5.09
-14 -12 14 26.68 6.37
-14 12 -14 31.12 4.45
-14 12 -14 26.55 4.67
-14 -14 12 29.21 4.93
14 12 14 29.92 4.87
14 12 14 27.68 5.5
-12 14 -14 26.56 4.76
-14 -12 14 29.48 4.96
14 14 12 27.87 4.82
14 14 12 25.81 5.34
-14 -14 -14 35.12 4.96
-14 -14 -14 56.51 6.62
14 -14 14 43.28 6.81
14 14 -14 31.87 4.83
14 14 -14 34.91 5.21
14 -14 14 30.44 5.71
-14 14 14 28.62 4.76
14 -14 -14 38.28 5.56
14 -14 -14 34.57 6.06
-14 14 -14 31.73 5.09
-14 -14 14 35.47 5.45
-14 -14 14 23.77 6.85
-14 14 -14 37.87 4.92
14 14 14 24.92 5.1
14 14 14 30.45 5.81
-15 -1 -1 3.76 2.06
-15 -1 -1 0.29 2.62
-15 -1 -1 1.82 2.44
-15 -1 -1 -0.26 2.84
-15 -1 -1 -2.51 2.53
15 -1 1 1.76 2.8
15 1 -1 3.63 2.74
15 1 -1 3.98 2.52
1 1 -15 0.77 2.67
-1 1 15 0.09 3.2
1 -15 1 1.28 2.33
1 -15 1 4.59 2.44
1 -15 1 0.31 3.26
1 15 -1 1.2 1.79
1 15 -1 1.33 2.29
1 15 -1 2.5 2
1 15 -1 1.42 1.97
1 15 -1 0.86 2.7
1 -1 15 3.83 3.09
-15 1 1 -1 1.96
-15 1 1 1.31 2.11
-15 1 1 3.79 2.44
-15 1 1 -0.59 2.77
-15 1 1 -0.27 2.36
-15 1 1 4.67 2.5
-1 -15 -1 1.17 2.52
-1 -15 -1 1.46 2.28
-1 -15 -1 1.51 2.16
-1 -15 -1 -0.23 3.25
1 -1 15 2.88 2.32
-1 1 15 1.3 2.64
1 -1 15 4.05 3.29
-1 -1 -15 1.05 2.4
-1 -1 -15 4.1 2.35
-1 -1 -15 5.1 2.61
-1 -1 -15 1.69 2.62
-1 1 15 2.84 2.2
-1 15 1 1.62 1.89
-1 15 1 1.87 2.25
15 -1 1 1.7 2.79
-1 15 1 0.08 2.64
1 1 -15 1.87 2.45
1 1 -15 3.31 2.25
1 1 -15 6.24 2.59
-1 15 1 1.33 2.09
-1 1 15 4.66 2.32
-1 -15 1 0.75 2.33
-1 -1 15 2.1 2.2
-1 15 -1 0.97 1.77
-1 15 -1 3.95 2.17
-1 15 -1 2.04 1.99
-1 15 -1 1.66 1.87
-1 15 -1 3.33 2.78
-1 -1 15 1.07 2.36
-1 -1 15 2.62 2.93
-15 -1 1 8.04 2.64
-1 1 -15 1.93 2.42
1 -15 -1 -0.24 2.42
1 -15 -1 1.84 2.34
1 -15 -1 3.26 3.38
-15 -1 1 2.89 2.81
-15 -1 1 4.76 2.52
-15 1 -1 2.17 1.98
1 -1 -15 3.52 2.47
1 -1 -15 4.27 2.34
1 -1 -15 1.86 2.37
1 -1 -15 3.3 2.67
-1 -15 1 3.28 2.51
-15 1 -1 4.74 2.21
-1 -15 1 2.13 3.31
-1 1 -15 1.49 2.34
-1 1 -15 3.34 2.45
-1 1 -15 1.84 2.67
-15 -1 1 1.71 2.77
1 1 15 3.61 1.94
1 1 15 3.66 2.26
1 1 15 1.95 2.93
1 1 15 0.94 3.19
-15 1 -1 2.42 2.12
-15 1 -1 1.99 2.65
-15 1 -1 3.36 2.46
-15 1 -1 -1.78 2.82
-15 1 -1 -2.69 2.63
1 15 1 2.97 1.97
1 15 1 -0.17 2.31
1 15 1 2.35 2.06
1 15 1 2.2 2.69
15 -1 -1 2.41 2.84
15 -1 -1 -0.91 2.47
-1 -1 15 4.67 3.41
-15 -1 1 3.36 2.34
-15 -1 1 2.99 2.56
-15 -1 1 2.58 2.42
15 1 1 3.74 2.77
15 1 1 3.36 2.62
-3 -1 -15 8.47 2.69
-3 -1 -15 1.1 2.58
15 -3 1 0.84 2.96
15 -3 1 4.7 2.96
15 -3 1 5.38 2.75
15 3 -1 3.91 2.65
-15 3 1 3.88 2.02
-15 3 1 3.96 2.11
-15 3 1 0.85 2.32
-15 3 1 1.32 2.29
-3 1 15 2.74 2.34
-3 1 15 5.11 2.23
-3 1 15 5.06 2.75
-3 1 15 2.84 3.53
-1 -15 -3 2.39 2.58
-1 -15 -3 2.94 2.24
-1 -15 -3 4.99 2.28
-1 -15 -3 5.33 3.18
-15 -3 -1 2.79 2.54
-15 -3 -1 4.46 2.79
-15 -3 -1 0.18 2.63
15 3 -1 4.46 3.02
15 3 -1 3.32 2.46
3 -1 15 3.65 1.92
3 -1 15 6.37 2.49
3 -1 15 2.44 3.36
3 -1 15 4.09 3.32
-1 15 3 3.14 1.88
-1 15 3 4.57 2.41
-1 15 3 4.2 2.34
-1 15 3 3.16 2.79
-3 -1 -15 5.62 2.51
-15 3 1 6.35 2.41
-15 3 1 1.55 2.62
-15 3 1 1.77 2.44
1 -15 3 4.23 2.37
1 -15 3 6.03 2.47
1 -15 3 4.28 3.63
1 15 -3 4.99 1.95
1 15 -3 2.6 1.93
1 15 -3 4.17 2.51
1 15 -3 3.63 2.04
1 15 -3 5.22 2.02
1 15 -3 4.56 2.77
3 1 -15 1.51 2.44
-3 -1 -15 3.01 2.44
3 1 -15 5.14 2.41
3 1 -15 3.28 2.88
-15 -3 -1 2.86 2.3
3 1 -15 6.1 2.52
3 -1 -15 2.44 2.37
3 -1 -15 4.24 2.9
-1 15 -3 3.75 2.55
-1 15 -3 3.08 2.28
-1 15 -3 4.16 2.74
1 -15 -3 5.54 2.39
3 -1 -15 1.6 2.36
1 15 3 2.85 2.18
1 15 3 4.78 2.65
1 -15 -3 0.9 2.53
3 1 15 6.1 2.39
3 1 15 6.11 3.29
3 1 15 5.74 3.11
3 -1 -15 4.52 2.68
15 -3 -1 0.66 2.63
15 -3 -1 3.42 2.99
-3 -1 15 3.04 2.38
-3 -1 15 3 2.37
-3 -1 15 4.73 2.76
-3 -1 15 5.13 3.52
1 -15 -3 2.55 2.43
1 -15 -3 6.51 3.2
1 15 3 5.53 2.05
1 15 3 2.92 2.31
15 3 1 2.66 2.61
-15 3 -1 2.09 2.8
-15 3 -1 3.26 2.77
-15 3 -1 8.13 2.24
-3 1 -15 2.75 2.33
-3 1 -15 1.7 2.5
-3 1 -15 4.91 2.54
-3 1 -15 4.58 2.73
-1 -15 3 5.44 3.51
-1 15 -3 5.04 1.81
15 3 1 4.12 2.14
15 3 1 1.11 3
3 1 15 5.99 1.97
-15 3 -1 3.18 1.98
-15 3 -1 4.49 2.19
-15 3 -1 3.68 2.59
-15 3 -1 2.21 2.17
-15 -3 1 0.24 2.78
-15 -3 1 9.08 2.66
-15 -3 1 3.82 2.51
-15 -3 1 4.57 2.55
-1 -15 3 3.68 2.1
-1 -15 3 3.63 2.4
15 -3 -1 4.54 2.96
-1 -15 3 3.05 2.42
1 15 -5 6.48 1.95
1 15 -5 7.54 2.2
1 -15 5 7.79 2.66
1 -15 5 3.64 3.58
1 -15 5 7.52 2.36
1 -15 5 6.42 2.32
-5 -1 -15 6.38 2.7
-5 -1 -15 6.77 2.64
-5 -1 -15 8.47 2.66
-5 -1 -15 6.34 2.56
-1 15 5 1.67 2.08
-1 15 5 6.21 2.55
-1 15 5 6.05 2.49
-1 15 5 -3.21 2.9
-1 -15 -5 4.17 2.37
-1 -15 -5 1.54 2.49
-1 -15 -5 3.09 3.07
-15 -5 -1 0.77 2.63
-15 5 1 6.55 2.29
-5 1 15 6.75 2.5
5 -1 15 6.58 2.09
15 -5 1 4.81 3.01
15 -5 1 4.98 3.15
15 5 -1 6.35 2.33
15 5 -1 7.52 2.67
-15 5 1 5.46 2.4
15 5 -1 3.05 2.88
5 -1 15 0.73 3.45
5 -1 15 5.93 3.46
5 1 -15 5.46 2.75
5 1 -15 -3.79 2.77
5 1 -15 5.8 3.01
-5 1 15 2.49 2.38
-5 1 15 6.44 2.65
-5 1 15 4.46 3.8
-1 -15 -5 4.74 2.69
1 15 -5 6.59 2.54
1 15 -5 5.66 2.19
1 15 -5 5.23 2.9
-15 5 1 7.39 2.23
-15 5 1 6.22 2.58
-15 5 1 2.3 2.43
-5 -1 -15 9.01 2.48
-15 -5 -1 0.28 2.5
-15 -5 -1 5.05 2.86
-15 -5 -1 -0.12 2.48
5 -1 15 6 2.46
5 1 15 6.89 3.22
5 -1 -15 5.11 2.78
15 5 1 6.49 2.28
15 5 1 3.66 3.02
15 5 1 5.08 2.69
-5 1 -15 3.35 2.63
15 -5 -1 5.33 2.93
1 -15 -5 7.24 2.5
1 -15 -5 4.58 2.47
5 -1 -15 5.25 2.61
5 1 15 4.37 3.43
5 1 15 9.07 2.75
-1 -15 5 5.51 2.49
-1 -15 5 5.98 2.38
1 15 5 6.34 2.11
1 15 5 6.54 2.52
1 15 5 -0.97 2.42
1 15 5 3.81 2.88
-1 15 -5 4.38 2.55
-1 15 -5 6.52 2.28
-15 5 -1 2.19 2.44
1 -15 -5 -6.65 3.21
-5 -1 15 5.21 2.58
-5 -1 15 -3.26 2.53
-5 -1 15 7.98 2.83
-5 -1 15 11.31 3.8
-5 1 -15 8.58 2.52
-5 1 -15 2.85 2.67
-5 1 -15 7.38 2.54
-5 1 -15 2.54 2.82
-1 -15 5 5.2 2.63
-1 -15 5 7.24 3.52
-1 15 -5 3.96 1.79
-1 15 -5 6.05 2.12
1 -15 -5 4.85 2.64
-1 15 -5 4.5 2.79
5 -1 -15 2.85 2.3
5 -1 -15 3.72 2.89
5 1 15 5.21 1.58
5 1 15 7.83 2.55
-15 -5 1 6.17 2.71
-15 -5 1 6.45 2.66
-15 -5 1 3.48 2.81
-15 5 -1 7.27 2
-15 5 -1 7.51 2.28
-15 5 -1 5.63 2.59
-15 5 -1 3.98 2.11
-15 5 -1 5.91 2.9
15 -5 -1 6.06 3.11
1 -15 7 12.89 2.69
7 1 -15 8.14 3
-15 7 1 -0.16 3.07
7 -1 15 9.75 2.3
7 -1 15 13.48 2.83
7 -1 15 4.87 3.87
7 -1 15 9.76 3.66
-7 -1 -15 12.92 2.71
-7 -1 -15 12.64 2.86
-7 1 15 9.23 2.8
-7 1 15 4.12 2.64
-7 1 15 12.73 2.9
-7 1 15 7.57 4.03
-1 -15 -7 13.28 3.04
-1 -15 -7 13.59 2.64
-1 -15 -7 6.99 2.87
-15 7 1 12.05 3.26
1 -15 7 14.22 2.61
1 15 -7 11.88 2.75
-1 15 7 7.11 2.43
-1 15 7 17.15 2.88
-15 -7 -1 4.32 2.76
-15 -7 -1 11.41 2.92
-7 -1 -15 13.52 3.04
-7 -1 -15 12.34 3.08
-7 -1 -15 12.22 2.84
-1 15 7 3.8 3.22
-15 7 1 9.93 2.92
-15 7 1 8.96 2.85
-15 -7 -1 8.93 3.11
1 15 -7 12 3.4
15 -7 1 13.59 3.27
15 -7 1 10.31 3.47
15 7 -1 14.06 2.61
15 7 -1 12.25 2.97
1 -15 7 13.08 3
1 -15 7 15.28 3.12
1 -15 7 10.07 3.93
1 15 -7 11.08 2.06
1 15 -7 13.65 2.57
-15 7 1 18.23 2.65
1 15 -7 12.63 2.59
15 7 -1 13.04 3.17
7 1 -15 10.89 3.26
-15 7 1 15.4 2.47
-15 7 1 13.59 2.94
7 1 -15 9.27 2.49
-1 15 7 8.72 2.82
7 1 -15 5.6 2.95
-7 1 -15 10.52 2.9
-7 1 -15 15.14 2.62
-15 -7 1 12.26 2.83
-15 -7 1 14.19 3.12
-15 7 -1 13.44 2.42
-15 7 -1 10.89 2.69
7 -1 -15 9.87 3.02
-15 7 -1 13.97 3.37
-15 7 -1 -0.61 3.17
-15 7 -1 12.58 3.18
1 15 7 13.6 2.53
15 -7 -1 10.9 3.1
15 -7 -1 14.87 3.6
1 15 7 15.56 2.87
-1 -15 7 12.3 2.7
-1 -15 7 10.13 2.9
-7 -1 15 3.94 2.59
-7 -1 15 12.55 2.88
-1 15 -7 11.57 2.69
-1 15 -7 13.08 3.42
1 15 7 1.8 2.83
1 15 7 5.57 3.18
-15 7 -1 13.97 2.52
-7 -1 15 1.32 2.79
1 -15 -7 9.1 3.06
1 -15 -7 12.86 2.67
1 -15 -7 10.79 2.87
-7 1 -15 9.63 2.81
-15 -7 1 12.9 2.94
7 -1 -15 8.65 2.32
7 -1 -15 7.51 3.14
-1 -15 7 13.51 2.85
-1 -15 7 11.72 4
-1 15 -7 10.23 1.99
-1 15 -7 16.26 2.55
-1 15 -7 11.97 2.84
7 -1 -15 2.33 2.9
-7 -1 15 8.88 4.13
-15 7 -1 5.1 2.89
7 1 15 13.14 2.42
7 1 15 11.69 2.85
7 1 15 11.71 3.17
7 1 15 11.62 3.78
15 -7 -1 14.62 2.98
15 7 1 10.09 3.23
15 7 1 14.1 2.66
-7 1 -15 7.31 3.12
-7 1 -15 7.86 2.31
-15 -9 -1 0.3 2.85
-15 9 1 0.49 2.96
15 -9 1 -0.02 2.57
-15 -9 -1 3.15 2.6
-15 -9 -1 3.32 2.55
-1 15 9 1.85 2.01
-1 15 9 4.99 2.57
-1 15 9 2.41 2.4
-1 15 9 4.69 2.91
-9 -1 -15 1.78 2.29
-9 -1 -15 3.14 2.59
-9 -1 -15 2.17 2.89
-9 -1 -15 2.97 2.93
1 -15 9 -1.09 2.25
1 -15 9 1.46 2.37
1 -15 9 2.95 2.6
1 -15 9 -5.18 2.96
1 -15 9 2.05 3.95
1 15 -9 1.42 1.64
1 15 -9 1.36 2.36
1 15 -9 1.52 2.66
1 15 -9 -1.28 2.44
1 15 -9 1.59 3.04
-9 1 15 3.66 2.62
-9 1 15 5.26 3.93
-1 -15 -9 3 2.67
-1 -15 -9 1.6 2.11
-1 -15 -9 3.84 2.48
-1 -15 -9 1.4 3.15
-9 1 15 2.74 2.64
-15 9 1 1.85 2.71
9 -1 15 -0.95 2.05
9 -1 15 -0.32 2.47
9 -1 15 3.35 3.57
9 1 -15 3.41 2.72
9 1 -15 2.68 2.66
9 1 -15 -0.37 2.26
9 1 -15 2.24 3.02
-15 9 1 5.44 2.29
-9 1 15 0.44 2.22
15 9 -1 2.03 2.16
-15 9 1 4.45 2.2
-15 9 1 4.5 2.56
15 9 -1 4.16 2.64
15 9 -1 -0.21 3.02
-15 9 1 1.55 2.63
15 -9 1 3.13 3.04
15 -9 1 3.26 3.38
-15 9 1 1.17 2.91
15 -9 -1 3.18 2.88
15 -9 -1 2.2 3.38
15 9 1 1.94 2.23
9 1 15 2.76 3.02
15 9 1 -1.66 2.9
9 -1 -15 1.04 2.64
9 -1 -15 -1.29 1.57
9 -1 -15 1.89 3
1 15 9 6.29 2.67
15 9 1 4.09 2.71
1 -15 -9 1.64 2.77
1 -15 -9 4.42 2.15
1 -15 -9 1.82 2.51
1 -15 -9 3.6 3.21
-15 -9 1 -0.39 2.72
-15 9 -1 1.86 2.05
-15 9 -1 -4.01 2.35
-15 9 -1 1.1 3.01
1 15 9 1.61 2.1
9 1 15 1.17 2.48
-15 9 -1 2.9 2.7
9 1 15 5.4 3.57
15 -9 -1 -1.29 2.74
9 1 15 -1.07 2.16
-1 -15 9 -2.15 2.29
-1 -15 9 1.28 2.49
-1 -15 9 -2.71 2.55
-1 -15 9 -0.57 2.72
-1 -15 9 0.4 4.05
-1 15 -9 0.75 1.5
-1 15 -9 3.63 2.29
-1 15 -9 3.24 2.58
-9 -1 15 1.25 2.52
-15 -9 1 0.68 2.56
-1 15 -9 -0.1 2.63
-1 15 -9 1.19 3.17
-9 -1 15 -0.71 2.27
-9 -1 15 -0.09 2.55
-9 -1 15 1.85 3.9
9 -1 -15 3.28 2.88
1 15 9 3.75 2.77
-9 1 -15 0.95 2.26
-9 1 -15 1.37 2.56
-9 1 -15 3.11 2.88
-9 1 -15 1.13 2.89
-15 9 -1 2.33 2.83
-15 9 -1 2.23 2.81
-15 -9 1 -0.31 2.63
1 15 9 2.31 2.46
15 -11 1 -7.92 2.65
15 -11 1 7.96 3.1
15 -11 1 9.27 3.56
15 11 -1 -0.2 2.62
11 -1 15 9.19 3.26
1 15 -11 1.54 2.46
11 1 -15 4.8 2.84
11 1 -15 3.72 2.91
-1 -15 -11 2.48 2.33
-1 -15 -11 5.19 3.24
-15 11 1 -1.39 3.06
15 11 -1 -0.11 3.17
-11 -1 -15 1.13 2.81
-11 -1 -15 12.77 3.33
-11 1 15 2.72 2.36
11 -1 15 -2.94 2.27
-15 -11 -1 2.6 2.74
-11 1 15 2.72 4.04
-1 -15 -11 0.8 2.68
-15 11 1 4.06 3
11 1 -15 -1.9 2.44
1 -15 11 1.43 2.74
1 -15 11 -1.13 2.83
1 -15 11 -10.54 3.4
1 -15 11 4.22 4.11
1 15 -11 -3.98 2.71
-15 11 1 -6.26 2.08
-15 -11 -1 -2.73 2.66
-11 -1 -15 -3.56 2.4
-1 15 11 6.51 2.65
-1 15 11 0.58 2.63
-1 15 11 0.54 2.7
1 15 -11 0.19 2.82
-11 1 15 5.3 2.7
11 -1 15 9.09 3.91
-1 15 -11 3.34 2.7
15 -11 -1 8.45 3.77
1 -15 -11 1.38 2.14
-1 -15 11 -1.47 2.73
1 -15 -11 0.34 3.46
1 -15 -11 4.77 2.7
15 -11 -1 -0.89 2.83
15 -11 -1 12.36 3.22
15 11 1 -0.42 2.87
-15 11 -1 6.05 3.06
-15 11 -1 2.31 2.84
-15 -11 1 2.78 2.52
-1 15 -11 2.64 2.49
11 -1 -15 1.04 2.88
11 -1 -15 2.75 2.81
-1 -15 11 4.28 2.84
-1 -15 11 -6.29 3.16
-1 -15 11 6.44 4.37
-15 -11 1 -5.29 2.79
15 11 1 -1.83 3
1 -15 -11 1.75 2.86
-11 -1 15 4.45 4.23
-11 1 -15 -5.3 2.27
-1 15 -11 -5.93 2.76
11 1 15 -3.31 2.35
11 1 15 6.54 3.21
11 1 15 8.4 3.79
11 -1 -15 -1.91 2.53
1 15 11 4.11 2.64
1 15 11 2.81 2.83
1 15 11 2.93 2.34
-11 -1 15 5.66 2.67
-11 1 -15 3.32 2.87
-15 -11 1 -0.63 2.75
-11 -1 15 2.61 2.41
-15 11 -1 -1.58 2.44
-11 1 -15 8.46 3.24
13 1 -15 6.16 3
13 1 -15 3.14 2.79
-1 15 13 4.94 3.02
13 -1 15 13.18 3.76
-1 15 13 3.85 3.03
-13 -1 -15 -3.23 2.59
-13 -1 -15 5.31 3.12
-13 -1 -15 11.72 3.52
-1 -15 -13 3.27 2.85
-1 -15 -13 0.92 2.34
1 15 -13 -3.46 2.66
-1 15 13 6.33 2.79
13 -1 15 6.89 4.13
13 1 -15 5.01 3.26
15 -13 1 2.41 3.84
15 13 -1 -2.76 2.7
15 13 -1 1.41 3.28
-15 -13 -1 0.06 2.99
15 -13 1 9.47 3.38
1 15 -13 -2.77 3.02
-15 13 1 8.06 3.25
-1 -15 -13 4.15 3.47
-13 1 15 -1.02 2.44
13 -1 15 -2.2 2.59
-13 1 15 8.89 4.43
1 15 -13 -1.01 3.02
1 -15 13 -5.92 3.73
-13 1 15 8.39 2.8
1 -15 13 -0.14 2.76
1 -15 13 -0.21 2.97
1 -15 13 10.56 4.76
1 -15 -13 3.98 2.29
-13 -1 15 8.59 2.9
1 -15 -13 2.74 3.15
-1 -15 13 0.59 2.9
1 -15 -13 -1.39 3.5
-1 -15 13 3.2 3.64
13 1 15 3.58 2.74
13 1 15 10.19 4.17
-1 -15 13 -1.17 2.87
-15 -13 1 1.68 2.86
-13 1 -15 5.92 2.97
-1 -15 13 17.33 4.82
-13 -1 15 0.34 2.69
-1 15 -13 -6.82 3.12
-13 1 -15 10.66 3.55
-1 15 -13 3.03 2.66
-1 15 -13 -0.46 2.9
-13 -1 15 13.17 4.72
15 -13 -1 7.03 3.56
15 -13 -1 9.59 4.13
15 13 1 -0.69 3.08
1 15 13 3.19 2.98
13 -1 -15 4.09 2.95
13 -1 -15 3.85 2.91
15 13 1 -0.26 3.22
13 -1 -15 -1.45 2.76
-13 1 -15 -5.96 2.35
-15 13 -1 4.33 3.25
1 15 13 1.88 2.83
15 -13 -1 -8.93 3.08
1 -3 15 0.73 3.57
-15 1 3 6.64 2.56
3 15 -1 3.11 2.03
-3 -15 -1 0.69 2.16
-3 -15 -1 4.06 2.17
-15 1 3 4.62 2.45
1 -3 15 3.49 3.32
1 3 -15 3.61 2.47
1 3 -15 4.49 2.46
15 1 -3 2.82 2.46
1 3 -15 4.53 2.45
15 1 -3 2.59 2.32
-15 1 3 0.13 2.66
-1 3 15 5.44 2.21
-1 3 15 4.97 2.24
-1 3 15 2.75 2.76
-1 3 15 4.5 3.44
-15 1 3 4.22 2.45
-15 1 3 4.12 2.85
3 15 -1 3.17 2.26
-1 -3 -15 5.87 2.61
1 -3 15 0.51 2.07
15 1 -3 3.38 2.67
-3 -15 -1 4.99 3.38
-15 -1 -3 3.93 2.8
-15 -1 -3 3.28 2.33
-3 15 1 3.99 2.27
-3 15 1 3.05 2.63
-3 -15 -1 5.55 2.57
1 -3 15 5.85 2.55
-1 -3 -15 3.65 2.6
-1 -3 -15 3.9 2.56
-1 -3 -15 4.32 2.61
-15 1 3 4.42 2.46
3 15 -1 4.63 2
-15 -1 -3 7.35 2.1
3 -15 1 2.82 2.32
3 -15 1 4.8 2.51
3 -15 1 2.65 3.49
3 15 -1 5.19 1.96
1 3 -15 2.81 2.83
15 -1 3 2.53 2.88
15 -1 3 1.2 2.95
3 15 -1 7.66 2.82
-15 -1 -3 -2.22 2.75
-3 15 1 2.32 1.79
-3 15 1 3.77 2.46
-15 -1 -3 3.15 3
-15 1 3 3.49 2.42
-3 15 1 4.38 2.25
-3 15 -1 5.94 2.29
3 -15 -1 2.71 2.44
-3 15 -1 6.92 2.98
3 15 1 3.89 2.39
-3 -15 1 3.32 2.27
-3 15 -1 2.65 2.44
15 1 3 2.17 2.78
15 1 3 6.2 2.89
1 -3 -15 4.06 2.7
3 15 1 3.55 2.1
-15 1 -3 1.39 2.93
-15 1 -3 1.54 2.91
-1 3 -15 1.65 2.76
1 -3 -15 3.5 2.34
-3 15 -1 2.59 1.74
-1 -3 15 3.5 3.53
-1 3 -15 1.19 2.39
-1 3 -15 5.02 2.48
3 15 1 2.93 2.84
15 -1 -3 5.3 2.55
15 -1 -3 4.67 2.86
3 -15 -1 1.92 2.42
-15 -1 3 4.63 2.61
3 -15 -1 3.97 3.37
-15 -1 3 -4.65 2.46
-15 -1 3 4.28 2.55
-3 -15 1 3.38 3.39
-1 -3 15 3.18 1.81
1 -3 -15 4.63 2.64
1 -3 -15 4.65 2.43
1 3 15 6.14 2.09
-15 1 -3 0.66 1.79
1 3 15 2.28 2.72
1 3 15 2.28 3.27
-15 -1 3 3.86 2.44
-3 -15 1 5.13 2.54
-3 -15 1 4.41 2.1
-15 -1 3 2.06 2.69
-15 1 -3 4.05 2.43
-3 15 -1 4 2.23
-15 1 -3 3.08 2.69
15 -1 -3 2.78 2.37
-1 -3 15 5.24 2.31
-1 -3 15 7.94 3.12
3 15 1 3.93 2.03
-15 -1 3 3 2.45
-1 3 -15 7.64 2.51
-15 -1 3 3.06 2.63
1 3 15 4.14 2.3
3 15 -3 6.53 2.86
-15 3 3 6.96 2.7
-15 3 3 5.19 2.43
3 15 -3 8.52 2.09
-3 -15 -3 8.37 2.83
-3 -15 -3 5.32 2.39
-3 -15 -3 7.87 2.39
-3 -15 -3 6.15 3.37
-3 15 3 8.85 2.48
15 -3 3 6.25 3.11
15 -3 3 7.44 3.19
15 3 -3 10.3 2.57
15 3 -3 6.03 3.11
3 -3 15 9.27 2.1
3 -15 3 5.68 2.27
-3 3 15 10.92 2.62
3 -15 3 6.3 3.51
-3 -3 -15 7.78 2.54
3 3 -15 7.57 2.6
-15 -3 -3 2.19 2.43
-15 -3 -3 6.14 2.93
-15 -3 -3 5.11 2.73
-3 15 3 4.86 2.07
3 -3 15 2.09 3.43
3 -3 15 -0.89 3.68
3 3 -15 6.22 2.72
3 15 -3 11.58 2.41
3 15 -3 5.37 2.33
-15 -3 -3 -1.08 2.72
-3 -3 -15 10.64 2.73
-3 -3 -15 8.33 2.83
-3 -3 -15 9.01 2.7
-15 3 3 7.25 2.79
3 3 -15 7.39 3.1
-15 -3 -3 6.04 2.95
3 -15 3 6.4 2.63
-3 3 15 7.25 2.41
-3 3 15 8.01 2.73
-3 3 15 7.75 3.63
-3 15 3 8.97 2.44
-15 3 3 4.05 2.34
-15 3 3 6.75 2.32
3 15 -3 10.38 2.11
3 -3 15 9.27 2.64
-3 15 3 5.28 2.93
15 -3 -3 6.08 3.02
-15 3 -3 5.64 2.06
15 -3 -3 -1.12 2.65
-15 -3 3 0.2 3.14
3 3 15 8.63 2.24
-3 -15 3 8.19 2.59
-15 3 -3 9.71 2.33
-3 -15 3 4.98 3.59
-15 -3 3 8.28 2.7
-3 -3 15 7.5 3.22
-15 -3 3 8 2.89
3 15 3 8.91 2.3
3 15 3 5.47 2.73
3 15 3 4.56 2.37
3 15 3 9.31 3.04
-3 15 -3 8.04 1.83
3 -15 -3 2.19 2.67
3 3 15 7.3 2.38
-3 15 -3 7.69 2.48
-3 15 -3 8.22 2.42
-3 3 -15 9.78 2.5
15 3 3 8.75 3.01
-3 3 -15 7.54 2.53
3 -3 -15 7.78 2.43
3 -3 -15 5.95 3.15
-3 -3 15 12.47 3.84
-15 3 -3 4.02 2.82
-15 3 -3 5.64 2.92
-15 3 -3 9.31 3.14
3 3 15 12.82 3.26
15 -3 -3 5.98 3.27
3 -15 -3 7.18 2.56
3 -15 -3 8.75 2.59
3 -15 -3 3.69 3.37
-15 -3 3 9.65 2.92
3 3 15 6.57 3.2
15 -3 -3 8.46 2.61
3 -3 -15 11.94 2.92
3 -3 -15 11.79 2.71
-3 -15 3 9.87 2.7
-3 -15 3 8.69 2.35
-3 -3 15 5.01 2.49
-3 15 -3 9.02 3.12
-15 3 -3 11.58 2.43
15 3 3 8.28 2.23
15 3 3 7.49 3.24
-3 -3 15 4.45 2.49
-15 -3 3 9.31 2.66
-3 3 -15 5.64 2.83
-3 3 -15 2.44 2.85
-3 3 -15 11.77 2.66
-3 3 -15 7.27 2.48
-15 5 3 8.67 2.4
3 15 -5 7.86 3.16
-5 3 15 9.43 2.65
15 5 -3 9.2 2.69
15 5 -3 12.06 3.06
15 5 -3 10.11 2.79
5 -3 15 9.03 2.77
-15 -5 -3 -1.27 2.87
-5 3 15 6.31 2.84
-5 3 15 14.68 3.91
-3 15 5 13.28 2.7
-3 15 5 9.29 2.7
3 -15 5 9.63 2.88
-3 -15 -5 9.95 2.89
3 -15 5 5.85 2.29
3 -15 5 10.84 2.79
-5 -3 -15 11.23 2.63
-15 5 3 14.83 2.37
-15 5 3 4.36 2.78
-15 5 3 4.53 2.85
3 -15 5 8.13 3.81
3 15 -5 10.88 2.13
3 15 -5 9.86 2.3
5 -3 15 9.1 2.12
15 -5 3 9.29 3.37
15 -5 3 7.75 3.14
5 3 -15 -1.03 2.84
5 3 -15 10.23 2.44
5 3 -15 10.43 3.26
-15 5 3 -0.58 2.73
-15 5 3 0.02 2.67
-3 -15 -5 5.28 3.2
-5 3 15 9.25 2.4
-5 -3 -15 9.1 2.68
-15 -5 -3 11.74 3.06
-5 -3 -15 12.72 2.54
-5 -3 -15 9.89 2.92
-5 -3 -15 11.43 2.73
-15 -5 -3 9.97 3.14
-3 -15 -5 -0.41 2.61
-3 -15 -5 5.41 2.56
-15 -5 -3 11.94 2.89
3 15 -5 7.25 2.69
15 5 3 4.22 2.52
-5 -3 15 13.28 3.09
-3 15 -5 8.34 2.64
-5 3 -15 10.21 2.87
3 15 5 5.22 2.89
5 -3 -15 9.18 3.01
5 -3 -15 11.69 2.8
5 -3 -15 9.55 2.47
5 3 15 12.24 2.63
5 3 15 11.16 2.81
15 -5 -3 12.91 2.96
3 -15 -5 13.01 2.72
3 -15 -5 8.9 2.81
15 5 3 9.33 3.24
-5 -3 15 -2.74 2.83
-15 -5 3 11.64 2.9
-15 -5 3 9.75 2.75
-15 -5 3 9.18 2.97
-15 5 -3 10.15 2.13
-15 5 -3 9.91 2.29
-15 5 -3 3.51 2.77
-15 5 -3 9.99 3.15
-15 5 -3 5.25 2.44
-3 15 -5 9.21 2.5
-3 15 -5 6.69 3.09
5 3 15 12.27 3.24
3 15 5 8.92 2.35
15 5 3 8.83 3.05
5 -3 -15 1.76 3.38
-3 -15 5 7.72 2.61
-3 -15 5 7.37 1.72
-3 -15 5 8.62 2.75
-3 -15 5 8.16 3.69
-3 15 -5 12.38 2.23
15 -5 -3 -1.61 2.95
15 -5 -3 13.54 3.55
5 3 15 9.55 3.56
5 3 15 11.67 2.35
-5 3 -15 15.2 2.92
-5 3 -15 7.58 2.85
-5 -3 15 10.42 3.87
-5 3 -15 10.73 2.43
-15 7 3 12.04 3.16
15 -7 3 16.38 2.71
-3 -15 -7 11.65 2.99
-3 -15 -7 12.22 3.46
-3 -15 -7 19.3 3.25
-3 -15 -7 15.13 2.91
7 3 -15 9.78 3.1
7 3 -15 11.75 3.07
7 3 -15 12.85 2.62
7 3 -15 12.57 3.55
-7 3 15 16.56 4.27
-15 7 3 9.11 2.95
-15 7 3 10.8 3.19
-7 -3 -15 17.98 2.92
-7 -3 -15 15.78 3.02
-7 -3 -15 16.81 3.03
-7 -3 -15 12.8 3.08
15 -7 3 18.86 3.73
3 15 -7 19.41 2.77
3 15 -7 14.98 3.12
3 15 -7 9.33 3.55
15 7 -3 15.68 3.31
-15 7 3 14.76 2.69
-15 7 3 20.27 3.03
15 7 -3 10.86 3.17
-3 15 7 13.9 2.64
-3 15 7 22.54 3.09
-3 15 7 11.18 3.47
7 -3 15 5.33 4
7 -3 15 3.38 4.17
-15 -7 -3 7.86 3.08
-15 -7 -3 14.23 3.15
3 -15 7 17.98 2.83
3 -15 7 17.53 3.28
-15 7 3 20.26 2.75
3 -15 7 11.94 4.14
-15 7 3 4.24 2.98
3 15 -7 16.9 2.31
-7 3 15 11.52 2.76
-7 3 15 15.07 3.08
-15 -7 -3 9.68 3.03
15 -7 3 16.27 3.52
15 7 -3 14.2 2.74
15 7 -3 12.57 2.84
-15 -7 -3 11.48 3.4
-3 15 7 15.77 3.09
3 -15 7 15.35 3.43
-7 3 15 17.77 3.01
7 -3 15 14.45 2.37
7 -3 15 12.5 2.96
-15 -7 -3 13.16 3.11
-15 7 -3 7.84 3.3
-15 7 -3 16.31 3.47
7 -3 -15 14.1 3.18
-15 7 -3 13.98 3.44
3 15 7 14.38 2.68
3 15 7 12.33 3.1
-15 -7 3 18.95 3.31
-3 15 -7 13.88 3.31
-15 -7 3 13.32 3.21
-3 -15 7 13.68 4.19
15 7 3 13.81 3.32
15 7 3 10.96 2.75
15 7 3 12.38 3.42
-15 -7 3 19.13 3.64
-15 7 -3 8.47 2.92
-7 -3 15 6.67 3.07
3 -15 -7 8.46 3.21
3 -15 -7 19.24 2.95
3 -15 -7 17.94 3.05
3 -15 -7 5.88 3.74
-7 3 -15 14.19 3.12
-7 3 -15 16.62 3.4
-7 3 -15 5.59 3.44
-3 -15 7 16.01 3.01
7 -3 -15 12.43 2.86
-15 7 -3 13.8 3.02
-7 -3 15 10.15 2.84
-7 -3 15 18.69 3.14
-7 -3 15 19.93 4.34
-7 3 -15 17.19 2.69
-3 15 -7 13 2.81
-3 15 -7 12.93 2.58
7 -3 -15 15.59 3.06
15 -7 -3 12.18 3.62
-7 3 -15 11.25 3.16
-15 -7 3 15.83 2.95
3 15 7 16.25 2.65
3 15 7 15.12 3.22
7 3 15 12.55 2.2
7 3 15 13.33 2.91
7 3 15 17.61 3.31
7 3 15 15.96 3.9
15 -7 -3 16.36 3.26
-3 -15 7 15.37 2.94
-3 -15 7 16.66 2.95
-3 15 -7 19.17 2.6
9 -3 15 3.84 3.43
-9 -3 -15 2.56 2.76
-3 15 9 4.97 2.43
-3 15 9 3.62 2.56
-3 15 9 6.39 2.92
-15 -9 -3 5.1 2.9
-15 -9 -3 3.04 2.85
-15 -9 -3 -1.69 2.92
3 15 -9 -0.11 2.67
3 -15 9 4.68 2.76
3 -15 9 -3.44 3.14
3 -15 9 -2.78 3.87
3 15 -9 2.93 1.79
-3 -15 -9 4.55 2.88
-3 -15 -9 3.87 2.32
-9 -3 -15 3.81 2.63
-3 -15 -9 0.78 3.07
-15 9 3 3.36 2.56
-15 9 3 3.52 2.79
-15 9 3 2.59 2.49
-15 9 3 2.01 2.48
-15 9 3 0.95 2.67
-9 -3 -15 4.3 2.67
9 -3 15 2.2 2.04
9 -3 15 0.7 2.51
9 -3 15 2.93 3.61
3 15 -9 1.47 2.37
9 3 -15 4.35 2.91
9 3 -15 1.17 2.67
9 3 -15 -0.34 2.16
9 3 -15 2.46 2.98
-9 -3 -15 4.46 2.52
-15 9 3 -0.07 2.13
-15 -9 -3 0.62 2.62
-9 3 15 3.88 2.72
-3 -15 -9 3.97 2.44
15 -9 3 3.21 2.42
15 -9 3 3.81 3.16
15 -9 3 2.55 3.32
15 9 -3 4.19 2.3
15 9 -3 1.06 2.45
15 9 -3 1.19 2.95
15 9 -3 1.8 2.69
3 15 -9 -3.61 3.3
-3 15 9 6.5 2.15
-9 3 15 7.03 3.86
-9 3 15 2.42 2.62
-9 3 15 1.23 2.2
-15 -9 3 7.39 3.56
9 3 15 2.71 3.63
15 -9 -3 2.04 2.82
-9 -3 15 2.75 3.83
-9 -3 15 4.35 2.62
-9 -3 15 4.45 2.45
9 3 15 3.79 2.95
-3 -15 9 0.32 2.58
-3 -15 9 1.26 2.49
-3 -15 9 1.11 2.59
-3 -15 9 2.51 4.18
-3 15 -9 4.08 2.3
9 3 15 3.06 2.52
-15 -9 3 2.37 2.51
3 15 9 3.35 2.78
3 15 9 5.01 2.66
9 -3 -15 2.39 2.69
9 -3 -15 3.78 2.65
9 -3 -15 1.37 2.45
-9 -3 15 0.09 2.53
-15 9 -3 3.75 2.62
-15 -9 3 1.31 2.76
-9 3 -15 6.66 2.9
15 -9 -3 0.85 3.47
3 15 9 4.75 2.21
3 15 9 2.17 2.6
-3 15 -9 2.96 2.33
-15 -9 3 3.95 2.44
-3 15 -9 2.43 0.91
-3 15 -9 2.39 2.95
15 9 3 4.05 2.94
-9 3 -15 0.74 2.88
-15 9 -3 -0.97 2.3
15 9 3 5.21 2.32
3 -15 -9 4.2 2.9
3 -15 -9 4.94 2.59
3 -15 -9 3.69 3.34
-9 3 -15 2.53 2.57
-15 9 -3 4.23 3.05
-15 9 -3 2.23 2.83
-15 9 -3 2.24 2.85
-9 3 -15 3.31 3
-9 3 -15 1.8 2.65
3 15 -11 5.64 2.68
3 15 -11 3.71 2.98
-3 -15 -11 8.02 3.34
-11 -3 -15 5.5 3.02
-11 -3 -15 8.47 3.11
-11 -3 -15 6.82 2.6
-11 3 15 4.4 2.41
15 11 -3 6.49 2.89
-3 15 11 5.41 2.67
-15 -11 -3 6.14 2.78
-15 -11 -3 -0.16 2.75
3 -15 11 7.04 3.02
3 -15 11 -1.95 3.61
11 3 -15 8.58 3
11 3 -15 11 3.02
15 -11 3 7.46 3.59
-3 -15 -11 6.87 2.64
-15 11 3 -0.2 2.37
-15 11 3 13.96 3.01
-15 11 3 8.02 2.78
-15 11 3 3.22 2.89
-3 -15 -11 8.53 2.53
-3 15 11 11.63 2.79
15 -11 3 6.83 2.53
-3 15 11 6.2 2.88
3 -15 11 5.32 4.34
15 -11 3 4.58 3.34
15 11 -3 2.33 3.07
15 11 -3 4.74 2.68
-11 3 15 7.93 2.68
-11 3 15 2.95 3.96
-3 -15 -11 5.28 2.75
3 -15 11 4.78 2.84
11 -3 15 6.14 3.89
-15 -11 3 8.55 3.74
15 11 3 0.06 3.09
11 3 15 11.57 3.89
3 15 11 8.95 3.05
3 15 11 10.09 3
-3 15 -11 9.84 2.65
11 -3 -15 10.48 2.95
11 3 15 10.98 3.33
-15 11 -3 1.14 2.59
15 -11 -3 3.25 3.01
15 -11 -3 0.85 3.82
3 -15 -11 8.68 2.41
-11 3 -15 5.89 2.85
-11 3 -15 2.35 3.24
3 15 11 6.56 2.86
3 -15 -11 7.24 3.03
-3 -15 11 1.97 2.75
-11 -3 15 5.08 2.5
3 -15 -11 7.43 3.62
11 -3 -15 7.24 2.94
11 -3 -15 3.2 2.39
-3 -15 11 3.66 2.8
11 3 15 7.37 2.55
-15 -11 3 8.65 2.85
-15 11 -3 7.56 3.14
-15 11 -3 6.22 2.86
-3 15 -11 6.41 2.56
-3 -15 11 2.17 2.82
-15 -11 3 3.59 2.81
-11 -3 15 4.9 4.15
-3 -15 11 11.69 4.35
3 -15 13 -0.87 3.83
-15 13 3 9.94 3.14
-15 -13 -3 0.1 2.97
13 3 -15 7.81 3.03
3 15 -13 5.73 3.13
-13 3 15 9.53 2.96
13 3 -15 5.79 3.2
15 -13 3 3.96 2.64
15 -13 3 11.33 3.94
15 13 -3 6.04 2.76
15 13 -3 6.25 3.38
15 13 -3 10.55 3.09
3 15 -13 3.38 2.83
-15 13 3 5.36 3.21
-13 3 15 3.77 4.22
-3 -15 -13 6.18 3.08
15 -13 3 10.56 3.54
-3 -15 -13 9.46 3.52
-13 -3 -15 4.09 2.66
-13 -3 -15 7.14 3.18
-13 -3 -15 10.12 3.38
3 -15 13 4.64 3.04
3 -15 13 6.65 3.35
-13 3 15 7.55 2.54
13 -3 15 4.22 4.03
-3 15 13 5.65 2.97
-3 15 13 8.06 3.16
3 -15 13 8.02 4.52
-3 15 13 13.34 2.93
-3 -15 13 2.3 3.28
15 13 3 -1.72 3.32
-3 15 -13 7.51 2.79
-15 -13 3 7.2 2.96
13 -3 -15 7 3.16
13 -3 -15 7.95 2.92
3 15 13 3.3 3.05
3 15 13 10.56 2.96
13 3 15 12.81 3.57
3 -15 -13 8.58 2.37
3 -15 -13 10.38 3.64
15 -13 -3 3.97 3.24
15 -13 -3 7.63 3.09
-3 -15 13 3.06 3.04
13 3 15 13.84 4.13
-13 3 -15 5.06 3.05
13 3 15 7.41 2.82
-3 -15 13 14.71 4.6
-15 -13 3 16.39 4.02
-15 13 -3 -2.22 2.77
-15 13 -3 6.6 3.41
-3 -15 13 -1.6 3.19
3 -15 -13 5.7 3.3
3 15 13 3.47 3.25
-15 13 -3 4.37 3.23
15 -13 -3 7.79 4.05
-3 15 -13 5.92 2.69
-13 -3 15 4.64 4.35
-1 5 15 6.25 2.22
5 15 -1 3.12 2.13
5 15 -1 1.98 2.56
-15 1 5 3.41 3.13
1 -5 15 5.61 2.15
-1 5 15 8.61 2.26
-15 1 5 10.33 2.69
-15 1 5 6.82 2.21
1 5 -15 6.55 2.52
-1 5 15 7.64 2.69
-1 5 15 8.08 3.62
5 15 -1 4.71 2.75
-15 1 5 8.16 2.66
-15 1 5 6.81 2.43
-15 -1 -5 -0.05 2.21
-15 -1 -5 -0.62 2.77
-15 -1 -5 9.1 3.18
-15 -1 -5 3.69 3.08
15 -1 5 6.14 3.07
1 5 -15 1.27 2.5
1 5 -15 4.32 2.95
-5 -15 -1 4.44 3.25
-5 15 1 1.75 1.86
-5 15 1 3.42 2.4
-5 15 1 6.22 2.55
5 15 -1 5.4 2.15
-1 -5 -15 5.75 2.61
-1 -5 -15 7.98 2.7
-1 -5 -15 4.28 2.46
1 -5 15 6.23 2.59
15 -1 5 8.11 3.39
5 -15 1 2.9 2.32
5 -15 1 6.77 2.71
5 -15 1 3.57 3.63
15 -1 5 4.96 2.51
-15 1 5 4.1 2.71
-5 -15 -1 4.66 2.07
-5 -15 -1 -1.87 2.32
-5 15 1 6.81 2.43
-5 15 1 6.47 2.91
-5 -15 -1 6.41 2.72
-5 -15 -1 4.47 2.04
15 -1 5 6.35 2.09
15 1 -5 6.19 2.72
15 1 -5 1.77 2.48
5 15 1 -3.26 2.7
-15 -1 5 0.64 2.4
-15 -1 5 3.91 2.43
1 5 15 7.86 2.29
-15 1 -5 3.26 1.92
-15 1 -5 4.39 3.09
-15 1 -5 5.93 3.08
-5 15 -1 7.24 2.88
5 -15 -1 4.34 3.47
-15 -1 5 6.17 2.78
-15 -1 5 5.03 2.56
-5 -15 1 3.59 2.36
-5 -15 1 3.87 3.34
-5 15 -1 3.81 1.68
1 -5 -15 8.02 2.52
-1 -5 15 0.57 2.12
-5 15 -1 5.68 2.3
-1 -5 15 5.27 2.44
1 5 15 6.01 2.98
15 1 5 8.66 3.06
-1 5 -15 -1.96 2.89
-15 -1 5 8.32 2.47
5 15 1 4.71 2.1
5 15 1 4.82 2.22
15 -1 -5 5.33 2.49
15 -1 -5 5.75 2.91
1 5 15 9.96 3.46
15 1 5 2.62 2.17
1 -5 -15 5.89 2.71
5 15 1 5.7 2.06
5 15 1 4.88 2.21
-15 -1 5 6.1 3.05
-15 -1 5 5.56 2.71
-1 5 -15 4.88 2.31
5 -15 -1 -1.58 2.47
-5 -15 1 7.32 2.8
-5 -15 1 5.28 2.18
-1 -5 15 1.87 3.92
-1 5 -15 6.23 2.37
1 -5 -15 7.9 2.48
-1 5 -15 -0.48 2.78
15 1 5 6.46 3.24
-5 15 -1 6.88 2.63
-5 15 -1 6.18 2.39
1 5 15 5.98 2.29
5 -15 -1 6.37 2.57
-1 -5 15 3.33 3.28
3 -5 15 10.37 2.2
-15 3 5 8.37 2.81
-15 3 5 4.82 2.31
-3 5 15 13.31 2.62
15 -3 5 5.56 3.22
-3 5 15 8.12 3.56
5 15 -3 10.56 2.47
15 -3 5 9.15 2.71
-3 -5 -15 9.8 2.81
15 -3 5 7.84 3.41
-5 -15 -3 10.64 3.41
-15 3 5 10.44 2.87
5 15 -3 10.57 2.78
-15 -3 -5 8.92 3.13
-5 15 3 10.68 2.67
-5 -15 -3 3.86 2.22
5 -15 3 11.31 2.9
5 -15 3 4.76 3.68
5 15 -3 9.4 2.28
5 15 -3 8.2 3.14
-15 -3 -5 9.91 2.71
-15 -3 -5 4.69 3.09
-15 -3 -5 6.51 3.04
-5 -15 -3 13.83 2.97
-3 5 15 11.21 2.44
-3 5 15 8.67 2.99
-3 -5 -15 9.52 2.84
-3 5 15 6.55 3.07
-5 -15 -3 0.44 2.38
3 5 -15 8.2 2.68
3 5 -15 9.8 2.65
3 5 -15 7.65 3.17
-5 15 3 13.22 2.72
-15 3 5 6.65 3.11
-3 -5 -15 15.34 2.97
-5 15 3 0.37 3.11
-15 3 5 11.14 2.46
15 3 -5 7.21 3.02
3 -5 15 7.96 2.72
15 3 -5 8.47 2.8
5 15 3 -2.75 2.9
-15 3 -5 8.36 2.18
-3 5 -15 10.03 2.4
3 -5 -15 7.37 2.59
15 3 5 6.53 3.43
5 15 3 5.61 2.59
-15 3 -5 6.76 3.06
3 -5 -15 13 2.78
-15 -3 5 10.93 2.87
-5 15 -3 10.41 1.85
5 15 3 6.74 2.86
15 -3 -5 8.77 3.07
15 -3 -5 10.38 2.67
-5 -15 3 8.59 2.76
-5 -15 3 6.02 1.71
-5 -15 3 7.09 2.49
-5 -15 3 6.22 3.54
-5 15 -3 10.98 3.15
3 5 15 9.09 2.49
3 -5 -15 9.79 2.76
5 15 3 9.42 2.38
-15 -3 5 10.82 2.67
-15 -3 5 5.45 2.65
-15 -3 5 3.55 3.52
-15 3 -5 11.98 3.33
15 -3 -5 5.79 2.97
-3 -5 15 10.17 4.05
-5 15 -3 11.3 2.57
3 5 15 13.86 2.58
3 5 15 8.55 3.06
3 5 15 11.72 3.38
5 -15 -3 12.5 2.77
-3 -5 15 6.99 2.66
-3 -5 15 9.24 3.33
-3 5 -15 8.64 2.57
-15 -3 5 9.71 2.9
15 3 5 9.27 3.4
-5 15 -3 8.03 2.43
-3 5 -15 8.79 2.58
-15 -5 -5 3.56 2.49
-15 -5 -5 2.79 2.93
-15 5 5 3.36 2.99
-15 -5 -5 -4.57 2.59
15 5 -5 1.54 2.79
-5 -15 -5 -0.57 2.44
5 15 -5 3.73 2.01
5 15 -5 2.27 2.36
5 15 -5 4.73 2.59
5 15 -5 3.99 3.11
5 -15 5 -1.46 3.64
-5 -15 -5 2.58 2.88
15 -5 5 2.43 3.23
5 -5 15 4.88 1.79
-15 5 5 4.51 2.18
-15 5 5 8.6 2.75
-5 15 5 6.47 2.5
5 5 -15 -4.29 2.69
-5 -15 -5 2.29 3.06
-5 15 5 -2.66 2.02
-15 5 5 2.78 2.86
-15 5 5 2.13 2.44
5 5 -15 -4.54 2.83
-5 5 15 1.76 2.45
-5 5 15 2.36 2.06
-5 5 15 3.35 2.75
-5 5 15 1.99 3.46
-5 5 15 2.37 3.03
-15 5 5 3.86 2.48
5 -15 5 3.73 2.64
5 -15 5 1.82 2.76
-5 15 5 4.29 2.49
-5 -5 -15 3.58 2.51
-5 -5 -15 4.64 2.59
-5 -5 -15 5.12 2.37
-5 -5 -15 4.49 2.78
15 5 -5 4.56 2.47
15 -5 5 4.35 2.55
-5 15 5 -2.96 2.87
5 -5 15 4.97 2.63
-5 -15 -5 5.49 2.47
15 5 -5 2.11 2.73
-5 -15 -5 -4.34 2.48
15 -5 5 3.72 2.85
5 5 -15 5.76 2.38
-15 -5 -5 2.01 3.06
-15 -5 -5 1.7 2.85
5 5 -15 4.34 3.06
15 -5 -5 5.01 2.51
-5 -5 15 -1.48 2.59
-15 -5 5 -3.05 3.55
15 5 5 -1.88 2.39
-5 15 -5 6.02 2.01
-5 -15 5 -0.45 3.57
-5 -5 15 8.6 3.05
5 -15 -5 -8.44 2.75
5 -15 -5 5.66 2.46
5 -15 -5 7.68 2.64
-5 -15 5 5.95 2.34
-5 -15 5 1.42 2.31
-15 5 -5 -5.16 2.94
-5 -5 15 4.74 3.83
-15 5 -5 4.22 3.1
-15 5 -5 3.36 2.24
-5 -5 15 -3.98 2.57
-5 -15 5 4.43 2.61
5 5 15 7.01 2.41
-15 -5 5 4.47 2.51
5 5 15 6.6 2.83
5 5 15 3.97 3.24
5 5 15 7.3 3.13
15 5 5 4.64 3.15
15 5 5 -0.1 3.19
5 -5 -15 4.04 2.74
5 -5 -15 3.33 2.48
5 15 5 4.24 2.23
5 15 5 -6.82 2.7
5 15 5 -5.59 2.65
5 15 5 2.09 2.93
15 -5 -5 2.86 2.83
-15 -5 5 4 2.77
-15 -5 5 2.51 2.93
-15 5 -5 -8.16 2.92
-15 -5 5 1.5 2.61
-5 5 -15 6.3 2.23
-5 5 -15 6.56 2.72
-5 5 -15 2.24 2.58
-5 5 -15 4.82 2.57
-5 5 -15 -7.96 2.96
-5 15 -5 4.18 2.34
-5 15 -5 6.55 2.41
-5 15 -5 7.5 2.95
15 -5 -5 2.63 3.38
5 5 15 4.93 2.11
5 -5 -15 4.01 2.51
-5 -15 -7 6.29 2.5
-5 -15 -7 3.41 2.63
15 7 -5 1.98 2.48
-15 7 5 5.45 2.83
-15 7 5 5.96 2.63
15 -7 5 6.91 3.19
-7 5 15 3.81 3.56
-7 5 15 7.53 2.72
-7 5 15 9.32 2.31
-7 5 15 5.92 2.75
-15 7 5 8.29 3.17
-7 -5 -15 7.99 2.57
-7 -5 -15 8.08 2.73
-7 -5 -15 9.11 2.68
-7 -5 -15 6.84 2.95
5 15 -7 5.39 2.4
-7 5 15 6.58 3.22
-15 -7 -5 4.65 2.57
-15 -7 -5 6.59 3.06
-15 -7 -5 7.65 2.9
-15 -7 -5 3.63 3.06
-15 -7 -5 6.08 2.83
-15 7 5 2.49 2.52
15 7 -5 4.39 2.9
-5 15 7 6.24 2.19
-5 15 7 11.77 2.46
-5 15 7 8.57 2.65
-5 15 7 4.67 3.03
7 -5 15 4.26 2.62
-5 -15 -7 3.46 3
7 -5 15 2.47 3.74
7 5 -15 4.22 2.78
5 -15 7 7.45 2.63
5 -15 7 6.54 2.89
5 -15 7 3.07 3.08
5 -15 7 2.41 3.91
5 15 -7 7.46 2.09
-15 7 5 10.28 2.33
5 15 -7 3.95 2.63
5 15 -7 5.21 3.46
15 7 -5 7.25 2.94
7 5 -15 8.32 2.86
15 -7 5 5.85 2.58
15 -7 5 8.25 3.51
7 5 -15 7.85 3.19
-15 7 5 2.46 2.77
-5 -15 -7 7.84 2.85
-15 7 5 7.13 2.97
7 -5 15 -0.04 3.63
-7 5 -15 1.54 2.65
5 15 7 4.37 2.75
-15 -7 5 4.33 2.9
5 15 7 7.55 2.41
7 -5 -15 4.74 2.52
5 -15 -7 3.31 2.91
15 -7 -5 4.84 3.61
5 -15 -7 6.56 2.74
5 -15 -7 4.77 3.44
-5 15 -7 9.94 2.32
-15 7 -5 5.37 2.98
-7 5 -15 2.45 2.95
-5 -15 7 9.8 2.62
-5 -15 7 6.9 2.65
-5 -15 7 3.7 4.09
-15 7 -5 2.62 3.16
-7 5 -15 5.15 2.79
-7 5 -15 0.52 3.15
-5 15 -7 4.68 2.96
-15 7 -5 1.5 2.59
15 7 5 6.14 2.54
15 7 5 5.93 3.12
15 7 5 9.9 3.42
-5 -15 7 7.02 2.61
-7 -5 15 4.58 2.49
-7 -5 15 12.12 4.19
-5 15 -7 7.38 2.74
-7 5 -15 10.15 2.97
5 -15 -7 5.48 2.5
5 15 7 7.16 2.78
-7 -5 15 3.64 2.74
7 5 15 7.86 2.29
7 5 15 8.41 2.64
7 5 15 11.02 3.11
7 5 15 6.98 3.56
15 -7 -5 8.93 2.99
-5 15 -7 5.91 2.59
-15 -7 5 8.25 3.54
-15 7 -5 11.84 2.77
-15 7 -5 4.73 3.04
-15 -7 5 6.91 2.77
7 -5 -15 10.12 3.07
7 -5 -15 8.46 2.65
5 15 7 8.48 2.87
-15 -7 5 8.32 2.71
9 -5 15 -0.43 2.48
9 -5 15 -1.48 3.79
5 15 -9 -0.75 2.49
-5 -15 -9 1.45 2.88
-5 -15 -9 1.6 2.39
-5 -15 -9 0.51 2.36
-5 -15 -9 -4.71 2.97
5 15 -9 1.04 1.84
9 5 -15 0.93 2.61
9 5 -15 2.5 3.03
-15 9 5 -4.06 2.78
-9 5 15 2.11 2.55
-9 5 15 4.77 3.63
-9 -5 -15 0.83 2.65
15 9 -5 2.26 2.81
5 -15 9 -8.06 3.87
-15 9 5 3.43 2.62
-15 9 5 1.4 2.35
15 -9 5 -1.05 3.19
5 15 -9 0.68 2.52
9 -5 15 0.49 3.69
-9 -5 -15 0.48 2.31
-9 -5 -15 2.87 2.81
-15 -9 -5 0.58 2.59
-15 -9 -5 -0.62 2.91
-15 -9 -5 0.95 2.65
-15 -9 -5 0.89 2.93
-15 -9 -5 1.44 2.45
15 -9 5 1.6 1.83
15 -9 5 1.04 3.37
5 15 -9 -3.49 3.2
5 -15 9 -0.21 1.43
5 -15 9 1.47 2.74
5 -15 9 -0.58 3.21
-15 9 5 0.66 2.61
-9 5 15 1.84 2.64
-9 -5 -15 -1.04 2.61
-15 9 5 -2.6 2.28
-15 9 5 -0.41 2.62
-9 5 15 -2.8 3.22
15 9 -5 -0.95 3.02
-5 15 9 -0.31 2.07
-5 15 9 2.57 2.5
9 5 -15 0.11 2.66
-9 5 15 2.52 2.05
15 9 -5 1.37 2.47
-5 15 9 0.02 2.65
-5 15 9 1.71 2.56
-9 5 -15 -0.49 2.75
-15 9 -5 1.34 2.93
-15 9 -5 -0.53 2.84
15 9 5 -0.28 3.17
5 15 9 2.03 2.57
-9 5 -15 -0.06 2.88
-9 5 -15 2.49 3.05
-9 5 -15 -2.68 3.09
-5 -15 9 -2.76 2.52
-9 5 -15 0.36 2.59
-15 9 -5 -0.67 2.49
5 15 9 -0.12 2.02
5 15 9 0.91 2.65
5 15 9 -0.92 2.78
5 -15 -9 -4.05 3.39
-9 -5 15 -0.1 2.42
-9 -5 15 -2.42 3.9
5 -15 -9 2.04 2.87
-5 -15 9 -1.58 2.46
-5 -15 9 0.63 2.54
-5 -15 9 0.93 3.95
-5 15 -9 0.63 2.28
-5 15 -9 2.14 2.48
-5 15 -9 4.26 2.83
-5 15 -9 0 2.89
9 5 15 0.51 2.42
9 5 15 2.29 3.01
9 5 15 -2.45 3.62
15 -9 -5 -3.18 2.8
15 -9 -5 -0.93 3.39
-15 -9 5 3.77 2.76
-15 -9 5 1.23 2.46
-15 -9 5 -1.43 2.51
-15 -9 5 4.04 3.68
-15 9 -5 4.54 2.45
-15 9 -5 1.62 2.97
15 9 5 3.55 2.29
9 -5 -15 0.86 2.45
9 5 15 1.18 2.2
9 -5 -15 1.53 2.86
15 9 5 -1.93 2.8
5 -15 -9 2.58 2.41
-9 -5 15 3.22 2.73
9 -5 -15 2.46 2.58
5 -15 -9 1.97 2.26
-5 -15 -11 3.66 2.62
-5 -15 -11 7.49 2.67
11 5 -15 3.05 2.91
-5 -15 -11 6.79 2.97
15 -11 5 5.35 3.66
15 11 -5 6.1 2.66
15 -11 5 4.9 2.57
-5 -15 -11 5.09 3.19
-15 11 5 0.76 2.39
15 -11 5 5.96 3.47
15 11 -5 2.39 3.15
-5 -15 -11 5.15 2.54
-11 5 15 7.12 3.9
5 -15 11 4.63 4.23
-15 11 5 4.71 2.83
-15 -11 -5 4.8 2.88
11 -5 15 0.6 3.72
11 -5 15 10.56 3.95
-5 15 11 5.67 2.71
11 5 -15 6.22 2.91
-15 -11 -5 4.58 3.17
5 15 -11 1.75 2.68
5 15 -11 0.18 2.69
-15 -11 -5 3.48 2.66
15 11 -5 6.42 3.04
-15 11 5 3.75 2.77
-11 -5 -15 5.23 2.7
-11 -5 -15 6.7 3.02
-11 5 15 4.41 2.27
-11 5 15 4.94 2.78
5 -15 11 4.93 3.71
5 -15 11 5.27 2.79
-5 15 11 7.49 3.08
-5 15 11 8.8 2.63
-11 -5 -15 4.33 3.04
-11 -5 15 -0.92 4.2
11 5 15 6.6 2.45
-5 -15 11 2.68 2.92
5 -15 -11 4.75 3.27
-15 11 -5 8.61 2.86
5 -15 -11 2.89 3.17
-15 11 -5 5.59 3.1
11 -5 -15 2.17 3
11 5 15 4.65 3.09
11 5 15 7.19 3.96
-11 5 -15 3.41 3.09
15 -11 -5 0.92 3.49
5 15 11 5.4 2.69
5 15 11 3.16 2.93
11 -5 -15 4.93 2.66
11 -5 -15 3.33 2.61
-11 5 -15 -1.71 2.85
15 -11 -5 4.53 3.09
-5 -15 11 4.28 2.74
-5 -15 11 1.94 2.76
-5 -15 11 0.68 4.06
-5 15 -11 6.76 2.5
-5 15 -11 4.91 2.69
-5 15 -11 3.63 3.09
-15 -11 5 7.2 4.06
-11 5 -15 4.57 3.26
-15 11 -5 6.34 2.64
5 15 11 5.46 3.18
5 -15 -11 6.37 2.37
15 11 5 3.49 3.42
-15 -11 5 5.61 2.87
-15 -11 5 4.3 2.81
-11 5 -15 5.59 2.88
15 11 5 1.82 2.93
5 15 -13 2.32 3.18
15 -13 5 9.18 3.45
-15 13 5 5.91 2.94
-13 5 15 5.17 2.36
15 13 -5 4.31 3.4
-13 5 15 2.53 3.93
5 -15 13 7.11 4.52
13 -5 15 0.84 3.99
13 5 -15 5.43 3.18
13 5 -15 9.68 3.01
5 15 -13 5.52 2.81
-13 -5 -15 5.65 3.03
5 -15 13 5.51 3.84
-5 -15 -13 6.48 3.41
-15 -13 -5 4.4 3.02
-5 -15 -13 6.77 2.94
-15 -13 -5 2.06 2.64
5 -15 13 4.74 3.02
-5 15 13 13.48 2.85
-5 15 13 4.82 2.78
-15 13 5 1.99 2.52
-15 13 5 7.39 3.02
15 -13 5 2.97 2.63
-15 -13 -5 5.8 3.32
15 -13 5 14.3 4.19
-13 5 15 7.82 2.82
15 13 -5 7.87 2.83
15 13 -5 7.46 3.21
-5 -15 -13 8.13 2.67
-13 -5 -15 5.06 2.8
15 13 5 -1.96 3.53
5 15 13 5.4 3.49
5 15 13 7.04 3.12
13 5 15 4.34 4.01
15 -13 -5 7.95 3.23
13 -5 -15 4.34 2.94
5 -15 -13 8.54 3.7
-5 15 -13 5.98 2.8
5 15 13 7.34 2.61
-15 -13 5 4.53 2.89
-15 -13 5 7.27 4.34
-15 13 -5 4.28 2.69
-15 13 -5 5.16 3.2
-15 13 -5 5.93 3.18
5 -15 -13 6.65 3.38
5 -15 -13 7.5 2.39
13 5 15 10.05 2.42
-5 -15 13 4.27 3.27
13 -5 -15 4.94 3.16
-13 -5 15 -0.45 4.47
-13 5 -15 6.26 2.97
-13 5 -15 10.38 3.57
-13 5 -15 0.76 2.99
5 15 13 8.56 2.96
13 5 15 7.14 3.48
13 -5 -15 4.26 2.87
15 -13 -5 1.75 4
15 13 5 1.28 3.13
-5 15 -13 4.76 3.29
-5 15 -13 7 2.79
-5 -15 13 3.28 2.85
-5 -15 13 7.27 4.31
15 -13 -5 4.83 2.86
-15 -1 -7 6.14 2.49
7 15 -1 14.7 2.6
-1 7 15 8.74 3.63
-1 7 15 14.81 3.21
7 -15 1 14.7 3.9
-15 1 7 11.43 2.94
-15 1 7 12.04 2.61
-15 1 7 13.6 2.8
-1 7 15 12.02 2.57
-1 7 15 14.27 2.49
-15 1 7 13.45 3.8
7 15 -1 3.98 3.02
-7 -15 -1 13.74 3.1
-7 -15 -1 7.21 2.4
-7 -15 -1 1.23 2.7
-15 -1 -7 -1.07 3.11
15 1 -7 10.86 2.92
-7 15 1 4.43 2.05
-7 15 1 11.88 2.69
-7 15 1 12.17 2.85
-7 15 1 9.26 2.69
-7 15 1 8.82 3.05
-1 -7 -15 15.41 3.01
-1 -7 -15 17.23 2.93
-1 -7 -15 10.07 2.8
1 7 -15 0.97 3.31
15 1 -7 12.44 2.83
-15 1 7 6.52 2.46
7 -15 1 6.11 2.49
7 -15 1 13.67 3.03
-15 -1 -7 13.31 3.53
1 -7 15 7.36 2.36
1 -7 15 12.34 2.88
1 -7 15 11.95 2.78
-15 1 7 14.97 3.46
-7 -15 -1 13.2 3.58
-15 -1 -7 11.82 3.32
1 7 -15 5.05 2.83
7 15 -1 11.95 2.46
1 7 -15 6.7 2.91
15 -1 7 8.95 2.31
15 -1 7 8.56 2.84
15 -1 7 13.97 3.45
15 -1 7 11.01 3.64
-1 7 15 10.23 3.12
1 7 -15 11.46 2.68
-1 -7 15 12.4 2.83
15 1 7 5.16 2.52
-15 -1 7 9.98 3.26
15 1 7 7.94 3.31
15 1 7 11.01 3.68
-15 -1 7 12.08 3.88
-7 15 -1 14.71 2.78
-7 15 -1 8.75 1.93
-1 7 -15 11.12 2.77
15 -1 -7 8.18 2.93
-1 -7 15 2.36 2.66
1 7 15 13.72 2.5
1 7 15 14.72 2.54
1 7 15 12.52 3.01
15 1 7 9.43 2.84
7 -15 -1 13.21 2.92
7 -15 -1 13.34 3.78
-1 7 -15 11.05 2.72
1 -7 -15 14.46 2.72
1 -7 -15 14.52 3.1
-7 15 -1 13.06 2.72
-15 1 -7 3.19 2.22
-15 1 -7 -2.12 3.12
-15 1 -7 7.95 3.33
7 15 1 12.87 2.42
7 15 1 9.83 2.61
7 15 1 3.86 3.05
7 15 1 10.05 3.02
15 -1 -7 10.98 3.14
15 -1 -7 11.18 2.72
-15 1 -7 8.19 3.36
1 -7 -15 11.7 2.76
-1 -7 15 0.4 4.31
1 7 15 14.18 3.52
-7 -15 1 13.27 3.11
-7 -15 1 0.88 2.67
-7 -15 1 14.1 3.63
-1 -7 15 1.64 3.53
-15 -1 7 10.03 2.65
-15 -1 7 16.48 2.8
-15 -1 7 5.88 2.25
-15 -1 7 8.52 2.93
-7 15 -1 10.29 2.98
-1 7 -15 6.67 2.48
-7 15 -1 11.28 2.78
-3 7 15 21.63 3.61
-3 7 15 15.29 3.19
-3 7 15 8.72 3.86
-15 3 7 14.28 3.56
-15 3 7 20.49 4.06
-15 3 7 8.34 2.61
7 15 -3 17.7 2.82
7 15 -3 9.39 3.1
7 15 -3 14.65 3.54
-7 -15 -3 15.96 3.29
-7 -15 -3 12 2.67
-7 -15 -3 10.1 3.06
-15 3 7 12.74 3.06
-15 3 7 5.9 2.76
-15 -3 -7 16.9 2.88
-7 15 3 5.46 3.14
7 -15 3 15.09 3.21
7 -15 3 18.93 3.39
7 -15 3 16.5 4.12
-7 15 3 10 2.34
3 -7 15 7.55 4.5
3 7 -15 8.65 3.01
-15 -3 -7 8.37 3.06
-15 -3 -7 11.65 3.41
-15 -3 -7 12.06 3.47
3 7 -15 13.73 2.95
3 7 -15 14.58 2.83
-15 3 7 12.86 2.95
-3 7 15 16.17 2.56
-7 15 3 13.96 2.93
3 -7 15 16.37 3.1
3 7 -15 9.69 3.28
-7 -15 -3 9.73 2.68
-7 -15 -3 11.46 3.49
-3 -7 -15 20.42 3.17
-15 3 7 8.46 2.49
3 -7 15 6.71 4
15 -3 7 17.81 2.37
15 -3 7 10.47 3
7 15 -3 17.07 2.7
15 -3 7 12.4 3.87
15 3 -7 14.29 2.92
-3 7 15 13.63 2.68
15 3 -7 16.88 3.31
-3 -7 -15 18.94 3.11
3 -7 15 15.02 2.37
-3 -7 -15 12.84 2.92
3 -7 15 18.24 3.23
15 3 -7 14.53 3.4
-7 15 3 15.88 3.05
-7 15 3 14.56 2.9
15 -3 7 16.93 3.68
-3 7 -15 18.04 2.98
-3 7 -15 3.37 3.21
-15 3 -7 6.76 2.27
7 15 3 14.52 2.69
-7 15 -3 14.97 2.94
15 3 7 11.53 3.2
15 3 7 14.28 3.83
-7 15 -3 15.54 3.56
-15 3 -7 8.67 3.21
7 -15 -3 21.09 3.23
-7 -15 3 13.2 2.95
3 7 15 16.64 3.55
3 7 15 20.92 3.6
3 7 15 18.52 3.11
7 15 3 5.68 2.93
7 15 3 15.33 3.18
15 -3 -7 18.53 3.37
15 -3 -7 16.21 3
-3 7 -15 17.51 2.59
-15 -3 7 16.22 3.33
-15 -3 7 14.52 3.07
-7 -15 3 17.91 3.3
3 7 15 19.83 2.78
3 7 15 20.31 2.88
-15 3 -7 12.66 3.35
-7 -15 3 19.55 2.74
7 -15 -3 8.26 3.17
-15 -3 7 11.81 4.07
-7 -15 3 12.64 3.9
3 -7 -15 19.61 3.42
7 15 3 14.5 3.11
-3 7 -15 4.67 3.47
-3 -7 15 12.63 2.93
-3 -7 15 13.29 3.54
-3 -7 15 15.11 4.48
-7 15 -3 13.54 3.01
7 -15 -3 5.66 3.61
-3 7 -15 19.92 3.01
3 -7 -15 18.86 2.93
3 -7 -15 14.51 2.91
7 15 3 11.65 3.15
-15 -3 7 10.41 2.77
-15 -3 7 12.48 2.8
-15 3 -7 11.06 3.5
-15 5 7 3.38 2.27
-7 15 5 4.77 2.18
-7 15 5 10.33 2.62
-7 15 5 7.52 2.62
15 -5 7 5.04 2.64
-5 -7 -15 8.72 2.67
-5 -7 -15 8.51 2.67
-5 -7 -15 8.94 2.58
-5 -7 -15 3.96 2.75
-15 5 7 4.78 2.81
5 -7 15 1.67 3.78
-15 5 7 2.52 2.34
-5 7 15 8.52 2.55
-15 5 7 6.01 2.71
-15 -5 -7 4.56 3.17
15 -5 7 2.24 3.46
-7 15 5 2.29 3
-5 7 15 7.11 2.34
-5 7 15 7.12 2.81
-5 7 15 4.19 3.61
-5 7 15 9.22 3.25
-7 -15 -5 8.69 2.8
-7 -15 -5 4.52 2.41
7 -15 5 6.97 3.86
-15 -5 -7 5.87 2.97
-7 -15 -5 7.6 2.63
7 15 -5 5.2 2.79
7 15 -5 0.36 3.36
15 5 -7 5.34 2.6
-15 -5 -7 4.94 2.95
-15 5 7 6.45 2.93
7 15 -5 8.33 2.25
-7 -15 -5 4.86 2.38
-7 -15 -5 6.05 3.13
7 -15 5 5.71 3.11
-7 -15 -5 7.32 2.96
7 -15 5 5.4 2.74
5 -7 15 7.54 2.77
5 -7 15 2.63 3.74
-15 5 7 7.88 3.36
5 7 -15 6.71 2.85
5 7 -15 6.42 2.71
5 7 -15 4.18 3.14
-15 -5 -7 9.43 2.71
7 15 -5 6.73 2.58
-15 5 7 8.02 2.1
15 5 -7 4.38 2.89
15 5 -7 4.88 3.12
7 15 5 4.47 2.71
7 15 5 4.86 2.91
7 15 5 7.51 2.37
7 15 5 6.26 2.85
-5 7 -15 1.43 3.13
-5 -7 15 7.37 2.81
5 7 15 7.88 2.53
-5 -7 15 4.75 2.59
5 -7 -15 7.97 2.61
-15 -5 7 0.36 2.63
-15 -5 7 8.34 3.71
-7 -15 5 8.09 2.51
-7 -15 5 3.66 3.93
-5 7 -15 5.1 3.13
-5 7 -15 7.52 2.56
-5 7 -15 6.75 2.81
15 -5 -7 6.78 2.56
5 7 15 7.75 2.27
15 5 7 8.62 2.46
15 5 7 7.53 3.37
7 -15 -5 7.96 2.69
-15 5 -7 6.73 2.92
-15 5 -7 3.85 2.97
-15 5 -7 4.79 3.1
-15 -5 7 7.57 3.05
-15 -5 7 6.35 2.96
-15 -5 7 4.94 2.54
5 7 15 7.26 2.8
-7 -15 5 7.59 2.63
-15 5 -7 2.1 2.46
-5 -7 15 8.39 4.2
-7 15 -5 6.58 3.14
-7 -15 5 6.35 2.73
15 -5 -7 5.77 2.99
5 7 15 5.53 3.1
7 -15 -5 8.44 2.99
7 -15 -5 3.45 3.32
5 -7 -15 7.12 2.58
5 -7 -15 8.86 2.88
-7 15 -5 7.81 2.61
-7 15 -5 7.87 2.79
15 5 7 6.92 3.5
-7 15 7 11.59 2.63
-15 7 7 1.86 2.51
-7 -15 -7 5.2 2.52
-15 7 7 6.63 2.91
-7 7 15 4.33 2.67
7 -15 7 6.98 4.1
7 -15 7 6.66 2.65
-7 -15 -7 8.21 2.64
-7 15 7 6.23 2.33
-7 -15 -7 6.48 2.46
15 7 -7 8.56 2.94
-7 -15 -7 10.36 2.87
7 7 -15 6.48 2.65
7 7 -15 7.98 3.11
-7 7 15 7.03 2.17
-7 7 15 7.72 2.82
-7 15 7 3.89 2.55
-15 -7 -7 5.96 2.68
-15 -7 -7 10.22 3.15
-15 -7 -7 6.57 2.71
-15 -7 -7 5.88 3.1
-7 -7 -15 8.03 2.76
7 -7 15 2.13 4.02
-7 15 7 4.71 3.01
-7 -7 -15 9.05 2.89
15 -7 7 8.89 3.62
15 -7 7 11.21 3.39
7 -15 7 7.76 2.87
-7 7 15 5.27 3.75
-7 7 15 6.92 3.34
7 15 -7 7.48 2.17
7 15 -7 4.38 2.58
7 15 -7 5.89 2.83
7 15 -7 2.54 3.37
-15 7 7 4.5 2.79
-15 7 7 5.47 2.46
15 7 -7 5.84 2.86
-15 7 7 3.08 3.23
-7 -15 -7 7.41 2.91
7 7 -15 5.29 2.91
15 7 -7 5.89 2.63
15 -7 7 6.31 2.64
7 -15 7 6.52 3.21
-15 -7 -7 2.77 2.93
-7 -7 -15 5.53 2.63
-15 7 7 6.35 2.64
-15 7 7 11.35 2.16
7 -7 15 6.9 2.68
7 -7 15 4.05 3.68
-7 -7 -15 5.79 2.86
-15 -7 7 6.86 3.09
-15 7 -7 5.19 3.04
7 -15 -7 4.8 3.09
7 7 15 10.86 2.61
7 7 15 9.16 3.02
7 -15 -7 3.49 3.42
7 -7 -15 5.44 2.99
7 -7 -15 6.47 2.56
7 -7 -15 8.52 2.72
7 7 15 4.71 3.45
-7 15 -7 8.75 2.36
-7 15 -7 5.89 3.06
7 15 7 6.31 2.38
-15 7 -7 7.95 3.21
-15 7 -7 3.25 2.7
7 -15 -7 3.99 2.16
-15 -7 7 5.49 2.63
-7 -15 7 3.86 2.72
-7 -15 7 6.33 2.66
7 -15 -7 10.17 2.9
-7 -15 7 2.9 3.94
7 15 7 5.55 2.88
-7 15 -7 7.19 2.88
-15 -7 7 7.66 2.98
15 -7 -7 4.95 2.96
15 -7 -7 6.25 2.51
-15 -7 7 3.36 2.58
15 -7 -7 1.99 3.6
-7 15 -7 6.99 2.68
-7 -7 15 4.6 2.93
-7 -7 15 3.34 2.44
-7 -7 15 7.92 4.17
-7 7 -15 7.05 2.79
-7 7 -15 7.05 2.89
15 7 7 10.6 2.55
15 7 7 5.03 3.17
15 7 7 6.31 3.61
-7 7 -15 -1.23 3.16
-7 7 -15 0.38 3.06
-7 -15 7 5.9 2.5
7 7 15 8.65 2.44
-15 -7 7 11.26 3.88
-15 7 -7 9.16 2.91
-7 7 -15 6.04 2.8
-15 7 -7 7.78 3.04
7 15 7 4.02 2.94
7 15 7 6.7 2.87
-15 9 7 -3.45 3.04
-15 9 7 -1.22 2.6
-9 7 15 2.14 2.63
-15 9 7 1.46 2.54
-15 9 7 -0.28 2.51
7 -15 9 -1.62 4.08
7 15 -9 -3.38 1.85
7 15 -9 0.29 2.36
7 15 -9 -1.73 2.73
-7 -15 -9 1.14 2.87
-7 -15 -9 1.32 2.67
-7 -15 -9 -0.46 2.31
-7 -15 -9 0.89 2.57
-7 -15 -9 1.23 2.44
-9 -7 -15 1.32 2.42
-9 7 15 0.76 2.05
-15 -9 -7 2.38 2.71
-15 -9 -7 -0.49 2.98
15 -9 7 0.3 2.48
15 -9 7 0.85 3.39
15 -9 7 1.58 3.41
15 9 -7 -0.19 2.39
15 9 -7 -2.28 2.95
15 9 -7 1.25 2.35
9 7 -15 1.19 2.74
-7 15 9 -1.51 2.4
9 7 -15 0.07 2.62
-7 15 9 2.88 2.4
-15 9 7 0.62 2.45
-15 9 7 -0.88 2.7
7 -15 9 1.54 2.52
-9 7 15 -1.87 3.59
7 15 -9 -5.28 3.16
-15 -9 -7 -0.56 2.62
-9 -7 -15 -0.56 2.66
9 -7 15 -1.28 4.05
-7 15 9 -0.03 2.07
-9 -7 -15 3.6 2.89
9 -7 15 -4.32 3.57
7 -15 9 1.05 3.41
-15 -9 -7 1.27 2.66
-9 7 -15 0.86 2.97
9 7 15 0.46 2.43
-7 -15 9 2.56 2.35
-9 7 -15 -6.79 2.87
7 15 9 -2.65 2.84
-7 15 -9 0.28 2.48
-7 15 -9 0.89 2.8
9 7 15 -2.17 2.95
7 -15 -9 0.5 2.28
7 15 9 -2.39 2.85
-9 -7 15 1.32 2.8
-9 -7 15 -4.44 4
9 7 15 0.8 3.54
-7 -15 9 -1.89 2.52
7 -15 -9 -0.07 3.06
-15 9 -7 2.46 2.78
7 -15 -9 -2.45 3.32
-9 7 -15 -0.72 2.61
-7 -15 9 2.17 2.76
-9 7 -15 -1.93 2.83
9 -7 -15 -0.97 2.99
15 -9 -7 -0.22 2.94
15 -9 -7 -6.43 3.52
-7 -15 9 0.26 3.93
-7 15 -9 1.21 2.4
-15 -9 7 1.51 2.91
-15 -9 7 -0.36 2.53
-15 -9 7 2.5 3.91
-15 9 -7 3.57 2.7
15 9 7 1.75 2.86
9 -7 -15 -0.1 2.53
9 -7 -15 -1.25 2.44
9 7 15 1.38 2.25
15 9 7 4.25 2.38
-15 9 -7 3 3
15 9 7 -2.93 3.39
15 11 -7 -1.75 3.06
15 11 -7 -0.1 2.57
-15 -11 -7 0.53 2.66
7 15 -11 -1.65 2.91
-15 11 7 -1.75 2.48
11 7 -15 -1.29 2.79
-11 -7 -15 0.22 2.67
-11 -7 -15 2.83 2.83
-7 15 11 0.28 2.65
7 15 -11 -2.43 2.44
-7 15 11 2.47 2.51
-11 7 15 -0.23 2.02
-11 -7 -15 -1.51 2.77
11 -7 15 1.07 3.65
11 -7 15 5.44 4.02
-15 11 7 -5.17 2.69
-11 7 15 0.12 2.68
-11 7 15 -1.29 3.82
-7 -15 -11 -2.26 2.74
-7 -15 -11 -0.28 2.76
-7 -15 -11 2.06 2.69
-7 -15 -11 -0.02 2.45
15 -11 7 -1.05 1.84
15 11 -7 -3.09 2.05
15 -11 7 -0.11 3.74
-15 -11 -7 4.28 2.84
-15 -11 -7 3.29 3.16
-15 11 7 -1.26 2.58
7 -15 11 0.91 2.73
7 -15 11 0.07 3.67
7 -15 11 -1.33 4.35
15 -11 7 1.92 3.49
-15 11 -7 10.31 2.87
7 -15 -11 -0.49 3.27
-7 -15 11 0.08 4.03
-11 -7 15 -4.36 4.09
15 11 7 -4.23 3.49
-11 7 -15 0.46 3.16
-11 7 -15 -0.22 2.97
-11 7 -15 -8.73 2.91
15 11 7 -0.34 2.91
11 -7 -15 2.68 2.62
-7 15 -11 1.93 2.53
-7 15 -11 0.85 2.61
15 -11 -7 -1.8 3.13
-15 11 -7 2.15 2.95
-7 -15 11 -0.07 3.02
-7 15 -11 2.81 2.92
-15 11 -7 -2.87 3
-7 -15 11 -5.76 2.57
11 -7 -15 2.52 2.67
-15 -11 7 -0.14 2.87
15 -11 -7 -5.14 3.53
11 7 15 -2.35 3.84
11 7 15 1.59 2.38
11 7 15 -2.12 3.22
-15 -11 7 1.22 2.66
7 15 11 -1.19 2.88
-11 7 -15 -1.08 2.7
7 15 11 -3.48 2.97
7 -15 -11 1.46 3.17
7 -15 -11 -0.25 2.21
-15 -11 7 -3.08 4.08
11 -7 -15 -1.54 2.98
7 -15 13 0.08 2.95
-15 -13 -7 3.79 2.99
-15 -13 -7 1.78 3.32
-15 -13 -7 1.8 2.7
-15 13 7 -3.91 2.84
7 -15 13 -0.73 3.79
15 13 -7 0.36 2.33
-7 15 13 2.19 2.81
-13 7 15 -0.62 4
-7 -15 -13 -1.07 2.83
-7 -15 -13 1.96 2.96
-7 -15 -13 2.22 2.8
15 13 -7 3.9 3.29
-13 7 15 -2.52 2.08
-13 7 15 3.88 2.84
15 -13 7 1.82 3.54
-15 13 7 -0.68 2.49
7 15 -13 0.63 3.09
-7 15 13 7.5 2.65
-13 -7 -15 -0.73 2.71
13 -7 15 -1.72 3.69
15 -13 7 0.82 4.17
15 13 -7 3.42 2.71
-13 -7 -15 3.52 3.08
-15 13 7 1.27 2.74
7 15 -13 0.52 2.82
13 7 -15 0.31 2.77
7 -15 13 3.88 4.47
13 -7 15 3.05 4.21
15 -13 7 2.71 2.71
-13 7 -15 -7.03 3.02
15 13 7 3.75 3.26
-15 13 -7 -1.75 3.07
13 7 15 3.04 2.66
-15 -13 7 0.27 4.45
-15 13 -7 10.63 2.8
7 -15 -13 2.49 3.41
-7 -15 13 4.32 3.21
-7 -15 13 1.74 2.67
-13 7 -15 3.46 3.48
-7 -15 13 7.46 3.42
13 7 15 -1.34 3.97
15 -13 -7 -0.76 3.3
15 -13 -7 -4.58 3.63
-7 -15 13 -1.74 4.24
-15 -13 7 0.67 3.03
13 -7 -15 3.17 2.71
13 7 15 1.34 3.49
7 15 13 4.74 3.43
13 -7 -15 0.94 3.15
15 13 7 -1.9 3.74
-13 -7 15 -6.78 4.54
-13 7 -15 2.68 2.91
7 -15 -13 1.85 3.61
-7 15 -13 4.16 2.72
-7 15 -13 1.3 2.73
7 15 13 2.24 3.15
-15 1 9 1.07 2.76
1 -9 15 0.73 4.19
-9 -15 -1 -0.27 2.15
-15 1 9 -0.35 2.18
-9 -15 -1 1.55 2.72
-1 -9 -15 3.93 2.71
1 9 -15 2.79 2.34
1 -9 15 2.81 3.37
-15 -1 -9 7.85 2.19
-15 -1 -9 0.19 2.86
-15 -1 -9 3.55 3.25
-9 -15 -1 -2.78 3.26
1 -9 15 1.43 2.63
9 15 -1 2.73 2.28
-15 -1 -9 0.1 3.23
-15 1 9 1.04 2.26
-15 1 9 2.27 3.54
1 9 -15 1.46 2.41
1 9 -15 3.03 2.29
1 9 -15 0.23 2.64
1 9 -15 1.21 3.08
-1 9 15 0.63 2.14
-1 9 15 2.21 2.11
-1 9 15 -0.05 2.8
-1 9 15 0.84 3.44
-1 9 15 0.69 2.91
9 -15 1 -0.31 2.6
9 -15 1 3.36 3.57
-15 1 9 0.35 3.15
-15 1 9 -2.12 2.31
-15 1 9 3.84 2.34
1 -9 15 1.32 2.13
1 -9 15 2.37 2.54
-1 -9 -15 1.13 2.44
-9 15 1 1.41 1.73
15 -1 9 2.51 3.22
15 -1 9 -1.1 3.44
-9 -15 -1 1.16 2.44
15 -1 9 0.94 2.49
15 1 -9 3.19 2.88
15 1 -9 0.6 2.59
-9 15 1 2.26 2.56
-9 15 1 0.1 2.6
-9 15 1 1.5 2.37
-9 15 1 2.06 2.75
-1 -9 -15 -0.57 2.46
15 -1 9 2.38 2.12
15 1 -9 1.9 2.63
9 -15 1 1.36 2.38
9 15 -1 4.18 2.48
9 15 -1 0.49 2.61
9 15 -1 -1.64 3.04
9 15 1 -0.19 2.15
9 15 1 1.49 2.38
-1 9 -15 2.55 2.46
-1 -9 15 3.07 2.53
-1 -9 15 2.64 2.45
9 -15 -1 1.75 2.68
-15 1 -9 4.54 3.16
-15 1 -9 0.37 3.13
-15 -1 9 2.82 2.7
-1 9 -15 1.41 2.32
-1 9 -15 -0.15 3.08
9 -15 -1 1.69 3.27
15 1 9 6.91 2.23
15 1 9 0.13 2.59
-9 -15 1 0.17 2.59
15 1 9 0.1 3.54
-1 -9 15 4.22 2.42
15 1 9 4.75 3.13
-1 -9 15 -0.06 4.07
-15 -1 9 2.59 2.46
1 -9 -15 1.9 2.63
1 -9 -15 1.47 2.49
1 -9 -15 3.05 2.4
-1 9 -15 1.97 2.28
1 9 15 3.28 2.15
15 -1 -9 -0.11 2.58
-9 -15 1 4.83 2.31
-9 -15 1 0.83 2.53
-9 -15 1 0.13 3.33
-9 15 -1 2.02 2.57
-9 15 -1 1.95 2.36
-9 15 -1 2.98 2.78
9 15 1 3.3 2.64
9 15 1 -1.33 2.92
15 -1 -9 -2.13 2.78
1 9 15 0.39 2.8
1 9 15 3.99 3.29
9 -15 -1 1.55 2.53
-15 -1 9 0.83 3.68
1 9 15 1.76 2.23
-15 1 -9 2.17 2.71
-15 -1 9 8.4 2.33
-15 1 -9 5.64 1.98
-1 -9 15 -1.9 3.41
9 -15 3 3.05 3.78
-9 15 3 3.21 2.56
9 15 -3 0.41 2.34
-3 -9 -15 1.84 2.61
3 9 -15 2.9 2.47
-9 15 3 2.48 2.01
3 -9 15 1.07 3.81
9 15 -3 3.96 2.09
-9 15 3 2.75 2.52
-15 3 9 2.12 2.12
-15 3 9 3.43 2.34
-9 15 3 4.38 2.64
3 9 -15 3.08 2.39
-15 -3 -9 1.61 3.06
-15 -3 -9 2.31 3.03
-3 9 15 2.47 2.26
-3 9 15 1.07 2.04
-3 9 15 2.6 2.71
-3 9 15 3.96 3.6
-3 9 15 4.54 3.13
-9 -15 -3 3.95 2.56
3 -9 15 3.11 2.74
3 9 -15 4.06 2.62
-3 -9 -15 4.91 2.71
3 -9 15 3.08 2.68
-15 3 9 4.26 2.62
-15 3 9 2.29 3.69
15 3 -9 2.73 2.73
15 3 -9 2.59 2.85
15 -3 9 2.76 2.57
15 -3 9 5.08 3.19
15 -3 9 -1.52 3.5
3 -9 15 0.43 3.53
-15 3 9 2.69 3.3
9 -15 3 -0.1 2.7
-15 3 9 -2.75 2.11
-3 -9 -15 -0.97 2.15
-3 -9 -15 1.54 2.59
3 9 -15 1.75 2.93
-15 -3 -9 4.7 2.82
-9 15 3 3.51 2.76
15 3 -9 2.96 2.66
9 -15 3 2.59 2.88
-15 -3 -9 6.91 2.37
-9 -15 -3 3.97 2.88
-9 -15 -3 0.02 0.95
9 15 -3 3.85 2.69
9 15 -3 -7.36 2.54
3 9 15 2.06 3.18
9 15 3 1.22 2.74
-9 -15 3 3.54 2.45
-9 -15 3 4.54 2.47
-9 -15 3 3.67 3.64
-9 -15 3 2.88 2.75
-9 15 -3 1.77 2.8
-3 -9 15 3.62 2.58
9 15 3 1.68 2.76
15 -3 -9 1.5 3.02
-3 9 -15 3.13 2.38
3 9 15 2.48 2.65
9 -15 -3 3.06 2.75
9 -15 -3 2.32 2.51
9 -15 -3 3.85 3.35
-3 -9 15 5.49 2.44
3 9 15 2.88 2.1
-15 3 -9 2.09 2.86
3 -9 -15 3.37 2.89
3 -9 -15 1.17 2.39
15 -3 -9 4.97 2.58
-15 -3 9 4.79 3.93
-3 9 -15 -0.94 2.92
-15 -3 9 0.26 2.73
-15 3 -9 -3.1 3.13
15 3 9 6.67 1.88
15 3 9 4.28 2.62
-15 -3 9 1.09 2.23
3 9 15 1.75 2.91
9 15 3 1.05 2.17
-15 3 -9 2.99 2.94
-9 15 -3 3.67 2.61
-9 15 -3 2.51 2.52
3 9 15 6.87 2.36
-3 -9 15 4.28 2.44
15 3 9 0.16 2.9
15 3 9 1.25 3.63
-15 -3 9 1.41 2.44
-3 9 -15 1.06 3.09
-3 -9 15 3.6 4.21
-3 -9 15 3.85 3.22
-3 9 -15 5.78 2.56
-5 9 15 -1.4 2.22
-5 9 15 0.02 2.73
-5 9 15 -0.19 3.55
-5 9 15 1.6 3.1
-9 -15 -5 -4.85 2.85
9 -15 5 0.79 3.12
15 5 -9 1.14 2.97
15 5 -9 2.15 2.71
9 -15 5 -0.31 2.85
9 15 -5 -1.13 2.56
-15 5 9 0.91 2.54
-9 -15 -5 1.34 2.23
-15 -5 -9 1.99 2.97
-15 -5 -9 -0.26 2.41
15 5 -9 -0.37 2.6
9 -15 5 0.4 3.88
9 15 -5 2.64 1.98
-15 5 9 -1.59 1.85
15 -5 9 0.46 2.48
-9 15 5 -0.66 2.01
-9 15 5 4.11 2.47
-9 15 5 2.11 2.61
-9 15 5 -2.74 2.52
-9 15 5 0.75 3.07
-5 -9 -15 3.28 2.44
-5 -9 -15 3.32 2.66
-5 -9 -15 -2.03 2.25
-5 -9 -15 -1.47 2.46
-9 -15 -5 -1.28 1.1
5 -9 15 0.5 2.65
5 -9 15 -5.59 2.91
5 -9 15 -5.43 3.62
5 -9 15 -5.74 4.07
-15 -5 -9 0.86 2.93
5 9 -15 -0.3 2.34
5 9 -15 2.26 3.03
-15 5 9 -0.34 3.12
-15 -5 -9 -0.71 2.7
15 -5 9 -2.54 3.61
-9 -15 -5 -3.67 2.55
-15 5 9 -6.38 3.83
9 15 -5 -2.14 2.67
9 15 -5 -3.78 3.12
5 9 -15 0.78 2.34
-15 5 9 1.71 2.12
-15 5 9 2.24 2.27
-9 -15 -5 1 2.67
-15 -5 9 -0.67 2.37
-9 -15 5 1.23 2.29
-15 5 -9 0.4 2.97
-5 -9 15 2.21 4.02
-15 5 -9 -0.33 3.25
15 5 9 0.9 3.24
15 5 9 1.25 3.71
-15 5 -9 -6.16 2.74
-5 9 -15 -6.93 2.96
-9 -15 5 0.72 2.56
-9 -15 5 1.83 2.39
5 -9 -15 -2.19 2.87
5 -9 -15 0.28 2.37
15 -5 -9 0.75 2.84
15 -5 -9 -0.37 2.41
-9 15 -5 4.23 2.93
9 -15 -5 0.96 2.5
-9 15 -5 0.91 2.7
-9 -15 5 -5.97 3.72
-5 -9 15 1.82 2.54
-5 9 -15 -5.89 3.07
-15 5 -9 -3.95 3.02
-5 9 -15 3.03 2.42
-5 9 -15 -0.99 2.62
9 -15 -5 -0.16 3.23
-15 -5 9 5.39 3.07
-15 -5 9 -1.95 2.76
5 9 15 2.12 2.07
-15 -5 9 -0.07 3.61
15 5 9 4.44 2.46
15 5 9 -2.61 2.51
-9 15 -5 2.17 2.68
9 15 5 1.22 2.25
9 15 5 -7.27 2.7
5 9 15 -1.71 3.15
-5 -9 15 -3.2 2.66
5 9 15 -4 2.59
9 -15 -5 -3.48 2.81
5 9 15 5.13 2.38
9 15 5 -0.03 2.65
-15 7 9 3.81 1.85
-15 7 9 -0.44 2.54
-15 -7 -9 0.98 2.68
-15 -7 -9 1.45 2.87
-15 -7 -9 0.02 2.82
15 -7 9 2.83 2.48
15 -7 9 -2.65 3.45
-15 7 9 1.04 2.76
-9 -15 -7 0.5 2.25
15 -7 9 -0.56 3.35
-15 7 9 1.03 2.38
-9 -15 -7 -0.44 2.81
-9 15 7 1.94 2.19
-15 7 9 2.5 2.42
-9 15 7 -0.57 2.5
-7 -9 -15 1.26 2.54
-7 -9 -15 0.54 2.73
-7 -9 -15 0.82 1.69
9 15 -7 -4.72 3.04
-9 -15 -7 0.42 2.25
9 -15 7 2.65 2.35
-9 -15 -7 -1.34 2.6
-15 7 9 0.56 2.54
9 -15 7 -1.86 3.98
-7 9 15 1.82 2.57
-7 9 15 3.22 3.7
9 15 -7 1.02 2.81
9 -15 7 2.18 3.21
7 -9 15 2.05 2.72
7 -9 15 0.31 3.47
7 -9 15 -2.98 4.27
7 9 -15 0.48 2.48
9 15 -7 0.58 2.58
15 7 -9 -0.46 3.01
-9 -15 -7 2.28 2.87
-9 15 7 3.28 2.45
15 7 -9 0.81 2.81
9 15 -7 1.28 1.98
15 7 -9 0.87 2.55
-9 15 -7 0.88 2.64
9 -15 -7 1.55 3.04
7 9 15 2.54 2.48
15 7 9 3.72 2.36
15 7 9 -0.6 3.04
15 7 9 1.27 3.52
-7 -9 15 -2.69 4.2
-7 9 -15 -0.91 2.67
-7 9 -15 2.43 2.83
-9 15 -7 1.66 2.85
-9 15 -7 2.68 3
7 9 15 -1.64 2.72
7 9 15 -3.52 3.23
-7 9 -15 -8 2.95
9 -15 -7 0.25 1
7 9 15 1.73 2.18
7 -9 -15 -4.13 2.67
-7 -9 15 0.34 2.74
9 15 7 0.59 2.91
9 15 7 -0.08 2.88
15 -7 -9 4.24 3.04
15 -7 -9 0.57 2.45
-15 -7 9 1.76 2.9
-15 -7 9 -2.29 2.34
9 -15 -7 -1.18 3.22
-15 7 -9 1.37 3.08
7 -9 -15 1.65 2.64
-15 -7 9 2.55 3.91
-15 7 -9 3.6 2.5
-7 9 -15 -4.21 2.95
-9 -15 7 -1.8 2.67
-9 -15 7 -2.83 2.62
-9 -15 7 2.93 2.39
-9 -15 7 2.24 3.89
-9 15 -7 1.82 2.22
-15 7 -9 1.67 2.86
15 -9 9 0.46 3.54
-9 -9 -15 0.38 2.52
-9 -9 -15 -1.43 2.84
15 9 -9 -1.02 3.03
-15 9 9 1.36 2.64
-15 9 9 -2.13 2.55
-15 9 9 0.6 2.64
-9 9 15 -2.17 2.76
-9 9 15 -3.38 3.79
-15 -9 -9 -1.49 2.71
9 -15 9 -0.55 2.49
-9 15 9 1.69 2.34
-9 15 9 6.33 2.49
-9 15 9 1.07 2.56
15 -9 9 0.06 2.59
9 15 -9 -5.64 3.24
15 -9 9 2.38 3.74
15 9 -9 0 2.64
9 -15 9 0.21 3.53
9 -15 9 -4.22 4.19
-9 -15 -9 -4.98 2.45
9 15 -9 -4.37 1.95
9 -9 15 -4.25 4.08
9 9 -15 -0.58 2.71
15 9 -9 -1.44 2.94
-15 9 9 -2.86 2.46
-15 -9 -9 -0.34 2.72
9 -9 15 -0.49 3.58
-9 -15 -9 -1.45 2.97
9 15 -9 -1.65 2.68
9 15 -9 -1.09 2.91
-15 -9 -9 -0.97 2.72
-9 -15 -9 -3 2.47
-9 -9 -15 -1.51 2.7
-9 -15 -9 0.72 2.78
-15 9 9 -3.3 2.73
9 15 9 -1.61 2.91
-15 9 -9 -1.17 2.98
9 -15 -9 0.08 3.42
-9 -15 9 -1.05 3.9
9 9 15 2.5 2.34
-9 -9 15 -2.98 4.34
9 9 15 1.5 2.48
15 9 9 -1.41 2.91
15 9 9 0.14 3.65
-15 9 -9 2.91 2.65
15 -9 -9 -0.5 3.01
9 -15 -9 -0.56 2.3
9 9 15 2.16 3.02
9 15 9 -1.62 3.11
-15 -9 9 0.38 2.5
-15 -9 9 -0.96 4.13
-15 9 -9 3.81 2.93
15 -9 -9 -3.01 3.7
-9 9 -15 -1.35 2.8
-9 9 -15 0.17 2.82
9 9 15 -1.96 3.48
9 -9 -15 -2.72 3.03
9 -15 -9 -2.34 3.11
-9 15 -9 1.58 2.36
-9 15 -9 0.49 2.75
-9 -15 9 5.56 2.92
-9 9 -15 -9.59 3.1
-15 -9 9 0.21 3.22
15 9 9 -0.28 2.25
-9 -9 15 2.66 2.89
-9 -15 9 0 2.34
11 -9 15 0.57 3.78
11 -9 15 1.81 4.21
-15 -11 -9 1.15 2.95
-15 11 9 -0.79 2.55
-9 -15 -11 -0.64 2.68
15 11 -9 -3.52 3.08
15 11 -9 -2.56 3.16
15 -11 9 1.11 4.16
11 9 -15 -0.39 2.65
-9 -15 -11 -0.42 2.88
-11 -9 -15 0.17 2.86
-11 -9 -15 0.38 2.83
-11 9 15 0.9 2.69
-11 9 15 3.51 4.06
-9 -15 -11 -2.19 2.93
15 -11 9 -1.24 2.7
15 -11 9 -1.48 3.57
-15 -11 -9 2.63 3.14
-15 -11 -9 -0.89 2.85
-9 15 11 3.49 2.52
-9 15 11 -0.18 2.51
9 15 -11 1.11 2.58
9 15 -11 -2.59 2.98
-15 11 9 1.49 2.61
-11 -9 -15 -0.18 2.66
9 -15 11 -1.71 3.69
15 11 -9 -0.64 2.72
9 -15 11 0.37 4.42
-15 11 -9 0.04 3.14
9 -15 -11 0.27 2.29
9 -15 -11 1.66 3.44
-9 15 -11 -2.86 2.77
9 -15 -11 -1.96 3.3
-15 11 -9 2.98 2.8
-9 -15 11 -0.03 2.46
9 15 11 -2.64 3.11
9 15 11 -4.37 3.36
11 -9 -15 -1.88 3.2
-15 -11 9 -2.74 2.62
-9 -15 11 2.06 4.3
-9 15 -11 -1.27 2.53
15 11 9 -0.56 3.78
11 9 15 0.46 3.2
-9 -15 11 3.65 3.23
15 -11 -9 -4.33 3.76
15 11 9 0.19 3.03
-11 -9 15 -1.42 3.23
-11 -9 15 -4.05 4.44
-11 9 -15 0.67 2.88
-11 9 -15 2.74 3.12
11 9 15 -3.76 3.71
15 -11 -9 -3.63 3.13
-15 -11 9 -0.89 3.22
-15 -11 9 -1.67 4.54
-15 11 -9 1.14 2.74
-15 13 9 0.01 2.84
9 -15 13 1.59 4.72
-9 -15 -13 2.33 3.06
-13 -9 -15 1.62 2.98
-15 13 9 -8.41 2.83
9 15 -13 1.23 3.28
15 -13 9 -0.77 3.84
15 13 -9 2.41 2.84
-15 -13 -9 1.7 3.19
-15 -13 -9 -2.23 3.24
-15 -13 -9 -1.76 2.87
9 15 -13 -0.49 2.73
-13 -9 -15 1.7 3.15
9 -15 13 -0.54 3.95
13 -9 15 1.67 4.07
15 13 -9 0.97 3.34
-13 9 15 1.25 2.95
-13 9 15 -0.63 4.12
13 9 -15 -3.15 2.76
-9 -15 -13 0.08 3.05
15 -13 9 1.22 4.58
13 -9 15 4.04 4.54
-9 15 13 -1.27 2.84
-9 -15 13 1.67 3.42
-9 15 -13 2.1 3.08
13 9 15 3.18 4.13
9 -15 -13 0.84 3.55
-9 15 -13 1.35 2.74
9 -15 -13 -3.03 3.7
-15 13 -9 7.93 2.92
-13 -9 15 -0.08 3.66
-15 -13 9 3.85 3.28
-13 9 -15 -0.96 2.92
9 15 13 1.77 3.18
-13 -9 15 -1.97 4.73
13 -9 -15 1.37 3.42
-15 13 -9 0.74 3.26
-9 -15 13 -2.81 2.62
-9 -15 13 1.12 4.95
13 9 15 -1.8 3.35
-13 9 -15 3.75 3.52
-13 9 -15 -3.59 3.08
15 -13 -9 4.24 3.6
15 -13 -9 -0.63 3.85
9 15 13 4.86 3.68
15 13 9 0.53 3.23
15 13 9 -1.29 3.97
-15 -13 9 -5.61 4.7
9 -15 -13 2.03 2.3
1 -11 15 5.37 2.67
15 -1 11 7.26 3.37
-11 -15 -1 -0.28 2.99
-11 -15 -1 0.58 2.42
-15 1 11 -4.39 2.38
-1 -11 -15 4.23 2.89
-1 -11 -15 3.19 2.72
-15 1 11 5.73 3.34
-15 -1 -11 3.42 2.76
-15 -1 -11 5.26 3.51
11 15 -1 -2 3.13
11 -15 1 -1.03 2.8
11 -15 1 1.47 3.47
-1 11 15 -2.07 3.15
1 -11 15 2.67 2.29
-1 11 15 3.89 2.9
15 -1 11 8.45 2.22
15 -1 11 0.32 3.83
15 1 -11 2.24 3.02
15 1 -11 -1.59 2.96
11 15 -1 4.1 2.56
1 -11 15 1.13 3.47
1 -11 15 -0.15 4.02
1 11 -15 2.29 2.47
1 11 -15 3.63 2.52
1 11 -15 0.09 2.64
-15 -1 -11 -3.01 3.17
1 -11 15 2.06 2.5
-15 1 11 6.68 3.96
11 15 -1 4.75 2.98
-11 15 1 -1.35 1.83
-11 15 1 2.58 2.71
-11 15 1 2.13 2.65
-15 -1 -11 5.83 2.38
-15 1 11 -2.85 2.06
-15 1 -11 0.85 2.78
-1 -11 15 3.45 2.67
15 -1 -11 -2.85 2.94
-1 -11 15 5.09 3.43
15 1 11 2.54 2.39
15 1 11 10.35 3.37
-1 -11 15 -2.34 2.74
-1 11 -15 -0.04 2.95
15 -1 -11 1.38 3.07
-1 -11 15 5.15 2.69
-1 11 -15 3.46 2.48
-15 -1 11 -1.04 2.39
-15 -1 11 8.18 4.07
15 1 11 4.07 3.89
11 15 1 -9.43 3.09
-1 11 -15 3.07 2.4
-11 15 -1 0.51 2.86
11 -15 -1 1.33 2.55
11 -15 -1 -3.72 2.8
11 -15 -1 1.48 3.36
1 11 15 0.1 2.19
-15 1 -11 -5.2 3.3
-1 -11 15 6.36 4.46
-11 -15 1 1.58 2.7
-11 -15 1 5.69 2.54
-11 -15 1 4.94 3.51
-1 -11 15 0.94 2.68
-15 1 -11 2.62 3.4
1 -11 -15 2.08 3.02
-1 11 -15 -2.09 3.03
1 11 15 -3.28 2.56
1 11 15 -0.33 3.08
1 11 15 9.08 3.48
11 15 1 2.4 2.63
11 15 1 0.49 2.92
3 11 -15 6.63 2.67
3 11 -15 2.6 2.62
-15 3 11 9.55 3.61
11 15 -3 4.84 3.02
3 -11 15 9.79 4.41
11 -15 3 5.43 3.81
11 15 -3 8.24 2.69
-15 -3 -11 4.97 3.02
-15 -3 -11 3.58 3.15
11 15 -3 -0.62 3.26
15 -3 11 1.68 3.76
-11 -15 -3 2.07 3.02
-15 3 11 3.36 2.36
-15 3 11 5.2 2.32
-3 11 15 5.99 2.89
-3 11 15 3.09 3.36
3 -11 15 4.84 3.63
3 -11 15 9.15 2.97
15 3 -11 5.44 3.03
15 3 -11 6.86 3.1
-3 -11 -15 3.78 2.44
-3 -11 -15 9.65 2.76
-11 15 3 6.88 2.27
-11 15 3 6.16 2.86
-11 15 3 7.32 2.83
-3 -11 -15 7.44 2.84
11 -15 3 6.73 3.21
3 -11 15 4.57 2.94
-15 -3 -11 9.04 2.64
-15 3 11 6.43 3.91
-11 -15 -3 6.36 2.64
3 -11 -15 2.43 3.18
-3 11 -15 6.75 2.58
-3 -11 15 6.81 4.36
3 11 15 3.99 2.75
3 11 15 1.35 3.13
-15 -3 11 1.88 2.42
15 -3 -11 4.97 3.17
15 -3 -11 6.1 2.89
-15 -3 11 11.68 4.21
-11 -15 3 8.59 2.93
-11 -15 3 7.94 2.68
15 3 11 11.71 2.61
15 3 11 11.83 3.32
15 3 11 4.24 3.89
-3 -11 15 8.93 2.81
-3 -11 15 4.83 2.68
11 -15 -3 2.26 2.83
-11 15 -3 7.04 2.96
3 11 15 7.15 2.99
11 -15 -3 9.44 2.9
3 11 15 11.3 2.54
11 -15 -3 3.82 3.42
11 15 3 8.84 3.17
-3 -11 15 2.44 3.06
-3 11 -15 8.18 2.67
3 11 15 11.69 3.51
-15 3 -11 8.86 2.92
-11 -15 3 6.66 3.95
-3 11 -15 1.64 3.12
-3 11 -15 -2.55 3.28
-11 15 5 8.83 2.75
11 -15 5 3.58 3.32
-11 -15 -5 3.32 3.14
11 -15 5 3.89 4.04
11 15 -5 5.19 2.54
11 15 -5 4.24 3.02
15 -5 11 -3.09 3.67
15 5 -11 0.96 2.85
-5 -11 -15 1.87 2.45
15 5 -11 4.97 2.82
11 15 -5 1.56 3.3
5 11 -15 5.86 2.67
5 11 -15 3.23 2.67
-15 5 11 2.95 3.99
-5 -11 -15 6.8 2.78
-5 11 15 3.21 2.82
5 -11 15 0.04 2.96
5 -11 15 1.88 3.6
5 -11 15 4.79 4.44
-5 -11 -15 4.76 2.71
-5 11 15 4.45 3.34
-15 5 11 -2.62 2.06
15 5 -11 3.06 3.2
-11 -15 -5 2.16 2.6
-11 -15 -5 5.1 2.34
-11 -15 -5 6.51 3.11
-11 15 5 5.1 2.28
-15 -5 -11 6.26 2.7
-15 -5 -11 0.77 2.88
-15 -5 -11 2.98 2.99
-15 5 11 6.49 2.47
-11 15 5 4.04 2.69
-11 -15 5 5.96 2.58
-11 -15 5 3.96 2.54
-15 -5 11 1.78 3.97
-5 -11 15 1.56 3.18
5 11 15 3.32 3.27
-5 -11 15 3 2.5
15 5 11 6.9 2.48
15 5 11 4.09 3.4
-15 -5 11 8.09 3.15
15 -5 -11 3.51 3.01
15 -5 -11 4.62 2.62
-15 5 -11 4.45 3.39
-15 5 -11 4.2 3.02
15 5 11 9.67 3.96
11 -15 -5 6.72 3.01
5 -11 -15 2.73 3.13
-11 -15 5 5.39 2.86
5 11 15 9.28 2.51
5 11 15 0.66 2.84
11 15 5 5.59 3.06
-5 11 -15 -1.13 3.11
-5 11 -15 -4.72 3.16
11 -15 -5 4.9 2.69
-11 15 -5 5.38 2.88
11 15 5 7.52 2.95
5 11 15 4 3.1
5 11 15 4.58 2.69
11 -15 -5 4.51 3.59
-5 -11 15 6.11 4.43
-5 11 -15 5.8 2.67
-11 -15 5 5.48 3.85
-5 11 -15 5.91 2.75
-11 -15 -7 1.4 3.08
11 -15 7 -0.84 3.24
11 -15 7 4.11 2.49
7 -11 15 0.7 3.73
7 -11 15 -1.76 4.38
-7 11 15 0.53 2.74
-11 -15 -7 -1.61 2.47
-11 -15 -7 -2.01 2.67
-11 15 7 -1.44 2.66
-15 -7 -11 0.68 2.72
7 11 -15 1.05 2.71
-11 15 7 4.53 2.53
11 -15 7 -0.06 4.25
11 15 -7 -0.84 2.67
11 15 -7 -2.43 2.9
11 15 -7 -6.87 3.28
-11 15 7 0.76 2.29
7 11 -15 -0.95 2.51
15 7 -11 -1.14 2.81
15 7 -11 2.76 2.89
15 7 -11 -1.15 3.09
-15 7 11 -4.6 1.87
-15 7 11 2.15 2.53
7 -11 15 -9.25 3.04
-7 -11 -15 4.3 2.93
-11 -15 -7 -1.24 2.79
15 -7 11 -0.27 3.76
-15 -7 -11 0.26 2.87
-15 -7 -11 -1.75 2.66
-7 -11 -15 -0.31 2.51
15 -7 11 -2.13 3.56
-7 -11 -15 0.42 0.55
-11 -15 7 2.34 2.79
-15 7 -11 -0.9 2.98
11 -15 -7 -0.45 0.57
-11 -15 7 1.7 2.44
15 7 11 1.96 3.79
-7 11 -15 2.42 2.57
-11 -15 7 1.83 3.97
7 11 15 0.54 2.38
7 11 15 -1.85 2.79
-15 7 -11 1.24 3.3
-15 7 -11 1.44 2.54
-11 15 -7 3.06 2.48
-15 -7 11 -1.38 4.12
11 -15 -7 0.15 3.02
-7 11 -15 -8.52 3.24
-7 -11 15 0.35 3.11
-7 -11 15 -2.2 2.87
-7 -11 15 -0.29 2.4
15 -7 -11 -0.58 2.48
15 7 11 0.12 2.44
-7 11 -15 1.9 2.91
-7 11 -15 -4.18 3.13
-15 -7 11 2.41 3.12
11 -15 -7 1.63 3.58
7 -11 -15 -5.05 3.05
-11 15 -7 4.51 2.83
-15 -7 11 0.99 2.34
7 11 15 -1.55 3.28
11 15 7 1.86 3.03
15 -7 -11 -2.72 2.92
11 15 7 -3.48 3.06
-7 -11 15 -4.54 4.45
15 7 11 0.48 3.34
15 -9 11 1.92 3.94
11 15 -9 -2.45 2.74
9 11 -15 1.66 2.81
-15 -9 -11 -0.48 2.82
-9 -11 -15 -0.66 2.65
-15 9 11 0.7 2.63
-11 15 9 -2.25 2.62
15 9 -11 -2.91 2.8
11 -15 9 0.55 4.37
-9 -11 -15 1.57 2.77
15 9 -11 -0.51 2.96
11 -15 9 -2.73 3.62
11 15 -9 0.09 3.11
-11 15 9 -1.09 2.23
15 -9 11 -1.96 3.72
-9 11 15 0.58 2.76
9 -11 15 2.05 4.43
-15 -9 -11 0.33 3.04
9 11 -15 -3.51 2.61
-15 -9 -11 1.04 2.8
11 -15 9 2.51 2.64
9 -11 15 -7.07 3.73
-11 -15 -9 -2.11 2.87
-11 -15 -9 0.83 3.01
-11 -15 -9 0.89 2.58
-9 -11 -15 0.49 2.89
-11 15 9 5.03 2.49
-11 15 -9 0.28 2.89
11 -15 -9 -2.35 3.11
11 15 9 -3.93 3.15
11 15 9 -1.35 3.25
-15 -9 11 4.02 3.28
9 11 15 2.4 2.63
15 -9 -11 -1.42 3.17
-9 11 -15 -0.02 2.8
-9 11 -15 0.77 3.03
11 -15 -9 0.48 2.35
11 -15 -9 2.27 3.69
-9 -11 15 -0.61 4.45
9 11 15 -4.22 3.47
-11 -15 9 1.41 2.98
15 9 11 -0.99 3.27
-9 -11 15 -1.72 2.36
-11 -15 9 0.42 4.28
-11 15 -9 0.37 2.54
15 9 11 2.13 3.9
-15 9 -11 1.95 2.69
9 11 15 2.73 3.06
-9 -11 15 -0.42 3.18
9 -11 -15 -3.11 3.03
-15 -9 11 -2.7 2.51
-15 -9 11 -4.28 4.39
-15 9 -11 -2.65 2.82
-15 9 -11 0.48 3.15
-11 -15 9 -0.29 2.48
15 11 -11 -0.93 2.99
-15 11 11 -0.64 2.75
11 -15 11 1.52 4.01
-11 -11 -15 2.57 2.87
11 15 -11 -0.61 3.24
11 -15 11 -0.22 4.72
11 15 -11 -0.25 2.97
-15 11 11 -4.37 2.75
15 -11 11 1.5 4.46
11 -11 15 5.46 4.74
-11 -11 -15 2.32 3.08
15 -11 11 1.65 3.85
-15 -11 -11 -2.74 2.93
-15 -11 -11 1.11 3.16
-11 -15 -11 -0.39 3.16
-11 -15 -11 0.76 3.11
11 -11 15 -6.3 4.03
11 11 -15 1.71 2.94
11 11 -15 1.1 2.96
-11 15 11 5 2.55
-11 15 11 -0.14 2.7
-11 11 15 2.02 2.88
15 11 -11 0.48 3.28
11 -15 -11 -0.08 3.6
-15 11 -11 4.57 2.98
-15 11 -11 3.08 3.33
11 -15 -11 0.09 2.35
15 -11 -11 0.87 3.42
-15 -11 11 2.35 2.69
15 -11 -11 3.33 4.05
-11 15 -11 1.91 3.2
11 11 15 0.47 3.16
11 11 15 5.23 4.09
-11 15 -11 5.53 2.89
-11 -11 15 -0.5 2.29
-11 -11 15 -7.49 4.69
-11 11 -15 0.42 3.02
-11 -15 11 0.7 2.46
11 15 11 -1.28 3.52
-15 -11 11 0.29 3.43
-11 -15 11 -1.1 4.83
-11 11 -15 -5.86 3.12
11 -11 -15 -1.33 3.39
11 -15 -11 -1.77 3.27
-11 -11 15 -1.15 3.39
-15 11 -11 -1.94 2.94
-11 11 -15 1.85 3.25
15 11 11 -1.8 4.07
-15 -11 11 -3.17 4.75
11 15 11 -3.65 3.18
15 11 11 -1.06 3.24
-11 -15 11 0.2 3.39
-15 13 11 -8.12 2.89
15 13 -11 -0.5 3.47
15 13 -11 -3.43 3.06
11 15 -13 1.97 3.52
13 -11 15 -0.59 4.89
-15 -13 -11 2.14 3.17
-13 -11 -15 5.76 3.34
15 -13 11 0.93 4.02
-15 13 11 3.26 2.98
13 -11 15 0.68 4.14
11 15 -13 2.92 2.89
13 11 -15 -2.57 2.93
13 11 -15 -0.95 3.27
-11 15 13 3.06 2.88
-11 -15 -13 3.12 3.38
-15 -13 -11 3.56 3.35
15 -13 11 1.83 4.79
11 -15 13 7.8 5.05
11 -15 13 -4.05 4.08
-13 -11 -15 -2.36 3.06
-11 -15 -13 2.18 3.36
-13 11 15 6.23 3.25
15 -13 -11 2.81 4.2
-15 13 -11 5.34 3.46
-13 11 -15 0.12 3.1
-11 -15 13 3.83 3.69
15 -13 -11 1.64 3.77
-13 11 -15 2.32 3.42
-13 -11 15 -7.55 5.04
-11 -15 13 2.27 2.84
-11 -15 13 -4.33 5.1
-15 -13 11 0.24 3.09
11 15 13 1.6 3.42
11 15 13 -2.69 3.85
13 -11 -15 2.67 3.74
-13 -11 15 1.03 3.55
-15 13 -11 4.86 3.21
11 -15 -13 0.17 3.58
11 -15 -13 2.33 2.43
11 -15 -13 1.12 4.07
-15 -13 11 -1.04 3.67
-15 -13 11 -5.2 5.04
15 13 11 1.75 3.48
15 13 11 -0.18 4.3
-13 -11 15 4.35 2.5
-11 15 -13 -1.06 3.35
-11 15 -13 5.83 3.23
13 11 15 0.81 4.17
13 11 15 1.27 3.52
15 -1 13 14.16 3.78
15 -1 13 8.35 2.53
-15 1 13 1.91 2.53
13 15 -1 5.26 2.79
-1 13 15 4.93 2.96
-1 13 15 2.74 3.39
-13 15 1 -4.73 2.05
-13 15 1 2.58 3.05
1 -13 15 2.37 3.87
15 -1 13 2.45 4.21
15 1 -13 1.06 3.23
15 1 -13 3.81 3.27
1 -13 15 8.03 4.58
1 -13 15 -6.14 2.63
1 -13 15 2.62 2.94
13 15 -1 1.19 3.22
13 15 -1 9.4 3.29
1 13 -15 2.41 2.71
-13 -15 -1 0.02 3.05
-13 -15 -1 0.88 2.68
1 13 -15 -0.31 2.83
-13 15 1 2.63 2.79
-1 -13 -15 4.13 2.95
-1 -13 -15 -1.07 2.35
-15 -1 -13 4.03 2.4
-15 -1 -13 8.79 3.04
13 -15 1 2.42 3.58
-15 1 13 -5.18 2.62
1 13 -15 -1.52 3.11
-15 1 13 8.82 4.34
15 1 13 5.01 2.54
-1 -13 15 3.25 2.88
-15 -1 13 -3.4 2.9
-1 -13 15 -4.71 2.74
1 -13 -15 -0.06 2.92
-15 1 -13 4.81 3
13 15 1 -0.41 2.87
13 15 1 5.78 3.19
15 -1 -13 2.55 3.1
-1 -13 15 12.99 4.44
-1 13 -15 -3.75 3.17
13 -15 -1 -1.51 2.88
13 -15 -1 1.72 3.82
-15 -1 13 17.08 4.58
15 1 13 10.63 4.24
-13 -15 1 10.57 3.73
-15 1 -13 3.65 2.34
1 13 15 -5.61 2.77
1 13 15 -0.57 3.22
-1 13 -15 3 2.57
-1 13 -15 -0.2 2.57
-13 -15 1 2.58 3.06
-13 -15 1 6.14 2.83
15 1 13 15.88 3.66
-13 15 -1 -1.89 3
-1 -13 15 10.93 3.76
1 -13 -15 4.68 3.89
15 -1 -13 0.75 2.81
15 -1 -13 -3.51 3.08
13 15 -3 9.55 2.83
15 3 -13 6.38 3.28
3 13 -15 2.53 2.76
15 -3 13 2.84 4.29
15 3 -13 3.13 3.24
13 15 -3 11.27 3.45
-15 3 13 0.82 2.54
13 -15 3 8.11 4.04
-15 -3 -13 7.84 2.77
-3 13 15 4.76 3.08
13 15 -3 6.94 3.49
-13 15 3 3.91 2.22
-3 13 15 3.82 3.4
-3 -13 -15 13.06 2.88
-13 -15 -3 -1.64 3.04
3 -13 15 2.92 3.01
3 -13 15 6.25 3.96
-15 -3 -13 6.39 3.03
-13 15 3 1.07 2.96
-3 -13 -15 11.68 3.01
-13 -15 -3 2.4 2.82
-15 3 13 8.29 2.72
-15 3 13 8.17 4.16
3 -13 15 7.53 4.65
-3 -13 -15 6.15 2.65
3 13 -15 4.68 2.98
-13 15 3 10.03 3.16
13 -15 3 5.46 3.37
-3 -13 15 2.37 2.95
3 -13 -15 5.38 3.2
3 13 15 4.77 3.1
15 3 13 9.1 2.77
15 3 13 15.36 3.6
15 3 13 11.34 4.33
-3 -13 15 10.7 4.5
-3 13 -15 7.25 2.81
-3 13 -15 -1.16 2.78
13 15 3 9.52 3.33
-15 -3 13 2.81 4.47
-15 3 -13 4.98 3.06
13 -15 -3 8.13 3.21
13 -15 -3 2.87 3.08
13 -15 -3 5.36 3.92
3 -13 -15 7.46 3.88
-3 13 -15 8.95 2.78
15 -3 -13 5.6 2.91
-13 -15 3 10.77 3.94
-13 15 -3 3.38 3.21
-3 -13 15 2.92 3.16
-13 -15 3 6.86 3.08
3 13 15 3.97 3.61
3 13 15 7.07 2.96
3 13 15 12.26 2.54
15 -3 -13 7.32 3.23
15 -3 -13 8.16 3.14
-3 -13 15 6.52 2.94
-13 -15 -5 0.43 2.78
5 -13 15 2.96 3.12
13 -15 5 7.95 4.27
13 15 -5 7.77 2.8
15 -5 13 0 3.88
13 -15 5 6.09 3.53
-13 -15 -5 7.25 3.35
13 -15 5 -1.88 2.55
5 13 -15 6.09 3.13
-5 13 15 4.64 2.84
-13 -15 -5 4.84 2.5
5 -13 15 6.39 3.9
-15 5 13 6.19 4.26
-13 -15 -5 2.85 3.16
-13 15 5 5.55 2.38
-15 -5 -13 8.56 2.8
-15 -5 -13 4.25 3.13
5 -13 15 10.05 4.7
5 13 -15 -0.22 2.77
-13 15 5 7.37 2.88
-13 15 5 4.39 2.72
-5 -13 -15 5.27 2.93
-5 -13 -15 7.54 2.96
-5 -13 -15 3.86 2.57
-15 5 13 8.44 2.56
-15 5 13 0.23 2.23
15 5 -13 9.87 3.21
13 15 -5 5.71 3.36
13 -15 -5 8.24 3.31
15 5 13 10.53 2.21
-5 13 -15 5.1 2.86
-5 13 -15 4.98 2.63
5 13 15 9.23 2.65
5 13 15 3.29 3.04
5 13 15 4.14 3.41
5 13 15 6.04 2.89
15 5 13 10.11 3.42
13 15 5 5.48 3.34
15 -5 -13 5.22 3.34
15 -5 -13 3.58 2.98
15 -5 -13 3.35 2.87
-5 13 -15 1.61 3.27
-13 15 -5 3.77 3.16
13 15 5 9.39 3.32
-15 -5 13 10.08 4.57
-15 5 -13 3.66 3.18
-15 5 -13 3.7 3.46
13 -15 -5 4.65 2.95
-5 -13 15 5.91 3.26
-13 -15 5 8.39 4.27
-13 15 -5 10.34 2.63
15 5 13 5.31 4.07
-5 -13 15 1.36 4.63
5 -13 -15 -0.44 3.4
13 -15 -5 3.42 3.81
5 -13 -15 6.95 3.85
-5 -13 15 3.5 2.8
-13 -15 5 7.14 2.97
-15 7 13 -4.48 2.01
15 -7 13 -3.75 3.89
15 7 -13 1.07 3.08
-15 7 13 1.57 2.58
-15 7 13 -2.15 4.09
-13 -15 -7 -0.08 3.12
15 -7 13 2.57 3.85
-13 -15 -7 2.06 3.02
-13 -15 -7 2.02 2.54
13 -15 7 2.23 4.5
13 15 -7 0.64 2.59
-7 13 15 2.38 2.89
7 13 -15 1.9 3.01
-13 15 7 -0.83 2.32
-13 15 7 7.41 2.76
-13 15 7 0.26 2.84
7 -13 15 4.28 4.59
-15 -7 -13 1.01 2.81
13 15 -7 -0.73 3.24
13 15 -7 3.53 3.23
13 -15 7 3.92 2.56
13 -15 7 -1.94 3.32
-15 -7 -13 3.76 3.09
7 13 -15 0.94 2.7
7 -13 15 1.21 3.8
-13 -15 -7 -0.07 3.32
-7 -13 -15 7.88 3.08
-7 -13 -15 1.3 2.77
7 -13 -15 2.75 3.58
-15 7 -13 6.84 2.85
-15 7 -13 2.83 3.44
7 13 15 7.79 2.53
7 13 15 1.02 3.12
7 13 15 -0.7 3.62
13 -15 -7 -2.99 3.26
13 -15 -7 0.13 3.83
-7 13 -15 2.13 2.97
-13 15 -7 6.81 2.62
-13 -15 7 -0.78 2.85
-13 -15 7 3.33 4.29
-7 -13 15 -1.97 4.61
-7 13 -15 3.3 2.74
13 15 7 2.34 3.22
13 15 7 1.89 3.49
15 -7 -13 2.59 3.27
15 -7 -13 3.11 2.76
-13 15 -7 0.16 3.08
15 7 13 -0.91 4.01
7 -13 -15 2.96 3.77
-7 -13 15 3.7 3.28
-15 -7 13 -0.43 4.45
-15 7 -13 4.15 2.97
15 7 13 0.52 2.52
15 7 13 5.03 3.65
-7 -13 15 0.37 3.08
-7 -13 15 1.44 2.63
-15 -7 13 2.52 3.45
-15 9 13 -3.19 4.27
-9 13 15 0.79 2.87
-15 -9 -13 1.52 3.23
15 9 -13 -0.21 3.03
13 15 -9 -0.16 3.4
-15 9 13 -1.48 2.7
9 -13 15 1 4.03
13 -15 9 3.83 4.69
13 15 -9 1.22 2.93
-13 -15 -9 1.81 3.3
-13 15 9 1.08 2.73
-13 15 9 -0.16 2.9
15 -9 13 2.95 3.9
15 -9 13 7.07 4.2
15 9 -13 -1.43 3.06
-9 -13 -15 0.71 2.91
13 -15 9 2.03 3.89
-15 -9 -13 -0.19 3.02
-13 -15 -9 -0.75 2.79
9 -13 15 3.83 4.68
9 13 -15 3.36 2.98
9 13 -15 1.33 3.06
-9 -13 -15 2.71 3.01
-13 -15 -9 -5.71 3.06
-15 9 -13 1.32 3.03
13 15 9 1.12 3.76
15 9 13 1.91 4.24
-15 -9 13 -6.23 4.66
9 -13 -15 -1 3.23
-15 -9 13 3.38 3.43
-15 -9 13 1.36 2.5
15 9 13 -0.84 3.51
13 15 9 0.22 3.43
-15 9 -13 1.58 3.36
15 -9 -13 0.1 3.4
9 13 15 1.01 3.19
9 13 15 4.32 3.59
-13 -15 9 -2.01 3.19
-13 -15 9 -1.84 4.77
-13 15 -9 5.25 2.83
-13 15 -9 -0.14 3.09
13 -15 -9 0.18 2.57
13 -15 -9 -0.24 3.62
15 -9 -13 1.78 2.61
9 13 15 3.58 2.7
-9 -13 15 -0.35 3.38
-9 -13 15 2.44 2.59
13 -15 -9 -3.48 3.52
-9 -13 15 -5.32 4.69
-9 13 -15 -0.35 3.16
-9 13 -15 1.99 2.88
9 -13 -15 -1.06 3.89
-15 9 -13 7.53 2.98
-11 -13 -15 4.21 3.39
-11 -13 -15 0.41 2.99
-13 15 11 3.82 3.11
-13 15 11 1.08 2.78
-11 13 15 3.98 3.06
13 15 -11 1.33 3.11
11 -13 15 -1.08 4
11 -13 15 -3.52 4.92
11 13 -15 3.66 2.87
11 13 -15 3.47 3.28
15 -11 13 8.16 4.26
15 -11 13 5.26 4.77
15 11 -13 1.59 3.3
-15 11 13 5.59 3.02
-13 -15 -11 2.28 3.3
13 -15 11 -0.98 4.13
13 -15 11 7.61 5.04
-15 -11 -13 2.53 3.2
13 15 -11 3.51 3.55
-13 -15 -11 1.66 3.35
-15 -11 -13 2.12 3.38
15 11 -13 -1.18 3.42
13 15 11 -2.67 3.98
11 13 15 7.84 4.11
13 -15 -11 2.81 3.8
15 -11 -13 2.98 3.7
15 11 13 0.4 3.67
15 11 13 -0.11 4.51
-11 -13 15 0.8 3.63
11 -13 -15 1.87 3.75
11 13 15 3.87 3.4
13 15 11 0.49 3.46
-11 13 -15 2.05 3.35
-15 -11 13 0.81 2.56
-15 -11 13 -0.39 5.05
-15 11 -13 -0.83 3.19
-15 11 -13 2.89 3.51
-15 11 -13 5.23 3.27
-11 -13 15 4.17 2.61
-11 -13 15 -3.34 5.12
-11 13 -15 -0.77 3.1
-13 -15 11 2.82 3.58
-13 -15 11 -2.01 5.01
-13 15 -11 4.33 3.14
-13 15 -11 2.56 3.23
13 -15 -11 0.77 2.55
13 -15 -11 0.26 4.02
-15 -11 13 2.1 3.72
-15 -13 -13 5.18 3.52
-15 -13 -13 8.23 3.65
15 -13 13 5.36 4.37
15 -13 13 11.24 5.33
15 13 -13 1.47 3.26
15 13 -13 2.43 3.73
13 15 -13 4.39 3.73
-15 13 13 5.03 3.19
-13 -15 -13 5.83 3.44
-13 -15 -13 4.26 3.57
13 -15 13 3.8 5.33
-13 15 13 5.93 3.24
-13 -13 -15 0 3.4
-13 -13 -15 3.57 3.55
13 13 -15 4.65 3.17
13 13 -15 8.38 3.62
13 -13 15 3.3 4.41
13 -13 15 4.52 5.41
13 15 -13 3.86 3.44
-13 13 15 3.29 3.28
13 -15 13 1.1 4.41
-13 15 -13 5.14 3.32
-13 -15 13 3.71 5.46
13 -15 -13 1.73 4.05
13 -15 -13 0.57 4.37
-13 15 -13 4.68 3.49
-13 -15 13 -3.65 3.86
13 -13 -15 5.06 4.01
-13 -13 15 2.69 5.31
-13 13 -15 -0.06 3.37
-13 -13 15 -0.45 3.96
-13 -13 15 4.06 2.69
13 13 15 5.32 3.69
13 13 15 5.33 4.56
-13 13 -15 5.16 3.69
-15 13 -13 5.86 3.7
13 15 13 1.54 3.67
13 15 13 4.43 4.39
15 -13 -13 -1.95 4.05
15 -13 -13 2.94 4.39
-15 -13 13 3.17 4
-15 -13 13 2.48 2.82
-15 -13 13 -2.17 5.24
-15 13 -13 5.3 3.43
15 13 13 1.59 3.69
15 13 13 0.71 4.52
-15 -15 -1 -3.37 3.12
15 15 -1 5.21 3.54
-15 -1 -15 -2.15 2.66
-15 -1 -15 4.05 3.21
15 -1 15 12.05 3.97
15 -1 15 9.57 4.6
15 1 -15 2.53 3.37
15 1 -15 3.3 3.61
-15 1 15 11.26 3.14
-15 1 15 12.69 4.7
1 -15 15 -1 3.27
-15 15 1 3.49 3.42
-1 -15 -15 0.52 3.31
-1 -15 -15 -0.7 2.61
-1 -15 -15 0.07 4
15 -15 1 11.48 4.22
1 -15 15 10.38 5.08
15 1 -15 5.37 2.97
1 15 -15 1.77 3.22
15 -1 15 1.54 2.64
-1 15 15 3.99 2.88
-1 15 15 8.88 3.23
-1 15 15 2.31 3.32
15 15 -1 6.91 3.13
15 -15 1 3.22 3.57
1 15 -15 -2.69 3.23
15 15 -1 0.25 2.88
1 -15 15 1.08 4.23
1 15 -15 -1.92 2.81
-1 -15 15 9.82 4.15
-1 15 -15 1.41 2.68
1 -15 -15 4.54 4.12
1 15 15 2.91 3.12
1 15 15 4.75 3.36
-15 15 -1 0.42 3.32
15 -15 -1 10.02 4.27
1 -15 -15 2.55 2.39
-1 -15 15 1.09 3.19
15 -1 -15 4.52 3.44
15 -1 -15 -3.64 3.42
15 -1 -15 -0.17 2.96
-1 15 -15 -1.07 3.07
-15 -1 15 11.47 3.03
-15 -1 15 7.73 4.96
-15 1 -15 -1.3 2.55
-15 1 -15 7.27 3.31
-1 -15 15 17.01 4.9
15 1 15 1.04 2.7
15 1 15 15.13 3.92
15 1 15 12.22 4.52
15 -15 -1 -5.69 3.16
-15 -15 1 4.57 3.18
1 -15 -15 -0.67 3.15
15 15 1 -3.75 3.12
15 15 1 3.9 3.5
-15 -15 -3 -2.64 3.21
-3 15 15 2.87 3.13
15 -3 15 0.07 4.43
-15 -3 -15 3.29 2.83
-15 -3 -15 2.5 3.11
3 -15 15 7.97 4.94
15 -15 3 6.99 3.49
-15 3 15 1.09 2.54
-15 3 15 8.37 2.94
-15 3 15 8.43 4.39
15 15 -3 6.07 3.31
-15 15 3 -0.04 2.26
-15 15 3 8.55 3.28
-15 15 3 -1.01 3.22
-3 -15 -15 7.41 3.11
-3 -15 -15 -3.19 2.59
-3 -15 -15 -1.3 3.77
15 15 -3 4.7 2.86
15 15 -3 4.54 3.56
15 3 -15 -2.31 3.31
15 3 -15 2.98 3.46
3 15 -15 3.14 3.3
3 15 -15 -0.88 2.85
3 -15 15 -0.01 4.2
15 -15 3 6.29 4.09
3 -15 -15 5.97 4.13
-15 -15 3 7.9 3.17
-15 -3 15 5.96 4.96
-3 15 -15 3.21 2.84
-3 15 -15 4.59 2.79
3 15 15 -2.01 3.14
3 15 15 -0.79 3.63
3 15 15 5.9 3.09
15 -15 -3 2.65 3.37
15 -15 -3 3.79 4.27
-15 3 -15 8.9 3.27
3 -15 -15 -2.68 3.37
15 -3 -15 7.9 3.45
15 -3 -15 -1.05 3.26
15 -3 -15 -1.87 3.17
-15 -15 3 18.71 4.19
-3 -15 15 1.54 3.06
-3 -15 15 10.1 4.65
15 3 15 3.69 2.82
15 3 15 18.84 3.94
15 3 15 11.41 4.48
-3 -15 15 -6.59 3.39
-3 -15 15 -4.18 3.19
-15 15 -3 2.41 3.36
15 15 3 -1.19 3.33
-15 -15 -5 -3.06 3.08
-15 -15 -5 1.97 3.49
15 -15 5 2.26 4.25
-5 15 15 3.91 2.97
-15 -5 -15 5.06 3.02
-15 -5 -15 1.73 3.2
15 -5 15 -0.51 4.05
15 5 -15 5.09 3.42
5 15 -15 0.8 2.86
-15 5 15 -2.04 2.34
-15 5 15 6.95 2.93
-15 5 15 1.26 4.07
15 15 -5 3.07 3.38
5 -15 15 3.82 4.72
-15 15 5 0.54 2.32
-15 15 5 7.77 3.1
-15 15 5 4.98 3.25
-5 -15 -15 4.6 3.12
-5 -15 -15 3.97 2.92
-5 -15 -15 1.04 3.52
15 15 -5 5 3.52
5 15 -15 2.82 3.34
15 -15 5 -0.44 2.6
15 -15 5 1.11 3.6
5 -15 15 0.44 4.07
15 15 -5 3.88 2.91
-5 -15 15 0.3 2.99
5 -15 -15 4.66 4.11
-5 15 -15 3.91 2.87
-15 15 -5 1.04 3.3
-15 5 -15 4.16 3.64
-15 -15 5 11.83 4.28
5 15 15 2.08 2.52
5 15 15 -0.95 3.17
5 15 15 2.01 3.54
5 15 15 3.15 2.73
15 -15 -5 3.19 3.48
15 -15 -5 -4.49 4.21
-5 -15 15 7.74 4.37
-5 15 -15 3.22 2.83
-15 -15 5 2.74 2.97
15 -5 -15 2.79 3.38
15 -5 -15 -4.52 2.98
15 -5 -15 0.19 2.88
-15 -5 15 1.38 4.67
-15 5 -15 2.37 2.96
15 5 15 3.29 3.63
15 5 15 4.97 4.24
5 -15 -15 -2.14 3.42
-5 -15 15 1.77 3.47
-15 15 -5 2.86 2.71
15 15 5 1.03 3.25
-15 -15 -7 -1 3.37
-15 -15 -7 -0.78 3.49
-15 -15 -7 2.18 2.76
7 15 -15 1.18 3.35
-7 15 15 1.42 3.07
-15 -7 -15 -0.99 2.99
-15 -7 -15 5.7 3.26
15 7 -15 1.96 3.3
7 -15 15 3.49 4.78
15 -15 7 1.92 2.78
15 15 -7 0.58 2.81
-15 7 15 -1 2.22
-15 7 15 1.75 2.98
-15 7 15 -0.7 4.21
15 -7 15 -0.32 4.1
15 -7 15 2.78 4.27
-15 15 7 5.25 2.46
-15 15 7 0.79 3.05
-15 15 7 2.25 2.99
-7 -15 -15 3.45 2.98
-7 -15 -15 3.17 3.08
7 -15 15 -1.52 4.16
7 15 -15 0.07 2.94
15 -15 7 0.05 3.6
15 -15 7 2.26 4.58
15 15 -7 -1.11 3.55
-15 -15 7 0.23 4.81
-7 -15 15 -0.5 2.85
7 -15 -15 -2.54 4.07
-7 -15 15 4.73 3.51
-15 7 -15 3.11 3.09
-7 15 -15 0.82 2.92
-15 -15 7 1.22 3.13
7 15 15 1.35 2.63
7 15 15 -1.32 3.16
7 15 15 0.08 3.6
15 -15 -7 -1.39 3.64
15 -15 -7 -2.51 4.08
-15 7 -15 0.46 3.63
-7 -15 15 2.18 4.72
-7 15 -15 0.05 2.92
15 -7 -15 -0.32 3.36
15 -7 -15 -1.57 2.91
-15 15 -7 12.59 2.91
-15 15 -7 3.56 3.35
-15 -7 15 -3.07 4.73
15 7 15 0.74 3.66
15 7 15 -0.94 4.31
-15 7 -15 -0.95 3.03
7 -15 -15 3.41 3.59
15 15 7 0.22 3.47
15 15 7 -0.62 3.7
-15 -15 -9 1.09 3.36
-15 -15 -9 -2.21 3.5
-15 -15 -9 -1.37 2.81
-9 15 15 -0.24 2.92
15 -9 15 2.74 4.23
-15 -9 -15 -0.68 3.16
-15 -9 -15 3.55 3.38
9 -15 15 5.08 5.07
9 15 -15 0.18 3.01
15 15 -9 -1.83 2.99
15 15 -9 0.71 3.67
15 -15 9 0.6 4.96
-15 9 15 1.04 3.14
-15 9 15 -1.95 4.28
15 -9 15 2.59 4.69
15 9 -15 -2.75 3.36
-15 15 9 -3.31 3.06
-15 15 9 -0.32 2.96
-9 -15 -15 2.84 3.09
-9 -15 -15 3.88 3.23
9 15 -15 2.03 3.48
9 -15 15 -3.27 4.24
15 -15 9 2.46 3.98
-15 9 -15 1.89 3.3
-9 -15 15 1.7 2.7
-15 -15 9 -3.54 3.32
9 -15 -15 2.63 3.77
9 -15 -15 -4.6 4.16
-9 15 -15 4.63 3.26
-15 -9 15 4.28 3.78
-15 -9 15 -3.12 4.96
-9 -15 15 -0.46 3.71
9 15 15 6.21 2.77
9 15 15 2.01 3.39
9 15 15 4.87 3.83
15 -15 -9 -0.43 3.87
15 -15 -9 2.07 2.76
15 -15 -9 2.21 3.9
-9 -15 15 -3.63 5.11
-9 15 -15 0.2 2.94
15 -9 -15 -0.61 3.52
15 -9 -15 0.66 2.88
-15 -15 9 -1.86 5.08
-15 15 -9 9.21 3.05
-15 15 -9 2.41 3.39
15 9 15 -2.86 3.81
15 9 15 -3.48 4.37
-15 9 -15 3.03 3.21
-15 9 -15 0.71 3.64
15 15 9 0.34 3.45
15 15 9 -2.47 3.96
-15 -15 -11 4.05 3.43
-15 -15 -11 2.55 3.53
15 -11 15 6.08 5.13
15 11 -15 -1.93 3.56
-15 -11 -15 1.07 3.37
-15 -11 -15 0.49 3.48
11 -15 15 4.26 5.29
15 15 -11 1.59 3.34
15 15 -11 2.29 3.89
15 -15 11 3.35 5.27
15 -11 15 6.33 4.39
-15 11 15 4.62 3.28
-15 11 15 7.79 4.69
15 11 -15 -1.92 3.49
15 -15 11 3.8 4.4
-15 15 11 -7.29 3.03
-15 15 11 4.76 3.16
-11 -15 -15 1.69 3.42
-11 -15 -15 1.98 3.4
11 15 -15 0.04 3.59
-11 15 15 -0.53 3.09
11 15 -15 -0.18 2.9
11 -15 15 -4.22 4.39
-11 15 -15 -2.45 3.07
-11 -15 15 1.97 3.02
11 -15 -15 5.58 3.85
11 -15 -15 -1 4.48
-11 15 -15 2.3 3.64
-15 -11 15 -3.64 3.72
-15 11 -15 0.77 3.24
-11 -15 15 2.03 4.01
11 15 15 5.43 3.57
11 15 15 2.9 4.22
15 -15 -11 0.32 4.11
15 -15 -11 1.08 2.73
15 -15 -11 4.67 4.31
-15 15 -11 2.03 3.56
-11 -15 15 -7.09 5.28
15 -11 -15 4.93 3.84
-15 11 -15 5.91 3.7
-15 -15 11 -1.39 3.67
-15 -15 11 1.88 5.31
-15 15 -11 7.2 3.36
15 11 15 -1.87 3.84
15 11 15 -4.47 4.63
-15 -11 15 0.42 2.64
-15 -11 15 -3.6 5.23
15 15 11 -0.91 3.65
15 15 11 -4.06 4.25
-16 0 0 560.99 44.69
-16 0 0 565.87 44.72
-16 0 0 562.26 44.06
-16 0 0 570.44 44.1
-16 0 0 563.79 48.12
-16 0 0 574.46 48.08
0 -16 0 532.45 44.62
0 -16 0 544.24 47.95
0 -16 0 604.09 49.11
0 0 -16 564.81 44.73
0 0 -16 565.86 44.01
0 0 -16 527.76 48.03
0 0 -16 550.36 49.1
0 0 16 551.66 44.67
0 0 16 567.38 44.04
0 0 16 577.04 48.17
0 0 16 599.91 49.11
0 16 0 528.31 44.53
0 16 0 579.97 47.95
0 16 0 538.86 47.9
0 16 0 603.32 49.01
16 0 0 570.89 48.03
16 0 0 542.76 47.94
0 -16 -2 467.69 37.15
0 -16 -2 451.92 38.12
0 -16 2 457.72 34.56
0 -16 2 429.93 37.16
0 -16 2 489.58 38.2
0 16 -2 437.61 34.41
0 16 -2 468.28 37.17
0 16 -2 403.06 36.99
0 16 -2 411.17 36.94
0 16 -2 475.25 38
0 16 2 392.7 34.47
0 16 2 450.77 37.16
0 16 2 403.36 37.14
0 16 2 432.19 38.03
2 0 -16 441.9 34.76
2 0 -16 410.56 34.14
2 0 -16 413.48 37.13
2 0 -16 413.2 38.1
2 0 16 462.55 34.16
2 0 16 394.85 37.37
2 0 16 442.84 38.11
16 -2 0 425.62 37.31
16 -2 0 378.26 37.18
16 -2 0 441.61 37.76
16 2 0 460.12 37.27
16 2 0 446.78 37.08
-2 0 -16 456.54 34.12
-2 0 -16 403.33 37.28
-2 0 -16 430.81 38.08
-2 0 16 419.02 34.69
-2 0 16 409.77 34.13
-2 0 16 438.94 37.29
-2 0 16 451.24 38.2
0 -16 -2 414.85 34.63
0 -16 -2 439.61 37.2
-16 2 0 464.3 34.57
-16 2 0 412.79 34.15
-16 2 0 414.01 34.13
-16 2 0 391.91 37.37
-16 2 0 379.12 37.27
-16 2 0 469.4 37.72
-2 0 -16 476.29 34.6
-16 -2 0 442.85 37.29
-16 -2 0 464.73 37.21
-16 2 0 438.01 34.52
-16 -2 0 432.93 34.18
-16 -2 0 406.55 34.67
0 16 4 195.38 17.53
0 16 4 229.2 19.02
0 16 4 204.98 18.96
-16 4 0 183.6 19.23
0 -16 4 215.28 19.06
0 16 -4 225.61 19.54
0 16 -4 227.78 18.75
0 16 -4 247.09 17.09
0 16 -4 223.05 18.93
0 16 -4 177.37 18.79
16 -4 0 173.98 19.01
16 -4 0 233.23 19.4
16 4 0 219.14 17.59
16 4 0 239.53 19.25
16 4 0 224.89 18.78
0 -16 4 227.59 19.85
0 16 -4 243.54 17.45
0 16 4 209.04 19.57
4 0 -16 206.23 17.91
4 0 -16 202.5 17.55
4 0 -16 203.94 18.9
4 0 -16 188.36 19.65
4 0 16 207.12 17.41
4 0 16 230.01 17.52
4 0 16 174.92 19.49
4 0 16 210.73 19.73
-16 4 0 172.75 19.16
-16 4 0 241.78 19.21
-4 0 -16 256.9 17.71
-4 0 -16 246.64 17.59
-4 0 -16 181.13 19.17
-4 0 -16 208.34 19.6
-4 0 16 200.13 17.8
-4 0 16 201.6 17.42
-4 0 16 205.09 19.04
-4 0 16 214.54 19.89
0 -16 -4 211.48 17.83
0 -16 -4 216.12 19
0 -16 -4 220.94 18.96
0 -16 -4 199.32 19.67
0 -16 4 215.79 17.51
0 -16 4 242.63 17.25
-16 -4 0 191.62 17.75
-16 -4 0 224.42 17.64
-16 -4 0 235.78 19.31
-16 -4 0 217.38 18.92
-16 4 0 216.57 17.48
-16 4 0 230.09 17.56
-16 4 0 206.14 17.57
-16 4 0 200.7 17.41
-6 0 16 51.03 6.17
-6 0 16 41.95 6.36
0 -16 -6 57.13 6.16
0 -16 -6 48.57 6.07
0 16 6 50.29 5.53
0 16 6 56.95 6.34
0 16 6 49.63 6.06
0 16 6 56.72 6.62
6 0 -16 43.72 5.27
6 0 -16 50.65 5.94
-16 -6 0 47.43 5.9
-16 -6 0 50.66 5.95
0 -16 -6 50.62 6.79
0 -16 6 52.33 5.49
0 -16 6 56.57 5.52
0 -16 6 54.77 6.3
0 -16 6 38.46 6.04
0 16 -6 53.73 5.04
0 16 -6 53.23 5.31
0 16 -6 54.01 6.23
0 16 -6 48.19 5.71
0 -16 -6 53.83 6.03
-6 0 -16 57.58 5.77
-6 0 -16 55.45 6.02
-6 0 -16 52.2 6.2
-6 0 -16 45.24 6.36
-6 0 -16 48.87 6.41
-6 0 16 46.4 5.87
-6 0 16 47.91 5.56
6 0 -16 35.15 5.82
6 0 16 51.67 5.45
6 0 16 58.36 5.97
6 0 16 37.37 6.01
6 0 16 46.27 5.98
16 -6 0 33.76 5.51
16 -6 0 55.03 6.79
16 6 0 47.01 5.54
16 6 0 52.37 5.91
16 6 0 50.03 6.64
-16 6 0 47.03 6.13
-16 6 0 56.54 5.45
0 16 -6 54.39 6.79
-16 6 0 41.56 5.51
-16 6 0 35.34 5.5
-16 6 0 50.47 6.53
-16 -6 0 51.82 6.6
-16 6 0 40.24 5.2
8 0 16 6.07 3.64
0 16 -8 9.36 2.5
0 16 -8 6.59 2.84
0 16 -8 3.65 2.57
0 16 -8 9.16 3.26
0 16 8 7.23 2.26
0 16 8 12.45 2.9
0 16 8 8.68 2.61
0 16 8 10.19 2.97
8 0 -16 6.73 2.88
8 0 -16 7.17 2.92
16 -8 0 3.01 2.82
0 16 -8 5.91 1.8
0 -16 -8 7.14 2.85
8 0 16 8.27 3.49
8 0 -16 6 3.03
8 0 16 7.29 2.15
8 0 16 6.92 2.71
8 0 16 8.05 3.12
-8 0 16 8.04 3.94
16 8 0 5.11 3.12
0 -16 -8 6.27 3.43
0 -16 8 4.11 2.52
0 -16 8 9.9 2.9
0 -16 8 3.19 2.92
0 -16 8 2.77 3.88
8 0 -16 4.04 2.31
16 -8 0 9.62 3.16
0 -16 -8 7.39 2.6
16 8 0 6.84 2.39
16 8 0 9.02 3.04
-8 0 -16 2.25 1.34
-8 0 -16 3.09 2.95
-8 0 16 5.75 2.75
0 -16 -8 8.75 2.45
-8 0 -16 9.6 2.55
-8 0 -16 7.75 2.77
-16 8 0 6.32 2.94
-8 0 16 4.4 2.43
-8 0 16 8.92 2.91
16 -8 0 7.99 3.54
-16 -8 0 5.81 2.72
-16 -8 0 7.62 2.73
-16 -8 0 4.27 3.02
-16 8 0 9.07 2.34
-16 8 0 4.62 2.71
-16 8 0 11.19 2.56
-16 8 0 9.28 3.22
-16 8 0 4.89 2.97
-16 8 0 5.87 2.83
10 0 16 14.28 4.3
10 0 16 19.45 3.1
10 0 16 24.07 3.93
0 16 10 29.57 4.01
10 0 -16 19.71 3.69
10 0 -16 22.19 3.6
10 0 -16 12.98 3.13
0 16 -10 14.27 3.41
16 10 0 12.19 3.71
0 -16 10 14.65 3.13
0 -16 10 19.7 3.32
0 -16 10 21.76 3.55
0 -16 10 14.68 3.74
0 -16 10 17.92 4.53
0 16 -10 22.17 3.1
0 16 -10 20.07 3.54
16 -10 0 19.84 3.82
0 16 10 30.81 3.63
0 16 10 23.15 3.55
16 10 0 20.56 3.49
-16 -10 0 20.59 3.4
-16 10 0 20.52 3.36
-16 10 0 26.87 3.09
-16 10 0 22.85 3.93
-16 10 0 17.74 3.58
-16 10 0 18.57 3.78
-10 0 -16 20.72 3.2
-10 0 -16 15.79 3.43
-10 0 -16 21.51 3.72
-10 0 16 18.86 3.11
-10 0 16 17.23 3.45
-10 0 16 17.12 4.68
0 -16 -10 23.64 3.65
0 -16 -10 21.85 3.17
0 -16 -10 23.72 3.51
0 -16 -10 18.85 4.14
16 -10 0 23.07 4.31
16 -10 0 15.23 3.41
0 16 -12 79.62 8.43
16 12 0 69.42 8.86
-12 0 16 71.71 10.08
0 16 12 98.56 8.65
12 0 -16 80.95 8.18
12 0 -16 91.36 7.84
-16 -12 0 89.4 8
-16 12 0 67.86 7.11
-16 12 0 76.43 7.54
-16 12 0 87.56 8.58
-12 0 -16 73.93 7.41
-12 0 -16 73.49 7.87
-12 0 -16 85.06 8.92
-12 0 16 77.19 7.49
0 -16 12 75.99 7.83
0 -16 -12 93.51 8.11
-12 0 16 59.92 7.95
0 -16 12 75.42 8.39
0 -16 12 63.8 8.4
0 -16 12 77.78 9.84
0 16 -12 79.74 7.56
0 -16 -12 95.6 8.99
0 16 -12 52.16 8.23
0 16 12 92.94 8.5
16 12 0 82.61 7.89
0 -16 12 60.26 7.43
12 0 16 74.21 7.49
12 0 16 82.32 8.96
12 0 16 73.03 9.34
16 -12 0 75.37 7.59
16 -12 0 75.1 8.69
0 -16 -12 60.6 7.55
16 -12 0 85.61 9.29
0 -16 12 79.59 7.66
0 16 14 147.54 12.53
-16 14 0 144.86 12.92
-14 0 -16 129.91 12
0 16 14 150.68 13.03
14 0 -16 123.55 12.21
14 0 -16 130.77 11.61
14 0 16 134.29 11.5
14 0 16 128.53 13.17
14 0 16 118.04 13.5
16 -14 0 129.7 11.58
16 -14 0 146.1 13.63
16 14 0 132.25 11.88
16 14 0 129.06 13.03
0 16 14 137.75 12.79
0 -16 14 132.33 11.61
-14 0 16 102.18 12.26
-14 0 16 126.98 14.43
0 -16 -14 145.67 12.16
0 -16 -14 142.57 12.33
-16 -14 0 122.24 11.93
0 -16 -14 158.74 13.28
-14 0 -16 133.98 11.43
-16 14 0 116.91 11.22
0 16 -14 123.9 11.6
0 16 -14 139.61 12.75
0 -16 14 129.5 14.1
0 -16 14 126.45 11.52
-16 0 -2 466.48 36.86
-16 0 2 442.55 37.51
0 2 -16 436.94 34.25
-16 0 2 371.34 36.68
0 2 -16 416.13 36.78
0 2 -16 357.83 37.67
0 2 16 435.38 34.14
-16 0 2 457.26 33.72
0 2 16 438.69 36.88
-16 0 2 431.69 37.37
-16 0 2 444.24 34.25
2 -16 0 446.22 36.74
-16 0 2 413.11 36.77
16 0 -2 454.36 36.77
16 0 -2 373.26 36.55
16 0 2 425.28 36.81
16 0 2 448.07 36.72
0 -2 -16 422.76 37.64
0 -2 16 402.27 33.74
0 -2 16 429.72 36.98
0 -2 -16 410.75 36.76
2 16 0 420.77 34.03
16 0 -2 447.45 33.67
-16 0 2 420.49 34.21
2 -16 0 390.54 34.1
-2 16 0 432.03 36.66
-2 16 0 465.7 36.65
-2 16 0 429.97 37.61
0 2 16 432.36 33.65
0 -2 16 442.46 37.78
-2 16 0 461.65 36.62
0 2 -16 431.55 33.69
-16 0 -2 394.64 34.12
-16 0 -2 397.04 33.83
-16 0 -2 405.46 33.77
-16 0 -2 443.98 37
2 -16 0 422.98 37.64
0 -2 -16 465.93 34.26
2 16 0 436.52 36.74
2 16 0 383.63 36.55
2 16 0 463.43 37.5
0 -2 -16 462.39 33.68
-2 -16 0 462.24 34.2
-2 -16 0 378.34 36.64
-2 16 0 402.88 33.99
-2 -16 0 458.04 37.58
-16 -2 -2 337.94 29.22
-16 -2 -2 379.26 29.12
-2 2 16 326.67 26.63
-16 -2 -2 320.56 26.74
2 16 -2 355.61 26.85
16 2 -2 360.59 26.66
2 2 -16 300.03 29.93
16 2 -2 292.71 28.8
-16 2 2 272.64 29.12
2 16 -2 333.55 29.03
2 16 -2 318.48 28.76
2 16 -2 338.39 28.75
2 16 -2 349.66 29.62
2 -2 16 332.09 26.9
2 -2 16 350.45 26.76
-2 2 16 391.28 30.03
-16 2 2 359.84 26.64
-2 -16 -2 296 29.01
-2 -2 -16 309.93 29.1
-16 -2 -2 321.07 26.79
-2 -2 -16 379.68 27.07
-2 16 2 288.32 26.82
-2 -16 -2 363.71 28.97
-2 16 2 346.86 29.05
-2 16 2 319.51 29.75
-16 -2 -2 305.8 27.07
2 -16 2 309.62 26.85
2 -16 2 358.28 29.07
2 -16 2 358.26 29.94
-2 -16 -2 362.88 29.86
-2 -2 -16 377.83 26.71
16 2 -2 377.41 29.15
-2 -16 -2 356.78 27.11
2 2 -16 323.67 29.02
2 2 -16 329.62 26.7
-16 2 2 323.63 26.99
-16 2 2 352.25 26.98
-2 2 16 347.42 27.12
2 2 -16 324.93 27.16
-2 2 16 344.68 29.14
16 -2 2 303.37 29.22
16 -2 2 338.91 29.12
-2 -2 -16 356.72 29.69
2 -2 16 311.9 29.4
2 -2 16 333.08 29.98
-2 16 2 361.48 28.96
-16 2 2 358.11 29.54
-16 -2 2 298.16 29
16 -2 -2 310.97 29.12
2 2 16 370.47 26.69
2 16 2 310.17 28.91
-2 16 -2 369.8 29.03
-16 -2 2 344.23 29.12
-2 16 -2 359.24 28.87
-16 2 -2 332.77 26.93
-16 2 -2 287.98 26.78
-16 -2 2 302.95 29.57
-16 2 -2 294.81 29.33
2 -2 -16 342.9 27.18
2 -2 -16 346.34 26.68
2 -2 -16 328.74 29
2 -2 -16 318.28 29.87
-16 2 -2 338.47 29.21
2 2 16 367.39 26.98
2 -16 -2 323.11 27.09
-16 -2 2 292.7 29.77
2 2 16 390.89 29.82
-16 2 -2 316.86 26.86
-16 2 -2 302.11 26.68
2 16 2 333.7 26.93
2 16 2 356.72 29.12
-2 16 -2 324.26 26.76
-2 2 -16 290.93 29.13
-2 16 -2 313.71 28.93
2 16 2 364.79 29.74
-2 16 -2 342.65 29.73
2 2 16 336.19 29.34
16 2 2 354.35 26.93
16 2 2 345.76 29.12
16 2 2 364.07 29.03
-2 -16 2 365.59 27
-2 -16 2 359.81 26.4
-2 -16 2 313.38 29.02
-2 -16 2 361.23 29.85
2 -16 -2 352.02 29.03
-16 -2 2 324.91 27.12
-16 -2 2 338.21 27.2
-16 -2 2 342.19 26.66
-2 -2 16 307.93 27.06
-2 -2 16 299.73 26.7
-2 -2 16 320.72 29.24
-2 -2 16 334.1 30.04
-2 2 -16 367.36 27.02
-2 2 -16 352.96 26.67
2 -16 -2 325.27 29.84
-2 2 -16 284.9 29.85
-16 4 2 137.91 15.81
-16 -4 -2 158.62 14.67
-16 -4 -2 166.03 14.64
-16 -4 -2 178.76 14.73
-16 4 2 178.54 15.93
-16 -4 -2 171.23 15.59
-2 16 4 159.18 14.43
-2 -16 -4 176.19 15.54
16 4 -2 178.64 15.87
2 16 -4 167.95 15.3
2 16 -4 181.78 16.18
-16 -4 -2 195.99 16.12
2 16 -4 182.49 14.07
2 16 -4 174.28 15.73
-4 2 16 177.01 15.72
-2 16 4 204.31 15.74
-4 -2 -16 203.39 14.71
-4 -2 -16 197.72 14.6
-4 -2 -16 164.05 15.79
-4 -2 -16 182.48 16.07
4 2 -16 173.9 14.52
-4 2 16 159.67 14.68
2 -16 4 168.56 14.36
2 -16 4 174.5 15.76
2 -16 4 186.87 16.64
2 16 -4 184.67 14.37
2 16 -4 151.18 15.26
4 -2 16 176.11 14.34
4 -2 16 176.65 14.54
4 -2 16 149.44 16.21
-16 4 2 184.31 14.46
-16 4 2 182.43 14.42
-16 4 2 187.54 14.33
-2 -16 -4 177.51 14.77
-2 -16 -4 155.06 15.6
-4 2 16 161.05 14.39
-2 -16 -4 157.16 16.31
4 2 -16 158.33 16.42
16 -4 2 193.6 15.97
4 -2 16 150.86 16.46
4 2 -16 163 14.76
-2 16 4 172.7 16.21
-4 2 16 188.28 16.65
16 4 -2 184.86 14.48
16 -4 2 152.76 15.76
-2 16 4 163.79 15.71
-4 2 -16 146.22 15.8
-4 2 -16 183.66 15.64
-2 -16 4 188.34 14.17
-4 2 -16 188.36 14.62
-4 -2 16 166.14 14.44
-16 -4 2 178.66 14.51
-16 4 -2 157.89 14.39
-4 2 -16 201.55 14.5
-2 -16 4 179.99 16.58
-2 16 -4 171.06 14.18
-4 -2 16 158.99 15.74
-4 -2 16 158.9 16.67
16 -4 -2 179.04 16.14
-2 16 -4 169.25 16.17
-16 4 -2 170.87 14.3
-4 2 -16 151.66 16.16
-2 16 -4 184.89 15.69
4 -2 -16 168.88 14.48
4 -2 -16 161.26 16.41
-16 4 -2 161.65 16.1
-16 4 -2 154.34 15.89
-16 4 -2 206.65 15.79
-16 4 -2 183.46 14.39
-16 4 -2 160.01 14.69
-4 -2 16 154.76 14.57
-2 -16 4 187.43 14.59
4 2 16 194.27 14.49
4 2 16 181.13 14.42
16 4 2 189.38 15.64
-16 -4 2 171.88 15.79
-16 -4 2 156.64 16.23
2 16 4 163.22 14.47
2 16 4 178.13 15.87
2 16 4 171.17 15.57
2 16 4 178.13 16.21
4 -2 -16 175.67 14.92
4 2 16 194.31 16.23
4 -2 -16 160 15.52
2 -16 -4 174.67 14.75
2 -16 -4 198.08 15.78
2 -16 -4 182.07 15.78
2 -16 -4 156.41 16.2
-16 -4 2 163.92 14.78
16 4 2 173.14 14.53
16 4 2 199.83 16.18
-2 -16 4 155.47 15.68
4 2 16 160.81 16.13
-16 6 2 59.74 5.89
-2 -16 -6 60 6.47
2 -16 6 55.26 5.85
2 -16 6 61.46 6.1
2 -16 6 59.08 6.97
2 -16 6 54.83 6.58
-16 6 2 50.61 6.9
-6 -2 -16 67.27 6.28
-6 -2 -16 63.51 6.39
16 6 -2 57.76 7.12
-2 16 6 64.17 7.13
6 2 -16 51.01 7.49
6 -2 16 54.94 6.32
-2 -16 -6 57.26 6.52
-2 -16 -6 61.8 6.55
2 16 -6 62.14 5.72
16 -6 2 51.34 7.17
16 -6 2 61.11 7.23
16 6 -2 51.73 6.04
16 6 -2 56.46 6.41
-16 -6 -2 56.33 6.56
-16 -6 -2 62.77 6.61
-2 16 6 55.62 6.02
-2 16 6 65.14 6.74
-2 16 6 54.7 6.65
-2 -16 -6 53.32 7.21
-16 6 2 66.81 6.06
-16 6 2 50.71 6.86
16 6 -2 58.02 6.65
-16 6 2 46.41 6.68
-6 2 16 58.37 6.02
2 16 -6 66.21 5.87
-6 2 16 50.03 6.51
6 -2 16 61.12 5.9
6 -2 16 41.48 6.54
6 -2 16 57.75 7.7
6 2 -16 57.53 6.67
6 2 -16 60.54 6.48
6 2 -16 51.39 6.31
-6 2 16 57.83 6.82
-6 2 16 60.33 8.24
-16 6 2 56.84 6.32
-16 -6 -2 53.58 6.35
-6 -2 -16 67.02 6.63
2 16 -6 54.57 6.87
2 16 -6 53.53 6.07
2 16 -6 59.63 7.54
-6 -2 -16 58.8 6.81
-16 -6 -2 56.68 7.15
-6 -2 -16 53.23 6.83
2 -16 6 63.03 8.32
-16 6 2 52.22 6.83
2 16 6 58.55 6.01
6 -2 -16 53.06 6.64
6 2 16 56.75 7.66
-6 2 -16 57.15 6.53
6 2 16 75.09 6.95
-6 2 -16 57.97 6.93
16 6 2 63.92 6.11
16 6 2 53.89 7.39
2 -16 -6 61.58 6.69
16 -6 -2 61.4 7.29
-2 -16 6 53.04 6.92
16 -6 -2 58.19 6.55
16 -6 -2 42.22 6.75
-6 2 -16 63.66 7.03
-16 6 -2 62.16 5.84
-6 2 -16 51.97 7.04
2 -16 -6 60.45 6.62
6 2 16 59.49 6.32
-16 6 -2 45.78 7.16
-16 6 -2 56.87 6.68
2 16 6 64.14 7.06
-16 -6 2 55.98 6.38
-2 -16 6 53.93 6.15
-16 6 -2 56.47 5.61
6 -2 -16 62.69 6.32
2 -16 -6 57.95 6.68
2 -16 -6 56.39 7.43
-2 -16 6 52.18 5.75
-6 2 -16 54.86 6.89
6 2 16 58.87 7.3
16 6 2 59.38 6.63
-6 2 -16 66.12 6.17
-2 16 -6 55.36 6.7
-2 16 -6 57.37 7.07
2 16 6 63.44 6.9
2 16 6 63.9 6.59
-16 -6 2 62.01 6.67
-6 -2 16 54.67 8.12
-16 -6 2 56.84 7.01
-6 -2 16 55.61 6.18
-6 -2 16 53.17 6.75
6 -2 -16 55.22 6.5
6 -2 -16 50.49 7.64
-16 6 -2 56.05 6.3
-16 6 -2 50.18 7.09
-16 6 -2 60.21 7.04
-6 -2 16 55.58 6.46
-2 16 -6 62.46 5.73
-2 16 -6 59.58 5.52
-2 -16 6 56.58 7.86
16 8 -2 2.5 2.47
16 8 -2 1.29 2.22
-16 8 2 4.41 2.2
-16 8 2 3.76 2.74
-8 -2 -16 0.27 2.56
16 -8 2 2.28 3.04
16 -8 2 1.3 3.34
-2 -16 -8 2.49 2.89
-2 -16 -8 2.83 2.28
-2 -16 -8 1.34 2.41
-2 -16 -8 -0.16 3.06
2 -16 8 2.05 3.82
2 16 -8 1.97 1.72
2 16 -8 3.16 2.33
-16 -8 -2 1.9 2.93
-16 8 2 2.14 2.71
-16 8 2 1.32 2.66
-8 -2 -16 1.27 2.37
2 -16 8 1.75 2.53
-16 -8 -2 2.03 2.64
-16 -8 -2 0.69 2.64
8 -2 16 -0.45 2.44
8 2 -16 1.9 2.83
8 -2 16 0.81 3.56
8 -2 16 5.41 3.74
8 2 -16 1.28 2.58
-2 16 8 4.03 2.04
-2 16 8 4.26 2.47
-2 16 8 1.46 2.48
-8 2 16 -0.15 2.51
-8 2 16 2.17 2.25
-8 2 16 0.52 2.66
-8 2 16 6.82 3.87
-8 -2 -16 1.26 2.54
-16 8 2 2.44 2.35
-16 8 2 1.02 2.82
-16 8 2 2.38 2.6
8 2 -16 -0.2 2.73
8 2 -16 -0.92 2.16
16 8 -2 0.45 2.87
2 -16 8 2.49 2.62
-8 -2 -16 2.04 2.22
2 -16 8 1.27 3.07
8 -2 16 -1.45 1.93
-2 16 8 -3.42 2.95
2 16 -8 1.07 2.62
2 16 -8 0.01 3.12
-16 8 -2 3.07 2.79
-16 8 -2 0.46 2.99
-8 -2 16 1.67 3.77
8 -2 -16 1.11 2.66
16 -8 -2 5.11 3.56
8 2 16 1.94 2.05
8 2 16 -0.63 2.34
-2 -16 8 3.23 2.6
-16 8 -2 2.02 2.84
16 -8 -2 0.65 2.88
-8 2 -16 -0.72 2.28
-8 2 -16 1.01 2.66
-8 2 -16 3.05 3.1
-8 2 -16 -1.39 0.86
-8 2 -16 0.51 2.83
-8 2 -16 1.76 2.44
2 16 8 3.11 2.16
2 -16 -8 1.48 2.7
2 -16 -8 4.47 2.35
2 -16 -8 2.87 2.54
2 -16 -8 -5.89 3.29
-2 -16 8 1.94 2.5
-16 8 -2 -0.13 2.05
2 16 8 -0.23 2.56
16 -8 -2 0.83 2.86
-8 -2 16 1.96 2.62
8 -2 -16 4.85 2.7
-16 8 -2 -1.02 2.46
-16 8 -2 -2.14 2.42
-16 -8 2 1.82 2.64
-16 -8 2 0.12 2.52
-16 -8 2 0.14 2.8
16 8 2 3.74 2.36
16 8 2 -1.75 2.96
-2 16 -8 3.38 2.5
-2 16 -8 1.62 2.55
-2 16 -8 2.01 2.98
2 16 8 0.9 2.43
2 16 8 2.47 2.02
8 -2 -16 2.68 2.41
8 -2 -16 0.04 3.03
-2 -16 8 0.7 2.44
8 2 16 1.58 2.89
8 2 16 3.62 3.64
-2 -16 8 -1.6 3.8
-2 16 -8 2.51 2.28
-8 -2 16 0.28 2.7
-8 -2 16 -0.08 2.39
16 -10 2 9.81 3.42
16 10 -2 6.17 3.25
10 2 -16 2.95 2.51
2 16 -10 3.21 2.79
-16 10 2 7.03 2.8
-16 10 2 6.43 3.14
16 10 -2 7.96 2.76
10 -2 16 5.57 3.92
10 -2 16 12.39 3.63
10 2 -16 5.16 2.91
-2 16 10 8.61 3.12
-16 -10 -2 7.83 2.81
-16 10 2 3.46 2.31
-16 10 2 9.63 2.51
-16 10 2 9.16 3.21
-10 -2 -16 11.62 3.09
-2 -16 -10 7.51 2.52
-10 2 16 7.54 2.49
10 -2 16 6.22 2.33
-2 16 10 8.21 2.73
-10 2 16 7.97 2.87
-2 -16 -10 9.87 2.74
16 -10 2 9.76 3.62
-10 -2 -16 4.41 2.51
2 -16 10 8.43 2.7
2 -16 10 6.39 2.99
2 -16 10 2.74 3.43
2 -16 10 6.02 4.09
2 16 -10 5.99 2.64
-2 -16 -10 11.17 3.45
-10 -2 -16 4.14 2.91
10 2 -16 8.83 3.02
-10 2 16 6.78 4.06
-2 -16 -10 7.93 3
-2 16 10 12.99 2.94
-2 -16 10 7.29 2.73
-2 -16 10 6.58 2.76
10 2 16 6.46 3.24
-2 16 -10 7.11 2.62
2 16 10 8.16 3.03
10 2 16 4.23 2.42
-10 2 -16 2.74 2.83
-2 16 -10 8.8 2.84
-16 -10 2 4.91 2.98
16 -10 -2 6.29 2.98
2 -16 -10 9.09 3.13
-16 10 -2 6.59 3.01
16 -10 -2 6.74 3.88
10 -2 -16 9.15 2.98
-2 -16 10 6.61 2.83
10 2 16 5.94 3.85
2 16 10 11.2 3.03
10 -2 -16 7.8 2.99
-10 -2 16 6.44 2.57
-10 -2 16 6.59 2.84
-10 -2 16 7.6 4.11
-10 2 -16 4.03 2.41
-16 -10 2 7.95 2.9
-16 10 -2 1.52 2.85
-16 10 -2 6.17 3.28
-10 2 -16 9.49 3.12
2 -16 -10 4.71 3.57
-10 2 -16 3.25 2.61
16 10 2 5.84 3.18
-2 16 -10 3.86 2.93
-2 -16 10 8.29 4.21
-2 -16 -12 51.47 6.13
-2 -16 -12 38.69 5.09
12 2 -16 52.18 5.82
-2 16 12 56.57 6.38
-12 2 16 42.83 5.81
-12 -2 -16 46.36 5.93
12 2 -16 37.44 5.1
2 16 -12 45.23 5.66
2 -16 12 32.84 5.55
-16 12 2 37.21 5.08
-16 12 2 56.36 6.29
-12 -2 -16 40.45 5.28
2 -16 12 48.08 5.91
12 -2 16 38.29 5.11
-2 -16 -12 58.74 6.76
16 12 -2 43.83 5.58
-16 -12 -2 50.48 6.04
2 16 -12 36.01 5.03
-12 2 16 47.02 5.26
16 -12 2 52.83 6.58
-12 2 16 33.66 6.05
12 -2 16 31.31 5.77
-12 -2 -16 54.91 6.63
16 12 -2 35.55 5.36
16 -12 2 43.01 5.78
2 -16 12 41.85 6.16
-2 16 12 53.78 6.18
16 -12 -2 42.76 5.68
-2 -16 12 34.06 4.79
-2 16 -12 55.11 6.28
2 -16 -12 54.34 5.68
-2 16 -12 28.14 5.07
2 -16 -12 54.88 6.14
12 -2 -16 51.72 5.72
2 -16 -12 53.27 6.78
-16 12 -2 60.64 6.46
-2 -16 12 35.28 4.73
-2 -16 12 48.55 5.75
12 -2 -16 35.83 5.04
12 -2 -16 36.51 5.38
16 -12 -2 37.35 5.79
-12 -2 16 31.01 6.28
-12 2 -16 40.2 4.95
-12 2 -16 31.95 4.89
-12 2 -16 31.68 5.3
12 2 16 46.76 5.45
-2 -16 12 40.98 6.3
2 16 12 40.93 5.05
-16 12 -2 57.4 6.64
-2 16 -12 55.96 5.51
2 16 12 55.82 6.15
-16 -12 2 46.86 5.85
-2 -16 12 33.28 5.09
16 12 2 33.62 5.32
12 2 16 52.46 6.77
-12 -2 16 29.45 4.82
12 2 16 30.51 5.74
-16 12 -2 41.81 5.48
2 16 12 54.54 6.39
16 -14 2 88.25 10.03
2 16 -14 91.97 8.96
-14 2 16 85.6 8.69
2 -16 14 108.83 11.67
14 2 -16 99.37 9.06
16 -14 2 102.15 10.67
-16 14 2 95.74 9.84
-14 -2 -16 93.76 9.44
-14 2 16 98.86 11.7
-14 2 16 93.46 9.47
14 2 -16 87.12 9.57
-2 -16 -14 108.4 9.4
-2 16 14 100.94 9.93
16 14 -2 87.81 10.24
-14 -2 -16 97.39 8.89
2 -16 14 78.58 10.07
-16 -14 -2 90.18 9.4
-16 14 2 73.89 8.49
-16 14 2 113.86 9.98
14 -2 16 71.71 10.97
14 -2 16 91.6 8.59
-2 16 14 117.01 9.58
-2 -16 -14 113.6 10.35
16 14 -2 89.41 9.03
2 16 -14 93.24 9.83
2 -16 -14 104.8 9.34
14 2 16 82.16 10.73
16 14 2 98.86 10.43
-16 -14 2 92.32 9.28
2 -16 -14 102.88 9.55
14 -2 -16 98.76 8.97
-2 -16 14 100.69 11.22
-2 16 -14 96.5 8.86
-16 14 -2 103.71 10.04
-2 16 -14 67.03 9.88
14 -2 -16 95.43 9.5
-14 2 -16 82.56 9.3
14 -2 -16 68.49 9.49
-2 16 -14 101.93 9.9
2 16 14 99.53 10.03
14 2 16 99.69 10.32
-16 -14 2 121.75 10.36
-2 -16 14 90.89 9.08
-2 -16 14 93.13 9.08
-2 -16 14 70.46 9.65
2 -16 -14 106.18 10.55
2 16 14 110.03 9.85
-14 -2 16 73.99 11.56
2 16 14 95.94 9.62
16 -14 -2 81.89 10.82
16 -14 -2 103.51 9.07
14 2 16 98.8 8.94
16 0 -4 212.11 16.98
4 -16 0 243.88 18.69
4 16 0 173.96 18.21
4 -16 0 194.55 17.2
4 16 0 220.73 18.96
0 4 -16 208.14 17.16
0 4 -16 183.69 18.58
4 16 0 207.19 16.74
4 16 0 208.55 18.67
-16 0 4 182.79 19.18
-16 0 4 198.29 19.01
-4 -16 0 240.69 17.37
0 4 -16 165.47 19.23
16 0 4 227.14 17.04
16 0 4 212.23 18.84
0 4 -16 203.83 17.24
0 -4 -16 243.51 17.47
0 -4 -16 238.22 16.99
-16 0 -4 203.04 18.98
-4 -16 0 203.33 16.74
-4 -16 0 190.66 18.48
-4 -16 0 235.03 18.27
-4 -16 0 233.41 19.25
-4 16 0 176.62 16.87
16 0 4 229.61 18.64
16 0 -4 207.4 18.66
0 -4 -16 213.57 18.5
0 -4 -16 197.09 19.23
0 -4 16 186.62 17.06
4 -16 0 186.48 19.37
4 16 0 214.91 17.12
0 -4 16 191.61 19.63
-16 0 -4 248.43 18.87
-4 16 0 245.02 18.51
-4 16 0 222.76 18.54
-4 16 0 224.19 18.46
-4 16 0 207.52 19.17
-16 0 4 190.18 17.33
-16 0 4 212.51 17.35
0 4 16 229.15 17.23
0 4 16 230.26 16.96
0 -4 16 192.19 17.18
0 -4 16 178.27 18.93
-16 0 4 231.58 17.07
-16 0 -4 180.72 17.1
-16 0 -4 176.78 17.29
-16 0 -4 189.84 17.13
0 4 16 218.9 18.77
-16 0 4 185.08 18.53
4 16 -2 187.02 15.87
16 -2 4 176.19 15.69
-4 -16 -2 166.88 15.19
-4 -16 -2 191.19 16.17
2 -4 16 147.39 15.91
2 -4 16 167.63 16.52
2 4 -16 165.31 14.48
2 4 -16 163.05 14.31
16 -2 4 147.89 15.82
-2 4 16 177.17 14.44
-2 4 16 176.67 14.14
-2 4 16 177.36 15.57
-16 2 4 170.49 14.47
-16 -2 -4 152 14.37
-16 -2 -4 179.68 15.87
-16 -2 -4 190.12 15.67
4 16 -2 178.79 13.96
4 16 -2 159.29 15.58
4 16 -2 171.61 14.22
2 4 -16 143.34 16.19
-2 4 16 210.66 16.43
-16 2 4 182.12 14.21
-16 2 4 140.59 15.54
-16 2 4 150.07 15.31
-16 2 4 163.44 16.13
2 -4 16 166.62 14.24
2 -4 16 172.13 14.34
16 2 -4 181.54 14.22
16 2 -4 181.34 15.64
-2 -4 -16 177.11 15.53
-2 -4 -16 167.87 16.04
-2 -4 -16 201.48 14.58
-16 -2 -4 162.91 14.28
-16 -2 -4 153.26 14.59
-16 2 4 161.15 15.84
4 -16 2 154.99 14.22
4 -16 2 186.09 15.52
4 -16 2 175.93 16.36
-4 16 2 166.85 14.15
-4 16 2 186.65 15.42
-4 16 2 183.87 15.44
-4 16 2 166.76 15.37
-4 16 2 160.45 16
-4 -16 -2 152.67 15.37
-4 -16 -2 179.85 14.5
-16 -2 4 155.26 15.78
-2 -4 16 139.92 16.52
-2 -4 16 159.47 14.26
-16 -2 4 145.49 16.12
-4 -16 2 200.15 14.56
-2 4 -16 178.77 14.34
-2 4 -16 175.74 14.37
-2 4 -16 153.67 15.58
-2 4 -16 164.57 15.96
-16 2 -4 163.72 14.49
-16 2 -4 138.91 15.89
-4 -16 2 178.68 13.99
-4 -16 2 136.81 15.4
16 -2 -4 142.7 15.65
2 -4 -16 177.46 14.51
2 -4 -16 193.5 14.24
2 -4 -16 171.9 15.43
-4 16 -2 184.78 15.37
-2 -4 16 147.16 14.29
-2 -4 16 152.23 15.79
-4 -16 2 190.01 16.2
-16 2 -4 146.27 14.15
-16 -2 4 179.7 14.31
-16 -2 4 163.79 15.5
-16 2 -4 182.25 15.84
-16 -2 4 163.16 14.5
-4 16 -2 154.41 13.97
4 16 2 180.81 14.3
4 16 2 175.1 15.61
4 16 2 154.11 15.19
16 2 4 176.41 15.84
2 4 16 195.97 14.38
2 4 16 191.38 14.17
2 4 16 181.77 15.75
2 4 16 207.44 16.16
4 -16 -2 159.45 14.43
4 -16 -2 199.73 15.62
4 -16 -2 159.99 16.34
-4 16 -2 164.38 15.48
-4 16 -2 184.46 15.35
-4 16 -2 178.13 16.07
16 -2 -4 183.57 14.16
-16 -2 4 174.37 14.56
16 2 4 188.8 15.6
4 16 2 193.84 15.91
4 4 -16 67.82 9.12
4 -16 4 78.11 8.35
4 -16 4 79.64 9.38
-16 -4 -4 70.65 8.12
-16 -4 -4 78.6 8.43
4 16 -4 73.06 8.39
-16 -4 -4 64.44 7.78
-16 -4 -4 85.32 8.8
4 -4 16 83.9 7.89
-4 16 4 74.95 8.29
-16 -4 -4 85.61 7.77
16 -4 4 79.32 8.74
16 -4 4 85.33 8.4
-4 4 16 81.4 8.49
-4 4 16 89.07 9.52
4 16 -4 80.43 7.44
-4 -4 -16 94.69 7.86
-4 -4 -16 100.22 7.86
-4 16 4 71.74 7.35
-4 16 4 96.64 8.19
4 -4 16 84.66 9.47
-4 16 4 85.9 8.87
-4 -16 -4 76.26 8.28
-4 4 16 76.62 7.79
-4 4 16 72.11 7.46
16 4 -4 81.7 8.68
4 16 -4 85.06 8.92
-4 -4 -16 82.76 8.5
-16 4 4 74.43 7.7
-16 4 4 84.68 7.39
-16 4 4 65.77 8.41
-16 4 4 63.94 8.05
-16 4 4 73.22 8.68
-4 -16 -4 82.81 7.9
4 -4 16 74.29 7.16
-4 -16 -4 84.29 7.97
-4 -16 -4 74.67 8.88
4 16 -4 83.2 7.43
4 -16 4 65.89 7.29
4 4 -16 84.04 7.77
4 4 -16 67.14 8.12
4 -4 16 77.61 9.17
-4 -4 -16 82.73 8.6
4 4 -16 76.15 7.84
16 4 -4 76.8 7.66
-4 16 -4 83.28 8.24
-16 4 -4 80.46 8.77
-16 4 -4 70.11 8.78
-4 4 -16 78.38 7.9
-4 -16 4 85.36 7.8
-4 -16 4 73.31 7.29
4 4 16 92.92 7.7
-4 16 -4 70.18 6.97
4 4 16 92.82 8.94
-4 16 -4 79.62 8.12
-16 -4 4 76.61 7.94
-16 4 -4 91.49 8
-16 4 -4 68.92 7.23
-16 -4 4 78.26 8.46
16 -4 -4 87.2 7.73
16 -4 -4 79.66 9.06
-4 4 -16 72.69 8.15
-4 4 -16 75.8 8.53
-4 4 -16 77.55 8.66
4 -4 -16 77.37 8.02
4 -4 -16 81.59 7.73
-16 -4 4 76.85 7.66
4 4 16 98.47 8.81
-4 -16 4 65 8.22
-4 -16 4 85.82 9.28
4 -4 -16 78.43 8.17
-4 -4 16 83.8 7.84
4 16 4 79.13 7.51
-4 -4 16 70.46 8.67
-4 -4 16 62.25 9.57
-4 4 -16 82.17 7.54
16 4 4 87.57 7.59
16 4 4 88.92 9.18
16 4 4 89.76 8.52
4 -16 -4 91.81 8.35
4 -16 -4 80.3 8.18
4 16 4 85.26 8.42
4 16 4 85.35 8.06
-4 -4 16 78.3 7.67
-16 -4 4 65.51 8.92
4 -16 -4 79.82 7.87
-4 16 -4 75.76 8.83
-16 -4 4 74.87 8.03
-16 4 -4 78.64 7.3
-16 4 -4 80.32 7.91
16 -4 -4 85.82 8.09
4 4 16 91 7.63
-4 4 -16 80.7 8.4
4 -16 -4 73.94 9
-16 -6 -4 21.06 3.95
-16 -6 -4 24.96 3.75
-16 -6 -4 28.35 3.66
-16 -6 -4 24.42 3.97
-6 4 16 24.85 3.69
-6 4 16 29.03 3.41
-6 4 16 21.73 3.77
-6 4 16 24.97 4.74
-6 -4 -16 32.3 3.75
-6 -4 -16 23.92 3.89
-4 -16 -6 29.96 3.92
6 4 -16 21.57 3.46
6 4 -16 23.9 4.23
-6 -4 -16 25.48 3.7
-4 16 6 30.85 3.68
-4 16 6 27.32 3.76
-16 -6 -4 19.29 3.73
-4 -16 -6 28.41 4.17
6 4 -16 28.71 3.73
4 -16 6 28.38 3.46
4 -16 6 24.57 3.88
4 -16 6 26.19 3.91
-4 16 6 24.29 4.02
6 4 -16 26.48 3.78
-4 -16 -6 25.24 3.53
-16 6 4 25.35 3.72
16 -6 4 30.51 4.21
16 6 -4 23.35 3.49
16 -6 4 22.58 3.44
16 -6 4 24.61 4.39
-4 16 6 24.06 3.23
-4 -16 -6 34.12 4.51
-16 6 4 14.87 3.47
4 -16 6 27.6 4.96
-16 6 4 19.07 3.36
-16 6 4 40.72 4.25
-16 6 4 25.95 3.86
4 16 -6 31.46 3.94
4 16 -6 27.56 3.29
4 16 -6 21.08 3.58
4 16 -6 20.48 4.24
-6 -4 -16 31.59 3.65
6 -4 16 23.39 4.55
6 -4 16 28.61 4.84
16 6 -4 23.32 3.97
16 6 -4 25.92 3.92
-16 6 4 25.23 4.09
6 -4 16 23.15 3.56
6 -4 16 25.08 3.07
-16 6 -4 24.63 3.97
-16 -6 4 21.07 3.47
-16 -6 4 22.31 3.78
-6 -4 16 23.62 4.9
-4 16 -6 36.07 3.91
4 -16 -6 29.36 3.78
4 -16 -6 27.31 3.94
6 4 16 27.27 3.36
4 -16 -6 25.91 4.34
6 4 16 39.41 5.08
6 4 16 25.24 4.47
16 -6 -4 28.74 3.87
-16 6 -4 23.54 4.2
-6 4 -16 29.77 3.38
-6 4 -16 20.96 3.67
-6 4 -16 26.17 3.9
-6 4 -16 27.24 3.8
4 16 6 32.24 4.01
6 -4 -16 23.57 3.95
16 6 4 23.62 3.4
16 6 4 23.35 4.17
16 6 4 39.81 5.17
-6 -4 16 22.68 3.5
-6 -4 16 24.57 3.96
4 -16 -6 27.86 3.87
-16 -6 4 25.42 4.32
-16 6 -4 41.93 4.87
-6 -4 16 22.36 3.63
16 -6 -4 25.28 4.5
-6 4 -16 20.35 4.03
-16 -6 4 23.02 3.92
4 16 6 28.18 3.52
4 16 6 29.7 3.92
4 16 6 26.91 3.75
-16 6 -4 21.07 3.52
6 -4 -16 33.78 3.83
6 -4 -16 22.02 3.62
6 4 16 27.92 3.57
-4 -16 6 26.58 3.72
-4 -16 6 22.96 3.17
-4 -16 6 21.51 3.69
-4 -16 6 24.13 4.67
-16 6 -4 20.43 3.99
-4 16 -6 24.16 3.56
-4 16 -6 23.73 3.74
-4 16 -6 23.17 4.07
-6 4 -16 22.83 3.88
-8 -4 -16 2.6 2.63
-8 -4 -16 1.74 2.35
-16 -8 -4 1.13 2.65
16 -8 4 2.82 2.35
-4 -16 -8 4.13 2.95
-4 -16 -8 1.4 2.33
-16 -8 -4 3.45 2.98
-16 -8 -4 2.54 2.75
-16 -8 -4 1.61 2.67
-16 8 4 -1.71 2.61
-4 -16 -8 0.28 2.39
4 -16 8 3.09 2.52
4 -16 8 3.08 2.69
4 -16 8 0.64 3.09
4 -16 8 -4.83 3.97
4 16 -8 2.37 1.86
4 16 -8 4.69 2.52
4 16 -8 3.12 2.76
4 16 -8 -4.13 3.24
-8 4 16 1.27 2.26
8 -4 16 2.33 3.7
8 4 -16 -1.63 2.73
8 -4 16 -4.05 3.63
-16 8 4 -1.46 2.41
-4 16 8 1.47 2.11
16 8 -4 2.73 2.54
16 8 -4 2.02 2.88
16 8 -4 0.66 2.74
-8 4 16 -0.85 3.6
-16 8 4 -4.08 2.15
16 -8 4 3.37 3.2
-16 8 4 4.89 2.29
-16 8 4 0.82 2.67
-16 8 4 2.17 2.45
-16 8 4 0.2 2.48
16 -8 4 0.4 3.34
-16 8 4 -1.94 2.81
-8 -4 -16 3.54 2.4
-4 16 8 3.97 2.55
-4 16 8 4.69 2.62
-4 16 8 -5.19 3.01
-8 4 16 3.42 2.73
-4 -16 -8 3.86 3.07
8 4 -16 -2.76 2.65
8 4 -16 -1.11 2.17
-8 4 16 -1.5 3.17
16 8 4 -0.43 3.15
-16 -8 4 4.17 3.47
4 16 8 2.89 2.05
4 16 8 4.88 2.8
-16 8 -4 0.83 2.47
-8 4 -16 -1.87 2.63
-8 -4 16 0.77 2.47
-16 8 -4 4.5 2.67
-4 16 -8 0.34 2.67
-8 -4 16 -1.16 2.36
4 16 8 -3.37 2.75
-8 4 -16 2.47 2.99
4 -16 -8 2.97 2.31
8 4 16 0.54 2.23
-16 -8 4 2.18 2.71
-8 -4 16 1.24 2.74
-8 -4 16 0.23 3.88
-8 4 -16 2 2.74
4 -16 -8 0.13 2.89
8 4 16 1.91 3.56
4 -16 -8 -10.05 3.29
8 4 16 2.75 2.55
-4 -16 8 0.62 2.52
-4 -16 8 3.69 2.55
16 -8 -4 1.6 2.89
16 -8 -4 -3.34 3.29
-8 4 -16 -3.15 2.77
-8 4 -16 -0.41 2.62
4 -16 -8 3.98 2.5
-16 8 -4 2.61 3.06
-16 8 -4 1.8 2.84
-16 8 -4 1.25 2.94
-16 -8 4 2.23 2.71
-4 16 -8 2.19 2.2
8 -4 -16 2.04 2.83
8 -4 -16 0.95 2.66
8 -4 -16 0.69 2.35
-4 -16 8 2.39 2.55
16 8 4 2.79 2.23
16 8 4 -0.89 2.89
4 16 8 3.83 2.72
8 4 16 1.07 2.89
-4 -16 8 -0.41 3.94
-4 16 -8 0.66 2.27
16 -10 4 3.72 2.4
-16 10 4 0.47 2.55
-4 -16 -10 3.4 2.43
-4 -16 -10 6.17 2.62
4 16 -10 0.15 2.61
10 -4 16 0.32 3.82
10 -4 16 5.1 3.89
10 4 -16 2.75 2.84
-16 10 4 1.07 2.25
16 10 -4 1.45 2.56
-4 -16 -10 4.43 3.22
-4 -16 -10 1.44 2.87
-16 10 4 1.69 2.72
-10 4 16 2.44 2.26
-10 4 16 4.41 2.77
-16 -10 -4 2.3 2.66
4 16 -10 1.31 2.89
-16 10 4 3.78 2.86
-16 10 4 1.67 2.82
-10 -4 -16 2.07 2.56
-10 -4 -16 2.87 2.8
-10 -4 -16 8 2.83
16 10 -4 4.35 2.89
16 10 -4 2.35 3.1
-4 16 10 8.17 2.57
4 -16 10 3.39 1.26
-10 4 16 4.63 3.77
10 4 -16 6.17 2.93
-16 -10 -4 7.1 3.14
16 -10 4 2.1 3.31
16 -10 4 9.04 3.65
4 -16 10 1.09 3.45
4 -16 10 -3.15 4.05
-4 16 10 3.74 2.74
-4 16 10 3.76 2.75
16 -10 -4 1.32 3.51
-4 -16 10 -0.1 4.24
-4 16 -10 3.88 2.49
-4 16 -10 3.8 2.47
4 16 10 5.71 2.81
10 -4 -16 2.13 2.92
-10 4 -16 6.23 3.21
4 16 10 4.03 2.92
4 -16 -10 5.08 3.05
4 -16 -10 6.56 2.33
4 -16 -10 3.97 3.48
10 -4 -16 6.51 2.85
-10 -4 16 0.15 4.05
-10 4 -16 0.86 2.77
10 -4 -16 2.08 2.58
-4 -16 10 -1.18 2.71
-10 4 -16 1.71 2.76
10 4 16 1.6 3.09
10 4 16 1.22 3.91
16 -10 -4 2.71 2.99
4 16 10 3.19 2.83
-16 10 -4 4.45 2.78
-16 -10 4 8.07 3.77
-16 10 -4 3.59 2.52
-16 10 -4 5.38 3.19
-16 -10 4 2.8 2.8
-16 -10 4 5.12 2.88
-4 16 -10 0.93 2.88
-10 4 -16 1.75 2.99
16 10 4 -0.49 3.02
-4 -16 10 1.8 2.65
-4 -16 10 -1.2 2.72
16 -12 4 11.03 4.03
16 -12 4 14.22 3.75
-12 4 16 15.9 3.17
-12 4 16 13.52 4.31
16 -12 4 12.51 2.97
-12 4 16 15.06 2.78
-16 -12 -4 17.11 3.6
-12 -4 -16 16.97 3.5
-4 16 12 14.02 3.23
12 4 -16 15.26 3.31
-4 -16 -12 12.9 3.38
16 12 -4 13.58 3.69
12 -4 16 9.03 4.16
12 -4 16 18.26 4.21
12 4 -16 12.19 3.48
4 16 -12 12.38 3.09
-4 -16 -12 14.61 2.99
-4 -16 -12 17.5 3.7
-16 12 4 7.42 2.67
-16 12 4 20.2 3.5
-16 12 4 12.87 3.6
-12 -4 -16 13.18 2.99
-12 -4 -16 11.53 3.51
16 12 -4 12.44 3.15
4 -16 12 9.54 4.68
16 12 -4 15.58 3.41
4 16 -12 11.39 3.5
4 -16 12 11.36 4.15
-4 16 12 20.5 3.31
4 -16 12 16.19 3.42
-16 -12 -4 14.76 3.3
12 -4 -16 13.25 3.3
4 -16 -12 17.04 2.93
-12 4 -16 7.22 3.91
4 -16 -12 15.38 3.7
-4 16 -12 9.68 3.38
-4 -16 12 15.17 4.64
-12 4 -16 14.4 3.94
-4 16 -12 12.41 3.06
-12 4 -16 7.97 3.17
12 -4 -16 13.74 3.22
16 12 4 9.55 3.59
-4 -16 12 16.4 3.7
-4 -16 12 9.1 3.23
-4 -16 12 10.48 3.39
-4 16 -12 15.28 2.95
-12 4 -16 6.66 3.16
12 4 16 12.25 4.33
16 -12 -4 12.26 3.47
16 -12 -4 7.99 4.3
12 4 16 14.93 3.74
4 16 12 17.35 3.45
4 16 12 16.12 3.58
4 16 12 16.8 3.38
-16 12 -4 12.69 3.55
-16 12 -4 17.29 3.44
-16 12 -4 14.45 3.05
-12 -4 16 11.02 4.76
-16 -12 4 13.07 3.32
-16 -12 4 20.28 4.36
12 -4 -16 14.33 3.59
4 -16 -12 12.95 3.84
14 4 -16 33.03 4.38
14 -4 16 24.14 5.46
16 -14 4 37.13 5.4
-14 -4 -16 29.17 4.51
4 16 -14 29.44 4.74
16 -14 4 40.41 5.02
-16 -14 -4 29.1 4.7
-14 4 16 47.19 5.54
-14 4 16 23.17 5.48
-4 -16 -14 35.64 4.67
-4 16 14 49.43 5.41
-14 4 16 26.57 3.82
16 14 -4 29.09 4.85
16 14 -4 28.53 4.66
-16 -14 -4 34.94 4.71
-4 -16 -14 44.48 5.12
4 -16 14 31.48 5.97
4 16 -14 24.1 4.13
-16 14 4 29.46 3.95
-16 14 4 24.46 4.63
14 4 -16 25.64 4.56
16 14 -4 25.88 4.14
-4 16 14 31.49 4.62
16 -14 4 30.33 5.01
-14 -4 -16 41.88 5.27
4 -16 14 31.41 5.34
14 -4 -16 36.05 4.3
-4 -16 14 34.81 4.68
-4 -16 14 54.7 5.97
14 -4 -16 29.54 4.66
16 -14 -4 37.47 4.73
-16 14 -4 31.08 4.18
-14 4 -16 22.35 4.26
-14 4 -16 32.47 5.07
16 14 4 30.96 5.03
14 4 16 31.42 4.9
14 4 16 27.45 5.46
-16 -14 4 28.29 4.44
-16 -14 4 56.5 7.27
-16 14 -4 30.61 4.77
16 -14 -4 26.07 5.63
4 16 14 37.23 4.73
4 16 14 35.88 5.02
-4 -16 14 23.08 4.54
-4 -16 14 30.07 5.69
-4 16 -14 44.84 5.36
-4 16 -14 44.29 5.79
-14 -4 16 20.63 5.8
4 -16 -14 34.03 4.91
4 -16 -14 43.82 5.08
4 -16 -14 34.23 5.21
-6 -16 0 54.7 6.84
0 6 -16 37.74 4.9
0 6 -16 38.51 5.74
0 6 -16 44.65 6.58
0 6 16 54.53 5.54
16 0 6 48.53 5.11
0 6 16 50.41 6.23
0 6 16 61.82 7.22
0 6 16 58.27 6.4
6 -16 0 43.29 5.44
6 -16 0 54.61 6.31
0 6 -16 52.67 5.57
6 16 0 51.69 5.31
16 0 6 49.65 7.03
16 0 6 52.77 6.65
-6 -16 0 47.97 5.35
-6 -16 0 47.93 5.85
0 -6 16 34.39 4.89
0 -6 16 35.73 5.62
0 -6 16 39.1 6.1
-16 0 6 47.51 5.83
-16 0 6 40.32 5.56
-16 0 6 40.68 5.9
-16 0 6 35.06 5.64
-16 0 6 41.17 5.57
-6 16 0 42.48 4.85
-6 16 0 51.66 5.94
-6 16 0 51.96 6.11
-6 16 0 51.25 5.83
-6 16 0 49.72 6.51
0 -6 -16 58.17 5.92
6 16 0 42.28 5.35
6 16 0 51.38 6.25
-16 0 -6 38.87 5.04
-16 0 6 37.28 5.72
-16 0 6 35.33 5.42
-6 -16 0 58.8 5.91
16 0 -6 46.19 5.62
-16 0 -6 53.67 5.12
6 -16 0 39.36 5.93
-16 0 -6 37.2 5.65
0 -6 -16 59.63 5.73
0 -6 -16 51.63 5.98
0 6 16 52.12 5.4
6 16 0 47.93 5.86
-16 0 -6 55.49 6.69
16 0 -6 48.88 6.39
0 -6 16 49.09 5.23
6 -16 2 50.98 5.89
-16 -2 -6 66.29 5.97
-16 2 6 50.38 6.26
-16 2 6 57 7.87
16 2 -6 55.95 6.97
-6 -16 -2 59.62 6.38
-16 -2 -6 55.03 6.58
2 -6 16 51.83 6.38
6 -16 2 62.82 6.94
-2 -6 -16 68.05 6.53
16 2 -6 57.44 6.27
-2 -6 -16 60.67 6.63
-6 16 2 56.91 6.54
-16 2 6 48.36 6.01
-2 6 16 57.46 6.04
2 -6 16 58.08 7.46
2 -6 16 59.97 8.22
2 6 -16 57.71 6.24
-6 16 2 49.72 5.58
-6 16 2 62.97 6.71
2 -6 16 49.82 5.74
16 -2 6 61.68 5.6
16 -2 6 54.96 6.36
16 -2 6 56.04 7.48
16 -2 6 58.89 7.29
6 16 -2 60.09 5.98
6 16 -2 56.02 5.86
6 16 -2 55.7 6.92
6 16 -2 70.12 7.35
-6 16 2 56.23 6.47
-6 16 2 63.42 7.28
-6 -16 -2 61.89 7.32
-2 6 16 64.35 7.75
-16 2 6 38.22 6.2
2 6 -16 54.99 6.25
2 6 -16 48.57 6.44
2 6 -16 48.99 7.4
6 -16 2 55.34 7.97
-16 -2 -6 56.34 7.08
-16 2 6 62.85 6.88
-16 2 6 55.27 6.34
-16 -2 -6 60.2 7.26
-2 6 16 60.42 5.88
-2 6 16 54.32 6.67
-6 -16 -2 58.16 6.11
-2 6 16 55.68 7.1
-6 -16 -2 52.98 6.48
-16 2 6 50.81 6.43
-2 -6 -16 76.23 6.37
-6 -16 -2 56.12 5.71
2 -6 -16 63.29 6.63
-6 -16 2 49.11 6.56
2 6 16 60.73 6.02
2 6 16 70.5 6.08
-2 6 -16 50.85 6.35
2 -6 -16 67.71 6.14
-16 2 -6 51.94 6.45
-16 2 -6 48.18 7.4
-16 2 -6 55.06 7.2
-2 6 -16 58.47 6.31
6 16 2 53.29 6.28
-2 6 -16 59.19 6.87
-16 -2 6 54.63 6.36
16 2 6 64.26 7.16
-16 -2 6 49.69 6.22
-2 -6 16 55.33 6.26
-2 -6 16 46.08 7
-2 6 -16 56.99 6.05
-6 16 -2 50.33 5.36
2 -6 -16 54.67 6.64
16 -2 -6 46.73 6.92
-16 -2 6 47.1 6.53
2 6 16 54.41 7.09
-16 -2 6 58.75 6.68
-2 6 -16 56.45 7.09
6 16 2 48.68 6.29
-6 -16 2 60.27 7.46
2 6 16 67.86 7.53
2 6 16 58.26 6.57
-6 16 -2 57.48 6.54
-6 16 -2 61.33 6.56
-6 16 -2 54.3 7.39
16 -2 -6 60.82 6.65
16 -2 -6 62.73 6.16
6 16 2 60.94 6.91
6 16 2 61.53 6
6 16 2 53.53 5.97
6 -16 -2 52.93 6.21
6 -16 -2 64.68 6.86
16 2 6 54.23 7.35
6 -16 -2 47.49 7.4
-16 -2 6 69.34 7.72
-6 -16 2 65.6 6.54
-6 -16 2 46.54 5.49
16 -4 6 21.43 4.37
16 4 -6 24.25 3.56
6 16 -4 23.67 4.28
-6 16 4 30.89 3.75
-6 16 4 29.2 3.76
-4 6 16 26.84 3.56
-16 4 6 23.66 3.3
-16 4 6 25.52 3.8
6 16 -4 25.12 3.33
16 -4 6 24.77 3.59
6 -16 4 28.57 3.91
4 -6 16 24.92 3.06
4 -6 16 21.81 3.68
6 16 -4 21.83 3.82
-16 4 6 19.63 3.44
-16 4 6 22.08 4.35
6 16 -4 29.83 3.49
-4 6 16 28.31 3.95
-4 6 16 33.27 4.63
-16 -4 -6 24.44 3.6
-16 -4 -6 23.55 3.99
-16 -4 -6 21.76 4.12
-6 -16 -4 27.99 3.49
-6 -16 -4 23.84 4.29
-6 16 4 21.84 3.18
6 -16 4 27.15 4.87
16 4 -6 20.13 3.95
-6 16 4 24.23 3.97
-4 -6 -16 29.06 3.67
4 6 -16 20.63 3.58
4 6 -16 25.14 4.27
-16 4 6 21.06 3.51
4 -6 16 25.95 5.02
-4 -6 -16 35.13 4.42
-4 -6 -16 21.3 3.77
-16 -4 -6 28.37 3.59
-16 -4 -6 22.9 4.01
-6 -16 -4 29.39 3.95
-6 -16 -4 32.05 4.01
-6 -16 -4 26.35 3.62
4 6 -16 25.68 3.68
4 6 -16 24.73 3.7
-4 6 16 27.94 4.22
-4 6 16 29.77 3.42
-4 -6 -16 32.96 3.8
6 -16 4 26.07 3.96
4 -6 16 23.74 4.63
-16 4 6 24.64 3.67
6 -16 -4 28.68 3.84
-4 -6 16 23.43 4.28
16 4 6 25.34 4.3
-4 6 -16 20.79 3.97
-4 6 -16 22.9 3.47
-4 6 -16 28.09 3.77
4 -6 -16 25.31 3.68
-16 4 -6 24.44 3.82
6 -16 -4 21.43 4.23
16 -4 -6 28.62 4.03
-6 16 -4 21.36 4.09
-16 -4 6 22.29 3.54
-4 6 -16 24.26 4.01
6 16 4 30.63 4.12
-6 -16 4 21.35 3.55
-6 -16 4 28.56 4.75
6 -16 -4 29.97 3.81
-6 16 -4 23.05 3.49
4 6 16 28.61 3.46
4 6 16 29.82 3.57
4 6 16 31.71 3.83
4 6 16 22.87 4.14
4 6 16 35.26 4.35
4 6 16 31.04 3.74
6 16 4 25.07 3.41
-6 16 -4 24.16 3.67
6 16 4 31.81 3.76
-16 -4 6 24.69 3.91
-6 -16 4 24.47 3.72
-6 -16 4 22.5 3.26
-16 -4 6 18.65 3.63
-16 -4 6 28.8 4.5
-16 4 -6 28.9 3.75
4 -6 -16 28.3 3.88
4 -6 -16 31.46 3.65
-4 -6 16 24.93 3.62
-4 -6 16 24.29 3.58
16 4 6 41.12 4.39
-16 4 -6 20.66 4.08
6 16 4 25.43 3.87
16 -4 -6 24.5 3.47
-4 -6 16 23.11 5.04
-16 4 -6 20.81 4.14
16 4 6 29.81 4.41
-16 -4 6 24.64 3.93
-6 -6 -16 7.39 2.87
-16 6 6 8.29 2.33
-16 -6 -6 5.95 3.11
-16 6 6 6.86 2.92
-16 6 6 6.63 2.66
-16 -6 -6 4.56 2.6
6 16 -6 9.68 2.92
6 16 -6 2.15 3.42
16 -6 6 3.55 3.45
6 -6 16 2.55 3.86
-16 6 6 4.71 2.54
6 6 -16 6.57 3.22
-16 6 6 5.45 3.27
-6 -16 -6 9.36 2.96
-6 -16 -6 5.46 2.27
6 -6 16 0.93 3.9
6 6 -16 4.24 2.82
6 6 -16 6.3 2.58
16 -6 6 3.69 3.09
-16 6 6 2.57 2.33
6 -16 6 5.61 2.55
-16 -6 -6 5.45 3.07
-6 16 6 3.73 3.08
-6 -16 -6 3.94 2.58
-6 16 6 8.96 2.67
-6 16 6 5.3 2.58
6 16 -6 8.36 2.69
-6 6 16 3.85 2.78
6 -16 6 3.24 2.89
6 -16 6 7.37 3.18
6 -16 6 4.98 4.12
-6 -6 -16 7.84 2.72
-16 6 6 10.79 3.02
16 6 -6 3.32 2.94
16 6 -6 0.91 1.91
-6 -16 -6 5.89 2.36
-6 -16 -6 6.99 3.23
-6 6 16 9.27 2.71
-6 16 6 4.99 2.14
-6 -6 -16 9.43 2.75
16 -6 6 6.12 2.67
-16 -6 -6 0.18 2.65
-6 6 16 9.57 2.26
6 16 -6 10.82 2.22
16 6 -6 8.95 2.69
-6 -6 -16 10.07 2.74
-16 -6 -6 3.34 3.02
6 -6 16 7.12 2.9
6 6 -16 5.44 2.41
-6 6 16 6.87 3.26
-6 6 16 6.32 3.62
-16 -6 6 6.81 2.95
6 -6 -16 7.46 2.64
-6 -6 16 6.51 4.15
-16 -6 6 1.35 2.68
6 6 16 7.07 2.63
-6 -6 16 3.82 2.74
6 16 6 7.12 2.4
6 16 6 2.87 2.8
-16 -6 6 6.02 3.1
6 -16 -6 0.74 3.5
6 6 16 7.71 2.24
6 -6 -16 10.97 3.15
-6 16 -6 5.97 2.75
-16 -6 6 9.36 3.65
-16 -6 6 6.29 2.56
-16 6 -6 5.55 3.09
-16 6 -6 6.58 3.01
-16 6 -6 5.71 3.26
-16 6 -6 1.94 2.37
16 6 6 7.18 2.6
16 6 6 6.71 3.21
16 6 6 6.92 3.55
6 6 16 7.37 3.08
6 -6 -16 7.77 2.79
6 -16 -6 7.56 2.57
6 -16 -6 8.47 2.76
-6 -16 6 9.1 2.81
6 6 16 7.35 3.44
-6 6 -16 0.48 2.93
-6 6 -16 1.08 3.06
-16 6 -6 6.29 2.9
-6 -16 6 1.67 3.86
-6 16 -6 6.9 2.23
-6 16 -6 8.02 2.63
-6 -16 6 5.65 2.48
-6 16 -6 8.08 2.99
16 -6 -6 2.85 3.63
-6 6 -16 6.31 2.84
6 -16 -6 1.96 3.03
16 -6 -6 7.29 3.18
6 16 6 2.79 2.87
-6 6 -16 8.5 2.81
6 16 6 11.57 2.98
-6 -6 16 7.75 2.62
16 -6 -6 7.81 2.72
-6 -16 6 3.91 2.54
-8 -6 -16 3.3 2.51
6 16 -8 -4.76 3.29
-16 8 6 -0.28 2.38
-16 8 6 2.83 3.08
8 6 -16 3.56 2.85
16 8 -6 0.22 2.53
-6 -16 -8 0.84 2.57
16 8 -6 0.79 2.86
-16 -8 -6 1.53 2.68
-8 -6 -16 0.82 2.24
16 -8 6 1.71 3.22
6 16 -8 2.96 1.96
-16 8 6 0 2.41
8 -6 16 1.68 3.93
-16 8 6 6.99 2.23
-16 8 6 -2.05 2.89
-6 16 8 0.97 2.09
-6 16 8 4.66 2.39
-8 6 16 0.8 2.72
-8 6 16 1.96 3.54
-6 -16 -8 1.19 2.92
6 16 -8 4.36 2.86
-6 -16 -8 2.3 2.46
-16 8 6 0.32 2.6
8 -6 16 1.3 3.81
6 -16 8 3.48 2.57
-16 -8 -6 2.11 3.01
-16 -8 -6 2.93 2.77
-16 8 6 -0.06 2.71
-8 6 16 3.28 2.13
-8 -6 -16 1.08 2.65
-6 -16 -8 1.84 3.06
16 8 -6 1.61 2.94
6 -16 8 0.26 4.19
8 6 -16 2.59 2.63
16 -8 6 -0.21 2.5
-6 16 8 0.4 2.43
6 16 -8 3.61 2.43
16 -8 6 -4.62 3.45
6 -16 8 4.77 3.22
-16 8 -6 2.79 3.13
8 -6 -16 3.4 2.54
16 8 6 0.96 2.31
8 6 16 -0.49 2.94
8 6 16 2.92 3.58
6 16 8 -1.93 2.69
-8 6 -16 1.67 2.93
16 -8 -6 -2.08 3.63
8 -6 -16 0.69 2.65
-8 6 -16 4.6 3.03
-6 16 -8 3.33 2.6
-6 16 -8 -1.25 2.77
6 -16 -8 -2.6 3.33
-16 -8 6 3.43 2.92
-16 -8 6 2.22 2.66
-16 -8 6 7.6 3.75
6 -16 -8 1.95 3.09
6 -16 -8 3.05 1.47
6 16 8 2.33 2.84
16 8 6 0.2 2.94
16 -8 -6 -1.29 2.87
-16 8 -6 -0.24 2.42
-6 -16 8 3.16 2.68
-6 16 -8 2.04 2.32
-6 -16 8 0.94 2.47
-8 6 -16 -2.97 2.81
6 16 8 5.23 2.73
8 -6 -16 1.96 3.05
-8 6 -16 0.88 2.74
8 6 16 4.76 2.32
8 6 16 4.19 2.48
16 8 6 -1.41 3.41
-16 8 -6 6.49 2.76
-8 -6 16 -1.22 2.66
-8 -6 16 2.66 3.95
-6 -16 8 0.02 2.53
-6 -16 8 0.26 4.07
-10 6 16 1.91 3.65
6 -16 10 -1.48 3.51
6 16 -10 -1.26 2.83
-10 -6 -16 0.37 2.48
6 16 -10 -3.5 2.47
16 10 -6 1.94 3.21
16 -10 6 1 2.28
-10 6 16 1.63 2.66
16 -10 6 2.24 3.49
16 10 -6 -0.71 2.55
-10 -6 -16 2.66 2.67
16 10 -6 0.14 2.97
6 -16 10 1.37 0.89
10 -6 16 0.49 3.75
10 -6 16 -1.51 3.95
10 6 -16 0.52 2.82
10 6 -16 0.68 2.87
-6 16 10 -1.68 2.55
6 -16 10 -8.13 4.19
-6 -16 -10 -2.46 2.86
-6 -16 -10 -3.97 2.6
-6 -16 -10 -0.84 2.45
-6 -16 -10 -0.18 2.52
-6 -16 -10 -2.12 3.16
-16 -10 -6 -1.62 3.05
-10 -6 -16 1.99 2.9
-10 6 16 1.74 2.15
-16 10 6 -0.37 2.66
-16 10 6 -3.76 2.69
16 -10 6 -2.37 3.44
-16 -10 -6 0.91 2.73
-16 10 6 -2.19 2.7
-16 -10 -6 0.34 2.62
-6 16 10 5.04 2.71
-16 10 6 -0.75 2.39
-10 6 -16 1.57 2.7
-6 16 -10 0.21 2.58
10 6 16 2.59 2.39
16 -10 -6 -5.53 3.69
-10 6 -16 -2.43 2.92
16 10 6 -1.1 2.94
-6 -16 10 1.8 4.08
-6 16 -10 2.2 2.48
-6 -16 10 -0.82 2.63
-6 16 -10 1.07 2.9
10 -6 -16 -1.23 2.84
-10 -6 16 -3.83 4.29
16 10 6 -1.03 3.43
6 -16 -10 2.22 2.29
6 -16 -10 -0.68 3.39
10 -6 -16 2.09 2.68
6 -16 -10 1.29 3.11
-10 6 -16 -5.67 2.87
-6 -16 10 1.9 2.77
10 6 16 0.19 3.1
-16 -10 6 1.88 2.96
-16 -10 6 -0.52 2.72
-16 -10 6 3.83 4.14
-10 6 -16 1.67 3.22
6 16 10 -0.42 2.97
6 16 10 0.54 3.07
10 -6 -16 -5.02 2.96
-16 10 -6 3.44 2.79
-16 10 -6 1.43 3.06
16 -10 -6 5.49 3.13
-6 -16 10 -1.84 2.69
-16 10 -6 8.44 2.68
10 6 16 1.06 3.87
-6 -16 -12 2.53 2.6
-16 -12 -6 3.35 3.06
-16 -12 -6 -1.09 3.29
-6 16 12 1.68 2.78
-6 -16 -12 0.51 2.8
12 -6 16 6.95 4.02
-12 6 16 1.44 3.79
16 -12 6 -0.27 3.54
-16 12 6 3.01 2.49
6 -16 12 1.77 2.87
6 -16 12 -0.22 3.81
6 -16 12 -6.32 4.33
6 16 -12 -3.44 2.71
-12 -6 -16 1.23 3.01
12 -6 16 0.3 4.07
-16 -12 -6 0.82 2.72
-6 16 12 4.31 2.67
12 6 -16 1.72 2.86
-16 12 6 -3.45 2.84
-16 12 6 0.42 2.9
-12 -6 -16 1.53 2.79
-6 -16 -12 -0.38 2.98
12 6 -16 3.08 3
16 12 -6 2.87 3.29
16 12 -6 0.37 3.16
6 16 -12 -0.59 3.03
-12 6 16 0.93 2.26
16 12 -6 1.35 2.71
-12 -6 -16 1.37 2.94
16 -12 6 3.64 3.99
-12 6 16 2.61 2.95
-6 16 -12 1.52 3.07
-16 12 -6 1.82 3.07
-16 12 -6 0.64 2.91
-6 16 -12 1.79 2.72
-16 12 -6 6.81 2.83
6 -16 -12 2.17 2.3
16 12 6 -1.7 3
16 -12 -6 1.98 3.32
-12 -6 16 -4.22 4.38
12 6 16 0.88 2.55
12 6 16 0.99 3.14
-16 -12 6 -1.29 2.95
-6 -16 12 1.69 4.3
6 16 12 0.08 2.75
12 -6 -16 0.37 3.03
6 -16 -12 0.97 3.37
-6 -16 12 3.72 3.37
-6 16 -12 2.77 2.61
6 16 12 3.86 3.26
-12 6 -16 1.3 2.93
-12 6 -16 1.34 3.57
12 6 16 1.45 4.08
6 -16 -12 0.16 3.24
16 -12 -6 -5 3.76
-16 -12 6 -2.05 4.36
12 -6 -16 -2.32 2.77
12 -6 -16 3.25 2.85
-6 -16 12 1.2 3.02
-6 -16 12 -3.92 2.75
6 16 12 -2.54 3.04
16 12 6 -1.72 3.56
-6 16 14 5.28 2.97
-14 -6 -16 6.05 3.16
-14 -6 -16 6.2 3.02
16 14 -6 0.27 3.42
-16 -14 -6 5.01 2.71
-16 -14 -6 0.97 3.1
-6 -16 -14 4.72 3.19
-6 -16 -14 4.66 3.04
14 -6 16 0.36 3.96
-16 14 6 3.2 2.65
-6 16 14 7.48 2.97
-16 14 6 3.17 3.14
-14 6 16 3.96 2.43
-14 6 16 7.63 3.07
16 14 -6 0.76 2.85
16 14 -6 4.33 3.61
16 -14 6 3.77 3.59
6 16 -14 1.79 3
-16 14 6 2.63 3.01
-16 -14 -6 3.51 3.62
6 -16 14 3.34 4.13
-14 6 16 3.17 4.13
16 -14 6 2.44 2.78
6 16 -14 0.97 3.33
14 6 -16 1.45 3.07
6 -16 14 -0.36 4.71
16 -14 6 4.7 4.38
-6 -16 14 7.54 3.45
-14 6 -16 3.98 3.73
-6 16 -14 6.02 2.92
16 -14 -6 -3.94 4.26
16 -14 -6 7.55 3.53
-16 14 -6 10.74 2.94
-14 6 -16 -6.96 3.04
6 16 14 5.41 3.04
-6 -16 14 0.73 3.01
6 -16 -14 2.64 3.83
-16 -14 6 2.37 3.06
-16 -14 6 0.27 4.74
6 -16 -14 4.47 3.6
14 6 16 -1.3 4.23
-16 14 -6 4.19 3.34
16 14 6 0.86 3.82
14 -6 -16 0.86 3.42
-14 6 -16 3.11 3.12
14 -6 -16 3.67 3.01
-6 16 -14 3.24 2.91
16 14 6 5.66 3.49
6 16 14 0.35 3.24
-6 -16 14 5.79 4.5
14 6 16 3.06 3.56
6 16 14 0.17 3.54
-14 -6 16 -0.54 4.77
8 16 0 7.36 2.52
-8 16 0 6.45 2.64
-8 16 0 6.26 1.86
-16 0 8 3.86 3.72
16 0 8 7.54 3.29
8 16 0 10.56 2.42
8 16 0 5.63 2.84
16 0 8 4.6 2.7
-8 -16 0 5.44 3.5
8 16 0 9.5 3.09
16 0 -8 9.1 3.04
0 8 -16 10.17 2.64
0 8 -16 4.65 2.48
-16 0 8 4.98 3.21
8 -16 0 5.75 2.59
8 -16 0 5.94 2.87
8 -16 0 7.25 3.6
16 0 8 8.75 2.32
-16 0 -8 2.92 3.2
16 0 8 8.58 3.64
-16 0 8 5.64 2.55
-16 0 8 11.67 2.65
-16 0 8 4 2.28
-16 0 8 4.4 2.43
-16 0 -8 11.46 2.28
-16 0 -8 3.63 2.89
-8 -16 0 9.67 2.99
-8 -16 0 6.08 2.58
0 -8 16 8.35 3.66
0 -8 16 3.25 4.1
0 8 16 7.22 2.94
0 8 16 8.81 3.48
0 8 16 9.13 2.41
0 8 -16 7.05 2.37
16 0 -8 8.65 2.89
-8 16 0 7.77 2.86
-8 16 0 6.65 2.54
-8 16 0 7.68 3.04
0 -8 -16 9.2 2.89
0 -8 -16 13.19 2.88
0 -8 -16 6.44 2.63
0 -8 16 8.28 2.37
0 -8 16 4.43 2.53
0 -8 16 11.27 2.68
0 8 -16 4.88 3.06
16 0 -8 7.85 2.81
0 8 -16 2.25 1.22
0 8 16 7.47 3.08
-16 0 -8 4.89 3.27
0 8 16 8.5 2.37
-16 0 8 6.99 2.8
-16 -2 -8 2.55 3.09
2 8 -16 1.77 2.95
-2 8 16 -0.34 3
2 8 -16 1.68 2.22
-16 -2 -8 -3.62 3.04
2 8 -16 1.71 2.58
2 8 -16 1.96 2.5
-2 8 16 2.17 2.2
-2 8 16 2.71 2.13
-2 8 16 0.52 2.82
-2 8 16 2.91 3.47
-8 16 2 0.74 2.51
2 -8 16 0.37 2.63
2 -8 16 3.28 2.73
2 -8 16 -2.63 3.64
-16 2 8 4.44 2.7
-16 2 8 -0.56 2.28
-16 2 8 2.19 2.54
-8 16 2 0.94 2.46
-8 16 2 3.9 2.8
2 8 -16 2.04 2.49
-2 -8 -16 2.87 2.74
2 -8 16 2.68 1.98
16 2 -8 4.02 2.86
16 -2 8 6.52 1.95
16 -2 8 1.38 2.5
16 -2 8 3.74 3.27
-16 -2 -8 3.06 2.32
16 2 -8 2.08 2.59
8 16 -2 4.36 2.4
-8 16 2 0.62 1.92
-8 16 2 2.13 2.48
-16 -2 -8 3.72 2.71
8 -16 2 3.38 2.72
-8 -16 -2 -4.75 2.48
-2 -8 -16 2.96 2.62
16 -2 8 1.81 3.55
-2 -8 -16 0.89 2.47
2 -8 16 -2.07 4.28
-8 -16 -2 -0.08 3.25
8 -16 2 2.22 3.7
8 16 -2 5.03 2.19
8 16 -2 -1.22 2.78
-8 -16 -2 1.7 2.15
-16 2 8 1.76 2.21
-16 2 8 -0.39 2.3
-16 2 8 2.51 3.65
-16 2 8 0.71 3.16
-8 -16 -2 3.73 2.84
8 16 -2 0.05 2.66
-16 2 -8 -1.23 2.9
2 -8 -16 2.4 2.59
-16 2 -8 0.76 3.04
8 16 2 -1.97 2.67
16 2 8 2.96 3
16 2 8 2.5 3.49
2 -8 -16 1.67 2.32
-16 2 -8 0.34 1.87
-2 8 -16 3.61 2.42
16 2 8 3.12 2.29
16 2 8 -4.2 2.57
-16 -2 8 -0.48 2.67
2 8 16 0.61 2.77
2 8 16 3.16 3.24
2 8 16 2.11 2.79
8 -16 -2 -0.26 2.69
8 -16 -2 -1.98 2.61
8 -16 -2 0.57 3.16
-8 -16 2 4.62 3.54
-8 16 -2 0.86 2.5
-16 -2 8 -0.91 2.5
-16 -2 8 0.71 2.33
8 16 2 2.13 2.51
-2 -8 16 4.02 4.16
8 16 2 2.89 2.74
2 8 16 1.93 2.22
2 8 16 4.48 2.3
16 -2 -8 3.52 2.97
16 -2 -8 0.02 2.53
-2 8 -16 -1.7 3.05
16 -2 -8 0.22 2.79
-8 16 -2 4.53 2.44
-8 16 -2 1.79 2.79
-16 -2 8 2.69 3.78
-8 -16 2 4.37 2.33
2 -8 -16 0.34 2.74
-8 -16 2 1.71 2.32
-16 2 -8 2.02 3.21
-2 -8 16 0.46 2.32
-2 8 -16 1.94 2.42
-2 8 -16 -1.85 2.7
8 16 2 3.16 2.15
-2 8 -16 -0.87 2.26
-2 -8 16 0.94 2.48
-2 -8 16 1.32 3.37
-8 -16 2 1.25 2.68
-16 4 8 2.52 3.19
8 -16 4 -0.26 3.81
-8 -16 -4 1.71 2.98
-4 8 16 2.6 2.02
4 -8 16 -4.79 3.63
-4 8 16 5.05 3.58
-4 8 16 -0.16 3.06
-8 16 4 1.87 2.53
-16 4 8 -0.02 2.25
-16 4 8 -0.79 3.68
-16 4 8 -0.57 2.46
-8 -16 -4 1.26 2.28
-8 -16 -4 -2.64 2.58
-8 -16 -4 2.82 2.18
-8 -16 -4 -4.08 3.14
16 4 -8 -0.53 2.92
16 4 -8 2.13 2.79
8 16 -4 -4.88 3.25
8 16 -4 3.86 2.06
4 8 -16 2.62 2.32
-16 4 8 -1.94 2.01
8 16 -4 0.18 2.38
8 16 -4 -0.41 2.7
-8 16 4 -0.05 2.49
-4 -8 -16 5.21 2.66
-4 -8 -16 4.38 2.59
4 -8 16 2.35 2.62
-4 8 16 1.85 2.72
8 -16 4 1.96 2.95
4 8 -16 -2.03 2.61
4 8 -16 0.51 2.48
4 -8 16 -7.63 3.88
-8 16 4 0.6 1.95
-8 16 4 -0.55 2.48
16 -4 8 -0.82 2.45
16 -4 8 -5.05 3.41
16 4 -8 -0.75 2.57
-16 -4 -8 0.76 2.82
-4 -8 -16 0.57 2.17
-16 4 8 0.55 2.13
-16 4 8 -0.48 2.64
4 -8 16 -1.02 2.86
-16 -4 -8 0.07 2.85
-16 -4 -8 -2.77 2.37
-4 8 -16 -2.82 3.01
-4 8 -16 2.13 2.53
4 -8 -16 1.66 2.54
-4 8 -16 1.23 2.61
-4 -8 16 0.29 2.3
8 16 4 -0.66 2.64
-4 -8 16 4.18 4.18
4 -8 -16 1.88 2.92
4 8 16 1.17 2.06
4 8 16 3.88 2.31
4 8 16 0.18 2.55
4 8 16 -2.83 3.12
-4 8 -16 -3.9 3.03
16 4 8 2.38 3.58
8 -16 -4 -3.05 2.8
8 -16 -4 0.77 2.51
8 -16 -4 -1 3.33
-16 -4 8 3.98 2.97
-16 -4 8 -1.56 2.71
-8 -16 4 1.85 2.69
-8 -16 4 3.01 2.38
-8 -16 4 -1.36 2.32
-8 -16 4 -4.83 3.54
-8 16 -4 0.1 2.46
-8 16 -4 1.36 2.44
-8 16 -4 3.66 3.06
16 -4 -8 2.75 2.97
16 -4 -8 -0.04 2.54
8 16 4 -2.78 2.64
4 8 16 2.01 2.51
-16 4 -8 -0.32 3.09
4 -8 -16 1.8 2.42
16 4 8 1.7 3.06
-16 -4 8 2.23 3.72
-4 -8 16 4.53 3.2
8 16 4 1.84 2.11
8 16 4 -3.87 2.78
-16 4 -8 -4.39 2.86
16 4 8 3.39 2.24
-16 -4 8 1.9 2.56
-16 -4 8 -3.42 2.32
4 8 16 1.88 3.15
8 -16 6 0.66 2.3
-16 6 8 3.22 2.85
-6 8 16 0.53 3.61
-6 8 16 1.07 3.15
-8 -16 -6 2.31 2.36
-16 6 8 2.14 2.64
16 -6 8 3.6 2.64
6 -8 16 1.7 3.7
8 16 -6 1.18 2.74
-16 6 8 -0.42 2.36
-8 -16 -6 1.12 2.88
-8 16 6 0.36 2.11
-8 16 6 3.27 2.52
-8 16 6 1.66 2.56
-6 -8 -16 5.7 2.6
-6 -8 -16 3.89 2.66
6 -8 16 0.85 4.07
6 8 -16 -0.44 2.67
8 -16 6 3.64 3.27
-16 6 8 2.31 1.99
-16 6 8 2.67 2.89
8 16 -6 1.48 2.56
-16 6 8 5.67 2.42
6 8 -16 -1.49 2.46
-16 6 8 1.6 3.28
-16 -6 -8 0.21 2.63
-16 -6 -8 1.44 3
-16 -6 -8 2.68 2.91
16 -6 8 3.11 3.14
8 16 -6 -1.36 3.27
16 6 -8 1.74 2.55
16 6 -8 -1.68 2.84
8 -16 6 0.32 4.09
-6 8 16 3.73 2.22
8 16 -6 4.77 2.01
-6 8 16 1.37 2.73
-6 -8 -16 -1.95 2.36
16 6 -8 -1.69 2.94
-8 -16 -6 1.52 2.34
-8 -16 -6 3.1 2.88
16 -6 8 -0.72 3.53
-6 8 -16 -5.15 3.16
-6 8 -16 1.22 2.8
-16 -6 8 -3.21 2.35
-8 16 -6 2.32 2.57
6 8 16 0.15 3.32
8 -16 -6 3.47 3.05
8 -16 -6 3.45 2.47
-6 -8 16 2.52 2.81
8 16 6 1.27 2.86
16 -6 -8 3.6 3.03
-16 6 -8 4.01 3.19
-16 -6 8 6.59 3.88
-16 6 -8 0.43 2.76
6 8 16 -2.45 2.8
16 6 8 4.5 2.35
16 6 8 0.89 3.26
16 6 8 1.79 3.62
8 16 6 0.48 2.87
-6 -8 16 1.86 4.29
-8 16 -6 4.04 2.76
-6 8 -16 3.02 2.46
-16 6 -8 -1.11 2.43
6 -8 -16 1.06 2.59
-16 -6 8 3.92 2.92
6 8 16 4.71 2.43
16 -6 -8 3.44 2.55
-8 -16 6 3.03 2.67
-8 -16 6 -1.44 2.21
-8 -16 6 0.18 3.98
-6 8 -16 -2.85 2.9
8 -16 -6 -0.7 3.41
6 8 16 2.93 2.12
6 -8 -16 0.76 2.69
-8 -16 6 0.39 2.6
6 -8 -16 3.47 2.54
16 -8 8 -0.2 3.43
16 -8 8 2.82 2.68
16 -8 8 0.89 3.57
8 16 -8 -6.58 3.24
-16 -8 -8 4.26 2.84
-16 8 8 -2.05 3.04
16 8 -8 3 3.21
-8 -8 -16 3.31 2.85
-8 -8 -16 0.31 1.51
-8 -16 -8 0.07 2.5
-16 8 8 2.35 2.61
8 -16 8 -2.19 4.25
16 8 -8 3.1 3.01
-8 16 8 2.69 2.67
-8 -16 -8 0.73 2.53
-8 16 8 1.55 2.21
8 16 -8 0.06 2.91
-16 8 8 6.53 2.06
-8 -8 -16 3.96 2.69
-8 -16 -8 0.69 2.91
-16 8 8 0.3 2.61
8 -8 16 -0.76 4.33
-8 8 16 0.68 2.02
-8 8 16 2.53 2.68
-8 8 16 1.49 3.75
-8 16 8 6.78 2.6
8 8 -16 5.54 2.84
-8 -16 -8 3.25 3.07
-16 -8 -8 0.65 2.73
8 -16 8 1.3 2.57
8 -16 8 4.56 3.33
8 16 -8 2.66 2.06
8 16 -8 2.43 2.81
-16 -8 -8 1.24 3.01
-16 8 8 -0.63 2.8
-16 8 8 -0.79 2.55
8 -8 16 2.17 3.78
16 8 -8 2.94 2.62
16 -8 -8 -3.57 3.77
-8 -8 16 6.45 4.44
8 16 8 2.38 3.08
16 8 8 1.48 2.47
16 -8 -8 -1.21 3.09
8 -16 -8 4.25 3.26
8 -16 -8 2.05 3.56
-16 8 -8 -0.04 3.14
8 16 8 2.47 2.98
-16 -8 8 1.3 3.03
16 8 8 1.07 3.2
16 -8 -8 2.65 2.51
-8 8 -16 1.51 2.72
-8 8 -16 2.79 2.91
8 8 16 3.47 2.56
8 8 16 3.07 3.05
8 8 16 -1.57 3.51
-8 16 -8 4.94 2.41
-16 8 -8 5.34 2.76
16 8 8 3.06 3.68
-8 16 -8 1.31 2.87
-8 -8 16 1.06 2.89
-8 -16 8 0.06 2.47
8 8 16 4.32 2.37
8 -8 -16 1.09 2.67
-8 8 -16 -3.24 3.15
-8 -16 8 1.3 2.91
-8 -16 8 1.35 2.65
-8 -16 8 1.42 3.96
-16 8 -8 2.17 2.8
8 -8 -16 1.08 3.05
-8 8 -16 2.67 2.78
-16 -8 8 2.5 2.56
-8 16 -8 4.16 2.71
-16 -8 8 4.86 4.03
-16 10 8 0.19 2.65
-8 -16 -10 -5.3 2.82
-10 -8 -16 0.28 2.58
-10 -8 -16 1.21 3.02
-10 -8 -16 2.41 2.76
-8 16 10 -2.22 2.56
8 16 -10 0.23 2.55
8 16 -10 -2.4 2.9
16 -10 8 2.98 3.8
16 10 -8 -0.91 2.61
-16 10 8 -1.91 2.52
10 8 -16 2.49 2.91
10 -8 16 -1.96 4.15
8 -16 10 -0.31 4.48
-8 -16 -10 0.93 2.98
-16 -10 -8 0.49 3.19
8 -16 10 -3.52 3.59
16 10 -8 1.2 3.14
-16 10 8 -5.68 2.79
-10 8 16 -2.11 2.11
-10 8 16 0.39 2.8
-10 8 16 0.31 3.81
16 -10 8 -1.4 2.59
-16 -10 -8 1.23 2.89
-8 -16 -10 -5.23 2.6
16 10 -8 0.49 3.18
-16 -10 -8 4.75 2.75
16 -10 8 -1.07 3.6
-8 -16 -10 -0.88 2.54
10 -8 16 -2.65 3.65
-8 16 10 5.63 2.46
-8 -16 10 2.3 4.28
-8 16 -10 -1.16 2.48
-10 8 -16 -3.97 3.16
16 10 8 0.68 3.07
8 -16 -10 -0.06 3.3
8 -16 -10 2.28 2.39
-8 -16 10 0.49 2.56
16 -10 -8 -4.53 3.8
16 -10 -8 -2.31 3.14
-10 8 -16 -0.39 3.25
-8 -16 10 2.57 3.01
10 8 16 -4.59 3.7
8 -16 -10 0.43 3.68
-16 -10 8 5.6 3.38
-16 -10 8 0.39 2.73
-16 -10 8 0.1 4.42
-16 10 -8 4.53 3.01
-16 10 -8 0.42 3.13
-16 10 -8 1.65 2.88
10 -8 -16 -0.92 3.21
10 -8 -16 -3.01 2.69
8 16 10 -1.45 3
8 16 10 -2.99 3.1
10 8 16 -1.09 3.1
-10 8 -16 -2.09 2.8
-10 -8 16 0.7 4.45
16 10 8 -0.24 3.68
-8 16 -10 -0.97 2.66
8 -16 12 2.98 4.01
-12 8 16 0.43 2.91
8 -16 12 -2.65 2.82
-16 -12 -8 0.14 3.39
-16 -12 -8 2.7 2.84
-12 -8 -16 -1.12 3.04
12 -8 16 -1.28 3.84
12 -8 16 2.55 4.35
12 8 -16 -1.9 2.85
-16 -12 -8 -0.26 2.95
-12 8 16 0.68 4.01
-16 12 8 3.87 2.58
8 16 -12 -4.72 3.11
16 -12 8 -1.97 4.13
8 -16 12 -5.91 4.57
-8 -16 -12 0.74 3
-8 -16 -12 -2.93 2.99
16 -12 8 3.07 3.88
-12 8 16 0.37 2.12
8 16 -12 -2.64 2.7
16 12 -8 0.22 2.69
-16 12 8 2.32 2.9
-8 16 12 3.65 2.67
-8 16 12 -1.97 2.75
-12 -8 -16 -0.46 2.82
16 12 -8 -1.55 3.18
16 12 -8 -1.15 3.32
-12 8 -16 1.67 3.53
-8 16 -12 1.69 2.7
16 12 8 2.39 3.19
-8 -16 12 2.19 3.29
-8 -16 12 0.35 4.24
12 8 16 -4.54 3.35
12 8 16 -5.05 4.08
-16 -12 8 -4.85 4.54
-16 12 -8 6.95 3.03
16 12 8 -0.01 3.84
-8 16 -12 -1.4 2.73
-16 12 -8 -1.56 3.15
8 -16 -12 -1.05 2.37
8 -16 -12 -2.69 3.45
8 16 12 -1.97 3.39
12 -8 -16 -2.48 3.34
12 -8 -16 -3.73 2.7
8 -16 -12 -1.55 3.49
8 16 12 -1.13 3.18
-12 8 -16 2.03 2.91
-8 -16 12 -3.96 2.93
-16 -12 8 1.71 3.2
-12 -8 16 -7.62 4.55
16 -12 -8 -1.27 3.31
16 -12 -8 -6.83 3.86
-16 12 -8 3.07 2.98
-16 14 8 0.38 3.06
-14 -8 -16 -3.84 2.89
8 -16 14 -4.39 4.03
8 16 -14 -4.32 2.91
8 16 -14 -10.33 3.37
16 14 -8 -3.72 2.77
-14 8 16 -3.83 2.1
8 -16 14 -3.52 4.96
-16 -14 -8 -1.68 3.27
-16 -14 -8 -0.78 3.53
14 -8 16 3.25 4.55
14 8 -16 -2.95 2.91
16 14 -8 -2.07 3.51
-8 -16 -14 -5.3 2.98
-14 8 16 -0.87 3
-8 -16 -14 -5.79 3.1
-14 8 16 -2.2 4.21
16 -14 8 -1.1 3.85
16 -14 8 -5.47 4.46
14 -8 16 -2.05 3.94
-14 -8 -16 -2.95 3.08
-16 -14 -8 -1.86 2.76
-8 16 14 -1.48 2.96
14 -8 -16 -1.71 3.4
-8 -16 14 0.81 4.74
-14 -8 16 -10.09 4.54
-14 8 -16 1.34 3.06
-14 8 -16 -0.86 3.52
16 -14 -8 -8.48 3.89
8 -16 -14 -2.61 3.69
16 -14 -8 -3.54 3.51
-8 -16 14 0.24 3.48
-8 16 -14 -2.1 2.9
-8 16 -14 -0.92 2.96
14 -8 -16 -2.86 3
16 14 8 -1.72 3.3
-16 -14 8 -6.39 4.73
-16 14 -8 4.35 2.94
8 -16 -14 -6.16 3.76
8 16 14 -0.34 3.63
14 8 16 -0.78 3.74
14 8 16 -9.36 4.12
-16 14 -8 -3.85 3.25
-16 -14 8 -2.34 3.21
8 16 14 -3.01 3.24
16 14 8 -5.69 3.99
0 -10 16 21.95 3.36
-10 16 0 14.9 3.46
0 10 -16 20.25 3.33
10 -16 0 21.63 4.22
10 16 0 18.21 3.16
10 16 0 17.54 3.59
-10 -16 0 21.06 4.12
0 10 -16 21.46 3.17
0 10 16 20.59 3.69
16 0 -10 20.13 3.45
16 0 10 26.29 3.16
0 -10 -16 19.62 3.59
16 0 10 19.77 3.9
0 10 -16 21.1 3.52
0 -10 16 22.48 5.05
10 16 0 11.19 3.73
-16 0 -10 21.59 3.63
-16 0 -10 10.28 3.92
10 -16 0 21.99 3.29
10 -16 0 16.45 3.61
0 10 16 25.19 3.04
0 10 16 21.67 3.93
0 10 16 26.75 4.3
-16 0 10 15.65 3.09
0 -10 -16 24.48 3.44
0 -10 16 24.42 3.08
-10 -16 0 22.13 3.72
0 -10 16 20.32 4.22
16 0 10 15.57 4.39
-10 16 0 19.98 2.62
16 0 -10 19.7 3.83
-10 16 0 22.65 3.54
-10 -16 0 17.96 3.14
-16 0 10 15.19 3.16
-16 0 10 15.34 2.92
-16 0 10 19.57 4.07
-16 0 10 18.29 4.64
-10 -16 -2 6.73 3.13
-16 2 10 3.73 2.42
-2 10 16 4.94 3.25
-16 2 10 10.11 3.9
-2 10 16 8.9 2.33
-16 -2 -10 12.23 2.58
-16 -2 -10 7.56 3.11
-16 -2 -10 2.14 3.3
2 -10 16 6.18 3.79
2 -10 16 7.24 4.07
2 10 -16 11.8 2.77
16 -2 10 1.17 3.69
16 2 -10 4.66 2.79
16 2 -10 7.83 2.99
10 -16 2 5.74 3.8
-10 -16 -2 6.96 2.48
-16 2 10 3.82 2.4
-2 10 16 10.94 3.83
2 -10 16 6.69 2.22
2 -10 16 9.57 2.93
-10 16 2 5.27 2.91
16 -2 10 10.1 2.26
-10 -16 -2 4.94 3.53
-16 2 10 8.36 3.5
16 -2 10 6.82 3.46
-2 -10 -16 8.81 2.94
-2 10 16 5.72 3.01
10 16 -2 7.71 2.56
10 16 -2 7.62 2.96
10 16 -2 -2.98 3.33
-10 16 2 6.67 2.83
-16 2 10 7.01 2.51
2 10 -16 5.27 2.64
2 10 -16 7.32 2.75
-2 -10 -16 8.15 2.85
-10 16 2 5.85 2.11
-2 10 -16 5.1 3.02
-16 2 -10 8.9 3.01
-2 10 -16 9.37 2.69
10 -16 -2 3.55 2.85
-16 2 -10 11.97 2.07
2 10 16 5.08 3.05
2 10 16 10.75 3.59
2 10 16 7.3 3.03
10 -16 -2 9.04 2.93
-10 -16 2 8.59 3
2 10 16 10.97 2.51
2 -10 -16 6.1 3.14
16 -2 -10 6.31 3.09
16 -2 -10 7.02 2.81
-2 10 -16 6.08 2.67
-16 -2 10 4.76 2.59
-2 10 -16 0.83 3.29
-2 -10 16 6.52 2.76
-2 -10 16 6.4 3.58
16 2 10 10.22 2.51
16 2 10 5.88 3.25
16 2 10 5.69 3.76
-2 -10 16 7.77 4.43
10 16 2 7.93 2.89
-16 -2 10 6 4.16
10 16 2 1.25 3.12
-2 -10 16 8.11 2.66
10 -16 -2 0.77 3.46
10 16 2 5.97 3.04
-10 16 -2 4.55 2.83
-10 -16 2 7.49 2.64
-10 -16 2 5.72 3.77
-16 4 10 2.98 3.87
-16 -4 -10 2.58 3.17
16 4 -10 2.37 2.8
10 -16 4 6.34 3.17
-16 4 10 1.61 2.39
-16 -4 -10 4.6 2.58
-4 10 16 4.86 2.87
-4 10 16 4.75 3.82
-4 10 16 2 3.14
-10 -16 -4 2.55 1.41
-16 4 10 -1.7 2.08
-16 4 10 3.81 2.31
-4 -10 -16 2.75 2.7
-4 -10 -16 5.9 2.74
-10 16 4 3.39 2.61
10 16 -4 4.67 2.52
4 -10 16 6.8 4.15
4 10 -16 2.01 2.66
4 10 -16 4.36 2.57
16 4 -10 5.95 3.05
-10 -16 -4 3.19 3.16
-10 16 4 0.02 2.55
-10 -16 -4 6.16 2.31
-10 16 4 4.7 2.06
-4 -10 -16 -0.8 2.3
16 -4 10 -4.29 3.68
4 -10 16 -0.05 2.93
16 4 -10 4.3 2.96
10 16 -4 -1.66 2.83
10 16 -4 -5.41 3.17
10 -16 4 2.51 3.97
4 -10 16 -1.3 3.66
-16 -4 -10 4.92 2.86
4 10 16 -2.33 3.17
-16 -4 10 2.59 3.13
-16 -4 10 -0.84 2.27
10 -16 -4 6.11 2.98
4 10 16 5.38 2.78
-4 -10 16 2.6 3.41
-4 -10 16 1.41 4.47
-4 10 -16 4.57 2.66
-4 10 -16 5.71 2.8
-4 10 -16 0.05 3.22
-4 10 -16 -1.53 3.09
16 4 10 6.27 3.76
16 -4 -10 1.38 2.67
-16 4 -10 2.69 2.91
4 -10 -16 3.2 3.09
10 -16 -4 0.74 3.43
-4 -10 16 2.67 2.51
16 -4 -10 2.2 3.14
10 16 4 3.84 2.77
-16 -4 10 0.08 3.97
-10 16 -4 2.05 2.62
10 -16 -4 2.69 2.65
10 16 4 1.63 2.96
16 4 10 1.43 3.02
4 10 16 7.76 2.42
4 10 16 1.45 2.7
-10 -16 4 0.99 3.93
4 10 16 2.53 3.3
-10 -16 4 5.96 2.85
-10 -16 4 4.18 2.55
-16 -6 -10 -1.95 2.81
-6 10 16 -0.15 3.8
-16 6 10 0.05 1.95
-16 -6 -10 -0.78 2.66
-16 -6 -10 -1.67 2.95
10 16 -6 0.41 2.77
10 16 -6 -0.13 3.01
-10 -16 -6 0.01 3.05
-10 -16 -6 -0.75 2.39
-6 -10 -16 -1.53 2.36
-10 16 6 0.47 2.67
16 -6 10 -0.02 3.77
16 -6 10 -0.76 3.41
16 6 -10 0.51 2.73
16 6 -10 2.19 2.9
16 6 -10 2.22 3.09
-10 16 6 -0.16 2.16
-6 -10 -16 -0.58 2.53
6 -10 16 -3.47 3.09
6 -10 16 -1.47 3.64
6 -10 16 2.88 4.51
6 10 -16 1.37 2.71
6 10 -16 4.04 2.63
-6 10 16 -0.24 2.77
-10 16 6 3.62 2.55
-16 6 10 0.13 2.44
-16 6 10 -0.84 2.4
-6 -10 -16 0.23 2.77
-10 -16 -6 -1.72 2.94
10 -16 6 2.76 3.37
10 -16 6 3.26 4.23
-16 6 10 -5.02 4.03
16 -6 -10 1.79 2.61
-16 -6 10 1.83 3.01
-6 10 -16 -3.45 3.1
6 10 16 4.74 2.44
-16 -6 10 -2.72 2.36
6 -10 -16 -2.6 3.16
-16 6 -10 -0.38 2.88
-16 6 -10 3 3.3
-16 -6 10 3.73 4.12
6 10 16 -4.22 3.27
10 -16 -6 0.76 3.15
-6 -10 16 -1.56 4.48
10 -16 -6 0.53 3.59
10 16 6 -2.74 2.95
10 16 6 1.11 2.96
16 -6 -10 1.49 3
-10 -16 6 -1.41 2.62
-10 -16 6 2.89 4.02
-10 16 -6 -1.69 2.37
-10 16 -6 -0.3 2.8
-6 10 -16 0.47 2.88
6 10 16 -1.56 2.78
16 6 10 2.36 2.55
16 6 10 2.25 3.4
10 -16 -6 2.66 2.48
-10 -16 6 -1.2 2.61
-6 -10 16 -0.85 2.75
-6 10 -16 2.95 2.53
16 6 10 -3.84 3.79
-10 -16 -8 3.64 3.2
16 8 -10 5.56 3.36
-10 -16 -8 -0.03 2.45
16 8 -10 3.31 2.9
16 -8 10 -3.57 3.73
-10 16 8 -1.39 2.29
-10 16 8 5.24 2.68
-10 16 8 0.58 2.77
-8 -10 -16 -2.67 2.55
-10 -16 -8 -2.05 2.95
-16 -8 -10 -3.04 2.79
-16 -8 -10 -2.04 3.04
10 -16 8 1.12 2.53
-16 8 10 -3.17 2.55
-8 10 16 0.34 2.82
-8 10 16 -1.77 4
-16 8 10 3.18 1.9
8 -10 16 1.23 3.77
8 -10 16 3.69 4.54
8 10 -16 -0.8 2.61
10 16 -8 -1.68 2.66
16 8 -10 1.46 3.04
-16 -8 -10 3.55 2.8
16 -8 10 1.36 3.64
-8 -10 -16 3.09 2.96
10 16 -8 -2.44 3.07
10 -16 8 -1.05 3.35
10 -16 8 3.14 4.4
8 10 16 0.56 2.45
10 16 8 -1.29 3.08
-8 -10 16 -1.28 2.97
-8 -10 16 2.63 4.57
10 -16 -8 -0.68 3.67
16 8 10 -3.24 2.58
16 8 10 2.01 3.27
16 8 10 0.48 3.83
-10 -16 8 -0.26 4.2
8 10 16 -0.09 2.94
8 -10 -16 -1.86 2.99
10 -16 -8 -2.97 3.29
-16 -8 10 0.43 3.18
-10 16 -8 3.17 2.44
-10 16 -8 0.62 2.77
-16 8 -10 -3.38 3.03
-16 8 -10 3.8 2.7
-10 -16 8 -1.82 2.88
-16 -8 10 4.08 4.17
-8 10 -16 0.45 2.9
-8 10 -16 -2.4 2.97
10 16 8 -5.51 3.16
16 -8 -10 4.45 3.3
8 10 16 -5.08 3.43
-16 8 -10 3.36 3.37
-16 -8 10 2.21 2.64
16 -8 -10 0.02 2.63
16 -10 10 11.98 4.29
-10 16 10 7.33 3.04
16 -10 10 5.39 3.95
-10 10 16 7.67 3.31
16 10 -10 6.49 3.08
16 10 -10 11.32 3.48
-16 -10 -10 8 3.31
10 10 -16 9.63 3.2
-10 -10 -16 10.68 3.31
-10 -10 -16 8.64 3.09
-16 -10 -10 9.23 3.43
10 -16 10 11.11 4.96
-10 10 16 7.88 4.43
-16 10 10 2.14 3
-10 -16 -10 11.61 3.55
-10 -16 -10 10.31 3.41
-10 -16 -10 7.37 3.1
10 -10 16 4.51 4.13
10 16 -10 9.48 3.28
10 -10 16 14.58 4.79
-10 16 10 18.77 3.03
-16 -10 -10 10.42 3.26
-10 -10 -16 12.67 3.08
10 16 -10 9.95 3.49
10 -16 10 8.35 4.06
10 -16 -10 6.26 3.71
16 10 10 4.75 4.15
-16 10 -10 11.41 3.35
10 -10 -16 7.6 3.62
-10 -10 16 6.13 3.67
-10 10 -16 9 3.19
-10 -10 16 7.39 5.1
-16 -10 10 13.07 3.81
-16 -10 10 6.65 2.85
-10 10 -16 -5.39 3.5
-10 -16 10 8.49 3.32
16 10 10 7.51 3.51
-10 -16 10 11.55 4.56
16 -10 -10 5.55 4.23
10 -16 -10 10.94 2.74
-16 10 -10 12.43 3.15
-10 16 -10 13.66 2.87
-10 16 -10 5.42 3.12
16 -10 -10 7.83 3.65
-10 10 -16 7.9 3.47
10 16 10 9.54 3.82
10 10 16 7.63 3.46
10 10 16 10.32 4.22
-16 -10 10 5.42 4.76
10 -16 -10 10.01 3.86
-16 10 -10 7.04 3.58
10 16 10 5.46 3.46
-16 -12 -10 9.15 3.52
-10 16 12 10.66 3.18
-12 10 16 6.8 4.52
12 -10 16 6.5 4.91
12 10 -16 6.44 3.29
-16 -12 -10 6.91 3.47
-16 12 10 7.71 2.97
-12 10 16 8.41 3.3
12 -10 16 7.51 4.38
16 -12 10 7.93 4.21
-10 -16 -12 9.42 3.57
-10 -16 -12 13.7 3.52
-16 12 10 8.2 3.26
16 -12 10 14.63 4.8
10 -16 12 5.65 4.34
-16 12 10 -3.82 3.2
10 16 -12 8.47 3.06
10 16 -12 10.18 3.68
-12 -10 -16 8.68 3.28
-12 -10 -16 9.21 3.39
16 12 -10 9.3 3.78
10 -16 12 17.43 5.28
-16 -12 -10 8.58 3.46
-10 16 12 16.29 3.11
16 12 -10 8.34 3.2
-10 -16 12 8.76 3.76
-12 -10 16 7.56 3.93
12 10 16 9.69 3.71
10 -16 -12 11.4 4.05
16 -12 -10 4.2 4.36
16 -12 -10 6 3.8
16 12 10 8.94 3.58
-16 12 -10 11.83 3.46
-12 10 -16 9.9 3.33
-10 -16 12 9.13 4.89
-10 16 -12 8.13 3.01
-16 12 -10 3.72 3.44
12 10 16 7.81 4.23
16 12 10 4.04 4.31
-12 -10 16 4.66 5.2
10 -16 -12 10.38 2.68
12 -10 -16 7.16 3.86
-12 10 -16 12.63 3.67
10 16 12 7.5 3.64
-16 -12 10 8.21 3.67
-16 -12 10 8.19 3.07
-16 -12 10 8.27 5.21
-10 16 -12 8.51 3.39
10 -16 -12 4.65 4.02
10 16 12 12.58 3.99
-16 14 10 6.93 3.38
-16 -14 -10 7.97 3.38
16 -14 10 8.02 4.41
16 -14 10 4.09 5.09
-10 -16 -14 10.81 3.57
14 10 -16 4.79 3.33
-14 -10 -16 10.87 3.47
14 -10 16 12.36 5.11
10 16 -14 5.24 3
10 16 -14 9.46 3.85
-16 -14 -10 10.05 3.81
16 14 -10 6.58 3.88
-14 10 16 7.98 4.65
-16 14 10 0.28 3.25
-10 16 14 8.32 3.26
10 -16 14 5.34 4.46
-14 -10 -16 7.5 3.6
14 -10 16 7.21 4.56
16 14 -10 6.26 3.18
-10 -16 -14 7.36 3.44
10 -16 14 15.04 5.41
-14 10 16 7.12 3.38
-10 -16 14 4.8 5.41
-16 14 -10 14.88 3.42
10 16 14 11.61 4.02
16 -14 -10 3.43 4.11
10 -16 -14 9.73 4.04
-14 10 -16 10.42 3.46
-14 10 -16 6.83 3.82
10 16 14 9.09 3.82
-16 -14 10 3.46 5.32
-14 -10 16 6 3.94
-16 -14 10 10.57 3.78
14 10 16 6.09 3.94
14 10 16 8.48 4.78
-16 14 -10 4.17 3.58
-10 16 -14 7.88 3.16
-14 10 -16 -1.49 3.44
-14 -10 16 2.97 5.25
16 -14 -10 9.34 4.48
16 14 10 4.7 3.73
14 -10 -16 5.47 3.88
-10 16 -14 6.8 3.53
-10 -16 14 11.19 3.95
16 14 10 3.82 4.44
10 -16 -14 1.59 4.22
-16 0 12 73.94 7.81
-12 -16 0 74.84 7.73
0 -12 -16 94.67 8.31
-12 16 0 86.58 8.57
-16 0 -12 84.13 8.31
0 -12 -16 87.7 7.76
0 -12 16 58.99 7.76
0 -12 16 85.7 7.65
0 -12 16 79.35 8.44
0 -12 16 77.09 8.88
0 -12 16 88.74 9.98
0 12 -16 79.88 7.95
0 12 -16 84.54 8.48
0 12 16 87.38 8.84
12 -16 0 85.02 7.57
12 -16 0 78.2 9.3
-12 16 0 63.53 7.17
12 16 0 85.21 7.88
-12 -16 0 88.27 9.14
0 12 16 81.86 8.91
-12 16 0 82.4 8.87
12 16 0 87.42 9.08
12 16 0 65.31 9.02
16 0 -12 75.8 8.05
16 0 12 95.63 7.65
16 0 12 85.2 9.31
16 0 12 67.72 9.35
-16 0 12 73.56 10.25
0 12 -16 75.92 8.54
-16 0 -12 89.6 7.41
-12 -16 0 82.31 8.26
-16 0 12 60.74 7.85
16 0 -12 75.49 8.49
2 -12 16 55.62 7.09
-2 -12 -16 48.02 5.77
2 12 -16 47.65 5.95
16 -2 12 27.54 6.09
16 2 -12 36.46 5.32
2 -12 16 58.53 7.93
-16 2 12 33.92 4.77
16 -2 12 58.08 5.17
-16 2 12 36.62 6.24
-16 2 12 36.11 5.59
-2 12 16 48.42 6.49
-2 12 16 50.96 6.9
16 -2 12 31.89 5.71
-12 -16 -2 49.3 6.3
-12 -16 -2 43.48 5.78
12 16 -2 29.31 5.64
2 -12 16 50.06 6.26
12 16 -2 53.39 5.91
12 -16 2 52.13 6.73
-2 -12 -16 58.6 5.76
-12 16 2 43.58 6.43
-12 16 2 37.32 5.47
-2 -12 -16 55.65 6.14
-12 16 2 47.29 5.17
2 12 -16 49.97 6.08
16 2 -12 36.61 5.1
-16 -2 -12 53.18 5.42
-16 -2 -12 58.4 6.36
12 -16 2 53.09 7.46
2 12 -16 47.23 6.2
12 16 -2 55.21 6.92
-12 -16 2 49.65 6.24
16 2 12 64.46 5.65
16 2 12 51.53 7.05
-12 -16 2 47.32 5.71
2 12 16 47.15 6.52
12 16 2 58.15 6.89
-16 2 -12 56.97 6.29
2 12 16 42.39 5.19
2 12 16 33.17 5.52
12 -16 -2 40.9 5.99
-16 2 -12 58.04 4.99
16 2 12 34.64 6.1
-12 16 -2 49.03 6.58
2 12 16 67.5 7.14
-2 12 -16 49.29 5.85
12 -16 -2 54.74 5.76
-2 -12 16 36.99 6.58
-2 -12 16 37.62 5.09
-2 -12 16 52.58 5.88
-2 -12 16 34.73 5.13
-16 -2 12 34.71 6.51
12 16 2 55.46 6.22
-12 -16 2 56.43 7.36
2 12 16 58.94 5.53
-2 -12 16 45.94 6.69
2 -12 -16 48.56 6.35
-2 12 -16 52.35 6.16
16 -2 -12 49.76 5.92
16 -2 -12 38.54 5.38
-4 -12 -16 23.2 3.35
12 16 -4 13.25 3.07
-16 4 12 9.3 2.84
-16 4 12 12.73 2.82
-16 4 12 11.89 4.51
-12 -16 -4 10.02 3.56
4 -12 16 17.38 3.6
-16 -4 -12 16.02 3.15
-4 12 16 15.55 3.53
-12 16 4 13.26 2.71
-12 16 4 15.67 3.29
-12 16 4 12.4 3.36
-4 -12 -16 18.26 3.4
12 16 -4 10.3 3.53
-4 -12 -16 13.53 2.98
4 -12 16 17.75 4.24
4 -12 16 21.87 5.09
-12 -16 -4 15.99 3.16
4 12 -16 14.56 3.35
12 -16 4 16.97 3.77
16 -4 12 6.92 4.31
4 12 -16 17.14 3.13
-16 -4 -12 12.87 3.43
12 -16 4 15.52 4.58
16 4 -12 12.11 3.5
16 -4 -12 13.57 3.23
-4 12 -16 15.51 3.29
-12 16 -4 13.99 3.44
12 -16 -4 8.94 4.07
16 4 12 12.05 3.8
4 12 16 21.61 3.02
-4 -12 16 11.79 3.49
-4 -12 16 16.59 3.14
-4 -12 16 14.75 5.07
12 -16 -4 14.26 3.35
12 16 4 15.72 3.58
4 12 16 22.72 3.87
-16 4 -12 12.09 3.43
-4 -12 16 10.55 3.06
-12 -16 4 16.1 3.35
4 -12 -16 12.94 3.61
16 4 12 13.1 4.43
-16 -4 12 11.49 4.5
-4 12 -16 11.1 3.66
-12 -16 4 19.19 4.5
4 12 16 11.99 3.47
4 12 16 14.9 3.83
-4 12 -16 15.32 3.08
4 12 16 16.83 3.45
12 -16 -4 17.32 3.43
16 -4 -12 15.39 3.63
-12 16 6 -1.34 2.74
6 -12 16 1 3.2
-16 6 12 0.55 2.55
12 -16 6 -1.41 2.49
12 -16 6 1.61 3.5
-16 6 12 -4.11 2.03
16 6 -12 2.57 3.04
12 16 -6 2.46 3.22
6 -12 16 2.95 4.73
-16 6 12 -3.78 4.02
-12 -16 -6 -1.56 3.06
12 -16 6 -0.73 4.27
-16 -6 -12 0.73 2.75
16 -6 12 -8.16 3.86
6 -12 16 3.85 3.95
16 6 -12 2.56 2.97
-12 -16 -6 1.24 2.7
-12 -16 -6 1.05 2.43
6 12 -16 1.66 2.91
-16 -6 -12 -0.28 3.05
-12 16 6 7.07 2.83
-12 -16 -6 3.01 3.26
-6 -12 -16 1.95 2.73
-6 -12 -16 1.09 2.93
-12 16 6 0.46 2.28
6 12 -16 -1.24 2.63
-6 -12 -16 -2.47 2.56
12 16 -6 -3.79 3.39
12 16 -6 3 2.62
-6 12 16 0.35 2.78
-6 12 -16 0.71 2.91
-6 12 -16 -0.37 2.67
-12 -16 6 0.77 2.89
16 6 12 2.97 2.58
12 -16 -6 4.95 3.19
12 -16 -6 0.87 2.61
12 -16 -6 0.78 3.6
6 12 16 4.84 2.46
-16 -6 12 -6 2.34
-16 -6 12 -0.15 4.4
-16 6 -12 3.82 3.18
-16 6 -12 0.76 3.45
-6 -12 16 -0.89 2.54
6 -12 -16 -1.88 3.3
12 16 6 -0.64 3.12
12 16 6 0.13 3.12
16 -6 -12 1.31 3.11
16 -6 -12 0.47 2.75
6 12 16 -3.79 2.9
16 6 12 3.59 3.49
-6 -12 16 1.08 3.14
-6 -12 16 -2.73 2.79
6 12 16 -2.6 3.59
-16 -6 12 3.23 3.47
-12 16 -6 4.23 2.52
-12 16 -6 0.4 2.91
-6 -12 16 -3.55 4.52
-12 -16 6 3.14 4.2
16 6 12 0.91 3.99
16 8 -12 -1.47 3.03
-16 8 12 -6.26 4.33
-12 -16 -8 -4.03 3.14
12 -16 8 -4.72 3.5
-16 8 12 -1.77 2.75
12 -16 8 1.79 2.65
8 12 -16 1.59 2.82
8 12 -16 -0.41 2.93
-8 12 16 0.84 2.9
-16 -8 -12 -1.37 2.91
-16 -8 -12 -2.7 3.09
16 -8 12 -5.42 3.8
12 16 -8 -4.3 3.27
-16 8 12 -1.61 1.96
-8 -12 -16 -1.68 3.04
-12 -16 -8 -4.34 3.18
-12 -16 -8 -4.28 2.77
-12 -16 -8 -3.06 2.69
8 -12 16 -6.06 3.96
8 -12 16 1.14 4.63
16 8 -12 -1.74 3.1
-12 16 8 0.93 2.37
-12 16 8 6.3 2.76
-12 16 8 -3.72 2.77
-8 -12 -16 0.88 2.76
12 -16 8 1.55 4.55
16 -8 12 3.14 3.92
12 16 -8 -2.83 2.83
-16 -8 12 -2.88 2.42
12 16 8 -1.85 3.31
8 12 16 1.24 3.08
-12 16 -8 3.4 2.64
-12 16 -8 -2.99 2.93
16 8 12 -2.48 3.56
16 8 12 -6.65 3.98
12 -16 -8 0.42 3.3
-16 8 -12 3.86 2.69
-16 -8 12 1.08 4.27
-16 8 -12 -3.62 3.03
-16 -8 12 2.22 3.4
-8 12 -16 -1.32 2.67
-8 12 -16 -1.2 3.12
16 -8 -12 -1.51 2.65
12 16 8 -1.17 3.39
12 -16 -8 -2.48 3.66
-8 -12 16 2.17 3.34
-8 -12 16 -1.62 2.53
8 12 16 2.5 3.52
8 -12 -16 -4.06 3.16
16 -8 -12 -2.05 3.2
-12 -16 8 0.54 3
-16 8 -12 -1.25 3.45
-8 -12 16 -5.29 4.79
-12 -16 8 -1.39 4.21
8 12 16 0.65 2.56
-12 -16 -10 10.01 3.67
12 16 -10 7.9 3.63
-16 -10 -12 9.6 3.51
-10 12 16 8.45 3.29
16 -10 12 10.25 4.28
16 10 -12 9.57 3.54
-10 -12 -16 14.15 3.5
-12 16 10 15.1 3.12
-12 16 10 9.16 3.33
10 -12 16 3.27 4.45
-10 -12 -16 11.04 3.3
16 -10 12 10.86 4.59
16 10 -12 7.25 3.33
12 -16 10 13.5 5.1
-16 10 12 7.5 3.29
10 12 -16 11.48 3.36
-12 -16 -10 12.08 3.53
10 12 -16 10.12 3.43
12 -16 10 6.63 4.21
-16 -10 -12 5.66 3.34
12 16 -10 9.81 3.25
10 -12 16 12.17 5.09
10 12 16 12.32 4.24
-16 10 -12 10.45 3.75
16 10 12 3.6 4.37
-12 16 -10 9.73 3.39
-12 16 -10 17.11 3.21
-16 -10 12 13.21 3.83
-10 -12 16 3.3 5.09
-10 -12 16 4.63 3.68
12 16 10 7.64 4.1
12 -16 -10 5.41 3.72
12 -16 -10 8.71 2.8
12 -16 -10 5.9 3.92
-16 10 -12 3.35 3.37
10 12 16 12.08 3.55
-16 -10 12 7.67 2.89
16 -10 -12 8.28 3.82
12 16 10 5.05 3.67
-10 -12 16 11.8 2.88
10 -12 -16 7.54 3.78
-12 -16 10 8.97 3.59
-10 12 -16 9.87 3.6
-12 -16 10 12.61 5.03
16 10 12 6.69 3.87
-10 12 -16 10.56 3.34
-16 -10 12 10.11 5.14
-16 10 -12 10.21 3.17
-12 -12 -16 15.75 3.68
-12 16 12 15.66 3.78
16 12 -12 13.8 3.78
-12 12 16 16.01 3.86
12 16 -12 21.5 4.27
12 12 -16 13.3 3.49
12 12 -16 20.5 3.91
-16 -12 -12 16.24 3.93
-12 -16 -12 22.67 4.01
12 16 -12 15.33 3.84
12 -12 16 13.49 4.74
-12 -12 -16 21.21 4.08
-16 12 12 15.55 3.81
12 -16 12 17.53 4.85
12 -16 12 25.97 5.78
16 -12 12 17.01 4.69
-12 -16 -12 20.49 4.14
16 -12 12 19.37 5.44
-12 16 12 28.53 3.59
-16 -12 -12 17.25 4.05
16 12 -12 16.49 4.22
-12 -16 12 19.92 4.38
-16 -12 12 18.2 4.3
12 12 16 21.76 4.15
-12 -12 16 13.92 5.73
12 12 16 15.33 4.93
12 16 12 13.38 4.32
-16 12 -12 15.61 4.06
-16 -12 12 11.72 3.49
12 16 12 22.3 4.71
16 -12 -12 22.2 5.05
-12 12 -16 16.42 3.89
16 -12 -12 19.63 4.48
12 -16 -12 18.16 4.43
12 -16 -12 20.96 3.37
12 -16 -12 12.92 4.56
-12 16 -12 18.29 3.67
-12 16 -12 13.98 3.96
12 -12 -16 22.87 4.61
-12 -12 16 17.19 3.16
-12 -16 12 16.89 5.91
-16 -12 12 20.16 5.73
-16 12 -12 16.43 3.83
-12 12 -16 18.99 4.18
16 12 12 11.28 5.01
-12 -12 16 15.45 4.22
16 12 12 16.26 4.18
16 14 -12 23.23 4.71
16 -14 12 30.03 6.22
-12 -16 -14 34.4 4.65
12 16 -14 26.23 4.2
16 14 -12 20.17 4.25
-14 -12 -16 20.45 4.43
-16 -14 -12 31.97 4.67
-12 16 14 24.15 4.34
-14 -12 -16 27.65 4.32
14 -12 16 30.69 6.17
-12 -16 -14 27.81 4.46
-14 12 16 21.61 4.38
14 12 -16 21.95 4.13
12 -16 14 18.15 5.27
12 -16 14 33.58 6.46
14 -12 16 24.25 5.27
16 -14 12 25.28 5.4
14 12 -16 26 4.49
-16 -14 -12 26.51 4.43
-14 -12 16 26.09 4.91
12 -16 -14 31 5.02
12 -16 -14 20.61 5.34
16 -14 -12 28.84 5.06
-14 -12 16 16.66 3.56
-12 16 -14 23.61 4.35
-16 14 -12 20.72 4.63
-12 -16 14 28.14 4.94
16 -14 -12 20.35 5.4
16 14 12 22.29 5.58
12 16 14 32.57 5.31
14 -12 -16 26.01 4.97
-12 16 -14 24.74 4.56
14 12 16 24.86 5.51
-16 14 -12 31.23 4.42
-16 -14 12 30.82 4.89
-14 12 -16 17.93 4.49
-14 12 -16 20.02 4.3
0 -14 16 132.01 11.31
0 14 -16 129.13 11.43
0 -14 -16 137.4 11.87
-14 -16 0 122.74 11.79
-14 -16 0 143.45 12.9
0 -14 16 138.44 11.33
16 0 -14 126.55 12.14
0 -14 16 121.18 12.49
0 -14 16 115.73 12.63
16 0 14 112.04 13.38
0 -14 16 141.96 13.72
-16 0 -14 135.88 11.16
-16 0 -14 135.28 11.76
16 0 14 143.03 11.27
16 0 14 122.39 12.97
14 -16 0 140.32 13.29
14 16 0 136.18 11.66
14 16 0 138.97 12.68
0 14 -16 132.98 12.29
0 14 -16 109.38 12.41
14 -16 0 137.76 11.38
-14 16 0 105.53 10.9
0 14 16 123.4 12.62
0 14 16 132.47 12.73
16 0 -14 126.65 11.51
-16 0 14 113.91 14.18
-14 16 0 135.45 12.65
-2 -14 -16 95.84 9.35
2 -14 16 90.05 10.14
2 14 -16 80.91 9.51
14 -16 2 88.56 10.03
2 -14 16 98.24 9.77
-16 2 14 83.24 9.19
14 -16 2 108.08 10.65
14 16 -2 91.52 9
14 16 -2 96.48 10.2
14 16 -2 79.63 10.17
-2 14 16 93.69 9.94
2 14 -16 94.48 9.09
16 2 -14 99.2 9.2
-16 2 14 83.5 8.68
-14 -16 -2 90.65 9.46
16 -2 14 77.74 10.32
16 -2 14 80.32 10.79
2 -14 16 115.24 11.36
-14 16 2 80.94 8.54
-14 16 2 98.58 10.05
-14 16 2 92.97 10.13
-2 -14 -16 108.3 9.41
-16 -2 -14 95.66 9.49
16 2 -14 83.99 9.67
-16 2 14 72.2 11.37
2 14 -16 93.06 9.76
-16 -2 -14 103.01 8.74
-14 -16 2 116.53 10.56
-16 2 -14 99.33 9.38
-2 -14 16 82.92 9.75
14 -16 -2 97.23 8.97
16 2 14 107.94 8.88
16 2 14 92.94 10.51
-14 16 -2 95.77 10.08
-2 -14 16 96.79 9.13
2 14 16 95.08 10.25
-14 -16 2 90.24 9.3
-16 -2 14 81.52 11.65
2 14 16 98.51 9.67
-2 14 -16 110.81 9.79
2 14 16 105.27 9.89
16 -2 -14 93.85 9.68
16 -2 -14 95.26 9.02
16 2 14 89.27 10.77
-2 14 -16 89.34 9.06
2 -14 -16 99.13 9.57
-2 -14 16 101.35 11.24
14 16 2 98.43 9.27
14 16 2 103.7 10.14
14 -16 -2 105.07 10.97
-2 -14 16 97.19 8.97
-2 -14 16 85.31 9.82
-16 4 14 26.59 3.81
14 16 -4 31.61 4.87
14 16 -4 25.92 4.84
-14 -16 -4 31.21 4.85
-16 4 14 25.09 5.55
4 -14 16 28.88 5.18
16 -4 14 15.2 5.24
16 4 -14 30.69 4.52
-4 -14 -16 31.32 4.2
4 14 -16 25.3 4.14
-16 4 14 42.54 5.32
-14 16 4 28.69 4.7
4 -14 16 42.1 6.26
-14 16 4 37.71 4.66
-14 16 4 50.92 5.89
14 -16 4 35.31 4.87
14 -16 4 35.27 5.61
14 16 -4 26.72 4.07
-16 -4 -14 42.59 5.06
-16 -4 -14 24.68 4.48
-4 -14 -16 48.77 5.72
4 14 -16 35.44 4.71
-4 14 16 33.34 4.71
-14 16 -4 32.99 4.82
-14 -16 4 43.92 5.46
4 -14 -16 41.84 5.51
14 16 4 29.52 4.74
4 14 16 48.58 5.84
4 14 16 36.82 4.66
-16 -4 14 27.54 5.89
-4 -14 16 34.69 4.52
-4 -14 16 43.79 5.4
-4 -14 16 26.45 4.37
-4 -14 16 27.72 5.75
-4 14 -16 25.09 4.14
-4 14 -16 47.33 5.92
-4 14 -16 20.48 4.67
16 4 14 27.73 4.96
4 14 16 27.1 4.9
-14 -16 4 32.08 4.49
4 -14 -16 29.46 4.77
16 -4 -14 30.85 4.66
16 -4 -14 32.3 4.3
16 4 14 25.21 5.47
14 -16 -4 40.24 4.59
14 -16 -4 25.24 5.39
-16 4 -14 31.66 4.62
6 -14 16 9.27 4.81
-14 16 6 5.72 2.47
-16 6 14 2.74 4.48
-14 16 6 0.18 2.95
-6 -14 -16 5.94 3.1
-6 -14 -16 6.91 3.15
-16 -6 -14 6.98 3.08
-14 -16 -6 3.12 3.59
6 14 -16 3.98 2.9
14 -16 6 1.72 3.62
14 -16 6 9.13 4.63
14 16 -6 2.11 2.85
14 16 -6 -2.89 3.54
-16 6 14 4.58 2.76
-14 -16 -6 5.29 2.65
-14 -16 -6 -0.23 3.33
-6 14 16 4.86 2.95
16 -6 14 -2.82 4.12
16 6 -14 3.66 3.33
-16 6 14 -0.59 2.25
6 -14 16 4.44 4.07
-16 -6 -14 3.51 3.32
-14 16 6 10.82 3.1
14 -16 6 -0.05 2.62
6 14 -16 2.49 3.23
14 16 6 2.12 3.71
-14 -16 6 2.12 3.14
16 -6 -14 5.23 3.1
16 6 14 1.31 4.18
-14 16 -6 4.08 3.33
6 14 16 4.01 3.72
6 14 16 -0.27 3.28
6 14 16 9.04 2.72
-6 -14 16 3.26 4.94
-6 14 -16 4.2 2.77
-6 14 -16 5.63 3.07
-14 -16 6 6.43 4.5
6 -14 -16 0.59 3.52
6 -14 -16 9.54 4.17
-14 16 -6 7.66 2.76
-16 6 -14 2.17 3.64
16 6 14 -0.65 3.39
14 16 6 4.94 3.53
-16 -6 14 -0.93 4.71
16 -6 -14 2.81 3.47
14 -16 -6 3.33 4.15
-6 -14 16 -0.36 2.84
-6 -14 16 7.96 3.43
-16 6 -14 4.85 3.2
14 -16 -6 3.97 3.58
14 -16 8 -1.2 2.64
-16 8 14 -1.45 2.79
-16 8 14 -5.87 4.29
-14 -16 -8 -4.45 3.39
-14 -16 -8 1.4 3.52
-14 -16 -8 -0.3 2.73
-16 8 14 -5.72 1.96
16 8 -14 -6.9 3.08
-16 -8 -14 -6.52 3.02
-8 14 16 -2.98 3.09
16 8 -14 -1.97 3.14
16 -8 14 -5.93 4.06
8 -14 16 -3.69 3.92
-14 16 8 -2.75 2.78
-8 -14 -16 -5.79 2.81
14 -16 8 -2.18 3.66
14 -16 8 -6.56 4.63
14 16 -8 0.25 2.75
14 16 -8 -5.95 3.58
8 -14 16 -0.22 4.9
8 14 -16 -1.33 2.91
8 14 -16 -2.57 3.31
-14 16 8 2.59 2.98
-8 -14 -16 -0.73 3.08
16 -8 14 -1.51 4.19
-16 -8 -14 -3.76 3.15
-16 8 -14 -3.84 3.05
16 8 14 -5.6 3.79
16 -8 -14 -1.19 2.81
-16 -8 14 -4.13 4.52
-16 -8 14 -2.08 3.45
8 14 16 -0.39 3.71
8 14 16 -0.8 3.25
14 -16 -8 -1.99 3.68
14 16 8 -3.22 3.44
14 16 8 -4.31 3.79
16 -8 -14 -2.76 3.5
8 14 16 -0.78 2.47
-8 -14 16 1.2 3.5
8 -14 -16 -1.65 3.97
-8 -14 16 -3.61 4.86
-8 14 -16 -3.37 2.8
-8 14 -16 1.66 3.18
-16 8 -14 -2.45 3.51
-8 -14 16 -1.94 2.73
8 -14 -16 -3.05 3.67
-14 -16 8 -2.03 3.02
-14 -16 8 -1.83 4.62
-14 16 -8 4.58 2.82
-14 16 -8 -3.98 3.2
16 8 14 -6.1 4.31
14 -16 -8 -2.46 4.06
-16 8 -14 2.44 2.92
-10 -14 -16 1.84 3.23
-14 16 10 8.51 3.27
-14 16 10 10.96 3.25
16 -10 14 10.72 4.41
16 -10 14 12.07 4.87
16 10 -14 8.55 3.63
16 10 -14 8.67 3.58
-10 14 16 9.47 3.41
10 -14 16 9.33 5.34
14 -16 10 5.1 4.18
14 -16 10 12.23 5.41
14 16 -10 4.47 3.31
14 16 -10 4.09 3.87
10 14 -16 8.57 3.11
-16 10 14 6.02 3.22
-10 -14 -16 8.88 3.52
10 -14 16 4.14 4.4
-14 -16 -10 10.94 3.81
-16 -10 -14 2.47 3.44
-16 -10 -14 9.72 3.75
10 14 -16 11.93 3.71
-16 10 14 3.41 4.79
-14 -16 -10 6.27 3.57
-16 10 -14 6.28 3.47
16 10 14 0.2 4.65
16 10 14 4.33 4.03
14 -16 -10 9.03 2.99
-16 -10 14 6.8 2.85
-16 -10 14 4.43 5.24
14 -16 -10 5.05 4.06
-14 -16 10 10.99 3.66
-14 -16 10 10.34 5.43
-16 -10 14 6.05 3.75
-14 16 -10 7.2 3.6
14 16 10 7.18 4.04
14 16 10 5.88 4.33
16 -10 -14 8.25 3.98
10 -14 -16 7.74 3.94
-10 -14 16 14.43 4.05
-10 -14 16 9.23 2.94
-10 -14 16 4.72 5.21
-10 14 -16 6.59 3.29
-10 14 -16 9.99 3.76
14 -16 -10 5.83 4.19
10 14 16 7.75 4.22
10 14 16 8.23 3.63
-16 10 -14 9.64 3.99
-16 10 -14 14.41 3.41
-14 16 -10 11.88 3.32
14 -16 12 26.85 6.35
16 12 -14 18.47 4.59
16 12 -14 24.94 4.3
-16 -12 -14 32.84 4.62
-16 -12 -14 25.22 4.61
14 16 -12 30.04 4.92
-12 14 16 21.58 4.42
-14 16 12 26.22 4.38
-16 12 14 25.27 4.31
-14 -16 -12 27.82 4.6
-14 -16 -12 32.36 4.67
14 16 -12 22.59 4.2
12 -14 16 23.62 5.48
12 -14 16 32.32 6.45
-14 16 12 26.72 4.08
16 -12 14 28.53 5.45
-12 -14 -16 27.09 4.35
-12 -14 -16 28.02 4.58
12 14 -16 21.2 3.93
14 -16 12 21.93 5.37
16 -12 14 36.82 6.19
-16 12 -14 24.84 4.73
-12 14 -16 25.75 4.39
12 -14 -16 28.66 5.01
-14 16 -12 29.93 4.34
-14 16 -12 19.55 4.48
-12 -14 16 29.2 5.07
12 14 16 26.49 5.44
14 -16 -12 36.8 5.24
14 -16 -12 23.04 3.87
14 -16 -12 22.75 5.36
-12 -14 16 22.45 3.81
16 12 14 21.77 5.69
-14 -16 12 25.38 4.89
-16 -12 14 28.6 4.83
14 16 12 23.17 5.4
16 -12 -14 29.25 5.01
-12 14 -16 20.74 4.61
-16 12 -14 23.59 4.45
-16 -16 0 131.46 12.75
-16 0 -16 145.96 12.11
-16 0 -16 128.18 12.74
-16 0 16 117.07 12.97
-16 0 16 113.79 14.98
-16 16 0 147 13.71
0 -16 -16 139.47 12.84
0 -16 -16 150.21 13.05
0 -16 -16 160.04 14.13
0 -16 16 128.59 12.25
0 -16 16 141.75 12.2
0 -16 16 133.2 13.8
0 -16 16 154.5 15.08
0 16 -16 145.56 12.43
0 16 -16 147.63 13.45
0 16 16 150.5 13.23
0 16 16 144.48 13.62
16 -16 0 169.96 14.46
16 0 -16 141.54 13.15
16 0 -16 139.34 12.53
16 0 16 143.36 12.19
16 0 16 132.28 14.04
16 0 16 114.88 14.27
16 16 0 143.68 12.54
16 16 0 137.81 13.86
-16 -16 -2 94.29 10.01
2 16 -16 92.32 10.38
2 16 -16 72.25 10.13
-16 -2 -16 111.26 9.45
-16 -2 -16 93.79 9.91
16 2 -16 104.35 9.88
2 -16 16 110.16 12.23
-16 2 16 90.93 10.04
-16 2 16 89.64 12.1
16 16 -2 95.38 9.59
-16 16 2 80.91 8.99
-16 16 2 112.44 10.64
-16 16 2 102.04 10.76
-2 -16 -16 113.36 10.15
-2 -16 -16 100.43 10.01
-2 -16 -16 114.43 11.04
2 -16 16 87.3 10.88
2 16 -16 101.56 9.61
16 2 -16 91.79 10.32
16 16 -2 103.59 10.91
16 16 -2 93.23 10.51
16 -16 2 115.77 11.6
-2 16 16 118.46 10.03
-2 16 16 97.34 10.55
16 -16 2 96.49 10.7
16 -2 16 66.2 11.26
-2 -16 16 104.18 12.02
-2 -16 16 95.69 9.66
-16 2 -16 104.25 10.04
-2 -16 16 101.75 9.61
-16 -16 2 99.44 9.89
-16 -16 2 124.89 11.07
2 16 16 104.71 10.29
2 16 16 104.53 10.85
16 -16 -2 109.31 9.62
16 -16 -2 92.35 11.38
2 -16 -16 98.44 10.21
16 -2 -16 104.92 10.41
16 -2 -16 107.63 9.71
2 -16 -16 103.55 9.83
2 -16 -16 115.08 11.27
-16 -2 16 87.08 12.3
16 2 16 104.16 9.46
16 2 16 100.05 11
16 2 16 95.21 11.58
-16 16 -2 106.47 10.78
-2 16 -16 105.13 9.58
-2 16 -16 105.91 10.47
16 16 2 109.7 11.03
-16 -16 -4 27.65 4.84
-16 -16 -4 58.18 6.46
16 4 -16 29.93 4.95
16 4 -16 34.86 4.93
-16 -4 -16 52.93 5.56
-16 -4 -16 27.2 4.69
16 -16 4 32.02 5.07
16 16 -4 30.05 4.4
16 16 -4 27.32 5.14
-16 4 16 42.31 5.67
-16 4 16 24.07 5.83
4 -16 16 41.53 6.37
-16 16 4 29.93 4.06
-16 16 4 27.43 4.77
-4 -16 -16 44.83 5.47
16 16 -4 32.85 5
16 -4 16 20.75 5.8
16 -16 4 39.97 5.87
4 16 -16 31.7 5.02
4 16 -16 34.66 4.59
-4 16 16 32.45 4.9
4 -16 16 32.02 5.71
4 -16 -16 45.97 5.86
4 -16 -16 41.2 5.34
-4 -16 16 50.95 5.79
-4 16 -16 30.47 4.42
4 16 16 39.92 4.99
4 16 16 32.14 5.36
4 16 16 48.6 5.98
16 -16 -4 51.23 5.92
16 -16 -4 26.45 5.76
-16 -4 16 22.87 6.17
-4 -16 16 29.12 6.09
16 -4 -16 35.8 5.04
16 -4 -16 39.2 4.68
-16 16 -4 27.38 4.89
-16 -16 4 29.8 4.61
-16 -16 4 42.62 5.84
16 4 16 46.37 5.66
16 4 16 28.49 5.31
16 4 16 35.46 5.9
-16 4 -16 29.43 4.75
-16 4 -16 29 5.41
-4 -16 16 36.87 4.9
16 16 4 32.79 5.12
-16 -16 -6 5.42 3.56
-16 -16 -6 4.48 3.88
-16 -16 -6 8.74 2.88
-6 -16 -16 11.21 3.44
16 -6 16 -1.65 4.21
-16 -6 -16 6.77 3.28
-16 -6 -16 6.94 3.57
6 16 -16 3.6 3.13
16 -16 6 2.77 2.81
16 16 -6 5.55 3.05
-16 6 16 1.21 2.46
-16 6 16 11.55 3.32
-16 6 16 2.72 4.45
-6 16 16 8.61 3.26
16 -6 16 9.82 4.47
-16 16 6 4.97 2.63
-16 16 6 15.35 3.52
-16 16 6 3.01 3.24
-6 -16 -16 12.32 3.57
6 16 -16 -0.22 3.56
6 -16 16 12.78 5.33
6 -16 16 8.22 4.47
16 6 -16 4.64 3.72
16 -16 6 6.08 4.8
16 -16 6 6.68 3.94
16 16 -6 6.59 3.86
6 -16 -16 5.31 3.91
-6 -16 16 5.48 4.77
-6 -16 16 9.02 3.71
-16 -6 16 -5 5.05
-16 16 -6 12.42 3.11
6 16 16 10.86 2.91
6 16 16 3.05 3.44
6 16 16 9.15 4
6 16 16 7.67 3.04
16 -16 -6 5.27 3.81
16 -16 -6 1.64 4.48
-16 6 -16 9.82 3.42
-16 -16 6 6.22 3.44
-6 16 -16 8.19 3.23
16 -6 -16 8.8 3.77
16 -6 -16 8.94 3.31
-16 -16 6 7.78 4.74
-16 16 -6 8.36 3.59
-6 16 -16 5.66 3.09
16 6 16 -0.17 3.99
16 6 16 1.25 4.51
-16 6 -16 4.74 3.96
6 -16 -16 4.18 4.38
16 16 6 11.1 3.96
16 16 6 3.38 4.05
-16 -16 -8 -2.31 3.49
-16 -16 -8 -4.61 3.68
-16 -16 -8 -4.55 2.84
16 -8 16 -1.64 4.23
16 -8 16 -5.1 4.6
-16 -8 -16 -4.52 3.08
-16 -8 -16 -2.15 3.3
16 -16 8 1.82 2.76
16 16 -8 -5.28 2.89
16 16 -8 -1.89 3.7
16 -16 8 -7.5 4.84
8 -16 16 -7.03 4.2
-16 8 16 -4.75 3.14
-16 8 16 -4.22 4.37
16 8 -16 -6.12 3.42
16 -16 8 -3.52 3.82
-16 16 8 -0.83 3.1
-16 16 8 -5.07 3.03
-8 -16 -16 -4.15 2.96
-8 -16 -16 -4.19 3.18
8 -16 16 1.01 5.11
8 16 -16 0.34 3.14
8 16 -16 -9.33 3.55
-8 16 16 -2.11 3.2
-8 16 -16 0.35 3.1
8 -16 -16 -3.39 3.75
8 -16 -16 -5.27 4.25
-16 8 -16 -7.21 3.08
-8 -16 16 -4.76 3.61
-8 -16 16 -5.38 4.88
-16 8 -16 -5.05 3.71
8 16 16 -1.08 2.68
8 16 16 -2.52 3.48
8 16 16 -0.76 3.97
16 -16 -8 -9.36 3.81
16 -16 -8 -2.16 4.11
-16 -8 16 -4.95 3.72
-16 16 -8 -3.09 3.27
-8 16 -16 -3.22 3
16 -8 -16 -4.11 3.64
16 -8 -16 -8.56 2.97
-16 -16 8 -1.76 3.19
-16 -16 8 -7.74 4.98
-16 16 -8 5.44 3.01
16 8 16 -9.39 3.8
16 8 16 -10.82 4.38
-16 -8 16 -8.42 4.78
-16 8 -16 -0.26 3.16
16 16 8 -3.6 3.53
16 16 8 -7.3 3.98
-17 -1 -1 3.81 2.31
-17 -1 -1 -4.63 2.78
-17 -1 -1 -1.4 2.53
-17 -1 -1 -2.32 2.86
-17 -1 -1 -5.16 2.76
17 -1 1 -2.01 2.99
17 1 -1 -3.46 2.89
17 1 -1 -0.73 2.66
1 1 -17 0.38 2.97
1 -17 1 -0.46 2.6
1 -17 1 -1.9 2.48
1 -17 1 -5.99 3.55
-1 -1 -17 -0.67 2.75
1 17 -1 -0.84 1.86
1 17 -1 0.64 2.42
1 17 -1 -1.64 2.1
1 17 -1 0.09 2.04
1 17 -1 -1.17 2.83
-17 1 1 0 2.21
-17 1 1 -3.26 2.22
-17 1 1 -1.22 2.54
-17 1 1 -2.71 3.01
-17 1 1 0.37 2.7
-17 1 1 6.42 3.1
-17 1 1 1.22 2.62
-1 -17 -1 -1.72 2.71
-1 -17 -1 -0.46 2.43
-1 -17 -1 3.1 3.57
1 -1 17 0.94 1.86
1 -1 17 -0.38 2.42
1 -1 17 -2.27 3.26
-1 -1 -17 -0.88 2.46
-1 -1 -17 -0.59 2.52
-1 -1 -17 1.03 2.63
1 1 -17 -0.96 2.52
-1 1 17 -1.71 3.57
-1 17 1 -0.88 1.93
-1 17 1 -1.65 2.44
-1 17 1 -1.85 2.21
17 -1 1 1.6 3.07
1 -1 17 -0.01 3.48
1 1 -17 -2.72 2.66
1 1 -17 4.19 2.56
-1 1 17 -0.65 2.23
-1 1 17 -2 2.4
-1 1 17 -2.43 2.99
-1 17 1 0.16 3.04
-1 -1 17 -1.05 2.27
-1 17 -1 -0.03 2.33
-1 17 -1 0.8 2.16
-17 1 -1 0.56 2.04
-1 17 -1 -3.1 2.95
-1 -1 17 1.07 2.39
-1 -1 17 -4.05 3.27
-1 -1 17 -0.74 3.66
-1 17 -1 -1.26 1.85
1 -17 -1 -1.32 2.75
1 -17 -1 -4.72 2.4
1 -17 -1 -3.21 3.6
-17 -1 1 6.08 2.93
-17 -1 1 -0.81 2.88
-17 -1 1 0.37 2.58
1 -1 -17 -1.37 2.63
1 -1 -17 1.53 2.51
1 -1 -17 -1.38 2.53
1 -1 -17 -1.75 2.66
-1 -17 1 -1.94 2.71
-1 -17 1 -1.74 2.41
-1 -17 1 -3.05 3.48
-1 1 -17 -0.57 2.55
-1 1 -17 -0.12 2.64
-1 1 -17 2.43 2.79
-1 17 -1 -1.51 1.97
-17 -1 1 -4.35 2.86
1 1 17 -1.27 1.95
1 1 17 -0.3 2.37
1 1 17 0.98 3.29
1 1 17 -2.39 3.51
-17 1 -1 -1.37 2.24
-17 1 -1 -0.39 2.86
-17 1 -1 -2.6 2.48
-17 1 -1 2.64 3.09
-17 1 -1 -5.95 2.84
1 17 1 -3.28 1.91
1 17 1 -2.19 2.45
1 17 1 -1.22 2.2
1 17 1 -0.2 2.8
17 -1 -1 0.56 2.98
17 -1 -1 -2.62 2.7
-1 1 -17 -3.3 2.55
-17 -1 1 -1.08 2.48
-17 -1 1 -1.65 2.58
-17 -1 1 -1.49 2.51
17 1 1 -1.59 2.98
17 1 1 -3.09 2.91
-17 3 1 -0.24 2.47
-3 -1 -17 -1.4 2.67
-3 -1 -17 2.68 2.7
-3 -1 -17 -2.03 2.63
-3 -1 -17 -0.86 2.68
17 -3 1 -0.83 3.09
17 -3 1 1.68 3.14
17 3 -1 0.28 2.66
17 3 -1 1.12 3.22
-17 3 1 2.96 2.06
-17 3 1 0.08 2.22
-17 3 1 -0.84 2.72
-17 3 1 -4.1 2.44
-3 1 17 2.37 2.44
-3 1 17 0.3 2.27
-3 1 17 -1.3 2.99
-3 1 17 -3.16 3.71
-1 -17 -3 0.61 2.82
-1 -17 -3 -1.79 2.35
-1 -17 -3 -0.19 2.4
-1 -17 -3 -0.87 3.35
-17 -3 -1 -2.75 2.59
-17 -3 -1 1.7 2.89
-17 -3 -1 -5.55 2.76
17 3 -1 0.96 2.61
3 -1 17 0.92 1.96
3 -1 17 -0.35 2.49
3 -1 17 3.27 3.59
3 -1 17 0.7 3.54
3 1 -17 0.87 2.59
-1 17 3 2.1 1.9
-1 17 3 -1.06 2.52
-1 17 3 -0.2 2.36
-1 17 3 0.08 2.7
1 17 -3 -0.81 2.77
17 -3 1 1.99 3.13
-17 3 1 -2.93 2.82
-17 3 1 -0.43 2.53
1 -17 3 -1.54 2.48
1 -17 3 -2.41 2.45
1 -17 3 -3.07 3.67
1 17 -3 -0.45 1.96
1 17 -3 1.51 2.53
1 17 -3 -0.83 2.03
1 17 -3 -1.65 2.08
-17 -3 -1 1.7 2.77
-17 -3 -1 -0.91 2.47
3 1 -17 1.02 2.57
3 1 -17 0.09 2.45
3 1 -17 -0.93 2.97
1 17 3 1.39 2.06
1 -17 -3 1.53 2.71
3 -1 -17 -0.07 2.47
3 -1 -17 -1.48 2.89
-1 17 -3 0.33 1.85
-1 17 -3 1.18 2.33
-1 17 -3 0.06 2.18
-1 17 -3 -1.28 1.08
-1 17 -3 -2.08 2.81
1 -17 -3 -0.64 2.4
1 17 3 1.31 2.24
1 17 3 -1.01 2.88
3 1 17 -0.39 2.02
3 1 17 0.47 2.42
3 1 17 3.97 3.37
3 1 17 0.45 3.52
3 -1 -17 4.7 2.84
3 -1 -17 -0.93 2.47
17 -3 -1 -2.79 3.16
1 17 3 3.4 2.47
-3 -1 17 0.07 2.28
-3 -1 17 2.17 2.32
-3 -1 17 -0.01 3.08
-3 -1 17 4.12 3.73
1 -17 -3 -0.03 2.44
1 -17 -3 -1.74 3.34
17 3 1 -1.41 3.17
17 3 1 -3 2.82
-17 3 -1 -0.33 2.5
-17 3 -1 3.63 2.97
-17 3 -1 -2.17 2.87
-17 3 -1 5.39 2.42
-3 1 -17 -0.11 2.52
-3 1 -17 -0.15 2.76
-3 1 -17 0.09 2.57
-3 1 -17 1.32 2.77
-1 -17 3 -5.23 3.63
17 3 1 -0.55 2.28
-17 -3 1 0.24 2.58
-17 -3 1 0.3 2.91
-17 -3 1 2.47 2.76
-17 3 -1 0.05 1.99
-17 3 -1 1.66 2.22
-17 3 -1 0.65 2.71
-1 -17 3 -3.92 2.62
-1 -17 3 2.15 2.28
-1 -17 3 -1.28 2.45
-17 -3 1 2.09 2.59
17 -3 -1 0.95 3.09
17 -3 -1 1.27 2.81
-1 17 5 2.53 2.03
-1 17 5 0.41 2.57
-1 17 5 -0.12 2.33
-1 17 5 -0.93 2.85
-17 5 1 -0.73 2.54
-17 5 1 -1.78 2.22
-5 -1 -17 2.29 2.63
5 1 -17 -0.3 2.61
-17 5 1 -4.2 2.87
-17 5 1 4.52 2.25
-1 -17 -5 1.97 2.27
-1 -17 -5 2.84 2.39
-1 -17 -5 0.15 3.17
-5 -1 -17 0.68 2.58
1 -17 5 1.98 2.48
-5 -1 -17 2.99 2.54
1 -17 5 1.98 2.33
1 -17 5 2.57 2.61
1 -17 5 -1.76 3.73
1 17 -5 2.82 1.94
5 -1 17 0.83 2.02
5 -1 17 -1.58 2.38
5 -1 17 0.5 3.55
5 -1 17 1.88 3.69
-17 -5 -1 0.42 2.86
-1 -17 -5 2.98 2.82
5 1 -17 -1.28 2.75
5 1 -17 0.2 1.96
5 1 -17 2.34 2.85
1 17 -5 4.81 2.9
-5 -1 -17 3.24 2.73
1 17 -5 1.97 2.27
1 17 -5 1.73 2.56
-17 5 1 -0.81 2.74
17 -5 1 0.65 2.97
17 -5 1 5.83 3.15
17 5 -1 -0.69 2.24
17 5 -1 2.52 2.85
17 5 -1 0.52 3.08
1 17 -5 -1.75 2.14
-5 1 17 -1.06 3.76
-5 1 17 2.14 2.44
-5 1 17 -0.55 2.3
-5 1 17 0.47 2.79
-17 -5 -1 1.43 2.43
-17 -5 -1 1.79 2.64
1 17 -5 -2.98 2.13
-17 -5 -1 -5.72 2.61
-17 5 1 0.27 2.37
17 5 1 -1.01 3.13
-1 -17 5 -0.17 3.75
-1 -17 5 1.57 2.64
1 17 5 3.27 1.98
17 5 1 0.08 2.21
-1 17 -5 1.58 1.83
1 17 5 3.35 2.84
-5 -1 17 -2.5 3.6
-5 1 -17 1.71 2.53
-5 1 -17 0.2 2.73
-1 -17 5 0.79 2.57
-5 1 -17 1.08 2.47
-5 1 -17 0.6 2.54
17 -5 -1 1.27 3.27
17 5 1 1.1 2.76
-1 -17 5 0.47 2.34
5 -1 -17 2.95 2.82
1 17 5 -1.85 2.36
1 -17 -5 -2.6 3.17
-5 -1 17 -1.92 2.4
-5 -1 17 -2.68 2.34
-5 -1 17 3.66 2.98
-1 17 -5 1.15 2.25
-1 17 -5 2.32 2.72
5 -1 -17 0.78 2.83
-5 1 -17 -1.58 2.69
1 17 5 0.57 2.52
5 1 17 1.84 2.47
5 1 17 -1.72 3.53
5 1 17 0.11 3.45
1 -17 -5 0.36 2.71
1 -17 -5 1.09 2.38
1 -17 -5 1.13 2.46
-17 5 -1 -3.42 2.08
-17 5 -1 -2.99 2.97
-17 5 -1 -0.51 2.96
-17 5 -1 1.23 2.32
-1 17 -5 -0.69 2.59
-17 5 -1 -0.38 2.6
17 -5 -1 -0.32 2.98
-17 5 -1 1.37 1.98
-17 5 -1 3.8 2.23
-17 -5 1 4.56 2.62
-17 -5 1 1.44 2.83
-5 1 -17 1.4 2.72
5 -1 -17 -0.95 2.57
5 -1 -17 -0.45 2.34
-1 17 -5 3.26 2.12
-17 -5 1 1.77 2.59
-1 17 7 -2.62 2.98
-1 17 7 2.65 2.6
-1 17 7 0.86 2.46
17 7 -1 3.41 2.26
-1 17 7 1.31 2.07
7 1 -17 -1.12 2.65
1 -17 7 4.11 2.66
7 -1 17 0.27 2.06
7 -1 17 -1.24 3.55
7 -1 17 0.96 3.63
7 1 -17 1.41 2.69
1 -17 7 -4.11 2.49
1 -17 7 1.23 2.37
1 -17 7 -2.44 3.85
-7 1 17 3.99 2.58
-7 1 17 -2.23 2.41
-7 1 17 3.62 2.8
-7 1 17 -0.01 3.95
-1 -17 -7 0.87 2.83
7 1 -17 -0.86 2.2
-17 -7 -1 0.28 2.54
-17 -7 -1 -3.47 2.9
-7 -1 -17 0.83 2.54
-17 7 1 3.79 2.39
-17 7 1 -1.78 2.95
-17 7 1 -3.76 2.77
-17 7 1 4.02 2.67
-17 7 1 -2.11 2.49
-7 -1 -17 -0.85 2.51
-7 -1 -17 1.88 2.61
-7 -1 -17 1.61 2.64
-1 -17 -7 3.67 2.32
-1 -17 -7 -0.35 2.42
-1 -17 -7 -3.76 3.3
1 17 -7 -0.2 2.27
17 -7 1 2.05 3.11
17 -7 1 2.13 3.51
1 17 -7 3.6 2.61
17 7 -1 3.1 2.75
17 7 -1 2.26 2.99
-17 7 1 1.22 2.7
1 -17 7 -1.32 2.88
-17 7 1 2.26 2.18
1 17 -7 3.11 1.77
1 17 -7 0.89 2.29
1 17 -7 3.32 3.04
1 -17 -7 0.35 2.76
-1 -17 7 1.03 2.58
1 17 7 4.35 2.15
1 17 7 1.82 2.64
1 17 7 -1.28 2.46
1 -17 -7 -7.24 3.23
-7 1 -17 1.27 2.55
-7 -1 17 -4.26 2.39
-7 -1 17 0.3 2.88
-7 -1 17 0.87 3.82
-7 1 -17 0.64 2.53
-17 -7 1 1.83 2.69
-17 -7 1 3.57 2.9
-17 7 -1 1.46 1.96
-17 7 -1 1.35 2.22
-17 7 -1 3.77 2.55
-17 7 -1 1.78 2.08
-17 7 -1 2.31 3.05
-17 7 -1 -4.95 2.91
-17 7 -1 1.76 2.89
-17 7 -1 -3.04 2.48
-7 1 -17 0.21 2.75
-7 -1 17 4.05 2.66
17 -7 -1 1.67 2.91
17 -7 -1 2.98 3.39
1 -17 -7 1.95 2.53
1 -17 -7 0.7 2.47
-1 17 -7 3.26 2.45
-7 1 -17 1.79 2.69
-7 1 -17 -0.88 2.97
17 7 1 1.78 2.23
17 7 1 -3.73 3.01
7 1 17 2.76 2.96
7 1 17 -0.4 3.63
7 1 17 0.74 3.44
1 17 7 -0.07 2.78
7 -1 -17 2.66 2.83
7 -1 -17 1.03 2.69
7 -1 -17 2.88 2.3
7 -1 -17 2.57 2.94
-1 -17 7 5.31 2.35
-1 -17 7 0.2 2.58
-1 -17 7 1.09 3.78
-1 17 -7 2.47 1.69
-1 17 -7 3.92 2.31
-1 17 -7 3.22 2.67
7 1 17 0.52 2.08
7 1 17 -1.52 2.41
17 -7 -1 -0.73 2.81
-9 1 17 2.92 2.29
-9 1 17 1.72 2.82
-1 17 9 1.58 2.87
-1 17 9 -1.26 2.66
-1 17 9 1.87 2.47
-17 9 1 3.11 2.18
-17 9 1 1.03 2.72
-17 9 1 2.42 2.35
-17 9 1 3.07 3.12
-17 9 1 1.68 2.71
-17 9 1 0.13 2.92
-9 -1 -17 -1.28 2.48
17 -9 1 0.66 3.52
17 9 -1 -1.72 2.66
17 9 -1 -3.74 2.98
1 17 -9 -1.13 2.49
17 -9 1 -1.26 3.19
-17 -9 -1 0.72 2.62
9 1 -17 3.14 2.79
9 1 -17 -1.3 2.41
-9 1 17 0.47 3.96
1 -17 9 -3.03 2.42
1 -17 9 -0.15 0.45
1 -17 9 -4.48 3.14
1 -17 9 -1.5 3.89
1 17 -9 1.16 1.68
1 17 -9 -1.73 2.45
-9 -1 -17 0 2.66
1 17 -9 0.61 2.48
-1 -17 -9 -0.83 2.53
-1 -17 -9 -1.58 3.34
9 -1 17 -2.67 2.05
9 -1 17 3.35 3.73
9 1 -17 1.68 2.72
-1 -17 -9 0.71 2.38
-1 -17 -9 2.54 2.8
1 -17 -9 -1.83 3.34
17 -9 -1 0.45 3.01
17 -9 -1 -1.26 2.87
-17 9 -1 4.21 3.11
-17 9 -1 -0.2 2.72
-1 -17 9 -4.84 2.54
-1 -17 9 0.4 2.43
-1 -17 9 -2.58 2.81
-1 -17 9 1.61 4.14
-17 9 -1 5.41 2.23
-17 9 -1 -0.99 3.08
-1 17 -9 0.31 2.73
-1 17 -9 1.43 2.58
9 1 17 -1.25 2.28
9 1 17 0.22 3.18
-17 -9 1 0.37 2.62
-17 9 -1 -0.24 2.19
17 9 1 -4.01 2.98
-9 -1 17 2.77 2.37
-9 -1 17 1.79 2.83
-9 -1 17 2.17 4.09
1 17 9 2.42 2.73
9 -1 -17 0.56 2.83
9 -1 -17 -0.02 2.74
-9 1 -17 -0.88 2.48
-9 1 -17 -0.59 2.64
-9 1 -17 -1.91 1.7
1 -17 -9 -0.94 2.85
1 -17 -9 0.17 2.38
1 17 9 2.81 2.69
1 17 9 2.81 2.65
9 1 17 1.06 3.66
-1 17 -9 1.43 2.33
-17 9 -1 -7.03 2.49
17 -9 -1 1.06 3.57
-1 17 -9 1.29 1.55
17 11 -1 -5.28 3.24
1 -17 11 0.1 2.76
1 -17 11 2.11 4.42
-1 17 11 -0.06 2.79
-11 -1 -17 -5.25 2.53
-11 -1 -17 -0.85 2.89
-11 -1 -17 7.62 3.27
-1 17 11 -0.47 2.73
-1 17 11 -0.78 3.04
-17 -11 -1 0.58 2.78
1 17 -11 1.05 2.76
1 17 -11 -5.3 2.69
-11 1 17 -2.59 2.33
-11 1 17 0.08 2.85
-11 1 17 4.5 4.23
-1 -17 -11 -1.28 3.05
-1 -17 -11 1.39 2.32
-1 -17 -11 0.46 3.54
11 -1 17 -6.17 2.27
11 -1 17 6.96 4.09
11 1 -17 4.31 3.03
-17 11 1 2.06 2.36
-17 11 1 2.51 3.14
11 1 -17 -1.76 2.95
17 -11 1 -6.24 2.85
17 -11 1 3.34 3.22
17 -11 1 4.63 3.88
17 11 -1 -2.24 2.81
-17 11 1 -4.66 2.15
1 17 -11 1.04 2.58
11 1 -17 -6.78 2.52
11 -1 -17 1.72 2.94
11 1 17 1.75 3.83
1 17 11 -0.3 2.82
11 -1 -17 -0.87 2.94
-1 -17 11 3.03 4.19
-11 1 -17 -6.85 2.44
-11 1 -17 -1.36 2.81
-11 1 -17 3.01 3.26
11 1 17 -3.43 2.39
-1 17 -11 2.11 2.6
-1 17 -11 1.32 2.85
1 -17 -11 -0.49 2.98
1 -17 -11 0.31 0.96
1 -17 -11 -3.64 3.5
11 -1 -17 -0.88 2.56
1 17 11 0.98 2.85
11 1 17 4.35 3.43
-17 -11 1 3.13 2.75
-17 11 -1 -2.96 2.77
17 -11 -1 -2.39 3.05
17 -11 -1 2.15 3.22
17 -11 -1 6.61 3.93
-1 -17 11 -1.96 2.76
-1 -17 11 -9 3.16
17 11 1 -7 3.04
-17 11 -1 -0.01 2.31
-1 17 -11 -1.39 2.83
1 17 11 -0.19 2.98
-11 -1 17 3.86 4.41
-11 -1 17 -0.06 2.96
-17 11 -1 0.5 2.82
-17 11 -1 -1.24 3.21
-13 1 17 6.15 4.65
-13 1 17 8.86 3.11
-1 17 13 0.3 3.03
-1 -17 -13 -3.29 3.57
-1 -17 -13 0.71 3.06
1 -17 13 8.1 4.72
1 17 -13 -1.92 3.22
1 -17 13 -11.16 3.93
-17 -13 -1 -3.33 3.02
1 17 -13 -1.35 3.18
13 1 -17 -3.14 2.77
1 17 -13 2.01 2.79
-17 13 1 1.48 3.38
17 13 -1 -2 2.95
-13 -1 -17 1.72 3.12
17 13 -1 -5.39 3.55
-1 17 13 2.42 3.02
13 -1 17 -5.54 2.59
13 -1 17 4.89 4.38
13 1 -17 1.37 3.37
13 1 -17 -0.82 3.18
17 -13 1 12.07 4.33
17 -13 1 8.77 3.56
-1 17 -13 -7.09 3.06
-1 17 -13 0.38 3.04
1 -17 -13 -5.92 3.3
17 13 1 -9.09 3.44
-13 -1 17 3.83 4.68
-13 1 -17 -1.52 3.12
17 13 1 -5.55 2.84
-13 -1 17 8.68 3.19
1 17 13 -0.22 3.04
-1 -17 13 -7.55 3.77
-1 -17 13 6.4 4.85
-1 17 -13 -0.76 2.75
-17 13 -1 4.7 3.47
1 17 13 2.13 2.9
1 -17 -13 3.25 2.45
1 -17 -13 1.42 3.63
-17 -13 1 0.99 2.95
1 17 13 1.13 2.94
13 1 17 -6.97 2.7
13 1 17 11.17 3.83
13 1 17 9.7 4.36
17 -13 -1 13.06 4.43
13 -1 -17 1.47 3
13 -1 -17 1.67 3.25
13 -1 -17 -1.66 2.85
-17 13 -1 -5.56 2.75
-1 -17 -15 -0.13 2.6
-1 -17 -15 2.87 4.13
17 -15 1 11.13 3.95
17 -15 1 10.85 4.62
-15 1 17 9.77 5.13
15 -1 17 18.42 4.16
15 -1 17 10.99 4.9
-15 -1 -17 -4.77 2.85
-17 -15 -1 -4.1 3.09
-17 15 1 6.44 3.73
-1 17 15 10.85 3.21
-1 17 15 12.18 3.55
15 1 -17 3.41 3.57
15 1 -17 5.54 3.54
15 1 -17 0.3 3.13
-15 1 17 12.04 3.45
1 -17 15 -6.61 4.43
1 -17 15 14.07 5.38
1 17 -15 -6.34 3.39
17 15 -1 -0.21 3.12
17 15 -1 7.51 3.95
-1 -17 -15 -1.05 3.41
1 17 -15 2.86 3.58
-15 -1 -17 2.57 3.48
15 -1 17 -2.49 2.89
1 17 -15 2.51 3.08
15 1 17 -5.86 2.97
15 -1 -17 1.4 3.53
17 15 1 -3.17 3.76
15 -1 -17 0.33 3.21
-1 17 -15 3.45 3.13
17 -15 -1 -4.05 3.49
15 -1 -17 -0.38 3.47
17 15 1 -4.03 3.13
15 1 17 21.12 4.24
15 1 17 15.26 4.91
-15 -1 17 13.53 5.33
1 17 15 5 3.34
-17 15 -1 2.99 3.55
1 17 15 4.69 3.47
-1 -17 15 21.69 5.55
-1 17 -15 -0.41 3.29
-1 17 -15 -7.25 3.52
-1 -17 15 3.86 4.29
1 -17 -15 -1.31 3.66
-15 -1 17 13.21 3.37
17 -15 -1 13.85 4.79
1 -17 -15 6.3 4.27
1 -17 -15 5.16 2.62
-17 -15 1 2.99 3.25
-15 1 -17 0.02 3.31
-3 -17 -1 -3.67 2.3
-3 -17 -1 1.58 2.3
-3 -17 -1 -0.03 2.86
-17 1 3 -0.06 2.71
-17 1 3 -2.03 2.49
-17 1 3 -8.36 2.67
-17 1 3 1.26 3.09
3 -17 1 -0.13 2.55
3 -17 1 -2.36 3.59
-17 1 3 6.15 2.63
-3 17 1 2.44 2.86
-1 -3 -17 -1.38 2.69
1 3 -17 -0.13 2.82
3 -17 1 0.35 2.5
-17 -1 -3 0.69 3.06
-17 -1 -3 -5.1 2.88
3 17 -1 3.33 2.06
17 1 -3 -0.63 2.51
-3 17 1 2.66 1.79
-3 17 1 -0.59 2.49
-3 17 1 0.23 2.32
-3 17 1 -0.06 2.29
1 -3 17 -2.46 3.43
1 -3 17 -1.67 3.79
1 3 -17 -0.05 2.51
1 3 -17 1.46 2.55
1 3 -17 1.41 2.57
1 -3 17 2.03 2.15
1 -3 17 -1.61 2.46
17 -1 3 0.75 3.16
17 1 -3 -0.78 2.65
-1 -3 -17 1.78 2.63
-1 3 17 0.41 2.13
-1 3 17 0.67 2.29
-1 3 17 0.51 3.06
-1 3 17 0.23 3.66
-17 -1 -3 -1.67 2.37
-17 1 3 -2.99 2.51
-17 1 3 2.07 2.54
3 17 -1 2.95 2.46
3 17 -1 0.19 2.11
3 17 -1 -1.74 2.8
-3 -17 -1 -3.03 3.46
-1 -3 -17 -1.31 2.44
17 1 -3 -1.43 2.94
-1 -3 -17 0.49 2.63
-17 -1 -3 6.76 2.19
-17 -1 -3 1.49 2.96
17 -1 3 1.87 3.08
-1 3 -17 1.26 2.51
-1 -3 17 0.55 3.31
-3 17 -1 -0.62 2.33
-3 17 -1 6.09 3.02
-17 -1 3 1.74 2.57
-17 -1 3 -7.44 2.64
-17 -1 3 3.19 2.77
-17 -1 3 -1.58 2.91
-17 -1 3 1.35 2.7
-17 1 -3 -0.2 1.88
-3 17 -1 1.74 1.79
-17 -1 3 0.33 2.55
-3 -17 1 1.6 2.11
-3 17 -1 -1.49 2.29
-1 -3 17 -2.52 2.42
3 17 1 0.83 1.97
-3 -17 1 -3.56 2.72
3 -17 -1 3.23 2.67
-1 3 -17 1.94 2.58
-1 3 -17 2.85 2.61
-1 3 -17 2.63 2.85
-17 -1 3 -2.1 2.56
17 1 3 1.09 1.06
17 1 3 -0.68 3.01
17 1 3 -1.24 3.11
1 -3 -17 -2.01 2.51
1 -3 -17 0.13 2.59
1 -3 -17 -0.79 2.37
1 -3 -17 2.96 2.75
1 3 17 -0.3 2.96
-1 -3 17 2.57 2.15
-3 -17 1 0.96 2.32
-3 -17 1 -4.68 3.65
3 17 1 -0.59 2.89
3 -17 -1 0.68 2.46
3 -17 -1 0.16 3.49
1 3 17 0.25 2.09
1 3 17 -0.65 2.32
-3 17 -1 -1.95 2.52
1 3 17 -1.46 3.48
3 17 1 0.1 2.13
17 -1 -3 -1.1 2.96
3 17 1 1.77 2.62
-17 1 -3 -5.28 2.9
17 -1 -3 -0.12 2.81
-1 -3 17 1.7 3.8
17 -1 -3 -0.45 2.48
-17 1 -3 3.27 2.93
-17 1 -3 -2.79 3
-17 1 -3 1.49 2.41
-17 -3 -3 -6.9 2.71
-3 -17 -3 4.21 2.8
-17 -3 -3 0.84 2.61
-17 -3 -3 4.66 2.87
-17 3 3 2.01 2.64
-3 -17 -3 1.09 2.19
-17 -3 -3 1.51 2.45
-17 3 3 0.72 2.32
3 -17 3 -0.24 2.41
3 -17 3 1.54 2.56
-3 -3 -17 2.25 2.64
-3 -3 -17 1.33 2.59
3 -3 17 -1.95 3.49
3 -3 17 3 3.81
17 -3 3 5.3 3.25
17 -3 3 4.59 3.23
17 3 -3 -0.65 2.62
3 3 -17 1.13 2.97
3 -17 3 -0.86 3.69
-17 -3 -3 1.7 2.93
-3 3 17 1.47 2.38
-3 3 17 3.39 2.38
17 3 -3 -0.85 3.19
-17 3 3 -0.54 2.29
-17 3 3 -0.49 2.32
3 17 -3 0.53 2.24
3 3 -17 0.13 2.5
3 17 -3 1.45 2.04
3 17 -3 3.28 2.88
-3 17 3 2.85 2.01
-3 17 3 0.86 2.39
-3 17 3 1.83 2.38
-3 17 3 1.87 2.93
-3 3 17 1.69 3.7
3 17 -3 3.6 1.99
-3 -3 -17 1.19 2.69
-3 -17 -3 1.46 2.31
-3 -17 -3 2.27 3.46
3 -3 17 2.28 1.98
3 -3 17 1.91 2.48
-3 3 17 1.18 2.86
-17 3 3 -6.06 2.64
3 3 -17 0.66 1.8
3 17 -3 1.59 2.31
-3 -3 -17 2.26 2.69
3 3 -17 1.42 2.49
17 3 3 5.09 3.25
-17 -3 3 -7.14 3.12
3 -3 -17 5.55 2.87
-17 3 -3 3.44 2.46
-3 3 -17 2.76 2.67
3 17 3 1.98 2.13
3 3 17 2.59 3.25
3 17 3 0.07 2.18
3 -3 -17 1.92 2.41
3 -17 -3 1.07 2.7
-3 17 -3 1.59 1.72
3 -3 -17 0.32 2.57
-3 -17 3 -3.75 3.63
3 -3 -17 2.32 2.98
-17 3 -3 6.18 2.4
17 3 3 0.78 2.24
-3 -3 17 1.26 2.41
-3 -3 17 0.85 2.4
-3 17 -3 1.64 2.44
-3 17 -3 0.4 2.3
-3 17 -3 1.33 3.01
-3 3 -17 3.32 2.52
3 3 17 0.68 2.16
-3 3 -17 1.62 2.83
17 3 3 0.59 3.12
-3 -17 3 0.96 2.47
3 -17 -3 4.39 2.57
3 -17 -3 -1.99 3.3
-17 3 -3 1.67 2.9
-17 -3 3 -1.52 2.73
-17 3 -3 2.52 1.93
-17 3 -3 1.52 2.27
-17 3 -3 2.66 2.83
-3 -3 17 1.4 3.31
-3 -3 17 2.89 3.88
-3 3 -17 0.92 2.5
-17 -3 3 -1.02 2.87
3 3 17 2.81 3.31
17 -3 -3 0.04 3.06
-3 17 -3 1.24 2.5
-17 3 -3 2.84 3.11
-3 -17 3 -0.54 2.65
-3 -17 3 0.18 2.3
3 17 3 4.42 2.94
3 17 3 2.37 2.68
-17 -3 3 2.97 2.93
17 -3 -3 1.07 2.66
3 3 17 2.45 2.34
-17 -3 3 1.88 2.72
-17 -3 3 3.25 2.62
-17 -5 -3 -1.38 2.55
-5 3 17 5.04 2.62
3 17 -5 4.16 2.22
3 17 -5 4.19 2.66
-5 -3 -17 2.03 2.83
-17 -5 -3 -4.59 2.89
-3 -17 -5 4.44 2.31
-3 -17 -5 4.42 2.48
-3 -17 -5 4.15 3.32
3 -17 5 1.52 2.4
-5 -3 -17 3.49 2.64
5 -3 17 6.31 2.63
5 -3 17 -3.63 3.75
17 -5 3 4.27 3.38
17 -5 3 -0.13 3.22
-17 5 3 0.74 2.25
3 17 -5 8.78 3.12
3 -17 5 0.14 3.91
3 17 -5 4.34 2.03
-17 5 3 0.67 2.64
-17 -5 -3 3.89 2.67
-3 17 5 4.93 2.57
-3 17 5 -3.23 3.03
-5 -3 -17 4.19 2.34
-5 3 17 2.55 2.74
5 -3 17 0.27 3.93
5 3 -17 2.2 2.82
5 3 -17 -1.41 2.79
17 5 -3 5.75 3.18
5 3 -17 6.68 3.08
17 5 -3 0.46 2.56
-3 -17 -5 4.09 2.93
-17 5 3 -0.33 2.67
-17 5 3 1.3 2.52
-5 -3 -17 5.37 2.82
-5 -3 -17 6.01 2.71
-5 3 17 6.48 2.32
5 3 -17 1.78 2.35
5 -3 17 5.17 2.07
-3 17 5 5.79 2.76
-17 -5 -3 3.62 2.91
3 -17 5 4.59 2.63
-17 -5 -3 1.64 3.09
-3 17 5 -1.09 2.03
3 -17 5 6.1 2.38
-17 5 3 1.57 2.19
-5 3 17 3.42 3.85
17 5 3 1.57 3.28
17 5 3 4.01 2.27
-3 17 -5 6.78 2.45
-3 17 -5 3.5 1.85
-3 -17 5 5.35 2.8
-3 -17 5 3.89 2.36
-5 3 -17 5.37 2.6
17 5 3 4.82 3.09
3 17 5 2.86 2.81
3 17 5 2.23 2.79
-5 3 -17 2.91 2.48
5 -3 -17 5.04 2.41
-17 5 -3 3.15 1.99
-3 -17 5 0.96 3.62
3 -17 -5 -5.81 3.32
-17 5 -3 -0.29 3.02
3 -17 -5 5.81 2.7
-5 3 -17 2.37 2.74
3 17 5 -5.33 2.49
-3 -17 5 5.73 2.67
5 -3 -17 7.45 3.02
5 3 17 4.37 2.23
-3 17 -5 4.22 2.54
-5 -3 17 3.1 3.9
-3 17 -5 4.53 2.99
-17 5 -3 3.53 2.75
-5 3 -17 2.03 2.72
5 3 17 5.05 3.22
-17 5 -3 5.53 2.25
17 -5 -3 -1.95 2.83
17 -5 -3 5.65 3.49
-17 5 -3 3.91 3.16
-17 5 -3 2.21 2.31
5 -3 -17 2.69 2.7
5 -3 -17 1.24 3.1
-17 -5 3 6.12 2.88
-17 -5 3 2.15 2.64
-5 3 -17 -6.48 2.86
17 -5 -3 3.35 2.93
-5 -3 17 -1.25 2.58
-5 3 -17 1.89 2.75
3 -17 -5 -4.53 2.92
3 -17 -5 3.41 2.52
-17 -5 3 0.88 2.84
-5 -3 17 -2.6 2.44
-5 -3 17 3.77 3.14
5 3 17 2.31 3.48
3 17 5 6.33 2.3
5 3 17 2.5 2.78
5 3 17 4.82 2.48
-3 17 7 3.04 2.12
3 17 -7 6.71 1.94
-3 17 7 5.6 2.66
-17 7 3 4.75 2.26
-3 17 7 1.86 2.84
3 17 -7 2.72 3.29
3 -17 7 3.1 2.46
7 -3 17 0.52 2.12
-17 7 3 4.15 2.38
-17 7 3 3.86 2.84
-17 7 3 3.11 2.66
-17 7 3 1.15 2.79
-17 7 3 1.81 2.85
-3 -17 -7 0.54 2.49
-7 -3 -17 4.63 2.71
-7 -3 -17 3.93 2.56
17 -7 3 6.18 3.47
-17 7 3 3.85 2.84
7 -3 17 -0.22 3.71
7 -3 17 1.74 3.89
7 3 -17 0.23 2.75
3 -17 7 2.16 3.99
-7 -3 -17 4.8 2.58
3 17 -7 3.08 2.44
3 17 -7 3.43 2.65
-17 -7 -3 -5.22 2.66
-7 3 17 6.05 2.42
-7 3 17 4.52 2.83
-7 3 17 7.49 3.91
-3 -17 -7 7.3 2.95
-3 -17 -7 6.4 2.5
17 7 -3 5.71 2.84
-3 -17 -7 4.72 3.21
17 7 -3 5.48 2.62
17 7 -3 4.77 3.05
-3 17 7 7.75 2.7
3 -17 7 0.66 2.98
17 -7 3 2.58 3.33
7 3 -17 3.14 2.73
7 3 -17 2.1 2.3
-17 -7 -3 3.34 3.02
-17 -7 -3 1.97 2.63
-17 7 -3 2.66 3.15
-7 3 -17 4.09 2.53
-7 3 -17 1.92 2.72
3 -17 -7 4.14 3.35
3 -17 -7 4.99 2.64
3 -17 -7 4.84 3
17 7 3 2.92 2.42
-3 -17 7 4.71 2.82
-3 -17 7 2.86 1.3
-3 -17 7 3.89 2.65
-3 -17 7 3.85 4.01
-17 7 -3 -1.68 2.39
-7 -3 17 0.92 2.67
17 7 3 -1.51 3.19
17 7 3 4.72 3.25
7 3 17 1.89 3.72
17 -7 -3 3.47 3
17 -7 -3 3.11 3.57
-3 17 -7 5.88 2.35
-7 3 -17 3.7 2.77
-7 3 -17 3.51 3.11
-17 -7 3 9.23 2.97
-17 -7 3 4.52 2.89
-17 -7 3 0.13 3.29
-17 7 -3 3.65 1.86
-7 -3 17 0.98 2.48
-17 7 -3 7.48 2.72
-17 7 -3 4.43 3.1
-17 7 -3 -0.02 3.05
7 3 17 6.42 1.93
-7 3 -17 3.88 3.06
7 3 17 4.48 2.49
-7 3 -17 1.13 2.68
3 17 7 3.51 2.12
3 17 7 3.93 2.85
3 17 7 1.33 2.52
-7 -3 17 2.66 2.96
7 -3 -17 1.92 2.51
-7 -3 17 4.9 3.99
7 -3 -17 2.42 2.92
7 3 17 3.59 3
7 -3 -17 5.17 2.82
-17 7 -3 4.42 2.21
-3 17 -7 5.51 2.54
3 -17 -7 5.29 2.53
-3 17 -7 2.9 1.5
-17 9 3 5.25 2.93
-17 9 3 2.14 2.29
-3 -17 -9 4.44 2.52
9 3 -17 2.45 2.89
-3 17 9 2.35 2.17
-17 9 3 4.53 2.62
-17 9 3 1.94 2.83
-3 17 9 3.97 3.17
9 -3 17 1.85 3.98
3 -17 9 2.38 2.63
17 -9 3 0.98 3.35
-17 -9 -3 -0.39 2.65
9 3 -17 3.36 2.81
3 -17 9 -3.31 4.2
3 17 -9 3.91 1.84
3 17 -9 1.3 2.52
3 17 -9 3.64 2.88
-3 17 9 7.3 2.72
-9 3 17 5.28 2.41
-9 3 17 4.92 2.89
-9 3 17 2.87 3.98
-3 -17 -9 2.94 3.06
9 3 -17 1.3 2.33
17 -9 3 7.34 3.59
17 9 -3 5.13 2.71
17 9 -3 3.17 3.16
17 9 -3 6.83 2.88
-17 -9 -3 2.79 2.85
-9 -3 -17 3.43 2.58
-9 -3 -17 4.29 2.81
9 -3 17 8.65 3.77
-3 17 9 2.68 2.6
-3 -17 -9 6.81 2.62
-3 -17 -9 4.26 3.43
9 -3 17 2.63 2.01
-17 9 3 2.38 2.85
-17 -9 -3 2.41 3.06
-17 9 3 4.55 2.39
3 -17 9 1.36 3.28
-3 17 -9 3.51 2.69
-3 -17 9 3.41 2.66
3 -17 -9 3.35 2.51
9 3 17 2.18 3.96
17 -9 -3 4.28 3.1
-9 3 -17 4.41 2.51
3 -17 -9 6.97 3.52
-9 3 -17 -0.07 3.26
3 17 9 5.92 2.42
9 -3 -17 5.44 2.88
9 -3 -17 7.65 2.93
-17 9 -3 3.8 2.79
3 -17 -9 1.35 3.02
-9 -3 17 0.48 3.02
-9 -3 17 4.44 4.11
3 17 9 3.21 2.86
-3 -17 9 2.82 4.01
-3 17 -9 3.98 2.45
9 3 17 4.48 3.27
-17 -9 3 4.23 2.87
17 9 3 -0.72 3.08
-3 -17 9 3.31 3.09
9 -3 -17 1.45 2.54
3 17 9 3.35 2.9
-9 3 -17 0.92 2.59
-3 -17 9 3.34 2.69
-17 -9 3 3.63 2.83
-9 3 -17 3.66 2.97
-9 3 -17 1.31 2.85
17 -9 -3 1.44 3.61
-17 9 -3 2.45 3.21
-17 9 -3 2.33 2.73
-3 17 11 0.62 2.64
-3 17 11 0.3 2.76
-17 11 3 3.12 2.95
17 -11 3 2.09 3.67
11 3 -17 -2.45 2.38
17 -11 3 0.87 3.39
11 -3 17 1.6 3.86
3 17 -11 2.68 3.09
-11 3 17 2.44 2.9
-17 -11 -3 1.34 3.01
-3 -17 -11 0.51 2.37
-11 3 17 3.65 4.11
-3 -17 -11 -0.13 2.97
11 3 -17 4.18 3.05
17 11 -3 -0.75 3.27
17 11 -3 2.79 2.9
11 -3 17 1.76 4.01
-17 -11 -3 1.36 3.12
-3 -17 -11 -2.73 3.59
-11 -3 -17 3.87 3.02
3 -17 11 -3.15 4.19
17 11 -3 1.51 2.69
-17 11 3 -2.21 2.28
3 -17 11 -4.35 3.56
-17 11 3 0.06 2.63
-17 11 3 0.73 2.68
-11 -3 -17 -1.04 2.63
-11 -3 -17 1.22 2.75
3 17 -11 -1.12 2.59
-11 3 17 -0.44 2.3
11 3 -17 0.6 2.94
3 -17 11 0.43 2.83
11 3 17 0.09 2.4
3 17 11 2.17 2.85
11 3 17 1.43 3.91
-17 -11 3 2.08 2.83
-3 -17 11 -2.33 2.6
11 -3 -17 -0.78 2.54
17 -11 -3 -3.2 3.9
-11 3 -17 0.95 3.36
3 -17 -11 1.88 2.33
3 -17 -11 -0.48 3.55
11 3 17 5.3 3.48
17 11 3 -4.94 3.13
-3 17 -11 2.06 2.64
-3 17 -11 2.15 1.71
17 -11 -3 0.98 3.06
-17 -11 3 5.05 3.96
-17 11 -3 -4.63 2.67
-17 11 -3 0.16 3.22
-17 11 -3 2.29 2.75
-3 17 -11 4.98 2.54
-11 3 -17 1.98 3.16
3 17 11 1.44 2.93
3 17 11 2.72 3.04
-11 -3 17 0.79 4.22
3 -17 -11 1.78 3.22
-3 -17 11 -4.87 2.77
-11 -3 17 2.02 2.93
-3 -17 11 4.02 4.52
-11 3 -17 -2.06 2.84
11 -3 -17 2.52 2.89
11 -3 -17 -0.42 2.92
17 13 -3 2.97 2.82
17 -13 3 8.21 4.17
17 -13 3 5.29 3.67
-13 3 17 -0.09 2.47
-3 17 13 3.26 2.94
-3 17 13 -1.52 2.91
-17 13 3 -3.82 2.28
3 17 -13 0.02 3.3
-17 13 3 0.71 2.95
-13 -3 -17 -5.3 2.63
17 13 -3 -1.83 3.41
13 -3 17 0.69 4.3
13 3 -17 2.65 3.1
17 -13 3 1.17 2.53
3 17 -13 -4.45 2.82
-13 3 17 5.15 4.33
3 -17 13 -11.57 3.9
3 -17 13 -1.46 4.57
-17 -13 -3 -1.03 2.86
13 3 -17 2.27 3.22
17 13 -3 -1.22 2.99
-13 -3 -17 -1.08 3.16
-3 -17 -13 0.85 3.09
-17 13 3 3.13 3.21
-13 3 17 7.37 3.05
-3 -17 -13 -4.19 3.53
3 17 13 -1.54 3.21
3 -17 -13 -2.12 3.51
17 -13 -3 3.22 4.4
-13 3 -17 -2.56 2.9
13 -3 -17 -2.54 3.11
13 3 17 -6.07 2.62
-17 -13 3 3.59 2.97
-13 3 -17 11.28 3.95
-17 13 -3 0.66 3.24
17 13 3 -6.14 3.39
3 -17 -13 0.32 2.3
3 17 13 -5.48 3.03
3 17 13 -0.92 3.08
3 -17 -13 -4.55 3.26
-17 -13 3 5.58 4.25
-17 13 -3 -6.3 2.71
-3 -17 13 -10.43 3.1
-3 -17 13 11.95 4.85
-3 17 -13 -0.39 2.68
-3 17 -13 -0.5 2.78
13 3 17 7.33 3.75
13 3 17 7.48 4.33
13 -3 -17 0.11 3.21
17 -13 -3 -3.05 3.25
-13 -3 17 1.42 4.47
17 15 -3 2.11 3.24
17 15 -3 1.13 2.98
17 15 -3 3.6 3.83
-17 15 3 -3.71 2.36
-17 15 3 8.45 3.54
3 17 -15 -0.29 3.16
3 17 -15 -2.03 3.59
15 3 -17 -1.24 3.55
-3 -17 -15 -2.12 3.9
3 -17 15 -3.34 4.35
3 -17 15 4.67 4.97
-15 -3 -17 -4.97 2.95
-15 -3 -17 1.15 3.36
-17 15 3 0.28 3.34
-15 3 17 6.27 4.67
-3 17 15 1.6 3.21
-17 -15 -3 -2.28 3.34
17 -15 3 5.8 3.73
-3 17 15 5.63 3.11
15 -3 17 2.56 4.51
-15 3 17 9.13 3.2
-3 -17 -15 -0.02 3.09
17 -15 3 8.11 4.48
15 3 -17 3.93 3.49
3 -17 -15 0.45 4
15 3 17 5.24 4.55
-15 -3 17 0 4.85
15 -3 -17 1.97 3.26
-3 17 -15 -0.26 2.89
-3 17 -15 0.06 2.98
3 17 15 4.41 3.28
17 -15 -3 8.53 4.56
-15 3 -17 -1.8 3.17
15 3 17 -2.95 2.92
15 3 17 13.32 4.08
-3 -17 15 15.17 5.03
3 -17 -15 2.99 3.76
3 17 15 -4.85 3.66
17 15 3 -6.47 3.78
-17 -15 3 5.25 3.27
-17 -15 3 17.17 4.49
-17 15 -3 0.05 3.51
15 -3 -17 -7.98 3.23
-3 -17 15 -11.16 3.4
17 -15 -3 -4.71 3.57
3 -17 -15 5 2.39
3 17 15 -0.88 3.49
1 5 -17 0.47 2.62
-1 5 17 2.26 2.26
-1 5 17 3.34 3.55
1 5 -17 0.59 2.43
5 -17 1 -0.17 2.53
17 -1 5 1.33 2.14
-1 5 17 3.23 2.87
-1 5 17 -1.34 2.06
-5 17 1 1.67 2.37
5 17 -1 2.96 2.2
-1 -5 -17 1.84 2.74
17 -1 5 3.24 3.16
17 -1 5 1.73 3.31
17 1 -5 2.58 2.56
17 1 -5 -0.61 2.89
-17 1 5 1.22 2.61
-17 1 5 -0.64 2.48
-17 1 5 -2.19 3.15
-5 -17 -1 2.81 2.16
-5 -17 -1 1.87 2.85
5 -17 1 -0.27 3.57
5 17 -1 1.61 2.03
-5 17 1 0.41 2.31
5 17 -1 0.6 2.64
5 -17 1 0.98 2.47
-5 17 1 5.1 2.77
-17 -1 -5 4.5 2.23
-17 -1 -5 -0.2 2.86
-17 -1 -5 1.85 2.5
-17 -1 -5 4.88 3.19
-17 -1 -5 -2.96 3.05
-1 -5 -17 2.46 2.4
-17 1 5 3.16 2.67
-5 17 1 -0.57 2.48
-5 -17 -1 1.61 2.11
1 5 -17 2.74 2.37
1 5 -17 1.22 2.97
-5 -17 -1 1.14 3.45
-1 -5 -17 3.03 2.85
-17 1 5 2.3 2.63
-17 1 5 -2.95 2.43
1 -5 17 3.24 2.12
1 -5 17 2.01 2.56
1 -5 17 -1.88 3.52
1 -5 17 -6.87 3.96
-5 -17 -1 0 2.25
5 17 -1 0.19 2.75
-5 17 1 2.07 1.85
-17 -1 5 1.54 3.17
1 5 17 -1.43 2.18
-5 -17 1 4.55 2.87
-5 -17 1 3.26 2.2
-5 -17 1 1.83 2.3
-5 -17 1 -1.01 3.48
-17 -1 5 -4.16 2.43
5 17 1 4.01 2.02
-17 1 -5 -4.62 2.64
-17 1 -5 4.1 3.12
-17 -1 5 1.06 2.55
1 -5 -17 4.81 2.78
1 -5 -17 0.7 2.42
17 1 5 -0.65 2.13
17 1 5 1.06 2.98
17 1 5 1.96 3.35
5 -17 -1 2.63 2.54
5 -17 -1 3.12 3.53
-5 17 -1 1.1 1.71
17 -1 -5 1.97 2.98
1 5 17 0.13 2.2
-5 17 -1 -0.44 3.02
-17 1 -5 1.59 3.1
-17 -1 5 0.18 2.47
-17 -1 5 1.07 2.72
17 -1 -5 0.01 2.6
-5 17 -1 1.84 2.45
-5 17 -1 1.27 2.5
1 -5 -17 -0.76 2.75
-17 -1 5 1.84 2.67
-1 -5 17 3.61 1.68
-1 -5 17 1.46 2.3
-1 -5 17 0.23 3.42
-1 -5 17 2.68 4.06
-1 5 -17 -0.25 2.41
-1 5 -17 3.99 2.5
-1 5 -17 1.55 2.58
-1 5 -17 1.32 2.78
5 17 1 -0.3 2.8
-17 1 -5 -1 1.93
1 5 17 1.17 3.52
5 -17 -1 -1.74 2.62
5 17 1 -1.11 2.64
5 17 1 0.46 2.03
-17 -1 5 0.65 2.52
1 5 17 3.62 3.12
-5 17 -1 3.59 2.33
-5 -17 -3 7.4 2.94
-5 -17 -3 3.1 2.3
-5 -17 -3 1.65 3.38
-17 3 5 -4.32 3.44
-17 3 5 -1.92 2.84
-17 3 5 -3.11 2.25
-17 3 5 7.08 2.69
5 17 -3 5.67 2.75
5 17 -3 8.23 3.14
-3 5 17 4.03 2.8
3 -5 17 4.67 2.59
-17 3 5 4.22 2.18
-17 3 5 -6.73 2.49
3 5 -17 1.97 2.93
-17 3 5 0.02 2.55
-17 -3 -5 -4.3 2.5
-3 -5 -17 5.61 2.74
3 5 -17 2.91 2.61
3 -5 17 1.32 2.04
-5 17 3 1.97 2.59
3 -5 17 -10.41 4.16
3 5 -17 -1.85 2.67
-5 17 3 -2.34 1.97
-5 17 3 3.49 2.68
5 -17 3 4.14 2.81
-3 5 17 5.9 3.76
-17 -3 -5 3.95 2.46
17 -3 5 3.86 3.3
17 -3 5 3.11 3.41
17 3 -5 2.58 2.55
17 3 -5 2.87 3.23
5 -17 3 1.79 3.89
5 17 -3 3.28 2.04
5 17 -3 4.34 2.4
-5 17 3 6.32 2.48
-5 17 3 3.1 2.92
-17 -3 -5 2.49 3.01
-17 -3 -5 4.86 3.05
-5 -17 -3 -3.81 2.42
5 -17 3 1.82 2.42
3 5 -17 0.91 2.46
-3 5 17 5.66 2.37
-3 -5 -17 6.27 2.88
-3 -5 -17 2.68 2.68
-17 -3 -5 -1.7 3.05
-3 5 17 2.85 2.32
-5 17 -3 4.34 2.41
-5 17 -3 2.6 1.7
3 -5 -17 5.58 2.73
17 -3 -5 2.24 2.69
-5 17 -3 4.54 2.95
5 17 3 3.97 2.16
5 17 3 5.31 2.48
3 5 17 2.3 2.22
-3 5 -17 6.45 2.55
-3 5 -17 2.6 2.43
17 3 5 -0.41 2.83
17 3 5 5.83 3.28
5 -17 -3 -7.06 2.76
5 -17 -3 3.05 2.53
5 -17 -3 -2.15 3.34
-5 -17 3 5.96 3.71
3 -5 -17 1.63 2.48
17 3 5 1.67 2.27
17 -3 -5 2.34 2.97
-5 17 -3 5.03 2.45
3 5 17 5.27 3.19
-17 -3 5 4.25 2.89
-17 -3 5 6.1 2.87
-17 -3 5 2.63 2.43
5 17 3 -1.6 2.7
5 17 3 -3.49 2.3
-17 3 -5 -0.22 2.09
-17 3 -5 4.35 2.21
-17 3 -5 -5.44 2.93
-17 3 -5 5.47 3.02
-17 3 -5 1.42 3.08
3 5 17 5.71 3.5
-3 -5 17 -1.93 2.6
-3 -5 17 1.4 2.48
-3 -5 17 3.38 3.45
-3 -5 17 4.9 4.01
-3 5 -17 3.96 2.38
-17 -3 5 -0.31 3.34
17 -3 -5 3.41 2.92
-3 5 -17 2.54 2.42
-3 5 -17 -4.93 2.98
-3 5 -17 -5.29 2.82
-5 -17 3 1.32 2.81
-5 -17 3 3.17 2.38
3 -5 -17 4.71 2.72
-5 -17 3 3.35 2.39
-17 -3 5 -1.53 2.54
3 5 17 7.36 2.44
-5 -17 -5 10.03 3.46
-5 -17 -5 7.62 3.03
-5 17 5 9.04 2.58
-5 17 5 5.37 2.59
-5 -17 -5 5.59 2.59
5 17 -5 8.34 2.66
5 17 -5 7.98 2.89
-5 17 5 5.86 2.17
5 5 -17 7.98 2.64
5 5 -17 5.52 3.45
17 -5 5 6.44 3.53
17 -5 5 4.48 3.19
17 5 -5 6.74 2.65
-17 5 5 2.82 2.57
-17 5 5 7.06 2.41
-17 5 5 12.38 3.12
-17 5 5 11.07 2.9
-17 5 5 2.52 2.48
-17 5 5 2.65 2.52
-17 -5 -5 3.2 2.82
-17 -5 -5 5.72 3.06
-5 -17 -5 4.7 2.6
5 -5 17 0.29 3.92
5 -5 17 -1.41 4.32
-5 5 17 7.93 2.72
-5 5 17 10.14 2.45
5 17 -5 5.94 2.13
-5 5 17 11.23 3.95
17 -5 5 4.87 2.59
5 17 -5 4.59 3.36
5 -17 5 6.55 3.92
-17 5 5 5.33 3.19
5 -17 5 7.96 3.12
-5 17 5 5.28 3.21
-5 -5 -17 11.04 2.86
-5 5 17 11.42 3.09
17 5 -5 9.87 3.29
5 -5 17 6.22 2
17 5 -5 12.49 3.06
-17 -5 -5 3.99 3.13
5 5 -17 4.59 2.96
5 5 -17 5.79 2.84
-5 5 17 7.63 3.13
-5 -5 -17 12.8 3.07
17 5 5 7.54 3.48
5 5 17 8.14 2.35
5 -17 -5 7.73 2.78
5 -5 -17 7.2 2.82
5 -5 -17 8.29 2.65
5 17 5 3.22 2.97
17 5 5 3.25 2.49
5 -17 -5 -1.08 3.54
-17 5 -5 5.95 2.38
5 5 17 5.25 3.45
-17 -5 5 3.79 3.55
5 17 5 1.28 2.84
5 5 17 11.11 3.36
-17 -5 5 9.21 3.06
-5 -17 5 11.42 2.96
-5 -17 5 6.4 2.62
-5 -17 5 8.69 3.84
-17 5 -5 6.28 3.32
17 5 5 6.83 3.46
-5 -5 17 1.11 2.58
-5 -5 17 5.26 2.86
-5 -5 17 6.88 3.35
-5 -5 17 3.11 3.99
-5 5 -17 7.46 2.53
-5 5 -17 8.97 2.99
-5 5 -17 8.8 2.82
17 -5 -5 9.59 3.16
17 -5 -5 8.78 2.89
-5 5 -17 0.62 3
5 17 5 12.75 3.05
-17 -5 5 4.91 2.84
5 -5 -17 9.35 3.14
17 -5 -5 6.69 3.6
-17 -5 5 9.56 3.09
-5 17 -5 6.7 2.48
-5 17 -5 8.15 2.65
5 5 17 8.42 2.92
-5 5 -17 -0.29 3.04
-5 5 -17 6.48 2.84
-17 5 -5 3.7 3.04
5 -17 -5 -0.99 3.08
5 -17 -5 8.3 2.81
5 17 5 8.72 2.46
5 5 17 8.68 2.64
-17 -5 5 7.61 2.88
5 17 -7 8.47 3.83
-5 -17 -7 16.89 3.06
17 7 -5 11.72 3.13
-17 -7 -5 15.38 3.57
-17 -7 -5 13.54 3.41
7 -5 17 13.57 4.23
17 -7 5 17.56 3.68
5 17 -7 13.98 3.31
-7 5 17 18.8 2.88
-7 5 17 10.73 3.28
-7 5 17 12.48 4.26
-5 -17 -7 15 3.48
5 17 -7 14.36 2.84
-17 7 5 17.72 3.51
-17 7 5 17.79 3.21
-5 -17 -7 13.86 3.56
-5 -17 -7 15.32 3.03
-17 7 5 13.83 3.56
-7 -5 -17 19.12 3.29
-7 -5 -17 15.44 3.18
-7 -5 -17 16.99 3.13
7 -5 17 15.28 4.27
7 5 -17 16.25 3.33
7 5 -17 11.09 2.83
-17 7 5 15.04 3.07
5 17 -7 15.32 2.51
5 -17 7 16.35 3.08
5 -17 7 12.23 3.64
17 -7 5 11.83 4.03
-17 7 5 11.9 2.95
17 -7 5 14.51 3.11
-17 -7 -5 13.86 3.09
-5 17 7 15.98 3.21
-17 7 5 13.6 3.3
17 7 -5 15.71 3.58
17 7 -5 15.16 3.42
-5 17 7 11.19 2.69
-5 17 7 19.51 3.17
5 -17 7 12.8 4.6
7 5 -17 15.23 3.17
-17 7 5 21.51 2.91
5 -17 -7 18.23 3.5
17 7 5 20.12 2.97
17 7 5 10.83 3.67
-17 7 -5 8.02 2.96
17 -7 -5 16.31 4.21
-5 17 -7 16.67 3
5 17 7 19.31 3.42
5 17 7 19.26 3.39
5 17 7 22.41 3.51
17 7 5 13.18 3.74
-7 -5 17 14.09 3.05
7 -5 -17 16.89 3.73
7 5 17 15.38 4.08
-5 -17 7 16.39 3.26
-5 -17 7 14.39 2.98
-5 -17 7 13.08 3.19
17 -7 -5 20.95 3.57
7 5 17 14.13 3.48
5 -17 -7 15.72 3.92
-5 17 -7 14.7 3.19
7 -5 -17 16.85 3.11
-7 -5 17 8.97 4.21
-7 5 -17 11.38 3.22
-5 17 -7 14.99 2.75
-17 -7 5 11.42 3.24
-17 -7 5 24.7 4.1
-17 7 -5 19.44 3.31
-17 7 -5 11.48 3.53
7 5 17 16 3.05
-7 -5 17 15.23 3.69
5 -17 -7 19.44 3.24
-5 -17 7 11.75 4.22
7 5 17 17.45 2.76
-17 -7 5 14.67 3.49
7 -5 -17 23.36 3.4
-7 5 -17 17.54 3.41
-7 5 -17 17.86 3.54
17 9 -5 12.7 3.5
17 -9 5 13.12 2.95
5 -17 9 13.43 3.75
-9 -5 -17 14.45 3.2
17 -9 5 19.94 4.02
-17 -9 -5 14.05 3.19
-17 9 5 14.66 3.44
17 -9 5 14.66 4.09
5 -17 9 14.17 3.15
-5 17 9 19.44 3.32
-17 -9 -5 12.26 3.13
-17 9 5 11.23 3.42
-17 9 5 10.89 2.88
-5 17 9 15.1 3.36
-17 -9 -5 12.7 3.65
9 -5 17 14.36 4.36
-17 9 5 16.51 2.88
-9 5 17 16.06 2.8
-9 5 17 15.24 3.31
-9 5 17 17.75 4.32
-5 -17 -9 12.79 3.4
-5 -17 -9 16.24 3.03
-5 -17 -9 17.02 3.07
-5 -17 -9 15.77 3.77
5 -17 9 11.82 4.72
5 17 -9 12.49 3.02
5 17 -9 13.22 3.3
5 17 -9 12.7 2.42
-17 9 5 18.33 3.32
17 9 -5 15.76 3.56
-5 17 9 12.33 2.75
-17 9 5 15.87 3.14
9 5 -17 10.94 3.22
17 9 -5 11.89 2.99
9 -5 17 22.91 4.44
9 5 -17 13.24 3.21
-9 -5 -17 18.69 3.14
9 -5 -17 11.66 3.04
5 -17 -9 11.07 3.89
9 -5 -17 17.6 3.23
-5 -17 9 15.16 3.15
5 17 9 12.7 3.4
-5 17 -9 17 2.93
9 5 17 16.84 2.93
-5 -17 9 12.08 3.07
-5 -17 9 11.13 4.64
17 -9 -5 16.32 3.56
17 -9 -5 10.91 4.24
-17 9 -5 10.35 3.15
-5 17 -9 14.47 3.37
17 9 5 8.14 3.45
17 9 5 11.9 3.78
-9 5 -17 12.34 3.5
5 17 9 19.52 3.57
-9 5 -17 10.06 3.32
-17 -9 5 12.31 3.25
-17 -9 5 22.57 4.35
-17 9 -5 16.72 3.17
-17 9 -5 13.66 3.7
5 -17 -9 18.89 3.69
5 17 9 17.29 3.48
-9 5 -17 10.8 3.28
9 -5 -17 11.92 3.62
-9 5 -17 16.14 3.73
-5 17 -9 13.75 3
9 5 17 13.04 3.63
9 5 17 8.23 4.32
-17 -9 5 11.59 3.39
-9 -5 17 11.73 4.67
17 11 -5 7.88 3.51
11 5 -17 9.06 3.15
5 17 -11 0.31 2.8
17 11 -5 5.3 3.18
-11 -5 -17 6.94 3.23
-17 -11 -5 7.82 3.11
-11 5 17 6.93 3.05
-17 -11 -5 4.32 3.39
11 5 -17 5.74 3.15
17 11 -5 5.79 2.97
5 17 -11 1.28 2.97
-17 -11 -5 7.46 2.8
11 -5 17 6.26 4.12
11 -5 17 7.99 4.23
-17 11 5 2.88 2.47
-17 11 5 3.92 2.96
-17 11 5 3.41 2.76
-17 11 5 5.11 3.02
-11 -5 -17 9.98 2.87
-11 -5 -17 7.25 3.07
17 -11 5 7.7 3.84
-5 17 11 5 2.94
5 -17 11 -3.13 4.64
-5 -17 -11 9.01 3.37
-5 17 11 12.07 2.87
17 -11 5 1.96 3.69
-5 -17 -11 5.78 2.87
-11 5 17 5.73 2.45
-11 5 17 4.26 4.02
5 -17 11 7.92 3.79
-5 -17 -11 3.32 3.57
17 -11 -5 1.18 3.94
-17 -11 5 5.45 4.3
-11 5 -17 1.87 3.01
5 17 11 7.5 3.4
-5 17 -11 5.55 3.07
-5 17 -11 8.38 2.75
-11 5 -17 4.76 3.01
-11 5 -17 5.25 3.58
11 5 17 3.99 3.44
-11 5 -17 8.15 3.33
17 11 5 -1.01 3.66
11 -5 -17 0.46 3
-5 17 -11 7.75 2.66
-11 -5 17 0.59 4.48
-5 -17 11 7.04 3.08
-5 -17 11 5.01 4.45
-17 -11 5 4.1 3.09
-17 11 -5 6.45 3.46
-17 11 -5 7.32 2.93
5 -17 -11 6.89 3.47
5 17 11 7.14 3.08
11 5 17 -1.32 4.09
-17 11 -5 8.73 2.87
17 -11 -5 6.47 3.39
5 -17 -11 5.03 2.6
5 -17 -11 6.18 3.71
17 11 5 1.75 3.24
5 17 11 1.21 3.18
11 -5 -17 5.88 3.12
11 -5 -17 4.76 2.88
11 5 17 7.19 2.53
17 -13 5 2.04 3.58
-17 13 5 -2.69 2.39
17 13 -5 0.48 2.91
17 -13 5 5.26 4.1
-5 17 13 2.57 2.97
5 17 -13 -3.72 2.89
-5 -17 -13 -0.49 2.98
-5 -17 -13 -5.76 3.48
17 13 -5 -2.57 3.15
5 17 -13 -0.74 3.29
5 -17 13 -3.5 4.6
17 -13 5 -1.25 2.63
-13 5 17 -1.18 3.94
-17 13 5 -0.8 3.06
-13 5 17 1.26 2.94
-5 17 13 2.53 2.84
-13 5 17 -3.96 2.3
-17 13 5 0.49 2.97
-13 -5 -17 2.55 2.79
-13 -5 -17 1.62 3.17
5 -17 13 -3.73 3.94
13 -5 17 -1.44 4.21
-17 -13 -5 -0.75 3.43
-17 -13 -5 0.42 3.08
17 13 -5 2.97 3.54
13 5 -17 1.45 3.2
13 -5 17 8.75 4.24
13 5 -17 -0.53 3.11
-13 -5 17 -0.29 4.7
5 -17 -13 0.64 3.45
-17 -13 5 0.08 3.07
-5 17 -13 -5.39 3.09
13 5 17 -2.85 4.08
5 17 13 -1.98 3.29
5 17 13 -3.98 3.41
5 17 13 -0.99 2.94
13 -5 -17 -1.55 3.15
13 -5 -17 -1.98 3
17 13 5 -4.34 3.31
-17 13 -5 0.52 2.86
-17 -13 5 -1.13 4.45
13 5 17 3.87 3.54
-5 17 -13 1.91 2.76
17 -13 -5 2.04 3.41
17 -13 -5 -5.1 4.23
5 -17 -13 1.53 2.39
5 -17 -13 -0.26 3.54
-5 -17 13 1.58 4.42
-13 5 -17 -2.56 3.01
-13 5 -17 4.23 3.66
-5 -17 13 -1.52 3.16
-17 13 -5 -0.02 3.22
-5 17 -13 0.41 2.66
-17 -15 -5 -0.24 3.56
17 15 -5 0.45 3.72
-17 15 5 0.36 2.46
-17 15 5 1.66 3.31
-17 15 5 -0.77 3.14
-15 5 17 1.64 3.23
-15 5 17 1.31 4.2
-5 -17 -15 -3.28 3.06
-5 -17 -15 -5.45 3.7
17 -15 5 0.98 3.85
-17 -15 -5 -2.49 3.26
15 5 -17 0.41 3.29
5 17 -15 -4.32 2.92
5 17 -15 -3.56 3.55
17 -15 5 -0.34 4.35
-5 17 15 2.06 2.93
-15 5 17 -3.88 2.41
5 -17 15 2.92 5.04
15 -5 17 -5.09 4.36
-17 -15 -5 -3.93 2.58
-15 -5 -17 -0.36 3.28
17 15 -5 0.32 3.03
-5 17 15 0.1 3.08
17 15 -5 -1.58 3.31
5 -17 15 -4.07 4.19
15 5 -17 -0.86 3.3
-15 -5 -17 -0.67 3.01
17 -15 5 -1.24 2.71
15 -5 -17 -1.63 3.47
5 17 15 -5.76 3.08
-15 5 -17 -3.42 3.12
-15 -5 17 -2.99 4.91
-5 17 -15 -0.71 2.81
-5 -17 15 6.27 4.66
5 -17 -15 1.67 2.37
15 5 17 3.24 4.49
17 15 5 -3.74 3.62
15 -5 -17 -3.15 3.3
-5 -17 15 -4.77 3.56
15 5 17 0.12 3.73
-5 17 -15 -0.64 2.84
-15 5 -17 6.05 3.92
-17 -15 5 1.5 3.22
-17 -15 5 2.4 4.63
-17 15 -5 -1.99 2.93
5 -17 -15 -1.3 3.76
17 15 5 -9.05 3.79
5 -17 -15 3.79 4.01
5 17 15 -4.98 3.25
5 17 15 -4.93 3.64
17 -15 -5 -7.45 4.5
-17 15 -5 -4.69 3.39
17 -15 -5 -2.99 3.47
-17 1 7 3.26 3.49
-17 1 7 1.78 2.97
-1 7 17 3.37 3.46
-7 17 1 0.2 1.84
-7 17 1 -1.04 2.49
-7 17 1 1.72 2.55
7 -17 1 3.23 2.54
-17 1 7 -4.22 2.38
7 17 -1 3.73 2.1
1 7 -17 0.12 2.87
-1 7 17 -1.6 2.88
17 -1 7 1.08 3.1
17 -1 7 0.41 3.49
17 1 -7 -1.74 2.69
17 1 -7 2.09 2.92
1 7 -17 -3.45 2.58
-17 1 7 2.38 2.59
-7 17 1 2.67 2.42
-1 -7 -17 2.69 2.72
-17 -1 -7 -0.41 2.25
-1 7 17 3.19 2.2
-1 7 17 0.17 2.7
-1 7 17 2.42 2.24
1 -7 17 2.12 2.13
-17 1 7 6.03 2.66
-17 1 7 2.16 2.36
-7 -17 -1 0.92 2.15
-7 -17 -1 2.23 3.53
1 7 -17 3.04 2.43
1 -7 17 0.49 2.63
-17 1 7 2.6 2.48
1 -7 17 -3.97 3.7
1 7 -17 3.6 1.66
7 -17 1 3.15 2.7
7 -17 1 -1.82 3.7
-1 -7 -17 3.81 2.82
-17 -1 -7 0.15 2.74
-17 -1 -7 3.16 3.22
7 17 -1 -1.45 2.66
7 17 -1 5.21 2.89
-7 -17 -1 4.28 2.9
1 -7 17 -8.91 4.2
17 -1 7 1.88 2.14
17 -1 7 2.28 2.61
7 17 -1 0.66 2.29
-1 7 -17 1.08 2.49
-1 -7 17 4.04 4.19
-1 7 -17 2.22 2.41
-1 7 -17 -4.21 2.97
1 -7 -17 2.43 2.79
-7 17 -1 -0.23 2.39
1 -7 -17 3.79 2.58
-17 -1 7 1 2.71
-17 -1 7 2.43 2.46
-17 -1 7 1.47 2.53
-17 -1 7 4.85 3.61
-17 -1 7 0.99 2.8
7 17 1 2.87 2.09
1 -7 -17 2.51 2.68
-1 7 -17 -4.17 2.74
1 7 17 1.62 2.17
1 7 17 6.33 2.37
1 7 17 0.83 2.93
1 7 17 1.16 3.56
7 -17 -1 -3.21 2.68
7 -17 -1 1.07 2.75
7 -17 -1 0.23 3.53
-7 17 -1 0.77 2.37
-7 17 -1 2.16 2.63
17 -1 -7 1.4 2.92
-1 -7 17 -2.58 2.26
-1 -7 17 0.74 3.5
-17 -1 7 0.98 2.83
17 -1 -7 -1.69 2.59
17 1 7 3.92 3.44
-7 -17 1 2.02 2.18
17 1 7 1.72 2.23
17 1 7 -0.77 3
-17 1 -7 0.13 2.01
-1 7 -17 1.19 2.31
-7 -17 1 5.86 3.58
-7 17 -1 3.55 1.68
17 -1 -7 5.96 3.03
-17 1 -7 -4.14 2.85
-17 1 -7 -4.79 3.13
7 17 1 3.06 2.39
7 17 1 -6.17 2.67
7 17 1 3.36 1.89
-7 -17 1 3.32 2.85
-17 3 7 2.49 2.71
-17 3 7 -1.13 2.28
3 7 -17 6.66 2.9
-7 17 3 4.88 2.55
7 -17 3 3.26 4.1
-17 3 7 5.77 3.72
-17 3 7 7.33 3.24
-7 -17 -3 0.47 3.02
-17 -3 -7 4.21 2.45
-17 -3 -7 3.5 2.86
-17 -3 -7 -0.8 3.22
-7 17 3 0.44 1.87
-7 17 3 1.19 2.61
-3 7 17 5.83 3.1
-7 17 3 6.4 2.7
-7 -17 -3 4.08 3.51
3 7 -17 2.55 2.63
3 7 -17 7.55 2.56
17 3 -7 2.02 3.15
3 -7 17 -0.8 4.32
-7 -17 -3 1.78 2.22
-3 7 17 1.09 3.49
-17 3 7 0.67 2.36
-17 3 7 1.16 2.49
17 -3 7 3.47 3.34
7 17 -3 4.42 2.88
7 17 -3 2.23 3.37
-3 7 17 4.9 2.19
-3 7 17 8.08 3.08
17 -3 7 2.52 3.54
17 -3 7 4.09 2.66
-7 -17 -3 3.96 2.19
7 17 -3 5.6 2.24
7 17 -3 6 2.38
3 -7 17 -5.48 3.71
3 -7 17 5.77 2.09
-17 3 7 6.45 2.88
17 -3 7 2.31 2.12
-3 -7 -17 5.81 2.74
17 3 -7 4.14 2.68
-3 -7 -17 5.69 2.82
-3 -7 17 4.57 3.52
7 17 3 4.87 2.68
3 7 17 8.71 2.47
-17 -3 7 6.75 3.76
-3 7 -17 5.55 2.69
-3 7 -17 -1.44 2.96
-3 7 -17 -0.53 2.94
3 7 17 6.12 3.25
3 7 17 3.61 3.4
17 -3 -7 2.55 3.09
-17 -3 7 3.95 2.55
-17 -3 7 -1.56 2.45
17 3 7 0.98 3.01
17 -3 -7 4.94 2.69
3 7 17 2.05 2.68
3 7 17 6.71 2.39
17 -3 -7 6.47 3.18
3 -7 -17 4.44 2.48
-3 -7 17 5.42 4.32
-3 7 -17 3.84 2.34
-3 7 -17 2.37 2.72
3 -7 -17 7.86 3.15
7 17 3 3.06 2.78
7 17 3 2.44 2.6
7 17 3 4.03 2.88
7 -17 -3 3.16 2.88
7 -17 -3 5.41 2.8
7 -17 -3 3.51 3.3
17 3 7 4.26 3.66
7 17 3 1.61 2.14
-7 -17 3 4.63 2.85
-7 -17 3 2.68 1.36
-7 -17 3 2.99 3.61
-7 17 -3 4.52 2.39
-7 17 -3 2.45 2.63
-17 -3 7 5.16 2.92
-17 -3 7 6.22 2.85
-17 3 -7 3.71 3
3 -7 -17 8.94 2.82
-17 3 -7 -0.7 2
-17 3 -7 1.08 3.25
5 7 -17 15.67 3.12
5 7 -17 14.38 3
-7 17 5 12.74 2.6
-17 5 7 12.23 2.9
-17 5 7 13.48 2.88
-17 5 7 15.97 3.88
7 17 -5 15.67 2.71
-17 5 7 16.16 2.72
-17 5 7 15.31 3.11
17 -5 7 15.54 3.48
17 5 -7 16.2 3.23
17 5 -7 16.21 3.6
17 5 -7 15.01 2.83
-7 -17 -5 19.6 3.25
-7 -17 -5 16.3 2.74
-7 -17 -5 17.49 2.98
-7 -17 -5 12.26 3.79
5 -7 17 15.06 4.22
5 -7 17 17.23 4.49
-17 5 7 13.62 3.42
-17 5 7 13.48 3.25
-7 17 5 12.68 3.17
-7 17 5 16.83 3.2
17 -5 7 10.19 2.99
-5 -7 -17 18.05 3.23
-5 -7 -17 18.37 3.22
-5 -7 -17 18.02 3.05
-17 -5 -7 12.79 3.46
-17 -5 -7 12.62 3.03
-17 -5 -7 16.49 3.52
7 17 -5 10.46 3.85
-5 7 17 13.63 3.38
-5 7 17 16.01 3.7
-7 -17 -5 18.18 3.49
-5 7 17 17.04 2.77
7 17 -5 14.97 3.04
7 17 -5 12.34 3.29
5 7 -17 18.45 3.35
7 -17 5 15.96 3.53
17 -5 7 13.47 4
-5 7 17 13.56 4.03
7 -17 5 10.28 4.49
-7 -17 5 14.3 3.04
-5 -7 17 10.71 4.58
-7 17 -5 13.72 3.01
-7 17 -5 15.47 3.1
5 7 17 16.54 2.82
5 7 17 16.79 3.01
-5 -7 17 13.37 3.79
5 7 17 10.52 3.73
5 7 17 19.63 3.82
7 -17 -5 17.59 3.47
7 -17 -5 19.54 3.36
7 -17 -5 12.68 3.79
5 -7 -17 16.55 3.39
-7 -17 5 14.49 4.19
-17 -5 7 5.28 2.99
-17 -5 7 23.73 4.25
-17 5 -7 17.28 3.35
-5 7 -17 14.81 3.03
7 17 5 16.55 3.33
5 -7 -17 15.86 3.32
-7 -17 5 16.62 3.41
-5 -7 17 14.62 3.13
17 -5 -7 18.63 3.61
17 5 7 11.99 3.84
17 5 7 15.78 3.95
-5 7 -17 11.78 3.56
7 17 5 18.58 3.28
-5 7 -17 18.37 3.3
5 7 17 16.63 3.34
17 5 7 18.31 3.05
17 -5 -7 14.76 3.06
-17 -5 7 17.67 3.54
7 17 5 16.81 3.4
-5 7 -17 11.06 3.39
5 -7 -17 16.94 3.16
7 -17 7 48.83 6.19
-7 -7 -17 45.88 5.26
-7 7 17 29.41 5.33
7 17 -7 26.63 4.56
7 17 -7 21.17 5.09
-17 7 7 30.53 4.54
-7 17 7 37.55 4.68
-7 7 17 30.29 4.55
17 7 -7 34.06 4.7
-7 -17 -7 42.66 4.71
7 7 -17 34.97 4.59
7 7 -17 32.58 4.34
7 -17 7 31.64 5.73
-17 -7 -7 42.38 5.35
-17 -7 -7 27.31 4.65
-17 -7 -7 43.04 5.82
-7 -7 -17 45.58 5.47
-7 -17 -7 43.55 5.22
-7 -17 -7 33.67 4.81
-17 7 7 39.93 5.49
7 -17 7 42.51 5.25
7 17 -7 46.26 4.71
7 17 -7 36.67 4.35
7 -7 17 26.69 5.25
7 -7 17 34.06 5.51
-7 -17 -7 52.49 5.38
-7 17 7 42.29 5.68
-17 7 7 45.27 4.72
-7 -7 -17 46.34 5.51
-17 7 7 31.85 4.34
-7 7 17 39.1 4.64
17 -7 7 25.26 4.14
17 -7 7 25.41 5.12
17 -7 7 35.63 4.86
17 7 -7 26.82 4.16
-7 -17 -7 37.18 4.73
-7 17 7 47.63 5.46
-17 7 7 42.59 5.82
-17 7 7 34.71 5
7 17 7 44.47 5.72
7 7 17 25.6 5.15
7 7 17 38.71 4.86
7 7 17 54.83 5.42
7 7 17 34.69 4.8
7 17 7 46.49 5.6
7 -17 -7 31.23 5.18
7 17 7 33.52 4.67
-17 -7 7 31.43 4.75
-17 -7 7 25.43 4.3
-17 -7 7 56.24 7.07
-7 17 -7 43.09 5.8
17 -7 -7 29.36 5.39
-7 -17 7 48.25 5.43
-7 -17 7 42.96 5.27
-17 7 -7 33.62 4.43
-7 7 -17 30.49 4.52
7 -7 -17 37.08 4.74
17 7 7 53.05 5.19
7 -7 -17 44.96 5.19
17 7 7 29.89 4.87
7 -17 -7 48.05 5.68
7 -17 -7 45.04 5.56
-7 -7 17 29.99 4.35
-7 -7 17 27.77 5.72
-17 7 -7 26.42 4.89
17 -7 -7 46.01 5.73
17 -7 -7 44.16 5.01
17 7 7 32.64 5.11
-7 -17 7 31.62 5.53
-7 17 -7 43.83 5.61
-7 7 -17 42.72 5.73
-7 17 -7 39.02 4.75
-7 7 -17 27.62 4.78
-7 7 -17 33.41 4.44
-17 7 -7 22.83 4.31
7 17 -9 22.45 3.64
7 17 -9 22.25 4.18
9 7 -17 26.3 4.17
9 7 -17 25.62 3.97
7 -17 9 25.08 5.5
17 -9 7 22.33 4.85
17 -9 7 29.02 4.64
17 9 -7 21.28 3.82
17 9 -7 26.65 4.26
-9 -7 -17 29.27 3.96
-17 -9 -7 27.78 3.99
-9 7 17 27.27 5.03
7 -17 9 29.72 4.57
-17 9 7 26.57 4.13
7 17 -9 24.76 3.39
17 -9 7 20.75 3.72
9 -7 17 35.18 5.44
-17 9 7 24.57 3.77
-7 -17 -9 27.7 4.23
-7 -17 -9 35.34 3.98
-7 -17 -9 33.63 3.66
-7 -17 -9 40.74 5.12
-7 -17 -9 27.61 4.4
7 -17 9 26.72 3.92
-9 7 17 36.96 4.37
-9 7 17 23.3 4.09
-9 -7 -17 31.71 4.15
-17 9 7 23.29 4.15
-17 -9 -7 24.63 3.99
-17 9 7 24.48 3.98
-17 -9 -7 23.44 4.36
9 -7 17 20.35 4.89
-7 17 9 41.9 4.86
-7 17 9 23.63 3.95
7 -17 -9 27.37 4.36
9 7 17 21.92 4.89
9 -7 -17 28.33 3.86
-7 17 -9 26.92 4.02
-9 7 -17 16.09 4.18
17 -9 -7 28.98 4.3
-9 7 -17 29.62 4.19
-17 9 -7 22.55 4.39
9 7 17 42.82 4.8
17 9 7 20.15 4.3
-7 -17 9 30.55 5.43
7 17 9 34.74 4.46
7 17 9 39.34 5.28
-7 17 -9 40.78 4.62
-9 7 -17 27.57 4.35
-7 -17 9 26.25 3.97
-7 -17 9 24.68 4.04
9 -7 -17 25.39 4.36
17 -9 -7 21.48 4.99
9 7 17 32.23 4.54
17 9 7 24.09 4.75
7 17 9 30.3 4.38
-9 7 -17 24.98 4.4
-17 9 -7 45.67 5.32
7 -17 -9 23.29 4.84
-17 -9 7 25.33 3.94
-7 17 -9 27.56 4.29
-9 -7 17 21.39 5.43
-17 -9 7 26.09 4.26
-17 9 -7 23.93 4.11
-17 -9 7 28.46 5.27
11 7 -17 7.52 3.19
-17 11 7 3.96 2.89
-7 -17 -11 7.1 2.79
-7 -17 -11 3.94 3.26
7 -17 11 9.06 4.02
7 -17 11 5.32 4.87
7 17 -11 2.32 2.86
7 17 -11 4.81 3.33
-7 17 11 9.01 3.06
17 11 -7 3.76 2.47
-11 -7 -17 11.61 3.41
-11 -7 -17 6.16 3.11
-7 -17 -11 9.05 3.21
17 -11 7 7.76 4.07
-17 11 7 9.1 2.76
-17 11 7 -0.32 3.18
-17 11 7 1.58 3.01
17 -11 7 2.66 4.08
17 11 -7 4.28 2.89
11 -7 17 12.01 4.48
-17 -11 -7 6 3.2
17 11 -7 9.63 3.65
-11 7 17 5.52 2.4
-11 -7 -17 8.21 2.86
-7 17 11 3.77 2.97
-11 7 17 9.12 3.12
-11 7 17 5.27 4.22
11 -7 17 4.96 4.21
-17 -11 -7 9.29 2.96
-17 -11 -7 9.91 3.64
11 7 -17 8.45 3.26
-7 -17 11 9.84 3.26
-17 11 -7 14.72 3.27
-7 17 -11 10.84 2.87
-11 -7 17 -1.89 4.49
-17 -11 7 3.48 4.75
7 17 11 7.53 3.53
11 -7 -17 8.05 3.62
11 -7 -17 4.47 2.99
-11 7 -17 7.68 3.17
-11 7 -17 8.05 3.59
-11 7 -17 -2.8 3.3
-17 11 -7 10.17 3.2
-7 17 -11 8.23 2.97
7 17 11 3.9 3.35
-7 -17 11 8.02 4.43
17 -11 -7 5.57 3.44
17 -11 -7 -1.09 4.2
11 7 17 7.97 3.59
11 7 17 0.36 4.27
-17 11 -7 4.17 3.49
7 -17 -11 7.32 3.64
-17 -11 7 7.34 3.33
17 11 7 5.71 3.41
7 -17 -11 6.92 3.99
17 11 7 4.62 3.84
7 -17 -11 9.08 2.74
-13 7 17 -1.51 2.24
-13 7 17 1.06 3.21
-13 7 17 1.94 4.26
13 -7 17 -3.8 3.92
-17 13 7 -7.63 3.05
7 17 -13 -2.76 3.35
7 -17 13 -5.59 4.9
-17 13 7 1.95 2.88
-7 -17 -13 0.65 3.26
7 -17 13 -0.04 4.06
13 7 -17 -1.69 2.99
7 17 -13 -3.69 2.92
-13 -7 -17 2.42 3.21
13 -7 17 7.03 4.48
-7 17 13 2.15 3.09
-17 -13 -7 0.68 3.54
-17 -13 -7 -0.02 2.76
17 -13 7 0.73 3.85
17 -13 7 -0.58 4.38
17 13 -7 3.61 2.94
-7 17 13 2.77 2.89
-17 -13 -7 -3.67 3.14
-13 -7 -17 -2.21 2.9
-17 13 7 1.08 2.54
-7 -17 -13 -5.45 3.04
17 13 -7 2.66 3.58
17 13 7 -1.28 3.9
13 -7 -17 -3.13 2.94
-7 -17 13 -1.98 4.6
7 -17 -13 1.9 2.43
-17 -13 7 2.5 3.21
-17 -13 7 -6.69 4.88
17 13 7 0.3 3.41
13 7 17 1.69 3.68
-7 17 -13 2.2 2.83
7 17 13 -4.08 3.19
-17 13 -7 6.76 3.06
-17 13 -7 -3.65 3.19
13 7 17 -3.27 4.26
17 -13 -7 0.88 3.63
7 -17 -13 -1.37 3.65
17 -13 -7 -8.3 4.01
7 17 13 1.14 3.52
13 -7 -17 0.9 3.41
-13 7 -17 -1.84 3.55
-7 17 -13 2.46 2.93
7 -17 -13 -0.26 3.66
-7 -17 13 3.03 3.27
-13 -7 17 -7.63 4.31
-13 7 -17 -4.06 2.92
-17 -15 -7 2.72 3.76
17 -15 7 -3.35 3.73
17 -15 7 -2.62 4.64
-17 -15 -7 1.95 2.7
-15 7 17 -0.67 2.3
7 17 -15 -1.42 3.01
-7 17 15 0.62 2.99
-15 7 17 -3.55 4.09
-7 -17 -15 -0.46 3.12
-7 -17 -15 -5.05 3.13
15 -7 17 1.14 4.16
17 -15 7 -1.94 2.71
-17 15 7 -2.65 2.97
-17 15 7 -5.44 3.13
-15 -7 -17 -0.83 3.29
-15 7 17 -0.08 3.1
7 -17 15 -4.14 4.16
17 15 -7 -0.47 2.97
17 15 -7 -3.03 3.71
7 17 -15 -4.71 3.5
-17 -15 -7 1.43 3.28
-15 -7 -17 0.6 2.99
7 -17 15 3.35 4.95
15 -7 17 2.57 4.58
15 7 -17 -3.79 3.18
-7 17 15 -2.18 2.98
-17 -15 7 -2.63 3.01
-7 17 -15 0.76 3.05
17 -15 -7 -2.65 4.23
15 7 17 -2.27 4.47
7 -17 -15 0.11 3.76
7 -17 -15 -5.92 3.91
-17 15 -7 4.17 3.05
15 7 17 -2.25 3.66
17 15 7 -0.65 3.55
15 -7 -17 -4.37 3.45
7 17 15 -3.27 3.4
-17 -15 7 -7.59 4.95
-7 -17 15 -3.18 4.58
-17 15 -7 -4.55 3.39
-7 17 -15 -3.62 2.89
-7 -17 15 -1.75 3.55
-15 7 -17 -0.82 3.08
-15 -7 17 -4.2 5.09
7 17 15 -0.86 3.73
17 15 7 -6.9 4.03
15 -7 -17 -8.29 3.19
17 -15 -7 0.64 3.69
-15 7 -17 -1.21 3.83
17 -1 9 -4.14 3.54
-17 -1 -9 10.05 2.38
17 1 -9 -2.42 2.75
-9 -17 -1 2.35 3.14
-9 -17 -1 1.61 3.53
1 9 -17 2.1 2.36
1 9 -17 1.94 2.75
-17 -1 -9 0.32 2.8
17 1 -9 2.35 2.91
17 -1 9 2.4 3.32
-1 9 17 1.46 3.02
-1 9 17 1.92 3.58
1 9 -17 1.25 2.5
-1 -9 -17 3.79 2.87
-17 1 9 -5.44 2.45
-17 1 9 2.99 2.48
-1 9 17 -2.09 2.99
-17 1 9 -0.61 3.18
-1 -9 -17 0.49 2.7
9 -17 1 0.53 2.49
-1 9 17 -0.74 2.07
9 17 -1 0.24 2.53
1 -9 17 -0.01 2.07
-17 1 9 -1.63 2.2
-17 1 9 1.1 2.34
-17 1 9 0.54 3.69
1 9 -17 1.63 2.56
9 17 -1 2.49 2.79
-17 -1 -9 -0.68 3.36
9 -17 1 0.18 3.7
17 -1 9 1.65 2.11
-9 17 1 1.17 1.78
-9 17 1 -4.64 2.49
-9 17 1 1.05 2.6
1 -9 17 1.31 4.37
1 -9 17 0.61 3.76
1 -9 17 3.24 2.73
9 -17 -1 0.07 2.69
-9 -17 1 2.11 3.54
17 -1 -9 2.31 2.83
-1 9 -17 -1.56 1.88
1 -9 -17 -0.25 2.82
1 -9 -17 -0.66 2.61
17 1 9 4.35 2.32
-17 -1 9 -0.38 2.57
17 -1 -9 2.58 3.12
-17 1 -9 5.4 2.04
17 1 9 0.95 3.24
17 1 9 -2.41 3.71
-1 -9 17 1.87 4.24
-17 -1 9 4.34 2.43
1 9 17 1.95 2.23
1 9 17 0.71 2.82
1 9 17 -1.42 3.38
-9 17 -1 0.67 1.64
9 -17 -1 0.62 2.88
9 -17 -1 3.11 3.5
-17 1 -9 3.86 3.01
-9 17 -1 -2.01 2.6
9 17 1 0.71 2.71
17 -1 -9 -3.49 2.71
9 17 1 1.29 2.56
-1 -9 17 1.83 2.41
-1 -9 17 4.32 2.56
-1 -9 17 2.77 3.62
-9 -17 1 0.46 2.34
-1 9 -17 2.48 2.46
-1 9 -17 1.66 2.54
-1 9 -17 1.68 2.42
-9 17 -1 2.71 2.55
-17 1 -9 -3.37 3.22
-17 -1 9 3.91 3.84
9 17 1 0.87 2.94
-17 -1 9 -0.85 3.03
-9 -17 1 1.02 3.01
3 9 -17 5.36 2.46
-9 17 3 3.1 2.63
9 17 -3 -6.21 3.31
-17 -3 -9 7.18 2.53
-17 3 9 4.92 2.68
-17 -3 -9 -1.53 3.24
17 -3 9 3.95 2.08
17 -3 9 3.96 3.23
17 -3 9 1.78 3.78
17 3 -9 -1.21 2.71
17 3 -9 5.1 3.16
17 3 -9 6.93 3.21
-17 3 9 0.77 2.31
-17 3 9 3.45 2.46
-17 3 9 1.95 3.91
-17 3 9 1.58 3.38
3 -9 17 -0.79 3.69
-17 3 9 -1.86 2.38
9 -17 3 -1.43 4.11
-9 -17 -3 2.67 3.46
-9 17 3 3.11 1.99
-3 9 17 2.47 3.09
-3 9 17 2.68 2.19
-9 -17 -3 4.45 3.18
-9 -17 -3 2.55 2.29
-9 17 3 3.02 2.6
-17 -3 -9 4.43 2.91
9 17 -3 1.45 2.47
3 9 -17 7.85 2.73
3 9 -17 3.57 2.67
-3 9 17 2.3 2.93
-3 -9 -17 3.99 2.87
-3 -9 -17 5.67 2.76
-9 -17 -3 5.34 2.26
-3 9 17 5.57 3.74
9 17 -3 3.36 2.93
3 -9 17 4.86 2.02
3 -9 17 1.64 2.97
3 -9 17 5.41 4.21
9 17 3 3.78 2.95
-9 -17 3 3.18 3.92
9 -17 -3 3.57 2.95
-17 -3 9 2.37 4.06
-17 3 -9 4.51 2.89
9 -17 -3 2.46 2.81
9 -17 -3 1.23 3.46
9 17 3 2.67 2.83
17 -3 -9 2.88 2.7
-9 17 -3 3.43 2.66
17 -3 -9 6.96 3.19
3 9 17 8.04 3.41
3 9 17 3.16 2.77
-3 -9 17 4.78 2.45
-3 -9 17 2.07 3.66
-3 9 -17 3.98 2.93
-3 9 -17 1.02 3.23
-3 9 -17 4.58 2.7
-17 -3 9 0.65 2.34
-9 -17 3 6.3 2.9
-9 -17 3 0.17 2.45
-3 9 -17 3.9 2.52
3 9 17 8.74 2.49
17 3 9 2.51 3.26
17 3 9 8.45 3.83
3 -9 -17 1.6 3.04
3 -9 -17 3.35 2.71
-17 -3 9 6.71 3.2
3 9 17 -0.64 3.19
-3 -9 17 1.47 4.42
17 3 9 8 2.31
-9 17 5 15.14 3.22
-9 17 5 15.89 3.33
-5 -9 -17 17.72 3.3
-9 17 5 11.33 2.61
-5 -9 -17 10.02 2.77
-17 5 9 13.94 2.67
-17 5 9 14.55 3.46
-17 -5 -9 15.09 3.04
5 9 -17 12.02 2.91
5 -9 17 2.11 3.55
-9 -17 -5 14.45 2.88
-5 9 17 12.92 4.27
-5 9 17 18.13 3.41
-17 5 9 12.12 2.93
-9 -17 -5 15.49 3.34
-9 -17 -5 13.94 2.89
-17 5 9 7.81 4.52
-17 -5 -9 13.69 3.34
9 17 -5 6.26 3.87
9 17 -5 10.57 3
9 17 -5 13.03 3.45
9 -17 5 17.37 3.67
17 5 -9 12.27 3.12
-17 -5 -9 12.84 3.64
17 -5 9 8.52 4.13
-9 -17 -5 12.52 3.53
-5 9 17 14.15 2.53
17 5 -9 14.08 3.52
17 5 -9 14.81 3.56
5 9 -17 18.15 3.3
5 9 -17 12.19 3.1
5 -9 17 18.02 4.6
9 -17 5 12.53 4.64
-5 -9 -17 18.91 3.28
-17 5 9 12.84 2.88
-17 5 9 15.03 3.25
5 -9 17 14.88 4.23
-9 17 -5 13.63 3.13
5 -9 -17 15.82 3.19
-9 -17 5 11.56 3.07
5 9 17 21.41 3.1
9 17 5 13.42 3.16
17 5 9 11.9 4.17
-5 9 -17 12.54 3.12
-5 9 -17 12.69 3.37
17 -5 -9 14.84 3.16
-9 -17 5 20.38 4.46
-17 -5 9 17.53 4.54
-17 5 -9 9.76 3.31
5 9 17 13.73 3.25
5 9 17 10.82 3.66
5 9 17 17.38 3.8
9 -17 -5 17.25 3.64
9 -17 -5 15.49 3.26
9 -17 -5 12.34 3.86
-17 -5 9 13.81 3.51
5 -9 -17 11.61 3.68
9 17 5 11.57 3.48
9 17 5 18.25 3.4
-5 9 -17 7.73 3.6
17 -5 -9 17.75 3.78
17 5 9 17.55 2.98
-5 9 -17 6.75 3.55
-5 -9 17 15.15 4.79
-5 -9 17 16.2 3.18
17 5 9 15.24 3.87
-17 -5 9 7.31 2.89
-9 -17 5 15.48 3.35
-9 -17 -7 33.53 3.67
-9 -17 -7 36.99 4.19
-9 -17 -7 27.36 4.22
-17 7 9 21.95 3.84
-17 7 9 38.68 4.09
17 -7 9 16.94 4.77
-7 -9 -17 24.93 3.77
-7 9 17 24.56 4.94
-17 -7 -9 29.45 3.94
9 -17 7 23.14 3.56
-17 -7 -9 21.37 4.16
9 -17 7 25.78 4.55
7 9 -17 22.3 3.84
-9 -17 -7 27.24 3.85
-17 7 9 23.75 3.99
9 -17 7 23.19 5.41
9 17 -7 28.57 3.83
9 17 -7 20.86 4.15
-7 -9 -17 29.34 3.94
-17 -7 -9 24.49 4.08
17 7 -9 25.9 4.16
-17 7 9 28.8 4.14
-7 -9 -17 26.45 3.76
-17 7 9 15.98 3.65
-7 9 17 24.01 4.1
7 -9 17 25.66 4.92
7 -9 17 32.14 5.52
-9 17 7 26.86 3.59
17 7 -9 23.04 3.75
17 -7 9 32.12 4.5
-9 17 7 22.35 3.98
17 7 -9 22.94 4.21
9 17 7 27.34 4.24
17 -7 -9 29.68 4.35
-7 -9 17 23.98 4.03
-17 -7 9 17.97 3.69
17 -7 -9 30.85 3.7
9 17 7 22.74 4.24
7 -9 -17 26.04 4.23
-17 -7 9 23.74 4.23
9 -17 -7 29.38 4.37
17 7 9 44 4.88
-7 9 -17 13.36 4.29
17 7 9 25.54 4.58
17 7 9 25.88 4.93
9 -17 -7 29.93 3.97
9 -17 -7 25.99 4.64
-17 7 -9 23.36 3.81
-17 7 -9 25.45 4.01
-17 7 -9 22.91 4.42
-7 9 -17 24.45 3.85
-7 9 -17 23.71 4.09
7 -9 -17 38.73 4.65
-17 -7 9 30.81 5.29
-9 -17 7 27.47 3.93
-9 -17 7 26.2 5.21
-9 17 -7 40.6 4.4
-9 17 -7 24.37 3.91
7 9 17 24.11 4.09
7 9 17 20.06 4.58
7 9 17 45.94 4.93
-7 -9 17 20.81 5.58
-17 -9 -9 25.91 4.33
-9 -9 -17 30.26 4.08
9 -9 17 41.88 5.68
9 -17 9 24.64 3.72
9 -17 9 24.69 4.62
-9 9 17 25.18 5.03
17 -9 9 21.94 4.85
17 -9 9 34.98 4.84
-9 -9 -17 28.05 3.96
-17 -9 -9 25.25 3.92
-9 -17 -9 28.69 3.73
-9 9 17 23.41 4.06
9 9 -17 23.64 3.86
17 9 -9 24.81 4.27
9 -17 9 31.95 5.65
-17 9 9 20.92 3.92
-17 -9 -9 23.06 3.99
9 17 -9 25.23 4.02
9 17 -9 25.9 4.28
-17 9 9 25.93 4.09
-9 17 9 21.72 4.03
-17 9 9 20.72 3.97
9 -9 17 20.85 4.81
-9 -17 -9 28.62 4.33
17 9 -9 22.75 3.81
-9 -17 -9 31.07 4.12
17 9 -9 22.55 4.53
-9 -17 -9 22.68 3.84
-9 9 -17 24.3 4.26
17 -9 -9 19.86 5.04
-9 17 -9 39.68 4.67
17 -9 -9 27.48 4.42
-17 9 -9 24.48 4
17 9 9 23.9 4.77
9 17 9 29.78 4.45
9 -17 -9 33.29 4.65
9 -9 -17 27.45 4.43
-9 -17 9 30.75 5.28
17 9 9 21.68 4.47
-9 -9 17 16.3 5.59
-17 -9 9 30.16 4.48
-17 9 -9 26.91 4.55
9 -9 -17 39.56 4.66
-9 -17 9 26.54 4.17
-17 -9 9 21.96 5.36
9 9 17 29.91 4.36
-9 17 -9 21.71 3.97
9 17 9 24.9 4.28
9 -17 -9 25.67 4.8
-9 9 -17 24.88 3.94
-17 -9 9 21.42 3.87
9 9 17 22.12 4.96
-9 9 -17 10.76 4.29
-17 9 -9 28.8 4.16
-9 17 11 8.98 3.08
9 -17 11 6.79 5.06
-17 -11 -9 10.05 3.63
-9 -17 -11 5.64 3.46
-11 -9 -17 10.76 3.11
11 9 -17 8.52 3.39
-9 17 11 16.39 3.07
-11 9 17 12.71 4.56
-17 -11 -9 10.92 3.33
17 -11 9 16.03 4.49
9 17 -11 7.33 2.97
11 -9 17 3.72 4.22
17 11 -9 11.89 3.77
-11 9 17 9.43 3.38
-17 11 9 9 3.25
-17 11 9 5.06 3.37
-17 11 9 3.61 3.22
-9 -17 -11 12.58 3.45
9 17 -11 8.53 3.64
-11 -9 -17 10.93 3.6
17 -11 9 5.69 4.18
11 -9 17 7.91 4.97
9 -17 11 10.62 4.22
-9 -17 -11 5.29 3.02
17 11 -9 7.32 3.09
-17 -11 -9 10.28 3.47
17 11 9 3.97 4.22
9 -17 -11 4.22 3.81
-11 9 -17 11.14 3.32
-17 -11 9 10.43 3.71
-17 -11 9 7.77 3.21
-17 -11 9 2.8 5.11
-9 -17 11 4.48 4.72
17 11 9 10.52 3.56
-17 11 -9 14.17 3.39
17 -11 -9 5.67 4.42
17 -11 -9 10.81 3.86
-17 11 -9 10.51 3.83
-11 9 -17 14.58 3.68
9 -17 -11 11.65 3.93
9 -17 -11 12.36 2.86
11 9 17 12.35 3.77
-11 -9 17 5.82 5.03
9 17 11 4.56 3.56
9 17 11 8.42 3.93
-9 17 -11 8.16 3.23
-9 -17 11 11.58 3.6
11 -9 -17 8.25 3.85
-17 11 -9 8.89 3.36
-9 17 -11 10.68 3.08
11 9 17 9.58 4.32
-11 9 -17 -2.92 3.57
13 9 -17 -2.27 3.14
13 -9 17 2.95 4.27
-9 -17 -13 0.23 3.34
-17 13 9 3.27 2.97
-13 -9 -17 -0.91 3.06
-9 17 13 2.85 2.98
-13 -9 -17 4.36 3.43
17 -13 9 8.94 4.28
-17 -13 -9 -0.09 3.27
-9 -17 -13 -2.28 2.94
-17 -13 -9 3.73 3.55
9 17 -13 -1.29 2.88
13 -9 17 4.92 4.91
-9 17 13 4.76 3.05
-13 9 17 0.74 3.15
17 -13 9 -2.24 4.6
17 13 -9 -3.6 2.9
17 13 -9 -0.27 3.74
9 -17 13 7.75 5.19
-17 13 9 -4.04 2.91
-9 -17 -13 0.33 3.23
-17 -13 -9 1.46 3.05
9 17 -13 -2.86 3.52
-13 9 17 4.04 4.41
9 -17 13 -0.78 4.23
-13 -9 17 -2.95 3.63
13 9 17 1.27 3.78
17 -13 -9 -2.44 3.71
-17 13 -9 12.06 3.26
-17 13 -9 0.23 3.36
-13 -9 17 -6.66 4.93
-9 17 -13 1.35 3.08
-17 -13 9 2.32 3.42
13 9 17 1.2 4.4
-17 -13 9 -8.91 5.16
9 17 13 -2.25 3.53
9 17 13 1.52 3.89
13 -9 -17 -2.13 3.61
-9 -17 13 0.13 3.51
-9 -17 13 -0.99 4.68
-9 17 -13 2.36 2.98
17 -13 -9 -5.67 4.29
-13 9 -17 6.94 3.87
-13 9 -17 3.04 3.16
9 -17 -13 1.44 2.46
9 -17 -13 0.02 3.94
9 -17 -13 1.56 3.93
17 13 9 2.3 3.47
17 13 9 2.34 4.25
-9 17 15 -0.4 3.01
-17 -15 -9 0.54 3.04
9 -17 15 -3.59 4.27
9 17 -15 -2.65 2.89
9 17 -15 -2.45 3.66
9 -17 15 -0.57 5.33
-17 -15 -9 0.56 3.46
-17 -15 -9 -0.51 3.73
-9 -17 -15 -0.6 3.46
17 -15 9 -0.1 5.03
17 -15 9 2.06 4.19
15 -9 17 1.2 4.88
-17 15 9 -2.5 3.04
-15 -9 -17 -1.34 3.22
-15 -9 -17 -5.48 3.27
17 15 -9 -4.25 3.9
15 9 -17 -5.65 3.23
15 -9 17 0.92 4.31
-15 9 17 -6.06 2.17
-15 9 17 -1.22 3.27
17 15 -9 -4.7 2.96
-9 -17 -15 -2.36 3.36
9 -17 -15 -6.78 4.3
-15 -9 17 -5.51 3.94
15 -9 -17 2.5 3.7
-9 -17 15 4.65 3.74
-17 15 -9 6.23 3.2
-17 15 -9 -10.24 3.32
17 -15 -9 -4.78 3.88
15 9 17 -3.58 3.95
17 15 9 -3.49 3.52
17 15 9 -7.24 4.25
-9 17 -15 -6.7 3.05
-9 17 -15 -3.51 3.1
9 17 15 -4.07 3.39
17 -15 -9 -4.43 4.39
-15 9 -17 -0.65 3.17
-15 9 -17 3.52 3.97
15 9 17 -1.67 4.56
-17 -15 9 0.72 3.57
9 -17 -15 1.29 4.07
9 17 15 0.92 4.1
15 -9 -17 -5.94 2.98
1 11 -17 -5.13 2.73
1 -11 17 2.74 2.86
17 1 -11 -3.98 2.89
17 1 -11 -0.83 3.23
-1 11 17 -7.19 3.13
-1 -11 -17 0.21 2.88
-17 1 11 0.57 4.06
17 -1 11 0.45 3.96
17 -1 11 3.99 2.4
1 -11 17 2.59 3.84
1 -11 17 4.16 4.28
-17 -1 -11 -0.16 2.97
1 -11 17 -0.68 2.28
-11 -17 -1 -0.82 2.42
-11 17 1 -3.35 2.69
-11 17 1 0.96 3
-17 1 11 -6.87 2.47
-17 1 11 1.06 2.43
11 17 -1 2.33 2.61
-17 1 11 -1.99 2.3
11 17 -1 2.76 3.12
-11 -17 -1 -4.65 3.52
17 -1 11 6.32 3.51
-1 -11 -17 3.33 2.87
-11 -17 -1 -2.39 3.02
-11 17 1 0.83 1.82
11 -17 1 1.85 3.78
1 11 -17 -1.59 2.63
-1 11 17 -3.72 3.73
-1 11 17 0.92 3.13
1 11 -17 1.55 2.62
11 -17 1 -0.7 2.58
-1 11 17 -3.84 2.12
11 17 1 1.52 2.77
-1 -11 17 1.74 2.65
-1 -11 17 0.6 3.74
1 -11 -17 -0.34 2.85
1 -11 -17 -1.71 2.71
17 1 11 0.66 3.92
17 1 11 5.96 3.48
11 -17 -1 0.61 2.85
17 -1 -11 -7.51 2.89
-11 -17 1 -1.91 2.9
-1 11 -17 0.57 2.51
-1 -11 17 -1.59 2.52
1 11 17 0.99 2.27
1 11 17 -1.4 3.03
1 11 17 -1.67 3.56
11 17 1 -1.12 3.14
-11 -17 1 2.12 3.72
17 1 11 4.48 2.42
-11 17 -1 -2.98 2.71
17 -1 -11 -0.43 3.17
-1 11 -17 -2.8 2.08
-17 -1 11 5.75 4.24
-17 1 -11 1.07 2.89
-1 -11 17 1.03 4.58
-1 11 -17 -1.67 2.48
-11 -17 1 0.74 2.49
11 -17 -1 -1.08 3.43
-17 3 11 2.56 2.44
-17 -3 -11 4.89 2.56
-17 -3 -11 0.51 3.01
-3 11 17 -1.08 3.31
-11 17 3 2.59 2.14
-11 17 3 -0.48 2.82
-11 17 3 -0.35 2.74
-3 -11 -17 2.16 2.85
-3 -11 -17 3.69 2.92
-3 -11 -17 -4.06 2.21
11 -17 3 4.19 4.07
17 -3 11 3.44 3.44
17 -3 11 -1.67 3.94
17 3 -11 0.93 3.03
3 -11 17 -0.37 3.8
3 -11 17 0.61 4.3
3 11 -17 -0.09 2.65
-17 3 11 0.8 2.28
3 11 -17 2.42 2.62
-17 3 11 -1.93 3.84
-11 -17 -3 -3.86 3.07
-11 -17 -3 -0.24 2.58
11 17 -3 0.57 3.14
3 11 -17 -0.2 2.61
-3 11 17 3.72 3.94
-3 11 17 5.56 2.96
3 -11 17 -1.83 2.96
11 -17 3 1.64 3.25
-17 3 11 -3.14 2.35
11 17 -3 0.65 2.62
-3 11 -17 -3.53 3.19
-3 -11 17 3.05 2.78
-3 -11 17 0.46 2.64
-3 -11 17 1 3.59
-11 -17 3 0.94 2.64
-17 -3 11 4.55 4.3
-11 17 -3 0.03 2.69
-11 -17 3 1.68 3.15
-3 -11 17 1.03 4.5
-11 -17 3 7.4 3.9
11 -17 -3 1.04 3.07
11 -17 -3 -0.35 3.54
17 -3 -11 -5.57 2.78
17 3 11 5.23 2.46
-17 3 -11 4.19 3.06
-3 11 -17 2.61 2.71
3 11 17 -2.76 3.5
3 -11 -17 -4.3 3
3 11 17 1.27 2.39
3 11 17 1.84 3.24
11 17 3 2.95 3.15
3 11 17 -0.95 2.86
17 3 11 4.29 4.11
17 3 11 2.93 3.36
-3 11 -17 0.87 2.7
17 -3 -11 2.32 3.29
11 17 -5 -4.07 3.43
5 -11 17 8.43 4.74
5 -11 17 -0.8 3.82
-11 17 5 5.58 2.82
-17 5 11 4.99 2.51
-17 5 11 4.15 2.54
11 17 -5 3.8 2.74
-11 -17 -5 1.49 3.25
-11 -17 -5 8.42 3.21
17 -5 11 -2.94 4.04
17 5 -11 6.93 3.18
5 -11 17 -3.53 3.3
11 -17 5 4.91 3.3
-5 11 17 7.36 4.14
5 11 -17 5.34 2.72
5 11 -17 9.55 2.92
-5 -11 -17 9.74 3
-5 -11 -17 10.35 3.05
-17 5 11 -0.56 4.19
-11 17 5 9.25 2.93
-17 -5 -11 9.07 2.92
-17 -5 -11 7.66 3.2
-5 11 17 7.7 3.11
-5 -11 -17 0.15 2.51
-11 -17 -5 6.38 2.63
17 5 -11 8.1 3.07
11 17 -5 4.51 3.25
11 -17 5 2.26 4.46
-11 17 5 5.8 2.32
-17 5 11 0.32 2.22
5 -11 -17 6.02 3.46
-17 5 -11 7.02 3.09
17 -5 -11 8.31 3.44
-17 -5 11 1.71 4.27
5 11 17 7.54 2.85
-17 -5 11 -1.25 2.45
5 11 17 8.69 3.46
-5 11 -17 0.39 3.59
-5 -11 17 1.02 4.7
11 -17 -5 4.43 2.81
11 -17 -5 0.77 3.75
-17 -5 11 2.9 3.46
-11 17 -5 5.25 3
-17 5 -11 3.26 3.62
17 5 11 7.95 4.12
11 -17 -5 7.81 3.39
11 17 5 4.72 3.3
11 17 5 7 3.27
-5 11 -17 3.65 2.83
-11 -17 5 7.63 3.04
-11 -17 5 10.65 4.37
17 5 11 8.08 2.73
-5 11 -17 3.54 2.97
17 -5 -11 3.19 2.87
5 11 17 -0.46 2.99
-5 -11 17 6.27 2.66
5 11 17 2.51 3.66
5 11 17 10.35 2.65
17 5 11 5.36 3.21
17 -7 11 -1.03 4.01
7 11 -17 10.04 3.06
-11 -17 -7 8.29 3.45
-17 -7 -11 8.85 3.23
-17 -7 -11 3.67 3.3
7 -11 17 7.53 4.94
-7 -11 -17 6.21 2.84
11 -17 7 6.1 3.74
11 -17 7 5.38 4.71
-7 -11 -17 7.62 3.14
7 11 -17 7.79 2.95
11 17 -7 7.16 3.47
-11 17 7 6.22 3.09
-7 -11 -17 10.1 3.03
-11 -17 -7 4.28 3.35
17 -7 11 10.5 3.84
11 17 -7 4.3 3.08
-7 11 17 6.46 3.08
-7 11 17 0.75 4.28
11 -17 7 8.17 2.65
-11 -17 -7 7.57 2.75
7 -11 17 4.71 4.1
17 7 -11 6.44 3.13
17 7 -11 6.05 3.28
-11 17 7 6.78 2.55
-11 17 7 15.06 3.04
-17 7 11 5.57 2.17
-17 7 11 -5.31 4.57
-17 7 11 6.28 2.87
11 17 7 4.05 3.55
-11 17 -7 5.68 3.13
17 7 11 3.52 3.78
-11 17 -7 10.14 2.81
11 -17 -7 5.32 3.68
11 17 7 5.49 3.41
-11 -17 7 10.78 4.51
-17 -7 11 6.43 4.65
-17 7 -11 5.56 3.33
7 11 17 4.6 3.24
-17 -7 11 3.26 3.38
17 -7 -11 10.06 2.92
11 -17 -7 7.08 3.86
17 -7 -11 8.35 3.5
17 7 11 3.88 4.28
-17 -7 11 1.89 2.69
-7 -11 17 8.88 3.54
-7 -11 17 6.59 3.36
-7 -11 17 5.54 2.7
-7 -11 17 -1.17 4.78
-7 11 -17 7.53 2.84
-7 11 -17 3.18 3.31
7 11 17 3.75 3.65
7 -11 -17 3.45 3.23
7 11 17 13.34 2.83
-11 -17 7 10.18 3.19
-17 7 -11 6.42 3.71
-17 7 -11 9.94 2.83
-9 -11 -17 10.64 3.15
-17 -9 -11 14.29 3.65
-11 17 9 20.67 3.24
-11 -17 -9 11.08 3.55
17 9 -11 9.76 3.6
11 17 -9 10.56 3.19
11 17 -9 8.87 3.73
-9 11 17 4.28 4.49
-11 -17 -9 6.62 3.05
-17 9 11 7.04 3.14
-11 -17 -9 9.81 3.58
11 -17 9 7.4 4.96
-17 -9 -11 5.87 3.33
-9 11 17 7.16 3.3
-11 17 9 11.84 3.36
17 -9 11 11.88 4.32
9 -11 17 4.57 4.41
9 -11 17 9.86 5.04
9 11 -17 10.85 3.34
9 11 -17 11.13 3.3
-9 -11 -17 14.96 3.55
17 9 -11 7.35 3.22
11 -17 9 8.89 4.02
17 -9 11 5.2 4.23
11 -17 9 8.39 2.98
11 -17 -9 4.58 3.98
11 17 9 3.67 3.72
-17 9 -11 7.51 3.59
-17 9 -11 14.16 3.22
-9 11 -17 11.44 3.39
-9 11 -17 10.61 3.55
11 -17 -9 6.4 4.11
9 11 17 9.05 3.42
17 -9 -11 10.57 3.8
17 -9 -11 10.93 3.03
9 -11 -17 7.42 3.71
11 17 9 8.14 3.9
9 11 17 10.89 4.23
-11 17 -9 9.09 3.25
17 9 11 7.47 3.77
-17 -9 11 8.5 3.68
-11 -17 9 10.37 4.85
-11 17 -9 12.33 3
17 9 11 5.4 4.3
-9 -11 17 2 5.07
-17 -9 11 4.75 2.94
-9 -11 17 9.68 3.85
-11 -17 9 7.66 3.45
-17 -9 11 2.63 4.85
-17 9 -11 12.3 3.89
11 17 -11 1.06 3.67
17 11 -11 -2.49 3.59
-11 -17 -11 2.58 3.4
-11 -11 -17 -1.19 3.34
11 -17 11 5.96 5.06
11 -11 17 6.29 5.08
-11 11 17 4.04 3.35
-11 11 17 -2.72 4.39
-17 -11 -11 2.04 3.19
-17 -11 -11 3.55 3.44
-11 17 11 10.49 2.99
-11 17 11 2.14 3.03
17 -11 11 1.69 4.6
-17 11 11 -0.96 3.15
-11 -11 -17 2.13 3.08
11 -17 11 2.1 4.23
17 11 -11 -0.18 3.16
-11 -17 -11 3.47 3.37
11 17 -11 -0.27 3.25
-17 11 11 1.13 3.06
11 -11 17 -4.64 4.34
17 -11 11 4.49 4.19
11 11 -17 1.02 3.22
-11 -17 11 0.1 3.38
-11 -11 17 -5 5.14
11 17 11 -2.78 3.62
17 11 11 0.22 3.61
-11 -17 11 -4.94 4.7
11 17 11 -3.19 3.75
-17 11 -11 1.37 3.59
-11 11 -17 4.42 3.16
-17 11 -11 0.78 3.17
-11 11 -17 1.13 3.48
-17 -11 11 -5.45 5.04
-11 17 -11 5.47 2.88
-11 17 -11 -0.97 3.22
-17 -11 11 5.94 3.79
-17 -11 11 -1.17 2.97
11 -17 -11 0.85 3.82
11 -17 -11 4.59 2.58
11 -17 -11 -1.64 3.8
17 11 11 -2.57 4.42
17 -11 -11 -1.84 4.46
-11 -11 17 1.05 3.84
-17 11 -11 1.85 3.31
11 11 17 4.01 4.4
11 11 17 5.59 3.58
17 -11 -11 -2.2 3.77
11 -11 -17 4.66 3.82
-17 -13 -11 -0.39 3.35
-17 -13 -11 0.76 3.45
17 13 -11 -3.81 3.8
17 13 -11 -1.25 3.13
17 -13 11 -5.72 4.9
-13 11 17 -2.01 3.19
-11 17 13 1.11 3.1
-13 -11 -17 -4.4 3.25
13 -11 17 -3.69 4.45
13 11 -17 -2.97 3.04
-17 13 11 2.97 3.22
11 17 -13 -2.11 3.72
-13 -11 -17 -2.37 3.23
-17 13 11 -1.64 2.98
11 -17 13 -0.78 4.47
-11 -17 -13 -2.98 3.25
-11 17 13 1.24 2.89
17 -13 11 4.37 4.38
11 -17 13 3.96 5.42
11 17 -13 -0.82 3.03
-13 11 17 0.71 4.59
-11 -17 -13 -2.01 3.5
11 -17 -13 -0.92 2.54
13 -11 -17 -1.79 3.75
11 -17 -13 -4.77 4.01
11 17 13 3.65 3.98
11 -17 -13 -2.79 3.87
13 11 17 4.8 4.38
17 -13 -11 -2.56 3.91
17 -13 -11 -0.43 4.55
-17 -13 11 0.18 3.75
-13 -11 17 -3.38 5.38
-11 17 -13 1.36 3.36
11 17 13 -4.2 3.55
-17 13 -11 0.77 3.46
17 13 11 -0.17 3.63
17 13 11 -4.08 4.51
-17 -13 11 -5.75 5.41
-13 11 -17 -1.26 3.25
-13 11 -17 3.86 3.55
-13 -11 17 -4.71 3.75
-11 -17 13 -9.41 4.97
-11 17 -13 -1.83 3.02
13 11 17 2.65 3.77
-11 -17 13 -5.85 3.81
-17 13 -11 0.91 3.34
-1 13 17 -6.55 3.36
17 -1 13 12.09 3.92
17 -1 13 3.61 4.44
-1 13 17 0.85 3.09
1 -13 17 -2.46 2.9
-17 -1 -13 1.2 2.66
1 13 -17 -3.3 2.67
13 17 -1 -8.98 3.48
1 -13 17 -3.84 2.45
1 -13 17 5.3 4.5
-13 17 1 -1.11 2.04
13 -17 1 0.13 3.92
17 1 -13 -7.68 3.25
-17 -1 -13 2.49 2.92
-17 1 13 3.47 4.51
-13 -17 -1 -3.87 3.24
-13 -17 -1 -0.88 3.78
-17 1 13 1.88 2.65
1 -13 17 4.13 4.01
-1 -13 -17 2.17 3.03
17 1 -13 -3.42 3.44
1 13 -17 -3.68 2.83
17 -1 13 11.95 2.6
-13 17 1 -1.34 2.98
13 17 -1 3.84 2.86
1 13 -17 -2.47 2.92
13 17 -1 3.75 3.39
-13 17 1 -2.84 3.13
-17 1 -13 8.43 2.44
17 1 13 6.71 4.34
17 -1 -13 -6.71 3.36
13 -17 -1 -1.62 4.03
13 17 1 5.76 3.35
-17 -1 13 4.01 4.8
-1 -13 17 6.28 3.92
-1 -13 17 5.78 4.51
-17 1 -13 2.62 3.14
-13 -17 1 -0.19 3.1
-13 -17 1 6.63 3.97
1 -13 -17 -3.79 3.16
-13 17 -1 -0.25 3.2
17 1 13 15.88 3.86
-1 13 -17 -5.09 3.35
17 -1 -13 0.88 3.41
-1 -13 17 -1.3 3.04
13 17 1 2.03 3.04
-1 13 -17 0.68 2.68
-1 13 -17 0.07 2.79
1 13 17 9.52 4.08
13 -17 -1 -3.68 2.96
1 13 17 2.4 3.59
17 1 13 5.77 2.79
-1 -13 17 -1.23 2.78
-13 17 3 -2.68 2.95
-3 -13 -17 0.3 3.02
-13 17 3 1.18 2.17
-3 13 17 2.17 3.09
13 -17 3 0.19 3.41
13 17 -3 -0.26 2.85
3 13 -17 -0.88 2.87
3 -13 17 -0.87 3.98
-13 17 3 -1.22 3.05
-3 -13 -17 -1.21 2.9
3 13 -17 -0.58 2.94
3 -13 17 7.54 4.86
13 -17 3 -1.93 4.15
17 -3 13 -4.85 4.18
17 3 -13 -2.03 3.36
-17 3 13 -0.01 4.15
3 -13 17 -1.78 3.02
-17 -3 -13 0.82 3.21
-17 -3 -13 -0.67 2.71
13 17 -3 -3.86 3.52
13 17 -3 2.45 3.53
-3 -13 -17 -0.48 2.51
-17 3 13 -1.24 2.38
-13 -17 -3 -9.27 3.23
-3 -13 17 -1.8 2.87
3 13 17 -4.17 3.35
3 -13 -17 -3.54 3.36
-3 13 -17 2.45 2.8
17 3 13 5.07 2.69
17 3 13 10.31 3.74
13 -17 -3 -2.38 3.12
13 -17 -3 -0.02 4.03
-17 3 -13 1.74 3.1
3 13 17 -6.34 2.95
17 -3 -13 -5.15 3.08
3 13 17 -0.87 3.77
-17 -3 13 2.39 4.73
-3 13 -17 -2.23 2.79
17 -3 -13 2.56 3.49
17 3 13 7.47 4.38
13 17 3 3.4 3.25
3 13 17 4.13 2.49
-3 -13 17 -6.26 3.16
-3 -13 17 -1.41 2.81
-3 -13 17 -0.41 4.93
3 13 17 -4.42 3.1
-13 -17 3 2.62 4.06
-13 17 -3 -1.56 3.03
-13 -17 3 0.56 3.09
-13 -17 -5 -4.15 3.14
-17 5 13 0.02 2.5
5 13 -17 -0.56 3.06
-13 17 5 3.55 2.97
13 -17 5 1.34 3.41
13 -17 5 -0.74 4.45
13 17 -5 -1.29 2.83
-5 -13 -17 -3.87 2.43
5 13 -17 -2.2 2.84
13 17 -5 1.16 3.49
17 5 -13 -2.87 3.16
-17 -5 -13 -0.48 2.86
-5 -13 -17 1.5 3
17 -5 13 -6.32 4.18
-13 17 5 -1.47 2.85
-17 5 13 -7.44 2.27
5 -13 17 0.9 5.04
-17 5 13 -4.5 4.22
-13 17 5 1.14 2.5
-13 -17 -5 -0.29 3.29
-13 -17 -5 -0.62 2.46
5 -13 17 0.24 4.22
-17 -5 -13 -2.93 3.13
-5 13 17 1.79 3.13
-5 -13 -17 0.57 2.84
13 -17 -5 -2.66 4.01
-13 -17 5 7.72 4.38
17 -5 -13 -2.83 2.95
-17 5 -13 1.66 3.26
13 -17 -5 -2.34 3.28
-5 -13 17 0.8 3.27
-5 -13 17 -1.85 2.67
5 13 17 -2.65 3.66
-5 13 -17 0.12 2.65
-5 13 -17 1.47 3
-13 17 -5 0.23 3.06
5 -13 -17 -4.79 3.38
-13 -17 5 2.52 3.07
-17 5 -13 -1.34 3.46
17 5 13 -3.18 3.48
13 17 5 -0.5 3.26
5 13 17 1.46 2.5
5 13 17 -4.78 3.08
17 5 13 0.81 4.4
5 13 17 -0.21 2.75
-17 -5 13 -5.96 4.38
13 17 5 -3.99 3.31
17 -5 -13 0.74 3.38
-5 -13 17 0.29 4.89
17 -7 13 1.1 3.89
-13 -17 -7 -4.03 3.41
13 -17 7 -1.03 3.66
-13 17 7 -5.82 2.68
-7 -13 -17 2.04 3.1
-7 -13 -17 4.4 3.23
-13 -17 -7 -2.19 2.65
17 -7 13 -4.56 4.2
-17 -7 -13 1.04 3.04
13 -17 7 -3.07 4.64
13 17 -7 1.16 2.76
13 17 -7 -3.21 3.52
-17 7 13 -7.94 4.3
-13 -17 -7 -2.92 3.4
7 -13 17 3.62 4.86
7 13 -17 -1.88 2.78
7 13 -17 3.07 3.2
-17 7 13 -3.7 2.03
-17 7 13 1.19 2.68
17 7 -13 -2.19 3.2
17 7 -13 1.45 3.15
-13 17 7 -1.28 2.45
-13 17 7 5.77 2.97
-7 13 17 2.83 3.05
7 -13 17 -6.79 4.18
-17 -7 -13 -4.5 3.31
13 -17 7 3.45 2.7
13 -17 -7 -4.34 4.05
13 -17 -7 -4.57 3.5
-7 13 -17 -0.8 3.12
-17 7 -13 -1.57 3.61
7 13 17 -3.48 3.7
17 -7 -13 -0.63 2.86
-7 13 -17 -1.82 2.84
7 13 17 2.79 2.66
7 -13 -17 -2.6 3.65
7 13 17 -7.03 3.12
-7 -13 17 0.87 2.69
-7 -13 17 -4.01 4.78
17 -7 -13 0.64 3.42
-17 -7 13 3.25 3.56
-17 -7 13 0.87 4.65
-17 7 -13 -0.64 3.25
-13 -17 7 1.41 3.06
-13 -17 7 -1.84 4.46
-13 17 -7 4.85 2.79
-13 17 -7 1.36 3.14
-17 7 -13 5.29 2.88
17 7 13 -1.85 3.75
17 7 13 -4.31 4.25
13 17 7 -7.18 3.38
13 17 7 -4.24 3.6
-7 -13 17 1.99 3.36
-17 -9 -13 -0.09 3.19
-17 -9 -13 2.68 3.53
17 -9 13 2.77 4.06
17 -9 13 6.93 4.39
17 9 -13 -0.31 3.28
-17 9 13 -2.94 4.59
13 -17 9 -0.68 3.91
-9 13 17 -0.58 3.21
-13 -17 -9 -2.38 2.97
9 -13 17 -5.12 4.41
9 -13 17 0.48 5.15
9 13 -17 0.37 3.04
-9 -13 -17 3.13 3.42
9 13 -17 2.26 3.35
-17 9 13 -1.8 2.89
13 -17 9 5.16 2.94
-13 -17 -9 1.84 3.43
-13 -17 -9 1.12 3.56
13 17 -9 -1.67 3.64
17 9 -13 -3.28 3.38
-9 -13 -17 -0.96 2.92
-13 17 9 -2.21 2.9
13 17 -9 -1.05 3.11
-13 17 9 8.21 3.01
13 -17 9 6.73 5.12
-13 17 -9 4.76 3.28
13 17 9 -5.06 3.88
-9 -13 17 -5.9 5.09
-17 9 -13 2.63 3.64
-17 9 -13 9 3.09
9 13 17 2.58 3.39
9 13 17 2.84 3.97
-13 17 -9 8.06 2.99
13 -17 -9 1.84 4.12
13 17 9 -3.86 3.6
-9 13 -17 0 3.41
9 -13 -17 2.99 3.6
-9 13 -17 1.36 2.97
-13 -17 9 5.38 4.85
-13 -17 9 -0.52 3.27
-9 -13 17 0.92 2.68
17 -9 -13 -1.17 3.66
-17 -9 13 2.71 3.67
-17 -9 13 -1.7 2.75
-17 -9 13 -2.93 4.99
-17 9 -13 0.58 3.28
17 -9 -13 2.1 2.88
17 9 13 -0.99 3.92
13 -17 -9 2.34 3.83
17 9 13 -9.23 4.33
-9 -13 17 -2.22 3.58
17 -11 13 6.44 4.33
11 -13 17 -3.74 4.52
-11 -13 -17 -0.64 3.41
-17 -11 -13 0.53 3.43
-13 17 11 3.06 3.12
13 -17 11 -2.29 5.25
-13 -17 -11 -0.69 3.54
17 11 -13 -6.23 3.3
17 11 -13 -5.55 3.55
-11 13 17 -2.49 3.27
-17 -11 -13 -3.88 3.36
13 17 -11 -4.18 3.72
11 -13 17 1.53 5.34
11 13 -17 -0.83 3.1
11 13 -17 3.52 3.37
-13 17 11 4.76 3.06
17 -11 13 5.11 4.81
-17 11 13 -0.36 3.19
-11 -13 -17 -2.18 3.15
13 17 -11 -1.42 3.19
13 -17 11 -7.09 4.22
-13 -17 -11 0.2 3.46
11 13 17 4.06 3.53
-13 -17 11 -2.06 5.04
-11 -13 17 -8.18 5.24
13 -17 -11 -5.56 3.86
-13 -17 11 -4.99 3.58
-17 -11 13 -6.8 2.79
11 13 17 6.63 4.38
-13 17 -11 5.42 3.15
-13 17 -11 2.72 3.35
17 11 13 -4.91 3.87
17 11 13 -6.45 4.57
-11 -13 17 2.86 2.69
-11 13 -17 1.82 3.39
13 17 11 -3.05 3.73
-17 11 -13 1.4 3.7
-11 -13 17 -3.5 3.76
-17 -11 13 3.83 3.82
13 -17 -11 3.3 2.71
11 -13 -17 -3.39 3.69
-17 -11 13 -3.2 5.38
-17 11 -13 -3.63 3.34
-11 13 -17 1.05 3.52
13 -17 -11 -5.1 3.89
13 17 11 -11.07 4.08
17 -11 -13 -2.69 3.95
-1 -15 -17 -2.49 2.72
-1 15 17 10.13 3.46
-15 17 1 0.19 3.14
-1 -15 -17 2.35 3.4
15 -17 1 9.74 4.48
17 1 -15 2.56 3.65
15 17 -1 4.62 3.68
-17 -1 -15 2.27 3.19
-15 17 1 -5.84 2.26
-17 1 15 10.85 3.11
-17 1 15 13.96 4.98
1 -15 17 9.51 5.29
1 15 -17 0.21 2.94
1 15 -17 -3.15 3.33
1 15 -17 -1.94 3.55
-15 17 1 4.05 3.53
17 1 -15 2.73 3.84
1 -15 17 3.7 4.39
15 17 -1 3.99 3.21
15 17 -1 5.96 3.78
-15 -17 -1 -0.06 3.4
17 -1 15 17.72 4.22
-17 -1 -15 0.02 2.84
17 -1 15 9.6 2.88
17 -1 15 5.81 4.72
-1 -15 17 13.07 4.34
15 -17 -1 4.53 4.52
17 1 15 14.45 4.91
1 15 17 5.04 3.88
17 1 15 8.46 2.94
-15 -17 1 14.81 4.28
1 15 17 4.46 3.26
1 -15 -17 -6.49 3.45
15 -17 -1 -4.7 3.39
-1 15 -17 -4.1 3.26
17 -1 -15 -3.59 3.7
-15 17 -1 1.91 3.44
17 1 15 21.41 4.33
-15 -17 1 3.56 3.37
-1 15 -17 1.77 2.85
-1 -15 17 11.15 4.98
-1 15 -17 -4.71 3.68
15 17 1 4.62 3.71
15 17 1 6.84 3.57
-17 -1 15 13.07 5.19
-17 1 -15 0.32 2.68
-17 1 -15 9.35 3.48
17 -1 -15 1.23 3.72
-1 -15 17 -9.3 2.94
-17 -3 -15 2.63 2.89
-3 -15 -17 1.39 3.22
15 17 -3 4.43 3.77
17 3 -15 -7.34 3.53
17 3 -15 3.55 3.69
17 -3 15 -2.35 4.7
15 17 -3 3.75 3.53
3 -15 17 0.59 4.33
3 -15 17 6.16 5.3
3 15 -17 -0.94 2.89
3 15 -17 -1.82 3.32
-15 -17 -3 -7.58 3.53
-3 -15 -17 3.41 3.06
-3 -15 -17 -6.24 2.69
-17 3 15 4.74 4.76
-15 17 3 -1.6 2.37
-15 17 3 2.43 3.44
-15 17 3 -1.71 3.16
-17 3 15 7.36 3.06
15 -17 3 3.71 3.7
15 -17 3 3.97 4.34
-17 -3 -15 2.42 3.44
15 17 -3 5.73 3.05
-17 3 -15 4.11 3.48
17 3 15 13.05 4.19
-15 17 -3 -0.28 3.42
17 -3 -15 4.31 3.66
17 -3 -15 -6.53 3.4
3 15 17 -3.32 3.22
15 -17 -3 -2 3.46
15 -17 -3 0.2 4.51
-3 15 -17 1.76 3.03
17 3 15 8.77 4.61
-17 -3 15 3.39 5.17
-15 -17 3 3.56 3.29
-15 -17 3 9.17 4.44
-3 -15 17 -7.68 3.44
-3 -15 17 -3.2 3.09
-3 -15 17 1.12 3.22
-3 -15 17 4.84 4.71
-3 15 -17 2.5 2.88
15 17 3 1.62 3.5
3 15 17 -7.52 3.29
17 3 15 5.4 2.89
3 15 17 -1.84 3.72
3 -15 -17 -4.93 3.54
-17 5 15 2.03 4.35
-15 -17 -5 -4.04 3.3
-17 -5 -15 1.6 2.97
-15 -17 -5 -1.65 2.62
15 -17 5 0.95 3.46
15 -17 5 4.5 4.63
-15 -17 -5 -1.32 3.58
-15 17 5 0.33 2.31
-15 17 5 2.59 3.14
-15 17 5 -4.96 2.86
-5 -15 -17 0.97 3.06
-5 -15 -17 -0.27 3.08
17 5 -15 4.86 3.49
15 17 -5 2.6 2.89
17 -5 15 -5.94 4.25
-17 -5 -15 -0.73 3.23
15 17 -5 -0.19 3.76
-5 15 17 3.04 3.13
5 15 -17 -4.41 3.39
5 -15 17 -0.89 4.25
5 -15 17 3.94 5.15
5 15 -17 -0.57 3.01
-17 5 15 0.81 2.99
5 15 17 5 2.62
5 15 17 -8.95 3.22
5 -15 -17 -7.46 3.74
-5 -15 17 0.22 4.8
-5 15 -17 -0.88 3.06
17 5 15 -0.31 3.87
17 5 15 -0.43 4.53
-5 15 -17 3.24 2.92
-17 -5 15 0.25 4.9
-17 5 -15 1.01 3.18
-15 -17 5 1.55 3.14
-15 -17 5 7.53 4.42
-5 -15 17 -2.35 2.96
-17 5 -15 0.15 3.74
5 15 17 -7.3 3.76
5 15 17 4.36 3.02
15 -17 -5 0.11 3.62
15 -17 -5 2.43 4.23
17 -5 -15 -1.92 3.35
-15 17 -5 -2.63 3.45
-5 -15 17 3.71 3.54
15 17 5 -1.21 3.45
17 -5 -15 -3.24 3.24
17 -7 15 2.75 4.27
7 15 -17 -2.13 3.44
-17 -7 -15 -0.52 3.4
-15 17 7 2.77 3.12
-15 17 7 0.12 3.19
-7 -15 -17 -2.12 3.16
-7 -15 -17 1.26 3.21
15 -17 7 -0.46 2.74
15 -17 7 -0.27 3.8
15 -17 7 -2.79 4.79
15 17 -7 -0.47 2.9
15 17 -7 -2.46 3.85
17 7 -15 -3.71 3.32
7 15 -17 -1.34 2.98
-17 -7 -15 -1.38 3.14
7 -15 17 -3.28 4.21
17 -7 15 -1.27 4.19
7 -15 17 3.58 5.3
-15 -17 -7 -2.13 2.7
-7 15 17 -1.32 3
-15 -17 -7 -2.62 3.66
-17 7 15 -4.45 2.21
-17 7 15 3.29 3.13
-17 7 15 -7.7 4.43
-15 -17 -7 -5.72 3.38
-17 7 -15 -2.06 3.78
-17 7 -15 -3.69 3
17 -7 -15 -3.28 3.06
-17 -7 15 -2.69 4.88
15 17 7 -3.5 3.89
17 -7 -15 -4.83 3.6
7 15 17 0.77 2.68
-17 -7 15 2.1 3.84
-7 15 -17 -1.79 3.11
15 17 7 -3.58 3.45
17 7 15 -2.79 3.63
17 7 15 -2.64 4.47
-15 17 -7 -3.21 3.36
7 15 17 -4.9 3.33
7 15 17 -8.62 3.78
15 -17 -7 -1.34 3.79
15 -17 -7 -0.78 4.3
-7 -15 17 -1.27 3.63
-7 -15 17 -1.41 2.91
-7 -15 17 -8.83 5.12
-7 15 -17 -0.44 2.85
-15 -17 7 0.92 3.21
-15 -17 7 1.39 4.81
-15 17 -7 4.17 2.88
7 -15 -17 -2.81 3.75
-17 7 -15 0.4 3.19
-15 17 9 -1.8 3.12
-9 -15 -17 -1.95 3.06
-17 -9 -15 -7.28 3.12
-15 17 9 -1.51 3.08
-17 9 15 -5.79 2.03
-17 9 15 -0.89 2.97
-9 15 17 -2.3 3.33
15 17 -9 -4.4 2.82
9 -15 17 -6.34 4.38
9 -15 17 0.4 5.27
9 15 -17 -0.47 3.22
9 15 -17 0.83 3.59
17 9 -15 -4.03 3.39
17 -9 15 1.7 4.29
17 -9 15 7.49 4.66
-15 -17 -9 0.02 3.43
15 -17 9 4.58 2.89
15 -17 9 -5.23 3.94
15 -17 9 0.3 5.19
-9 -15 -17 0.79 3.45
15 17 -9 -3.95 3.87
-17 -9 -15 -1.47 3.41
-15 -17 -9 -1.08 3.7
17 9 -15 -2.46 3.38
17 -9 -15 -1.5 2.95
9 15 17 2.63 3.88
15 -17 -9 -2.31 4.02
17 -9 -15 -1.91 3.9
9 15 17 0.58 3.46
17 9 15 -7.98 4.09
17 9 15 -7.84 4.67
9 -15 -17 -2.03 3.63
-9 -15 17 -1.06 3.77
15 17 9 -7.41 4.08
-15 -17 9 -5.49 3.26
-15 17 -9 7.43 3.15
-15 17 -9 -0.9 3.53
15 17 9 -3.74 3.76
-17 -9 15 1.23 3.62
-17 -9 15 -6.09 2.51
-17 9 -15 -4.86 3.32
-17 9 -15 4.58 3.82
-9 15 -17 -5.25 3.01
-9 15 -17 1.27 3.38
15 -17 -9 1.26 4.07
-17 -17 -1 -1.88 3.52
1 17 -17 -2.77 3.17
-17 -1 -17 0.14 3.15
-17 -1 -17 8.68 3.65
17 -1 17 13.5 4.29
17 -1 17 13.74 5.27
17 1 -17 1.67 3.77
17 1 -17 1.71 4.14
-17 1 17 9.49 3.38
-17 1 17 10.71 5.46
1 17 -17 -0.48 3.76
-17 17 1 -5.52 2.35
-17 17 1 6.31 3.86
-17 17 1 3.68 3.42
-1 -17 -17 0.39 3.62
-1 -17 -17 0.54 2.78
-1 -17 -17 1.07 4.48
1 -17 17 19.66 5.8
-1 17 17 9.23 3.61
17 -1 17 7.57 2.99
17 17 -1 3.84 3.33
17 17 -1 10.36 4.14
1 -17 17 -2.43 4.7
-1 17 17 12.69 3.38
1 17 -17 0.62 3.67
17 -17 1 8.67 4.78
1 -17 -17 9.06 2.72
-1 -17 17 16.66 4.67
-1 17 -17 -4.31 3.76
-1 -17 17 -10.58 3.65
-17 -17 1 5.47 3.83
1 -17 -17 7.17 4.82
-17 17 -1 1.35 3.79
1 17 17 4.27 3.56
1 17 17 4.75 3.74
17 -17 -1 -7.45 3.61
17 -17 -1 10.04 5.11
1 -17 -17 2.59 3.7
17 -1 -17 -1.07 3.68
17 -1 -17 -4.83 3.83
17 -1 -17 3.33 3.4
-1 -17 17 23.29 5.85
-17 -1 17 13.99 3.56
-17 -1 17 12.7 5.47
-17 1 -17 -4.17 2.85
-17 1 -17 5.24 3.56
17 1 17 0.99 3.07
17 1 17 18.12 4.51
17 1 17 13.94 5.13
-1 17 -17 -0.89 3.1
-1 17 -17 0.95 3.52
17 17 1 -1.17 3.63
17 17 1 3.19 3.99
-17 -17 -3 -5.5 3.62
17 3 -17 -4.74 3.74
17 3 -17 1.36 3.91
-17 -3 -17 3.14 3.1
-17 -3 -17 -0.28 3.4
17 -17 3 3.1 3.9
17 17 -3 1.2 3.14
-17 3 17 6.8 3.4
-17 3 17 3.91 4.88
17 -3 17 -4.26 4.88
-17 17 3 0.84 2.38
-17 17 3 7.68 3.66
-17 17 3 -4.41 3.36
-3 -17 -17 -0.56 3.41
-3 -17 -17 -5.88 2.81
-3 -17 -17 -3.45 4.17
17 17 -3 3.63 4.12
17 17 -3 9.8 3.59
3 -17 17 4.4 5.51
17 -17 3 5.24 4.71
3 17 -17 -2.79 3.69
-3 17 17 4.89 3.54
3 -17 17 -3.46 4.59
3 17 -17 -2.99 3.12
3 -17 -17 1.67 4.38
3 -17 -17 -0.43 3.78
-3 -17 17 5.69 5.12
3 -17 -17 7.07 2.47
-3 17 -17 -0.42 3.18
3 17 17 -6.92 3.39
3 17 17 1.01 4.09
3 17 17 -3.1 3.17
17 -17 -3 2.52 3.66
17 -17 -3 3.66 4.78
-17 -3 17 -2.93 4.98
-3 17 -17 0.08 3
17 -3 -17 2.34 3.69
17 -3 -17 -7.07 3.54
-17 17 -3 -2.85 3.64
-17 -17 3 5.93 3.38
-17 -17 3 11.69 4.62
17 3 17 1.73 3.01
17 3 17 6.33 4.17
17 3 17 6.59 4.92
-17 3 -17 2.32 3.46
-3 -17 17 -4.04 3.74
-3 -17 17 -7.41 3.32
17 17 3 -2.92 3.78
-18 0 0 142.79 12.44
-18 0 0 147.93 12.44
-18 0 0 143.13 12.59
-18 0 0 139.62 12.49
-18 0 0 143.94 13.83
-18 0 0 136.92 13.59
0 -18 0 137.47 12.47
0 -18 0 142.09 13.45
0 -18 0 147.85 14.33
0 0 -18 154.75 12.59
0 0 -18 156.44 12.47
0 0 -18 133.29 13.44
0 0 -18 147.97 14.06
0 0 18 144.79 12.38
0 0 18 141.81 12.39
0 0 18 145.3 13.91
0 0 18 156.24 14.29
0 18 0 133.95 12.16
0 18 0 156.92 13.52
0 18 0 140.92 13.21
0 18 0 142.62 13.88
18 0 0 150.73 13.81
18 0 0 129.9 13.36
0 18 -2 104.28 8.97
0 18 -2 118 10.32
0 18 -2 104 9.76
0 18 -2 97.38 9.63
0 18 -2 111.91 10.52
0 18 2 96.18 9.18
0 18 2 106.9 10.2
0 18 2 94.41 9.96
0 18 2 93.3 10.79
2 0 -18 101.39 9.72
2 0 -18 101.74 9.53
2 0 -18 96.81 10.06
2 0 -18 102.33 10.77
2 0 18 97.81 9.04
2 0 18 108.82 9.48
2 0 18 91.98 10.78
2 0 18 100.98 11
18 -2 0 80.41 10.69
18 -2 0 84.79 10.17
18 2 0 107.36 10.45
18 2 0 107.6 10.04
0 -18 2 113.34 9.41
0 -18 2 99.21 10.17
0 -18 2 122.94 11.21
-2 0 -18 95.33 10.21
-2 0 -18 101.36 10.75
-2 0 18 99.53 9.49
-2 0 18 85 9.37
-2 0 18 99.61 10.42
-2 0 18 114.68 11.3
0 -18 -2 98.69 9.55
0 -18 -2 99.76 10.12
0 -18 -2 80.42 11.09
-18 2 0 100.71 9.73
-18 2 0 104.92 9.52
-18 2 0 81.27 10.69
-18 2 0 89.03 10.29
-18 2 0 119.85 10.07
-2 0 -18 120.4 9.53
-2 0 -18 117.6 9.42
-18 -2 0 110.44 10.18
-18 2 0 106.26 9.17
-18 2 0 108.93 9.2
-18 -2 0 104.51 10.55
-18 -2 0 104.16 9.52
-18 -2 0 95.79 9.53
0 18 -4 45.24 5.84
-18 -4 0 36.47 4.74
-18 -4 0 39.54 5.28
-18 4 0 56.33 5.56
4 0 -18 42.61 5.71
4 0 -18 41.16 4.88
0 18 4 33.17 4.76
0 18 4 34.73 5.17
4 0 -18 43.86 5.01
-4 0 -18 42.3 6
-4 0 -18 45.2 6.33
-4 0 18 32.87 4.6
-4 0 18 34.3 4.52
0 18 -4 54.01 6.3
0 18 4 38.22 5
0 18 4 38.75 4.92
4 0 18 33.93 5.77
4 0 18 41.36 5.8
18 -4 0 28.07 5.01
18 -4 0 54.06 6.58
18 4 0 43.22 5.14
18 4 0 49.73 6.8
18 4 0 51.92 5.62
-4 0 -18 60.37 5.67
-4 0 -18 55.38 5.86
4 0 -18 32.19 5.23
4 0 18 43.83 4.33
4 0 18 47.67 5.58
-4 0 18 43.71 6.11
-4 0 18 44.09 5.94
0 -18 -4 39.56 5
0 -18 -4 34.4 4.9
0 -18 -4 39.17 5.66
0 -18 -4 29.17 5.48
0 -18 4 51.69 5.42
0 -18 4 47.09 4.95
0 -18 4 39.08 5.82
0 18 -4 48.34 4.78
-18 -4 0 48.99 5.86
0 18 -4 36.29 5.29
0 18 -4 48.22 5.43
-18 4 0 48.61 5.1
-18 4 0 39.55 4.9
-18 4 0 37.62 4.52
-18 4 0 32.42 5.04
-18 4 0 26.28 5.15
-18 4 0 40.73 4.94
6 0 -18 2 2.44
6 0 -18 6.29 2.89
6 0 -18 6.58 2.95
18 6 0 5.44 2.44
18 6 0 4.89 3.36
0 -18 6 4.1 2.75
0 -18 6 2.38 2.41
0 -18 6 3.51 4.02
0 18 -6 6.77 1.97
-18 6 0 2.84 2.93
0 -18 -6 4.75 2.57
6 0 18 4.12 3.77
18 -6 0 2.82 3.17
18 -6 0 6.72 3.49
-18 6 0 6.75 2.85
-18 6 0 4.48 2.31
-18 -6 0 5.09 2.81
-18 -6 0 1.96 3.13
0 -18 -6 4.01 3.31
6 0 18 5.24 2.37
6 0 18 2.01 3.77
0 18 6 3.29 2.57
0 18 6 4.53 3.09
0 18 -6 5.18 2.41
0 18 -6 5.14 2.59
0 18 -6 5.18 2.4
0 18 6 6.1 2.23
0 18 6 0.47 2.74
-18 6 0 5.34 2.58
-6 0 -18 4.43 2.8
-6 0 -18 6.09 2.99
-6 0 -18 6.76 2.68
-6 0 -18 3.6 2.89
-6 0 18 4.41 2.64
-6 0 18 8.49 2.56
-6 0 18 6.75 3.13
-6 0 18 8.36 4.24
0 -18 -6 7.71 3.1
0 -18 -6 2.03 2.59
-18 6 0 0.61 3.15
-18 6 0 5.51 3.09
-18 6 0 3.31 2.23
-18 6 0 7.46 2.4
0 18 -8 11.02 2.68
0 18 -8 10 2.85
0 -18 8 9.14 2.8
0 18 8 10.49 2.85
0 -18 8 8.06 2.93
-8 0 18 9.18 2.76
-18 -8 0 10.33 3.13
-18 8 0 10.89 2.51
-18 8 0 9.81 3.07
-18 8 0 14.81 2.68
-18 8 0 10.28 3.49
0 18 -8 7.28 2.8
0 18 8 10.59 3.15
-8 0 -18 10.12 3.11
-8 0 -18 8.25 3.04
-8 0 -18 10.69 2.99
8 0 18 6.11 3.87
18 -8 0 7.89 3.47
0 -18 8 6.69 3.21
0 -18 8 7.07 4.09
0 18 -8 8.29 1.97
-8 0 18 10.22 3.2
-8 0 18 6.8 4.4
0 -18 -8 11.52 3.28
0 -18 -8 10.15 2.84
0 -18 -8 12.18 3.05
0 -18 -8 11.75 3.67
18 -8 0 15.36 3.92
18 8 0 11.42 3.08
18 8 0 3.87 3.3
8 0 -18 10.14 3.18
-18 8 0 6.04 2.98
-8 0 -18 11.36 2.94
8 0 18 8.02 2.48
8 0 18 7.18 3.96
0 18 8 11.6 3.33
8 0 -18 12.82 3.14
18 10 0 14.54 3.57
10 0 18 5.38 4.24
-18 10 0 10.16 3.45
10 0 -18 16.73 3.66
0 18 -10 9.71 2.13
0 18 -10 14.78 2.97
18 -10 0 11.81 3.37
18 -10 0 11.65 3.63
18 -10 0 14 4.3
10 0 18 14.45 2.85
0 18 10 19.22 3.54
-10 0 -18 12.84 3.06
-10 0 -18 11.87 3.25
-10 0 18 10.62 3.44
-10 0 18 18.45 4.7
0 -18 -10 13.64 3.71
0 -18 -10 15.79 2.97
0 -18 -10 14.35 4
0 -18 10 9.73 3.05
0 -18 10 9.36 3.66
-18 -10 0 13.14 3.19
-18 10 0 18.8 2.74
-18 10 0 9.73 3.26
18 10 0 7.82 3.62
-18 10 0 15.23 3.74
0 -18 10 8.71 4.49
10 0 -18 9.12 2.93
0 18 10 15.73 3.31
0 18 -10 17.42 3.49
0 18 -10 8.61 3.1
0 18 10 17.78 3.5
10 0 -18 16.76 3.41
-18 10 0 17.21 2.94
0 -18 12 33.68 5.31
-18 12 0 56.11 5.33
-18 12 0 57.87 6.67
-18 12 0 38.26 4.89
0 -18 12 38.99 4.53
0 18 -12 25.42 4.81
18 -12 0 37.58 4.84
0 -18 12 38.66 6.1
0 18 -12 49.16 5.52
0 18 -12 48.39 6.41
12 0 -18 33.77 4.9
-12 0 -18 41.06 5.28
0 18 12 53.94 6.25
18 12 0 32.06 5.3
18 -12 0 32.62 5.37
18 -12 0 41.39 5.85
18 12 0 55.09 6.13
12 0 -18 27.74 4.69
12 0 18 30.68 5.86
-18 -12 0 34.51 4.85
-12 0 -18 32.69 4.85
-12 0 18 34.67 4.97
-12 0 18 37.23 6.27
0 -18 -12 56.17 6.24
-18 12 0 46.19 4.9
12 0 18 41.86 5.52
12 0 18 43.4 5.33
14 0 18 84.74 8.36
0 -18 -14 101.64 9.15
0 18 -14 88.19 9.45
-18 -14 0 82.74 8.93
0 -18 14 79.75 8.25
18 -14 0 96.52 10.39
14 0 18 80.34 10.58
-14 0 -18 70.76 8.8
-18 14 0 98.77 9.73
0 18 14 106.33 9.3
-14 0 -18 79.1 8.27
-14 0 18 69.25 9.06
-14 0 18 85.33 11.32
14 0 -18 96.3 8.74
18 -14 0 75.93 8.42
0 -18 -14 108.66 9.93
14 0 -18 83.94 9.15
18 14 0 94.89 9.01
0 -18 14 82.83 8.52
0 -18 14 66.7 9.69
0 -18 14 91.9 11.07
18 14 0 66.15 9.98
14 0 18 96.35 10.07
0 18 -14 91.43 8.47
18 -14 0 79.84 9.55
-18 14 0 72.69 7.9
0 18 14 86.93 9.45
0 18 16 117.83 11.16
-16 0 -18 97.09 10.34
0 -18 -16 113.78 11.52
-16 0 18 90.73 10.4
16 0 -18 95.87 10.59
16 0 18 83.54 11.9
-18 16 0 106.62 11.08
18 16 0 103.97 10.29
-16 0 -18 101.66 9.67
-16 0 18 93.23 12.88
0 18 -16 102.88 10.92
0 -18 16 97.54 9.68
18 -16 0 109.45 12.02
-18 -16 0 107.75 10.51
16 0 -18 102.19 10
0 -18 16 135.74 13.23
0 18 -16 105.47 10.03
16 0 18 97.69 11.43
0 -18 16 102.3 9.78
0 -18 -16 122.39 10.58
0 -18 -16 109.53 10.36
0 18 16 118.02 10.67
18 -16 0 99.3 9.77
16 0 18 97.58 9.72
18 16 0 104.01 11.49
0 2 -18 87.99 11.01
-18 0 -2 103.95 10.4
2 -18 0 90.04 9.51
-18 0 -2 97.69 9.79
-18 0 -2 91.6 9.63
-2 18 0 104.84 9.93
0 2 18 106.4 10.62
0 -2 18 102.21 9.51
0 -2 18 93.87 10.69
0 2 18 107.74 9.26
0 2 -18 107.33 9.65
0 2 -18 104.8 9.51
0 2 -18 85.34 10.23
18 0 -2 97.37 10.5
18 0 2 100.3 10.77
18 0 2 113.05 10.3
0 2 18 103.82 9.33
-18 0 -2 100.24 9.3
-18 0 2 106.02 9.47
-18 0 2 97.38 10.43
-18 0 2 84.72 10.29
0 -2 -18 122.61 9.63
0 -2 -18 119.01 9.51
-18 0 -2 95.18 10.75
0 -2 -18 99.46 10.81
-18 0 2 96.98 9.47
-18 0 2 106.45 9.45
2 -18 0 112.88 11.37
2 18 0 104.63 9.08
2 18 0 99.27 10.28
2 18 0 85.22 9.81
2 18 0 117.74 10.55
-2 -18 0 119.12 9.63
-2 -18 0 125.54 11.25
0 2 18 125.89 11.05
0 -2 -18 98.88 10.11
2 -18 0 106.63 10.31
0 -2 18 90.78 11.43
-2 18 0 105 10.82
-18 0 2 98.79 10.42
-2 -18 0 92.99 10.24
-18 0 2 100.15 10.8
-2 18 0 93.33 9.07
-2 18 0 114.51 10.09
0 -2 18 91.53 9.17
-2 18 0 109.85 9.93
2 2 -18 80.48 8.11
18 2 -2 63.03 8.17
-18 -2 -2 79.36 8.5
-2 -2 -18 94.79 8.14
-18 -2 -2 71.47 8
2 18 -2 89.3 8.98
-2 2 18 88.36 8.81
2 -2 18 83.62 7.41
2 -18 2 70.29 7.69
2 -18 2 91.43 8.8
2 -18 2 83.88 9.66
-2 -2 -18 86.5 9.03
18 -2 2 67.04 9.18
18 -2 2 83.85 8.76
18 -2 2 92.9 8.56
18 2 -2 83.98 8.03
-18 2 2 72 7.73
-2 -18 -2 86.36 8.13
-18 2 2 83.89 7.92
-18 2 2 58.05 8.86
-2 2 18 103.08 9.89
-18 2 2 88.95 8.66
2 -2 18 64.59 9.88
2 2 -18 72.66 8.09
-2 -2 -18 98.17 8.06
-2 -2 -18 87.53 8.59
2 2 -18 70.11 9.33
-2 -18 -2 66.23 8.49
-18 -2 -2 75.95 8.15
2 18 -2 75.4 8.66
2 18 -2 77.43 8.02
18 2 -2 85.05 8.89
-18 2 2 81.65 7.76
2 18 -2 86.57 7.53
-2 18 2 70.77 9.2
2 -2 18 62.97 9.53
-18 -2 -2 84.81 9.15
2 -2 18 84.7 7.97
-2 -18 -2 87.86 8.39
-2 18 2 79.79 8.39
-2 18 2 64.67 7.57
-2 18 2 91.27 8.57
-2 2 18 87.11 7.95
-2 2 18 79.85 7.89
-18 -2 -2 90.98 8.8
-2 -18 -2 83.8 9.6
2 2 -18 75.4 8.42
2 18 -2 83.79 8
2 -2 -18 81.89 8.48
2 -2 -18 74.36 9.17
-2 2 -18 96.54 8.04
-2 18 -2 86.29 8.15
2 -2 -18 93.12 8.32
-18 -2 2 85.11 8.11
-2 -18 2 89.88 7.99
2 -18 -2 70.61 8.21
2 -18 -2 87.31 8.66
-2 18 -2 80.25 8.31
-18 2 -2 75.56 7.62
-18 2 -2 89.68 7.75
-18 2 -2 63.66 8.44
18 2 2 82.84 9.06
18 2 2 95.46 8.51
-2 -2 18 77.25 9.23
-18 -2 2 59.63 9.19
-18 -2 2 72.89 8.65
-18 2 -2 84.63 9.01
-18 2 -2 98.81 8.3
2 -2 -18 82.86 8.03
-2 -18 2 88.6 7.43
2 2 18 86 9.13
-2 -18 2 81.48 9.5
2 -18 -2 64.54 9.69
-18 -2 2 78.39 8.13
-2 2 -18 62.2 8.65
-2 2 -18 61.13 9.2
-2 -2 18 75.43 7.92
-2 -2 18 73.91 7.98
-18 -2 2 81.53 8.17
-2 -2 18 76.99 9.95
-2 18 -2 90.61 8.53
-2 18 -2 81.38 7.39
-18 -2 2 81.17 8.78
2 18 2 81.25 7.63
2 18 2 87.3 8.78
2 18 2 64.73 8.28
2 18 2 86.55 8.95
18 -2 -2 64.24 9.03
-18 2 -2 67.56 8.08
-18 2 -2 65.92 9.3
-2 2 -18 87.71 8.07
-2 -18 2 72.75 8.92
2 2 18 90.24 7.71
2 2 18 95.83 8
2 2 18 97.89 9.43
18 2 2 89.46 7.64
-2 18 -2 86.86 9.07
18 4 -2 45.61 5.34
4 2 -18 32.35 4.2
2 -18 4 31.98 5.33
4 2 -18 31.11 4.34
-18 -4 -2 30.85 4.7
-18 4 2 40.18 4.58
2 -18 4 29.36 4.01
-4 2 18 28.82 4.16
-4 2 18 27.04 3.92
-4 2 18 43.75 5.69
-4 2 18 36.73 5.45
-2 -18 -4 37.9 4.55
-2 -18 -4 28.11 4.16
-2 -18 -4 36.13 5.04
-2 -18 -4 24.83 4.91
2 18 -4 41.16 5.51
2 18 -4 33.46 4.54
-18 4 2 37.2 5.2
-4 -2 -18 46.97 5.25
-4 -2 -18 47.25 5.33
-4 -2 -18 41.68 5.58
4 2 -18 35.23 4.64
18 -4 2 48.74 5.79
2 18 -4 44.87 5.89
18 4 -2 35.64 4.88
-18 -4 -2 29.41 4.35
2 18 -4 37.68 4.67
-18 4 2 18.38 4.23
4 -2 18 35.62 4.4
4 -2 18 26.31 5.16
4 -2 18 30.02 5.42
-18 -4 -2 28.13 4.18
-18 -4 -2 33.53 4.6
-2 18 4 28.4 3.78
2 18 -4 48.7 4.45
4 2 -18 25.82 4.82
2 18 -4 42.84 4.36
-2 18 4 28.94 4.76
-18 4 2 27.38 3.82
18 -4 2 25 4.83
-18 4 2 32.08 3.95
-18 4 2 20.57 4.44
-2 18 4 29.88 4.31
18 -4 2 31.71 4.8
-18 4 2 32.22 4.2
-2 18 4 42.09 5.57
-4 2 -18 25.11 4.32
4 2 18 41.69 4.71
-4 2 -18 33.27 4.22
4 2 18 33.93 5.05
2 18 4 31.35 4.47
4 2 18 41.79 5.06
-18 -4 2 28 4.45
2 18 4 39.28 4.68
-18 -4 2 34.87 4.34
-4 2 -18 27.38 4.65
-4 -2 18 35.67 5.46
18 4 2 44.62 5.55
-2 -18 4 41.78 5.05
-2 -18 4 41.89 4.59
4 -2 -18 26.73 4.09
-4 -2 18 32.89 4.69
18 4 2 41.15 4.73
18 4 2 33.28 4.95
-2 18 -4 25.86 4.16
-4 -2 18 28.86 4.11
2 18 4 28.18 4.09
2 18 4 28.82 4.77
-18 4 -2 31.19 3.95
18 -4 -2 34.02 4.88
-18 4 -2 42.54 4.66
-18 4 -2 27.75 4.41
2 -18 -4 19.64 4.78
4 -2 -18 34.08 4.34
-4 2 -18 38.62 4.2
-4 2 -18 30.92 4.37
2 -18 -4 28.07 4.35
18 -4 -2 17.9 4.37
-18 4 -2 34.49 4.43
4 -2 -18 32.53 4.76
-4 -2 18 29.49 4.08
4 2 18 51.72 6.34
-2 -18 4 30.57 5.22
2 -18 -4 34.82 4.42
4 -2 -18 37.31 4.59
-2 18 -4 38.21 4.16
-18 4 -2 31.23 4.78
-18 4 -2 28.33 4.53
2 -18 -4 38.92 5.31
-2 18 -4 41.95 5.47
18 -6 2 4.8 3.34
-2 18 6 4.74 3.02
-18 -6 -2 3.82 3.01
-18 6 2 -1.08 2.58
-18 6 2 3.47 2.77
-6 -2 -18 5.72 2.61
-18 6 2 -0.82 3.01
-6 -2 -18 3.05 2.72
-18 -6 -2 5.5 2.68
18 -6 2 2.94 3.49
-6 -2 -18 6.33 2.7
-2 18 6 5.62 2.61
-6 2 18 4.78 2.47
-6 2 18 4.25 2.9
-6 2 18 5.79 4.11
6 -2 18 4.26 2.21
18 6 -2 3.29 2.8
-18 6 2 5.79 2.34
-6 -2 -18 5.67 2.95
2 -18 6 1.88 4.05
2 18 -6 6.99 1.99
2 18 -6 4.03 2.41
2 -18 6 2.19 2.53
2 -18 6 6.17 2.53
6 -2 18 4.37 3.94
6 2 -18 4.8 2.88
6 2 -18 4.84 2.91
6 2 -18 4.4 2.31
-2 -18 -6 5.38 2.56
-2 -18 -6 1.59 3.3
-2 18 6 6.53 2.29
-2 18 6 6.95 2.84
18 6 -2 2.71 3.3
6 -2 18 4.47 3.76
2 18 -6 2.81 2.22
-18 6 2 0.37 2.88
-2 -18 -6 5.64 3.08
-18 6 2 5.01 2.34
-18 6 2 3.31 2.68
-2 -18 -6 4.51 2.52
2 18 -6 5.41 2.81
2 18 -6 1.93 2.25
2 -18 -6 4.26 3.08
2 18 6 6.38 2.31
18 6 2 4.5 3.11
18 6 2 2.95 2.34
18 6 2 -3.19 3.19
2 18 6 5.11 2.56
-18 6 -2 6.17 2.7
-18 6 -2 4.09 2.18
-18 6 -2 1.39 3.13
-18 6 -2 6.12 3.21
-18 6 -2 -0.32 2.53
-6 -2 18 3.49 2.64
-6 2 -18 2.62 2.7
-6 2 -18 3.84 2.77
-2 -18 6 1.84 3.82
2 -18 -6 6.91 2.66
6 2 18 3.58 3.59
18 -6 -2 3.07 3.04
18 -6 -2 6.98 3.68
-18 -6 2 7.75 2.95
-2 -18 6 0.54 2.52
-18 6 -2 3.83 2.07
-6 2 -18 5.46 3.02
-18 -6 2 1.93 3.05
-6 -2 18 4.92 3.08
-6 -2 18 1.4 3.98
-6 2 -18 5.08 2.77
-6 2 -18 4.01 2.91
2 18 6 7.81 2.85
2 -18 -6 2.36 2.74
2 18 6 6.18 3.09
6 -2 -18 4.72 2.98
6 -2 -18 5.03 2.95
6 -2 -18 4.68 2.49
-18 6 -2 8.05 2.41
-6 -2 18 4.36 2.58
-2 18 -6 3.61 2.83
-2 18 -6 2.17 1.78
-2 -18 6 3.99 2.86
6 2 18 5 3.82
6 2 18 2.03 2.96
2 -18 -6 4.55 3.49
-2 18 -6 4.51 2.34
-2 18 -6 5.92 1.91
18 8 -2 5.94 2.89
-8 -2 -18 7.75 2.81
-2 -18 -8 7.54 2.57
-2 -18 -8 4.89 3.21
-2 18 8 5.36 3.06
-18 8 2 6.03 2.45
-8 -2 -18 3.73 2.76
-8 2 18 4.45 4.18
18 -8 2 7.39 3.31
-18 8 2 5.17 3.16
2 -18 8 4.54 2.64
2 -18 8 4.14 2.72
-18 -8 -2 8.38 2.9
-2 18 8 6.12 2.71
2 -18 8 3.94 3.22
2 -18 8 1.92 4.3
2 18 -8 7.22 1.95
2 18 -8 5.68 2.61
2 18 -8 5.26 2.97
-2 18 8 4.72 2.8
-18 8 2 2.95 2.83
-18 8 2 2.16 2.79
-2 -18 -8 7.99 2.72
-18 8 2 8.32 2.44
-18 8 2 4.77 2.99
8 -2 18 3.3 2.21
8 -2 18 3.77 3.83
8 -2 18 6.27 3.94
-8 -2 -18 4.05 2.79
-2 -18 -8 4.33 3.5
18 -8 2 5.98 3.62
18 8 -2 3.48 3.25
-8 2 18 7 2.57
-8 2 18 7.86 3.11
8 2 -18 7.01 2.97
8 2 -18 1.69 2.45
8 2 -18 4.58 2.94
-2 18 -8 3.43 2.75
-18 8 -2 4.07 2
-18 8 -2 6.55 2.36
18 -8 -2 6.19 3.73
2 18 8 6.4 2.91
-18 8 -2 4.88 3.34
2 -18 -8 8.71 2.66
-2 18 -8 7.44 1.78
18 8 2 -0.42 3.25
-2 -18 8 3.41 2.81
-2 18 -8 7.2 2.42
-18 -8 2 3.54 2.92
2 -18 -8 6.37 3.12
2 18 8 6.26 2.75
2 18 8 10.39 3.17
8 -2 -18 5.44 3.01
8 -2 -18 6.08 2.98
8 -2 -18 4.94 2.67
-8 -2 18 1.87 3.29
-8 -2 18 0.18 3.95
-8 2 -18 4.53 2.75
-8 2 -18 3.66 3
-8 2 -18 3.42 3.23
-8 2 -18 5 2.82
-8 2 -18 5.47 2.84
-18 8 -2 7.03 2.37
18 -8 -2 4.51 3.14
18 -8 -2 3.99 3.19
8 2 18 6.15 2.18
-18 8 -2 0.99 2.67
-2 -18 8 5.52 4.05
8 2 18 5.04 3.98
8 2 18 8.03 3.29
-2 18 -8 8.01 2.89
-18 8 -2 2.87 2.76
2 -18 -8 3.18 3.59
18 10 -2 3.61 3.43
10 2 -18 9.52 3.21
18 -10 2 11.42 4.11
18 10 -2 8.3 3.12
2 18 -10 9.93 2.88
-2 -18 -10 11.84 3.87
-2 18 10 6 2.96
-10 -2 -18 9.85 3.16
-18 10 2 13.28 2.82
-18 10 2 12.61 3.42
-10 -2 -18 13 3.06
10 -2 18 9.61 2.68
18 -10 2 5.8 3.61
-10 2 18 9.65 3.24
-18 10 2 9.9 3.16
-10 2 18 12.55 2.78
2 -18 10 2.93 3.58
2 -18 10 3.31 4.38
-18 10 2 5.81 2.49
2 18 -10 7.59 2.07
-2 18 10 15.43 3.3
10 2 -18 11.05 3.3
10 2 -18 5.55 2.79
10 -2 18 7.45 4.19
10 -2 18 13.88 3.97
-2 -18 -10 11.16 2.75
2 18 -10 9.34 3.25
-18 -10 -2 8.12 3.09
-10 2 18 7.74 4.51
-2 -18 -10 9.62 3.36
2 -18 -10 10.74 3.8
-10 -2 18 10.6 4.43
10 -2 -18 5.79 2.41
2 -18 -10 15.4 3.54
-2 -18 10 7.68 2.94
-2 -18 10 8.39 2.96
18 -10 -2 10.04 4.12
-2 18 -10 10.45 3.17
-10 2 -18 10.45 3.37
10 -2 -18 10.38 3.21
10 2 18 8.87 2.73
10 2 18 9.75 3.6
2 18 10 15.89 3.31
-18 10 -2 9.31 3.09
-18 -10 2 4.9 3.03
-10 2 -18 9.86 2.86
-10 2 -18 4.19 3.1
-10 2 -18 13.18 3.74
-18 10 -2 7.92 3.46
-10 2 -18 10.75 2.91
-10 -2 18 3.33 3.22
2 18 10 11.07 2.43
-2 18 -10 6.73 3.14
2 -18 -10 14.68 2.9
-18 10 -2 8.84 3.16
18 10 2 4.59 3.51
2 18 10 12.78 3.38
10 2 18 5.83 4.07
-2 -18 10 8.48 4.35
-2 18 -10 13.12 2.92
10 -2 -18 11.19 3.36
18 -10 -2 9.62 3.38
12 2 -18 35.08 4.5
-18 12 2 31.12 4.53
-2 -18 -12 32.55 4.66
18 -12 2 39.32 5.45
2 -18 12 26.43 4.15
-12 2 18 27.77 5.66
2 -18 12 27.03 5.7
2 18 -12 29.25 4.09
2 18 -12 27.95 4.51
18 12 -2 28.07 4.21
-18 12 2 26.95 3.74
18 -12 2 23.76 4.85
-12 -2 -18 30.03 4
-12 2 18 30.68 4.38
12 -2 18 23.97 5.38
12 2 -18 27.1 4.51
-2 -18 -12 43.42 5.28
12 2 -18 17.97 3.96
18 12 -2 24.75 4.75
-2 -18 -12 40.76 5.1
-2 18 12 48.89 5.74
-2 18 12 34.04 4.58
-12 -2 -18 28.17 4.31
2 -18 12 26.61 4.99
-18 -12 -2 36.84 4.64
12 -2 18 29.1 3.8
12 2 18 32.2 4.02
12 -2 -18 25.06 4.6
18 -12 -2 27.37 5.48
-18 12 -2 29.31 4.69
-2 18 -12 47.01 5.86
-2 18 -12 26.75 4.43
2 18 12 44.61 5.83
-12 -2 18 23.37 4.36
12 -2 -18 36.62 4.43
12 2 18 32.55 4.92
-18 -12 2 23.22 4.31
-12 -2 18 25.8 5.7
-12 2 -18 30.87 3.96
2 -18 -12 35.62 5.17
-18 12 -2 24.44 4.14
2 18 12 40.6 4.66
18 -12 -2 32.18 4.46
18 12 2 24.47 4.76
-2 -18 12 32.63 5.67
12 2 18 17.27 5.33
-12 2 -18 17.62 4.08
-2 18 -12 44.71 5.15
-2 -18 12 29.43 4.13
2 -18 -12 33.89 4.74
14 2 -18 63.02 7.17
-18 14 2 43.54 6.22
-2 18 14 69.49 7.64
18 14 -2 46.88 6.88
-14 -2 -18 56.52 7.26
2 18 -14 58.42 6.94
-2 -18 -14 71.83 8.09
-18 14 2 73.94 7.82
-18 14 2 68.09 7.56
-14 -2 -18 58.14 6.62
18 14 -2 58.9 7.07
-18 -14 -2 58.15 7.22
-2 -18 -14 71.13 7.64
-2 18 14 71.97 7.5
14 2 -18 62.24 7.6
-14 2 18 43.75 7.69
18 -14 2 66.9 8.5
14 -2 18 59.93 6.4
2 -18 14 41.6 7.01
2 -18 14 49.42 7.71
2 18 -14 59.1 7.67
18 -14 2 55.18 7.96
14 -2 18 37.92 7.28
-14 2 18 60.37 7.35
-14 -2 18 46.13 7.07
-2 18 -14 67.18 6.85
14 2 18 63.55 8.32
18 -14 -2 54.56 7
14 2 18 58.45 6.66
-2 18 -14 39.16 6.51
2 -18 -14 70.78 7.09
2 18 14 72.17 7.57
14 -2 -18 57.21 7.46
18 14 2 59.9 8.44
-18 14 -2 60.28 6.68
-18 14 -2 64.4 7.98
18 -14 -2 52.29 7.39
2 18 14 69.22 7.77
-2 18 -14 70.66 7.58
14 -2 -18 71.39 7.05
-14 2 -18 49.41 6.24
2 -18 -14 74.35 8.2
-2 -18 14 52.73 6.82
-2 -18 14 60.74 7.02
-2 -18 14 71.3 9.58
-18 -14 2 56.24 7.22
2 -18 -14 69.89 7.79
-14 -2 18 41.07 7.81
16 -2 18 67.53 7.01
18 -16 2 74.63 8.92
-2 -18 -16 79.31 8.26
-16 -2 -18 68.65 8.31
2 18 -16 71.85 7.71
16 2 -18 64.25 8.49
-2 18 16 77.85 8.08
2 18 -16 61.83 8.57
-18 -16 -2 72.06 8.2
2 -18 16 45.82 7.89
-16 -2 -18 78.92 7.44
18 -16 2 92.49 9.6
-18 16 2 51.39 6.82
2 -18 16 91.6 10.62
-2 18 16 64.69 8.53
-16 2 18 72.99 10.56
18 16 -2 61.38 7.76
18 16 -2 63.08 9.07
-2 -18 -16 87.15 9.05
16 2 -18 67.75 7.79
-18 16 2 81.99 8.64
-18 16 2 69.6 8.57
-16 2 18 71.21 8.04
16 2 18 66.7 9.14
16 2 18 44.46 8.14
16 2 18 75.27 7.47
18 -16 -2 72.28 7.73
2 -18 -16 68.14 8.36
18 16 2 64.81 9.02
2 -18 -16 73.77 7.75
-2 18 -16 82.44 7.66
-18 -16 2 65 7.95
-2 -18 16 62.75 7.59
-2 -18 16 74.17 10.41
2 18 16 71.61 8.72
16 -2 -18 68.16 8.35
16 -2 -18 74.19 7.76
16 -2 -18 47.23 7.87
-2 -18 16 69.92 7.55
-2 18 -16 85.35 8.51
2 18 16 71.3 8.34
-16 -2 18 42.96 8.51
-18 16 -2 77.37 8.77
18 -16 -2 69.64 9.74
2 -18 -16 73.69 9.26
-18 0 4 48.45 5.44
-18 0 4 37.33 4.46
-4 18 0 32.97 4.53
-4 18 0 44.78 5.87
-4 18 0 46.06 5.37
-4 18 0 30.11 5.25
0 -4 -18 45.64 5.42
0 -4 18 36.63 4.49
0 -4 18 30.36 5.37
0 -4 18 31.04 5.79
0 4 -18 40.14 4.6
0 4 -18 38.91 4.53
-4 -18 0 33.89 5.31
0 4 -18 26.84 4.96
0 4 18 46.17 4.9
0 4 18 49.24 5.16
0 4 18 50.57 6.06
0 4 18 59.28 7.16
4 -18 0 33.52 4.47
4 -18 0 28.52 5.47
4 18 0 49.89 4.85
4 18 0 33.81 4.79
4 18 0 29.56 4.25
4 18 0 49.63 6.19
18 0 -4 44.73 5.43
18 0 -4 35.25 4.92
18 0 -4 21.88 4.49
0 4 -18 29.27 4.61
18 0 4 48.55 4.72
-18 0 -4 45.85 6.15
-18 0 4 32.54 4.5
-18 0 4 28.75 4.58
-18 0 4 34.05 5.18
-18 0 4 33.33 4.91
-18 0 -4 32.27 4.3
-18 0 -4 33.29 4.81
0 -4 -18 53.63 5.75
-4 -18 0 49.08 5.55
0 -4 -18 50.31 5.46
-18 0 4 26.53 4.62
-18 0 -4 34.65 4.27
-4 18 0 41.94 5.31
18 0 4 32.83 5.08
0 -4 -18 38.46 5.19
18 0 4 47.35 6.01
-18 2 4 32.37 4.08
-18 2 4 30.3 4.09
-18 2 4 19.83 4.33
-18 2 4 26.74 4.13
-18 2 4 28.93 4.83
-18 2 4 30.63 4.51
-2 4 18 34.98 5.29
-18 -2 -4 25.55 4.52
-18 -2 -4 30.19 4.54
-4 18 2 27.34 3.56
-4 18 2 33.68 4.32
-4 18 2 41.48 5.17
-2 -4 -18 44.74 5.25
-4 18 2 26.5 4.54
-2 4 18 38.04 4.69
-2 4 18 30.42 3.87
-2 4 18 34.26 4.54
-18 2 4 32.32 4.03
-2 -4 -18 29.72 4.6
2 4 -18 22.69 4.66
4 18 -2 36.11 4.42
4 18 -2 29.13 4.41
4 18 -2 35.28 4.33
4 18 -2 42.45 5.7
-4 18 2 28.18 4.14
-18 -2 -4 40.19 4.8
-4 -18 -2 33.25 4.02
4 -18 2 28.65 4.07
4 -18 2 31.58 5.32
4 18 -2 40.66 4.51
18 -2 4 24.43 4.77
18 -2 4 34.28 4.72
18 2 -4 28.47 4.1
18 2 -4 31.3 4.45
-4 -18 -2 37.98 4.44
-4 -18 -2 35.81 5.13
2 4 -18 28.8 4.27
-2 -4 -18 35.58 4.33
2 4 -18 35.57 4.31
2 -4 18 30.89 3.75
2 -4 18 24.75 4.93
2 -4 18 22.57 5.28
2 4 -18 27.66 4.07
2 -4 -18 31.56 4.77
-2 4 -18 23.98 4.59
4 18 2 41.48 4.57
18 2 4 30.29 4.02
4 18 2 25.8 3.88
2 -4 -18 43.37 5.21
2 -4 -18 40.05 5.11
-4 -18 2 42.15 5.17
-4 -18 2 39.96 4.52
-4 -18 2 32.5 5.08
4 18 2 33.98 4.39
-4 18 -2 43.28 5.39
-2 -4 18 29.73 3.87
-18 2 -4 23.1 4.51
-4 18 -2 36.46 4.99
-18 -2 4 29.65 4.17
-18 -2 4 33.54 4.14
-18 -2 4 26.66 4.28
-18 -2 4 26.41 4.9
-18 -2 4 27.85 4.45
-18 2 -4 28.38 3.79
18 2 4 26.05 4.57
18 -2 -4 34.11 4.22
-18 -2 4 33.88 4.31
-18 2 -4 25.68 4.32
2 4 18 39.91 4.75
-4 18 -2 25.99 4.05
2 4 18 40.95 4.88
2 4 18 28.19 4.64
2 4 18 44.37 5.24
4 -18 -2 27.17 4.21
4 -18 -2 30.04 4.34
4 -18 -2 25.19 4.95
4 18 2 42.86 5.76
-18 2 -4 33.23 3.91
18 -2 -4 26.08 4.58
2 -4 -18 31.28 4.17
18 2 4 50.16 5.67
-2 -4 18 23.99 5.4
-4 18 -2 32.67 3.98
-2 4 -18 35.21 4.06
-2 4 -18 32.56 4.2
-2 4 -18 31.54 4.33
-18 2 -4 30.65 4
-2 -4 18 25.32 4.93
18 4 -4 7.78 2.86
-18 -4 -4 5.44 3.19
-18 -4 -4 10.18 3.24
-18 -4 -4 10.03 2.83
-18 4 4 9.7 2.62
-4 4 18 10.01 4.13
-4 4 18 10.65 3.12
18 4 -4 7.58 3.52
4 18 -4 9.29 2.95
-18 4 4 5.25 2.65
-18 4 4 2.04 3.03
-4 18 4 9.81 2.34
-18 4 4 1.23 2.95
-4 18 4 10.18 2.91
-4 4 18 8.56 2.69
-4 18 4 8.1 2.74
-18 4 4 5.87 2.8
4 -18 4 8.62 2.73
4 -18 4 6.74 4.17
18 -4 4 8.15 3.59
-4 -4 -18 12.89 3.16
-4 -4 -18 7.83 3.03
4 -4 18 8.88 2.23
4 -4 18 8.37 3.97
4 -4 18 2.95 4.28
4 4 -18 9.65 3.06
4 4 -18 12.04 3.03
4 4 -18 5.81 2.74
4 18 -4 14.48 3.33
-4 -18 -4 8.94 3.21
-4 -18 -4 10.51 2.7
-4 -4 -18 11.16 3
4 18 -4 9.88 2.4
4 18 -4 9.19 2.66
-4 -18 -4 10.69 3.72
4 4 18 8.51 3.65
4 4 18 9.47 2.61
18 4 4 10.67 3.49
4 -18 -4 5.87 3.51
4 18 4 7.42 2.7
4 18 4 12.8 3.15
4 -4 -18 11.75 3.16
-4 4 -18 8.78 3.11
18 4 4 7.71 3.51
-4 4 -18 9.96 2.84
-18 4 -4 5.83 2.23
-18 4 -4 7.96 2.46
-18 4 -4 5.94 3.07
-18 4 -4 10.17 3.49
-18 4 -4 13.8 2.59
4 18 4 7.5 2.46
18 4 4 10.5 2.53
4 -18 -4 8.58 3.14
4 -18 -4 7.53 2.82
-4 -18 4 4.94 4.1
-4 4 -18 11.54 2.88
-4 18 -4 9.82 2.01
-4 18 -4 9.83 2.78
4 -4 -18 13.03 3.06
4 -4 -18 7.2 2.73
-4 -4 18 7.65 2.71
-4 -4 18 6.66 3.58
-4 -4 18 7.43 4.19
-4 4 -18 9.45 2.88
-4 4 -18 6.6 3.12
-4 -18 4 9.45 3.02
-4 -18 4 10.48 2.67
4 4 18 13.73 2.82
-18 -4 4 10.6 3.17
-18 -4 4 5.58 2.96
-18 -4 4 4.09 3.48
-18 -4 4 7.98 3.14
4 18 4 9.41 3.1
-4 4 -18 8.66 2.78
-4 18 -4 9.33 2.79
4 4 18 10.1 3.58
6 -4 18 -2.98 3.68
-6 -4 -18 2.03 2.7
-18 6 4 -0.61 2.81
6 4 -18 -0.81 2.73
-4 18 6 -1.2 2.61
-18 6 4 -4.26 2.25
-18 6 4 0.63 2.21
4 18 -6 -2.95 1.89
4 18 -6 0.57 2.31
4 18 -6 0.12 2.53
18 -6 4 0.82 3.37
6 -4 18 -0.84 4.01
-18 6 4 -3.15 2.63
-18 6 4 -2.67 2.54
-18 -6 -4 -0.75 2.62
-18 -6 -4 -0.34 3.09
-18 -6 -4 -7.73 2.86
-6 -4 -18 2.33 2.56
-6 4 18 -2.75 3.79
-4 18 6 0.97 2.43
18 6 -4 -0.88 2.52
-6 4 18 -0.06 2.19
-6 4 18 -0.12 2.87
-4 18 6 0.07 2.03
6 4 -18 -2.96 2.66
18 6 -4 -2.16 3.2
6 -4 18 -1.19 2
4 -18 6 -1.82 2.47
4 -18 6 -3.47 3.01
18 6 -4 -1.56 2.7
4 -18 6 -5.48 4.07
18 -6 4 2.48 3.45
-4 -18 -6 -0.83 2.34
-18 6 4 -1.77 2.76
-4 -18 -6 0.56 2.93
6 4 -18 -4.17 2.4
-4 -18 -6 0.01 3.23
-6 -4 -18 -2.04 2.49
-6 -4 -18 -0.05 2.78
4 -18 -6 0.35 2.88
-18 -6 4 -1.04 2.73
-18 6 -4 -3.04 2.28
6 4 18 -2.44 2.94
6 -4 -18 -0.99 2.87
18 -6 -4 -4.88 3.64
-6 4 -18 -0.06 2.44
-6 4 -18 -0.54 2.83
-6 4 -18 -1.76 2.89
6 4 18 -2.08 3.19
4 18 6 0.88 2.79
4 -18 -6 1.92 2.53
4 -18 -6 -1.02 3.37
18 6 4 2.37 2.28
-18 6 -4 0.31 1.97
18 6 4 -3.42 3.25
-18 -6 4 0.5 2.98
-4 -18 6 -3.41 2.73
-4 -18 6 -0.8 1.05
-4 -18 6 -2.02 3.8
-4 18 -6 -3.18 2.44
-4 18 -6 -2.78 2.43
4 18 6 1.27 2.42
18 -6 -4 -0.15 3.05
-18 -6 4 -5.65 3.22
-18 6 -4 -0.18 2.12
-6 4 -18 2.67 2.7
6 -4 -18 0.69 2.48
-18 6 -4 -1.62 3.25
-6 -4 18 -3.31 4.07
18 6 4 -0.76 3.26
6 4 18 -0.62 2.11
6 4 18 0.4 2.45
-18 6 -4 2.27 2.85
6 4 18 -0.97 3.45
6 -4 -18 -4.17 2.73
-6 -4 18 -2.1 2.6
-6 -4 18 -0.12 3.35
-6 4 -18 -1.73 2.67
8 4 -18 1.04 3
-8 4 18 1.45 2.31
18 8 -4 0.8 2.71
18 8 -4 3.21 3.21
18 8 -4 3.71 2.9
-18 8 4 1.53 2.98
-18 8 4 1.34 2.67
-18 -8 -4 3.2 3.18
-18 -8 -4 -1.66 2.84
-4 -18 -8 4.36 2.66
-4 -18 -8 1.94 3.45
4 18 -8 2.62 2.93
-4 18 8 4.79 2.82
18 -8 4 4.78 3.49
18 -8 4 2.7 3.6
-8 4 18 3.3 2.95
-18 -8 -4 6.27 2.92
8 -4 18 1.83 2.02
-8 -4 -18 2.64 2.69
8 -4 18 2.64 4.03
8 -4 18 10.32 4.05
8 4 -18 6.38 3.04
8 4 -18 1.31 2.43
-4 18 8 2.92 2.14
4 -18 8 1.42 3.23
4 -18 8 -0.03 4.36
4 18 -8 2.05 1.93
4 18 -8 3.41 2.56
-8 -4 -18 3.32 2.8
4 -18 8 1.36 2.68
-18 8 4 1.08 2.42
-18 8 4 7.16 3.02
-18 8 4 8.84 2.5
-18 8 4 3.31 3.03
-8 4 18 0.93 3.98
-8 -4 -18 3.19 2.8
-18 8 4 1.45 2.62
-4 -18 -8 2.63 3.15
-4 18 8 3.11 2.72
-18 8 -4 0.79 2.53
-18 8 -4 0.29 3.25
4 18 8 4.9 3.03
4 -18 -8 -4.94 3.61
-8 -4 18 3.45 3.26
-18 8 -4 7.17 2.88
-18 -8 4 3.59 2.89
-4 -18 8 2.06 2.79
-4 -18 8 7.16 2.75
4 18 8 6.52 3.18
18 8 4 -2.88 3.28
18 8 4 4.96 3.41
-4 18 -8 1 2.73
8 4 18 2.1 2.2
8 4 18 -0.55 3.11
-8 -4 18 5.53 4.24
-18 -8 4 3.96 2.96
-8 4 -18 0.71 2.88
-8 4 -18 6.57 3.22
-8 4 -18 0.24 0.75
-8 4 -18 2.09 2.79
4 18 8 1.39 3.01
8 4 18 3.2 3.93
18 -8 -4 2.82 3.16
18 -8 -4 -2.47 3.79
8 -4 -18 6.99 2.65
8 -4 -18 3.09 2.88
-4 18 -8 5.62 2.5
4 -18 -8 2.47 3.22
-4 -18 8 2.61 4.11
-18 -8 4 10.31 3.88
8 -4 -18 5.88 3.17
4 -18 -8 6.65 2.67
-4 18 -8 1.17 2.74
18 10 -4 6.45 2.85
-18 -10 -4 6.93 2.74
18 10 -4 3.52 3.15
10 4 -18 5.66 3.13
-4 -18 -10 3.09 3.36
10 -4 18 8.79 4.19
18 -10 4 3.84 3.62
18 10 -4 6.91 3.36
-18 10 4 2.17 2.69
-18 10 4 4.4 3.02
-4 18 10 2.99 2.84
-10 -4 -18 4.55 2.91
10 -4 18 8.03 4.09
-10 4 18 9.14 4.28
-4 -18 -10 1.38 3.72
18 -10 4 6.3 3.79
-18 10 4 4.86 3.13
10 4 -18 4.15 3.03
10 4 -18 0.4 2.45
-10 -4 -18 6.6 2.78
-18 -10 -4 6.23 3.41
-18 10 4 9.85 2.6
4 -18 10 -1.72 4.61
4 -18 10 4.6 3.57
4 18 -10 6.62 3.15
4 18 -10 3.31 2.03
-18 -10 -4 6.29 2.87
-18 10 4 0.31 2.36
4 18 -10 5.78 2.82
-18 10 4 3.67 3.22
-10 4 18 8.29 3.09
-4 18 10 4.48 2.99
-10 4 18 2.54 2.54
18 -10 -4 1.16 3.99
18 10 4 3.73 3.52
4 18 10 3.56 3.11
4 18 10 5.35 3.17
-10 4 -18 1.77 3.22
10 -4 -18 0.81 3.14
-10 -4 18 4.5 4.38
-4 -18 10 6.68 4.4
-10 -4 18 3.43 3.2
-10 4 -18 4.08 3.48
-18 -10 4 7.96 3.21
-18 10 -4 8.14 2.91
18 10 4 0.66 3.41
10 4 18 8.15 3.52
-4 18 -10 4.78 2.92
-18 10 -4 4.06 2.85
4 18 10 1.63 3.09
4 -18 -10 10.19 3.45
4 -18 -10 6.7 3.83
-18 10 -4 1.84 3.39
-4 -18 10 7.49 2.96
10 4 18 1.53 4.14
-4 -18 10 -1.75 2.75
-4 18 -10 3.9 2.76
-4 18 -10 8.44 2.7
-10 4 -18 7.21 3.12
-18 -10 4 6.38 4.21
18 -10 -4 5.56 3.32
10 -4 -18 1.84 3.06
10 -4 -18 6.7 2.78
-10 4 -18 4.04 2.82
-12 -4 -18 15.45 3.38
-4 18 12 19.03 3.59
-4 -18 -12 15.96 4.22
-12 -4 -18 15.07 3.6
-12 4 18 10.47 2.83
18 -12 4 16.91 4.41
18 -12 4 11.99 3.05
18 12 -4 12.46 3.3
12 4 -18 15.6 3.74
-12 4 18 17.77 3.61
-12 4 18 12.04 4.74
-18 -12 -4 15.03 3.92
-18 12 4 8.52 2.84
-18 12 4 17.95 3.62
-4 18 12 7.75 3.27
-18 12 4 16 3.77
12 -4 18 6.9 4.65
-4 -18 -12 15.38 3.66
4 -18 12 11.11 4.29
4 -18 12 11.02 4.98
4 18 -12 13.53 3.3
4 18 -12 10.48 3.69
-18 -12 -4 16.91 3.53
18 12 -4 12.55 3.97
18 12 -4 11.03 3.53
12 -4 18 17.96 4.63
12 4 -18 15.22 3.62
18 -12 4 8.81 4.07
-4 18 -12 17.1 3.19
-18 -12 4 14.46 4.78
-18 12 -4 13.94 3.32
18 -12 -4 16.88 3.8
-4 -18 12 15.01 5.16
-12 -4 18 7.07 4.94
-18 12 -4 11.93 3.88
-4 18 -12 12.03 3.22
4 -18 -12 21.8 4.46
-4 -18 12 14.05 3.58
4 18 12 17.44 3.78
4 -18 -12 17.44 3.99
-18 -12 4 7.53 3.31
12 -4 -18 16.32 3.62
12 4 18 15.81 4.06
12 -4 -18 12.15 3.42
12 -4 -18 14.34 3.72
-12 4 -18 8.07 3.48
-12 4 -18 14.83 4.15
-12 4 -18 10.6 3.25
4 18 12 18.65 3.69
18 12 4 9.21 3.91
4 18 12 20.93 3.76
4 -18 -12 17.23 3.14
12 4 18 6.92 4.63
18 -12 -4 10.6 4.7
18 14 -4 23.09 4.49
18 -14 4 23.16 5.12
18 -14 4 19.53 4.73
-18 14 4 29.5 4.22
-4 -18 -14 24.8 4.69
-18 -14 -4 23.51 4.28
14 4 -18 28.08 4.09
4 -18 14 20.72 5.74
4 18 -14 15.84 3.7
4 18 -14 19.07 4.28
-18 -14 -4 18.96 4.13
-14 4 18 22.74 3.99
18 14 -4 20.83 4.13
18 -14 4 20.33 3.49
18 14 -4 21.88 3.79
4 -18 14 21.14 5
-18 14 4 16.78 3.28
-18 14 4 14.98 4.16
-4 18 14 34.48 4.11
-14 4 18 22.96 5.42
14 -4 18 14.17 5.03
-14 -4 -18 20.07 4.15
14 4 -18 14.08 4.18
-4 18 14 17.53 3.97
-14 -4 -18 25.11 3.71
-4 -18 -14 22.18 4.27
-18 14 -4 16.12 4.21
-18 -14 4 14.69 3.85
4 -18 -14 23.6 3.51
-4 -18 14 28.12 4.33
-14 4 -18 13.21 3.9
4 18 14 26.88 4.35
-4 18 -14 24.39 3.78
4 -18 -14 24.37 4.71
-4 -18 14 22.82 4.03
4 -18 -14 16.28 4.53
4 18 14 23.07 4.14
14 -4 -18 17.66 4.24
18 14 4 19.41 4.46
-18 14 -4 19.58 3.84
-18 -14 4 25.99 5.34
18 -14 -4 27.62 4.3
14 4 18 23.29 4.63
14 4 18 10.6 5.15
-14 -4 18 14.65 5.57
14 -4 -18 21.78 3.92
-14 4 -18 18.87 4.64
4 18 14 26.94 4.63
18 -14 -4 16.62 5.2
-4 -18 14 24.75 5.62
-4 18 -14 22.06 3.75
-18 -16 -4 16.02 4.2
-18 -16 -4 26.51 4.64
-4 -18 -16 25.83 4.38
18 16 -4 18.59 3.84
16 -4 18 10.21 5.22
16 4 -18 15.96 4.36
16 4 -18 24.35 4.3
-18 16 4 26.49 4.46
-16 -4 -18 17.2 4.36
4 18 -16 13.89 3.8
-18 16 4 17.04 3.35
18 -16 4 25.01 5.4
-16 -4 -18 26.41 3.96
-4 18 16 24.67 4.33
-16 4 18 27.98 4.12
18 -16 4 16.5 4.6
-4 -18 -16 28.48 4.93
18 16 -4 20.77 4.78
4 -18 16 20.79 5.17
18 -16 4 18.72 3.44
4 18 16 27.03 4.16
18 -16 -4 15.86 5.6
4 18 16 23.71 4.84
-4 -18 16 24.99 4.24
-4 18 -16 18.24 3.82
-4 18 -16 22.63 3.95
18 -16 -4 23.64 4.45
4 -18 -16 27.5 4.91
4 -18 -16 23.93 3.51
4 -18 -16 27.94 5.05
-16 4 -18 15.96 4.06
-16 4 -18 19.24 4.86
16 -4 -18 18.68 4.41
16 -4 -18 22.54 4.25
-4 -18 16 25.97 4.27
-18 16 -4 17.1 4.29
4 18 16 22.62 4.3
16 4 18 13.78 5.36
-18 -16 4 18.65 4.01
0 -6 -18 7.42 2.78
0 -6 18 7.51 2.41
-6 18 0 6.56 2.6
-6 18 0 3.88 1.82
0 6 -18 6.22 2.7
0 -6 -18 7.74 3.03
6 -18 0 2.99 2.72
6 -18 0 0.38 3.72
-6 18 0 5.46 2.66
-6 18 0 4.25 2.64
-18 0 -6 6.2 2.29
-18 0 -6 5.11 2.92
-18 0 -6 -0.05 3.34
6 18 0 5.69 2.51
-6 -18 0 4.95 2.3
-6 -18 0 4.41 3.81
18 0 -6 2.37 2.82
18 0 -6 6.86 3.18
6 18 0 5.22 2.83
6 18 0 7.37 2.96
18 0 6 6.82 3.65
-18 0 6 5.79 3.09
0 -6 18 2.6 3.8
0 -6 18 5.57 4.29
0 6 18 3.08 3.76
-18 0 6 2.61 2.69
-18 0 6 -0.3 2.6
-18 0 6 6.45 2.59
6 18 0 6.73 2.18
0 6 18 5.08 2.41
0 6 18 7.47 2.44
0 6 18 2.84 3.11
0 6 -18 4.61 2.68
0 6 -18 4.16 2.67
0 6 -18 3.07 2.99
18 0 6 2.38 3.28
-18 0 6 6.42 2.62
-18 0 6 4.67 3.36
-18 0 6 6.1 2.84
-6 -18 0 8.6 3.07
18 0 6 4.79 2.27
-18 0 6 5.84 2.94
0 6 18 5.06 3.02
-18 -2 -6 0.39 3.21
6 18 -2 4.37 3.04
18 -2 6 -0.43 2.2
18 -2 6 3.82 3.43
18 -2 6 3.21 3.48
6 18 -2 4.56 2.41
6 18 -2 4.56 2.8
2 -6 18 4.55 2.22
-6 -18 -2 6.3 2.28
-2 6 18 4.59 3.03
2 -6 18 3.64 3.73
-6 18 2 3.87 1.95
-18 2 6 5.29 2.77
-2 6 18 2.72 2.31
6 18 -2 6.86 2.23
-2 -6 -18 4.68 2.87
2 6 -18 4.99 2.79
2 6 -18 6.12 1.99
6 -18 2 0.91 2.67
6 -18 2 2.22 3.98
18 2 -6 3.05 2.8
18 2 -6 2.56 3.03
-2 6 18 5.02 3.78
-2 6 18 5.08 2.97
-6 18 2 2.26 2.68
-6 18 2 5.52 2.67
-6 18 2 5.02 2.43
-18 -2 -6 4.73 3.08
-2 -6 -18 8.43 2.98
-18 2 6 1.58 2.55
-18 2 6 6.23 2.78
-18 2 6 5.37 3
-6 -18 -2 4.33 3.19
-6 -18 -2 5.07 2.18
2 -6 18 4.5 4.28
-6 -18 -2 3.31 3.7
-18 2 6 4.29 2.65
-18 2 6 5.39 3.68
-18 2 6 4.6 2.63
2 6 -18 7.28 2.8
-18 -2 -6 9.46 2.53
-18 2 -6 2.4 2.94
-6 -18 2 3.75 3.03
-6 -18 2 5.77 2.47
-18 2 -6 3.08 3.3
2 6 18 7.26 2.55
6 18 2 3.09 2.56
18 -2 -6 2.6 3.15
6 18 2 5.55 2.84
6 18 2 2.83 2.33
6 18 2 3.88 2.16
-6 18 -2 5.1 2.58
-18 -2 6 3.14 2.74
-18 -2 6 -1.64 2.64
-18 -2 6 7.33 3.55
-18 -2 6 3.49 2.83
2 -6 -18 6.02 3.15
-2 -6 18 2.92 4.41
-2 6 -18 5.43 2.62
2 6 18 2.57 3.65
6 -18 -2 6.49 2.95
6 -18 -2 3.56 2.72
2 6 18 4.29 3.16
-18 -2 6 3.98 2.81
-2 6 -18 7.23 3
2 -6 -18 6.09 2.74
2 6 18 6.37 2.33
-18 2 -6 -0.11 2.1
-6 -18 2 2.18 3.8
-6 18 -2 4.72 1.81
-6 18 -2 3.75 2.54
-6 18 -2 6.43 2.74
18 2 6 2.78 3.14
6 -18 -2 4.16 3.49
-18 -2 6 3.8 2.95
-2 6 -18 5.88 3
18 -2 -6 -1.22 2.81
18 2 6 7.01 3.61
-2 -6 18 0.58 3.58
-2 6 -18 3.98 2.53
-6 -18 -4 -2.71 3.43
-18 -4 -6 -9 3.08
6 18 -4 1.57 3.31
6 18 -4 0.28 2.75
18 -4 6 -0.83 3.49
18 4 -6 -0.11 2.68
-6 18 4 0.39 1.96
-6 18 4 -1.08 2.65
-6 18 4 0.77 2.48
-4 -6 -18 -1.3 2.71
-4 -6 -18 -0.61 2.87
-6 -18 -4 1.65 2.21
-18 4 6 2.25 2.7
-18 4 6 0.58 3.11
-18 -4 -6 -2.02 2.9
-18 4 6 -2.06 2.18
-18 4 6 0.09 2.76
-4 6 18 -2.26 2.22
4 -6 18 0.35 3.8
18 -4 6 1.86 2.54
4 -6 18 0.72 1.91
-4 6 18 -0.38 2.95
-4 6 18 -1.71 3.81
-4 6 18 -0.18 2.96
4 6 -18 -0.64 2.65
-18 -4 -6 0.65 2.51
6 18 -4 -1.88 2.42
-6 -18 -4 -1.06 2.98
4 -6 18 -4.07 4.04
4 6 -18 -0.5 2.77
18 4 -6 -0.85 3.23
6 18 -4 0.06 2.09
-18 4 6 -0.42 2.42
4 6 -18 0.82 2.56
-18 4 6 0.46 2.25
-18 4 6 -2.47 3.74
6 -18 4 -2.79 3.94
-6 -18 -4 -3.11 2
4 6 18 -1.4 2.36
-18 -4 6 -0.44 2.87
-6 -18 4 -0.15 0.97
-4 -6 18 -6.09 3.44
-6 -18 4 -0.14 3.72
4 6 18 -1.37 3.41
18 -4 -6 0.28 3.15
18 -4 -6 -2.91 2.72
4 -6 -18 -3.78 2.59
4 -6 -18 -0.15 2.7
-18 4 -6 -1.9 1.99
-4 -6 18 -0.86 2.45
4 6 18 -0.12 3.17
-18 -4 6 3.25 3.41
-6 -18 4 -2.12 2.83
-4 6 -18 0.63 2.83
6 -18 -4 -0.49 2.92
-18 4 -6 1.15 2.14
-18 4 -6 3.38 2.88
18 4 6 2.9 2.32
4 6 18 -0.87 2.14
18 4 6 -1.36 3.51
-4 6 -18 -2.49 2.82
6 -18 -4 -2.41 2.43
6 -18 -4 -1 3.25
6 18 4 0.43 2.74
6 18 4 -2.43 2.61
6 18 4 2.42 2.85
-4 6 -18 1.63 2.33
-4 6 -18 -0.55 2.63
18 4 6 -1.83 3.22
-6 18 -4 0.42 2.32
-6 18 -4 -2.21 2.52
-4 -6 18 1.44 4.21
-4 6 -18 0.12 2.55
-4 6 -18 -2.91 2.43
-6 18 6 -2.42 2.39
18 -6 6 4.37 3.68
6 18 -6 -1.97 2.64
-6 -6 -18 -0.95 2.54
-6 18 6 -1.53 2.01
18 6 -6 -1.42 2.74
-6 18 6 -0.12 2.47
6 18 -6 -0.07 2.05
-18 6 6 1.44 3.06
18 -6 6 -2.7 3.19
18 6 -6 -4.08 2.64
18 6 -6 -1.81 3.19
-18 6 6 -3.02 3.15
-18 6 6 -3.46 2.53
6 -6 18 -0.46 3.91
6 -6 18 1.74 4.14
18 -6 6 2.12 2.65
-18 -6 -6 -1.62 2.51
-18 -6 -6 2.44 3.02
-18 -6 -6 -6.14 2.95
-6 -6 -18 -0.72 2.7
-6 -6 -18 -1.05 2.75
6 -18 6 -4.65 3.97
6 6 -18 0.4 2.83
6 6 -18 0.75 2.42
6 18 -6 1.44 2.87
-6 -18 -6 -1.78 2.12
-18 6 6 1.17 2.2
-6 -18 -6 -1.09 3.04
-18 6 6 2.13 2.83
-6 -18 -6 -0.78 2.37
-18 6 6 -1.35 2.35
6 -18 6 -4.07 3.1
-6 6 18 -1.66 2.21
-6 6 18 -0.17 2.88
6 6 -18 -1.91 2.66
-6 -18 -6 -2.36 3.36
-6 6 18 -2.81 3.74
-18 6 6 -2.47 2.45
-18 6 -6 3.76 3.06
-18 6 -6 -2.84 3.05
6 6 18 0.59 2.44
18 6 6 -5.23 3.3
-6 -6 18 3.27 3.58
-18 -6 6 9.4 3.75
6 6 18 -1.86 2.11
-6 -18 6 -0.89 3.96
-18 -6 6 -2.22 2.95
6 18 6 -2.64 2.76
6 18 6 3 2.86
18 -6 -6 -3.46 3.06
18 -6 -6 -1.75 2.88
6 6 18 0.54 3.51
18 6 6 -2.73 3.53
-6 6 -18 -1.96 2.87
-6 -6 18 3.57 4.33
6 18 6 -1.57 2.82
-6 -18 6 -1.51 2.48
18 6 6 -1.84 2.29
-18 6 -6 -2.84 2.32
-6 -18 6 -2.47 2.98
6 6 18 -1.58 2.8
-6 6 -18 0.29 2.82
-6 6 -18 -2.22 2.78
-6 18 -6 -0.9 2.26
6 -18 -6 -0.52 3.36
-6 18 -6 -0.85 2.31
-6 18 -6 -5.59 2.62
-6 -6 18 -4.37 2.61
6 6 18 -1.29 3.26
6 -6 -18 -4.57 2.82
-6 6 -18 -3.01 2.74
6 -6 -18 -1.24 2.73
-18 -6 6 -3.69 2.79
6 -18 -6 -4.93 3.04
6 -18 -6 0.54 2.47
18 8 -6 1.69 2.81
8 6 -18 3.53 2.39
-6 -18 -8 0.09 3.16
-18 -8 -6 -0.28 2.94
8 -6 18 1.97 4.12
8 6 -18 3.07 3
8 6 -18 1.59 3
6 -18 8 -3.72 4.5
6 18 -8 2.47 2.12
6 18 -8 3.83 2.59
6 18 -8 4.5 3.06
-18 8 6 4.46 2.34
-18 8 6 -4.85 3.17
-18 8 6 -1.31 2.87
-6 18 8 3 2.64
-18 -8 -6 0.51 2.76
-18 -8 -6 1.71 3.29
8 -6 18 1.85 4.09
-6 -18 -8 0.03 2.57
-6 -18 -8 -0.86 3.37
18 8 -6 2.26 3.1
-8 6 18 -3.46 3.86
18 8 -6 1.61 3.28
6 -18 8 3.83 2.69
-8 6 18 3.65 2.42
-8 6 18 3.03 2.99
-18 8 6 -1.62 2.75
18 -8 6 5.83 3.88
-8 -6 -18 4.34 2.84
-8 -6 -18 5.46 2.83
-18 8 6 -4.47 2.5
-8 -6 -18 1.22 2.79
6 -18 8 0.45 3.49
-6 18 8 -2.01 2.15
18 -8 6 1.98 3.54
18 -8 6 4.1 2.68
-6 18 8 3.28 2.7
-6 18 -8 1.55 2.53
18 8 6 -1.05 3.74
6 18 8 -0.38 3.02
-6 -18 8 0.76 2.65
-6 18 -8 2.5 2.95
6 -18 -8 0.59 3.29
6 -18 -8 5.46 2.63
6 18 8 0.08 3.06
6 18 8 2.69 3.08
18 8 6 1.55 3.45
-18 -8 6 1.2 2.88
-18 -8 6 10.29 4.14
-8 6 -18 -2.56 2.96
-8 -6 18 5.47 4.37
8 6 18 4.04 3.23
-6 -18 8 5.53 4.28
8 -6 -18 0.96 3.15
8 -6 -18 3.26 2.96
-6 -18 8 3.06 2.93
-18 -8 6 3.82 3.19
18 -8 -6 1.36 3.37
18 -8 -6 -2.64 3.96
6 -18 -8 -0.84 3.64
-18 8 -6 7.37 3.08
-18 8 -6 1.17 3.38
-8 6 -18 0.38 2.91
-8 6 -18 0.73 3.2
8 6 18 1.65 3.84
-6 18 -8 -0.54 2.42
8 6 18 1.2 2.44
-18 8 -6 -0.93 2.56
-6 18 10 4.8 2.94
10 -6 18 0.55 3.96
10 -6 18 2.74 4.45
18 -10 6 5.7 3.82
-6 18 10 -1.59 2.71
6 -18 10 0.57 2.87
6 -18 10 0.75 3.56
6 -18 10 -4.85 4.58
6 18 -10 -1.26 2.12
6 18 -10 -2.72 2.62
18 -10 6 -0.58 2.72
18 -10 6 -3.38 3.87
-18 -10 -6 2.13 2.76
18 10 -6 1.17 3.01
18 10 -6 2.65 3.3
18 10 -6 0.24 3.35
-18 10 6 1.11 2.92
-18 -10 -6 -0.82 2.95
-18 -10 -6 4.52 3.39
-18 10 6 -0.57 2.56
6 18 -10 0.43 3.1
-10 -6 -18 2.85 2.73
-10 -6 -18 0.19 2.84
10 6 -18 2.16 3.17
10 6 -18 0.07 3.08
-6 -18 -10 -1 3.22
-10 6 18 -4.21 2.37
-10 6 18 3.88 3.12
-10 6 18 1.74 3.98
-18 10 6 -0.08 2.89
-18 10 6 -7.48 3.08
-6 -18 10 3.19 2.99
-6 -18 10 1.6 4.58
-18 10 -6 4.3 3.01
-18 10 -6 1.28 2.87
18 -10 -6 -2.87 4.12
-10 6 -18 -5.81 3.04
10 6 18 -5.93 4.1
18 10 6 -3.26 3.28
18 10 6 0.25 3.72
18 -10 -6 -0.47 3.33
-6 18 -10 0.9 2.62
-6 18 -10 1.69 2.58
6 -18 -10 0.79 3.52
6 -18 -10 1.18 3.93
-18 10 -6 -2.32 3.33
6 18 10 1.54 3.3
6 18 10 -4.93 3.19
10 -6 -18 1.22 3.25
10 -6 -18 -2.94 3.06
10 6 18 3.99 3.42
-10 -6 18 0.25 4.19
-10 6 -18 0.56 3.01
-10 6 -18 -0.18 3.41
-10 6 -18 0.09 3.3
-18 -10 6 4.45 3.24
-18 -10 6 6.81 4.57
6 18 10 1.1 3.18
10 6 18 3.71 2.52
-12 -6 -18 6.01 3.19
6 -18 12 -2.04 3.91
-6 18 12 -0.78 3.01
6 18 -12 2.68 2.99
6 18 -12 0.63 3.35
-18 -12 -6 0.81 3.53
12 6 -18 1.18 3.32
18 -12 6 5.29 4.03
-18 12 6 -5.6 2.97
-12 -6 -18 5.07 2.9
12 -6 18 5.57 4.3
6 -18 12 -3.67 4.98
12 -6 18 6.41 4.48
12 6 -18 5.44 3.33
18 -12 6 3.94 4.08
-12 6 18 2.43 3.08
-12 6 18 3.16 4.15
-18 12 6 -8.87 3.21
18 12 -6 -0.48 3.35
-18 12 6 3.29 3.12
-6 18 12 9.77 3.06
18 12 -6 2.59 3
18 12 -6 1.87 3.66
-18 -12 -6 4.09 2.95
-12 6 18 0.7 2.4
-6 -18 -12 -3.55 3.77
-18 -12 -6 0.72 3.03
-6 -18 -12 1.61 3.44
-18 12 6 0.25 2.57
6 -18 -12 5.01 3.7
12 6 18 -4.4 4.29
-12 6 -18 -0.44 3.73
18 -12 -6 -6.26 4.09
-12 6 -18 2.14 3.09
6 -18 -12 4.08 2.62
-6 -18 12 3.61 3.18
-18 -12 6 1.77 3.23
12 -6 -18 -0.35 3.11
18 12 6 2.53 3.88
18 -12 -6 2.36 3.56
-6 18 -12 0.88 2.76
-6 18 -12 2.77 2.82
12 -6 -18 -0.09 3.39
-18 12 -6 -0.66 3.54
12 6 18 2.67 3.65
-6 -18 12 5.6 4.86
-12 6 -18 -3.99 3.06
18 12 6 0.77 3.51
6 -18 -12 5.99 3.68
6 18 12 3.06 3.13
6 18 12 6.92 3.66
-18 -12 6 -6.36 4.73
-18 12 -6 7.39 3.08
-12 -6 18 -1.64 4.87
6 18 12 0.86 3.47
14 6 -18 0.65 3.32
-14 -6 -18 6.01 3.12
-18 14 6 2.75 3.25
-18 14 6 2.62 2.65
6 18 -14 0.65 3.09
-6 18 14 5.64 3.22
-18 -14 -6 0.31 3.36
-18 -14 -6 2.66 3.78
-18 -14 -6 2.41 2.92
14 6 -18 5.72 3.4
6 -18 14 -2.45 5.04
-14 6 18 7.74 3.26
6 18 -14 -4.57 3.52
-18 14 6 1.09 3.33
18 14 -6 1.94 3.07
18 -14 6 5.39 3.92
18 -14 6 3.24 4.45
-14 -6 -18 5.07 3.51
-6 -18 -14 -1.17 3.78
6 -18 14 4.12 4.34
-6 18 14 0.79 3.04
18 -14 6 4.47 2.86
14 -6 18 9.19 4.63
-6 -18 -14 0.71 3.25
18 14 -6 -0.29 3.52
14 -6 18 12.57 4.61
-14 6 18 0.9 2.52
18 14 -6 0.91 3.74
-14 6 18 6.98 4.3
-14 -6 18 -0.63 4.97
14 6 18 -6.09 4.39
18 -14 -6 5.73 3.75
-6 -18 14 4.24 3.43
18 -14 -6 -2.96 4.36
-18 14 -6 -1.04 3.45
6 18 14 2.93 3.48
-18 -14 6 2.42 3.27
18 14 6 -0.08 3.95
14 -6 -18 2.52 3.59
-18 -14 6 -0.12 4.93
-18 14 -6 11.71 3.23
-6 -18 14 6 4.85
-6 18 -14 3.47 3.06
6 18 14 4.43 3.92
6 18 14 0.99 3.05
-14 6 -18 2.78 3.16
14 6 18 1.59 3.87
-6 18 -14 4.09 3.04
14 -6 -18 -0.81 3.13
-14 6 -18 3.01 3.99
6 -18 -14 4.4 3.88
6 -18 -14 5.5 2.65
6 -18 -14 4.11 4.03
18 14 6 3.91 3.62
-8 -18 0 8.9 2.6
-18 0 8 11.46 2.77
0 8 -18 7.26 2.84
8 18 0 10.13 3.17
-18 0 8 8.4 2.57
0 -8 18 6.46 4.03
0 8 -18 11.1 2.91
-8 18 0 9.25 2.11
-8 18 0 10.98 2.97
-18 0 -8 11.16 2.49
0 8 -18 11.11 2.63
-18 0 8 10.79 3.43
-8 -18 0 12.46 3.32
0 8 18 12.35 2.65
0 8 18 9.86 3.25
0 8 18 5.73 3.82
0 8 18 10.61 3.39
8 -18 0 10.4 2.96
8 -18 0 8.36 3.9
-18 0 -8 2.06 3.43
-18 0 8 6.36 2.82
-18 0 8 9.47 4.04
18 0 -8 7.74 3.28
18 0 8 14.56 2.48
-18 0 -8 8.72 3.21
18 0 -8 4.02 3.11
18 0 8 9.91 3.9
0 -8 18 8.5 4.57
-8 18 0 11.26 2.89
-18 0 8 12.36 2.94
0 -8 -18 12.89 3.21
0 -8 -18 16.7 3.12
0 -8 18 8.71 2.51
8 18 0 10.48 2.72
18 0 8 8.98 3.54
-8 -18 0 8.19 3.91
-2 8 18 6.99 3.72
-8 -18 -2 4.85 3.66
8 -18 2 3.38 4.06
8 18 -2 2.08 3.29
-2 8 18 4.04 3.21
8 18 -2 5.42 2.59
-18 2 8 3.47 2.44
-2 8 18 5.83 3.26
-2 8 18 5.8 2.42
-18 2 8 6.14 3.32
-8 -18 -2 11.07 3.35
8 18 -2 3.24 2.95
-8 18 2 8.17 2.79
2 -8 18 2.54 3.87
2 -8 18 -0.71 4.41
-18 2 8 0.15 2.47
-18 2 8 5.62 2.79
-8 18 2 4.3 2
-8 18 2 6.9 2.85
18 -2 8 5.01 3.48
-2 -8 -18 7.65 2.91
-2 -8 -18 7.69 3.02
-18 2 8 7.18 2.61
-18 2 8 10.46 4.06
18 2 -8 2.13 2.85
8 -18 2 7.15 2.59
-18 -2 -8 14.78 2.7
-18 -2 -8 7.71 3.06
18 -2 8 6.54 2.27
2 8 -18 7.33 2.79
2 8 -18 2.2 2.62
2 -8 18 6.17 2.21
2 8 -18 7.04 2.71
-18 -2 -8 2.01 3.4
-8 -18 -2 5.86 2.4
18 -2 8 2.09 3.87
2 -8 18 3.8 2.93
18 2 -8 3.89 3.07
-8 18 -2 5.74 2.67
2 8 18 4.53 2.44
18 -2 -8 1.01 3.14
2 8 18 4.47 3.34
8 -18 -2 6.47 3.59
18 2 8 3.78 3.28
-2 8 -18 7.3 3.07
2 8 18 4.57 2.94
-2 -8 18 5.37 3.72
-8 18 -2 7.54 1.81
18 2 8 7.78 2.51
-18 -2 8 5.42 2.58
2 8 18 5.06 3.75
8 18 2 6.59 2.92
-18 2 -8 2.93 2.1
-18 -2 8 7.38 4.02
-18 -2 8 5.98 3.09
-2 8 -18 8.14 2.67
-8 -18 2 6.14 3.24
-8 -18 2 7.93 3.95
-18 2 -8 4.91 3.14
8 18 2 5.72 2.99
18 2 8 2.59 3.75
8 -18 -2 3.88 3.06
-2 8 -18 3.64 2.64
-2 8 -18 9.44 2.77
2 -8 -18 5.53 3.12
2 -8 -18 7.17 2.84
18 -2 -8 2.87 2.92
-8 18 -2 4.57 2.63
8 18 2 6.12 2.8
-18 -2 8 6.93 3.14
18 -2 -8 5.91 3.29
-2 -8 18 7.33 2.66
-2 -8 18 6.28 4.51
18 4 -8 -0.18 3.28
-18 4 8 1.93 2.34
18 4 -8 4.75 2.91
-8 -18 -4 2.77 2.37
-18 4 8 1.88 2.59
18 -4 8 3.31 3.72
4 -8 18 2.6 4.44
-8 18 4 1.27 2.15
-18 -4 -8 -0.99 3.23
-18 -4 -8 3.13 2.71
-8 18 4 3.86 2.83
-4 -8 -18 3.93 2.82
-4 -8 -18 5.6 3.08
-18 4 8 -1.2 2.19
-18 4 8 5.3 2.87
-8 -18 -4 2.7 3.08
-4 8 18 5.14 3.06
8 -18 4 2.62 4.16
8 18 -4 3.06 2.58
-4 8 18 3.69 2.23
-8 -18 -4 1.97 2.35
-8 -18 -4 -1.14 3.56
8 18 -4 1.68 2.89
4 8 -18 2.66 2.58
-4 8 18 0.13 3.65
-18 4 8 3.36 3.51
-18 -4 -8 4.6 3.12
8 18 -4 -5.69 3.38
4 8 -18 4.15 2.7
4 8 -18 0.35 2.85
-8 18 4 0.65 2.68
-18 4 8 4.92 3.99
18 4 -8 4.32 3.22
4 -8 18 1.59 3.98
8 -18 -4 4.37 2.82
8 -18 -4 2.15 3.59
18 -4 -8 5.07 3.33
8 18 4 3.64 2.85
18 4 8 1.14 3.16
8 18 4 5.29 2.88
4 8 18 2.19 2.42
4 8 18 2.09 3.15
-8 -18 4 3.39 2.58
-4 8 -18 5.61 2.96
-4 8 -18 -4.37 3
18 4 8 5.63 2.32
4 -8 -18 3.58 2.84
18 4 8 1.49 3.74
8 -18 -4 -0.68 3.15
18 -4 -8 4.65 2.82
8 18 4 0.51 2.95
-4 -8 18 2.35 2.41
-4 -8 18 1.98 3.62
-18 -4 8 3.54 3.13
4 8 18 5.02 3.52
-4 8 -18 -0.27 3.08
-8 -18 4 1.42 3.88
-8 18 -4 2.12 2.58
-8 -18 4 5.49 3.05
-4 8 -18 2.23 2.76
-18 4 -8 1.13 3.2
4 -8 -18 4.2 3.13
-18 -4 8 -0.76 2.59
-18 -4 8 9.65 3.99
4 8 18 4.73 2.81
-4 -8 18 1.47 4.49
-18 6 8 -1.06 2.48
-18 6 8 0.5 2.39
-8 -18 -6 1.09 3.1
-6 8 18 1.84 3
18 6 -8 1.72 2.84
-18 6 8 0.52 2.17
18 6 -8 1.2 3.26
8 -18 6 -2.23 3.26
8 -18 6 1.15 4.33
6 -8 18 1 3.85
-6 8 18 -0.23 3.78
-8 18 6 2.86 2.13
-8 18 6 5.12 2.77
-8 18 6 1.81 2.76
6 -8 18 3.79 4.28
-6 -8 -18 4.59 2.57
6 8 -18 2.88 3.05
-8 -18 -6 -0.46 2.55
-8 -18 -6 -0.8 3.02
-18 -6 -8 -0.58 3.03
-18 -6 -8 -0.62 3.35
-18 6 8 4.63 2.92
8 18 -6 3.31 3.12
18 6 -8 2.13 2.9
-6 8 18 -0.14 2.24
18 -6 8 1.47 3.87
18 -6 8 7.68 3.4
-18 6 8 1.69 3.22
-6 -8 -18 1.2 2.78
-6 -8 -18 2.56 2.9
8 18 -6 1.61 2.77
-8 -18 -6 1.39 3.44
-18 -6 -8 -0.64 2.65
6 8 -18 3.03 2.82
-8 -18 -6 2.6 2.37
-6 -8 18 -1.07 2.74
-6 8 -18 0.02 2.74
6 8 18 2.97 3.1
-6 8 -18 -5.56 3.11
-18 -6 8 11.87 4.28
-18 6 -8 1.14 3.22
-6 8 -18 1.42 3.03
6 8 18 5.05 2.69
-18 -6 8 -2.96 2.71
-8 -18 6 -0.07 2.88
-8 -18 6 -0.27 2.68
18 -6 -8 1.04 2.78
8 -18 -6 1.2 3.27
8 -18 -6 2.56 2.77
8 -18 -6 -1.42 3.63
6 8 18 4.94 3.61
6 8 18 1.7 2.67
-18 -6 8 5.98 3.3
18 6 8 -3.43 3.88
8 18 6 3.2 3.11
8 18 6 0.53 3.11
8 18 6 4.84 2.92
18 -6 -8 -0.15 3.32
6 -8 -18 4.68 2.89
-8 -18 6 2.29 4.04
6 -8 -18 0.75 3.07
18 6 8 1.07 2.62
-18 6 -8 3 3.12
18 6 8 2.16 3.67
-6 -8 18 1.34 4.64
-8 18 -6 0.43 2.68
-8 -18 -8 0.45 3.2
8 8 -18 2.82 3.02
-18 8 8 2.38 2.82
-18 8 8 -0.78 3.18
-18 -8 -8 4.06 3.04
8 18 -8 5.08 3.27
-8 -18 -8 0.63 3.21
18 8 -8 2.54 2.97
18 8 -8 3.55 3.41
18 8 -8 4.71 2.68
8 8 -18 4.6 3.12
8 -18 8 6.92 3.81
-8 8 18 3.14 4.03
-8 8 18 4.56 2.3
-8 8 18 4.55 3.18
-8 -8 -18 6.58 2.95
-8 18 8 11.62 3.03
18 -8 8 5.54 4.05
-18 8 8 -3.95 3.38
8 -8 18 3.69 4.1
-18 -8 -8 2.18 3.32
-18 -8 -8 -1.81 3.14
8 -18 8 2.67 2.76
-8 -18 -8 1.35 2.59
8 -18 8 1.33 4.56
-8 18 8 4.15 2.94
-8 -18 -8 4.21 2.79
-18 8 8 7.15 2.27
-8 -8 -18 4.15 2.84
8 -8 18 6.4 4.66
-8 -8 -18 3.98 3.1
18 -8 8 11.83 3.74
8 18 -8 3.75 3.05
-8 8 -18 3.64 3.12
18 -8 -8 4.47 3.46
18 8 8 0.59 3.94
-8 8 -18 4.6 3.25
-18 -8 8 10.93 4.62
-18 8 -8 9.81 3.29
-18 8 -8 7.67 2.92
-8 -8 18 6.04 4.77
8 -8 -18 4.58 3.45
-8 8 -18 9.25 3.16
8 -18 -8 6.65 3.89
-18 -8 8 10.22 3.55
-18 -8 8 4.39 2.95
18 -8 -8 8.1 2.93
8 8 18 5.5 4.06
8 -8 -18 2.22 2.96
-8 -18 8 5.11 3.07
-8 -18 8 5.35 4.64
-18 8 -8 6.27 3.64
18 8 8 6.24 3.65
8 18 8 4.35 3.35
8 18 8 4.86 3.41
-8 18 -8 2.53 2.89
-8 8 -18 -4.8 3.12
18 -8 -8 5.25 4.23
8 -18 -8 7.39 3.69
8 8 18 9.06 3.56
-8 18 -8 7.32 2.6
18 -10 8 -0.74 4.17
-8 18 10 -0.6 2.79
-10 -8 -18 -1.32 2.92
-10 -8 -18 0.56 3.18
-10 8 18 0.05 2.36
-18 -10 -8 -0.58 3.06
-18 -10 -8 0.16 3.43
10 -8 18 2.75 4.84
-10 8 18 2.93 3.12
-10 8 18 -0.73 4.19
-8 -18 -10 -4.29 3.36
-18 10 8 -1.44 2.86
8 18 -10 0.2 3.3
8 -18 10 1.69 3.73
8 -18 10 -1.46 4.87
-8 18 10 5.64 2.82
8 18 -10 -0.83 2.75
10 8 -18 2.7 3.2
8 -18 10 -0.26 2.94
18 -10 8 4.12 3.98
18 10 -8 1.57 2.9
10 -8 18 -1.95 4.15
-18 10 8 -6.62 2.99
-18 -10 -8 0.53 3.03
10 8 -18 1.4 3.08
18 10 -8 4.84 3.54
10 8 18 0.29 3.5
10 8 18 -0.88 4.05
18 -10 -8 0.58 3.47
-18 10 -8 3.84 3.18
8 -18 -10 -1.6 3.71
-18 -10 8 0.05 4.89
-18 10 -8 -0.37 3.55
-8 -18 10 1.65 3.13
-8 -18 10 2.96 4.76
18 10 8 -0.15 3.51
8 18 10 -1.06 3.38
8 18 10 0.14 3.57
10 -8 -18 -1.88 3.36
10 -8 -18 -6.6 2.97
8 -18 -10 0.77 4.08
-18 10 -8 7.18 3.15
-10 -8 18 -0.06 4.73
-10 8 -18 3.11 3.16
-10 8 -18 1.77 3.4
18 -10 -8 -6.44 4.25
-18 -10 8 9.72 3.58
18 10 8 1.98 4.08
-8 18 -10 0.96 2.61
-8 18 -10 1.41 2.92
-8 18 12 -3.63 2.96
-12 -8 -18 0.57 2.92
-12 8 18 -5.88 2.37
-18 -12 -8 0.72 3.05
-18 12 8 -4.69 2.94
18 12 -8 0.01 3.04
8 18 -12 -3.19 2.78
18 -12 8 -0.14 4.13
18 -12 8 -0.97 4.44
18 12 -8 3.36 3.81
12 -8 18 1.67 4.13
8 -18 12 0.29 5.04
-12 -8 -18 -1.8 3.27
-8 18 12 1.29 3.03
-12 8 18 -2.25 3.05
-18 12 8 -7.52 3.06
-18 -12 -8 -2.35 3.51
-18 -12 -8 -1.57 3.15
8 18 -12 -3.57 3.45
-8 -18 -12 -2.85 3.34
12 -8 18 -4.44 4.77
12 8 -18 2.28 3.3
-8 -18 -12 -9.3 3.28
8 -18 12 2.44 4.13
-12 8 18 -2.45 4.14
18 12 8 -3.17 4
-8 -18 12 1.02 3.3
8 -18 -12 1.38 3.91
18 -12 -8 -3.83 4.49
12 -8 -18 -6.82 3
8 18 12 0.39 3.38
-18 12 -8 6.49 3.26
12 8 18 -4.35 4.51
18 -12 -8 -0.43 3.6
-18 -12 8 4.89 3.48
-18 -12 8 0.09 5.07
-8 -18 12 -4.71 4.71
-8 18 -12 2.6 2.82
-12 8 -18 1.97 3.17
-12 8 -18 0.46 3.71
8 -18 -12 4.15 2.66
-18 12 -8 -3.82 3.61
12 8 18 1.95 3.67
18 12 8 1.45 3.6
-8 18 -12 2.41 3
8 -18 -12 -3.3 3.78
12 -8 -18 -1.43 3.56
8 18 12 0.55 3.66
-12 -8 18 -5.71 4.89
-18 -14 -8 -1.28 2.99
18 14 -8 -1.52 3.74
-14 8 18 -2.45 4.3
-14 8 18 -1.44 2.34
8 -18 14 1.34 4.35
-18 -14 -8 -3.83 3.67
-18 14 8 -8.17 3.26
-18 14 8 -3.6 3.02
-18 -14 -8 -1.94 3.22
14 -8 18 1.02 4.91
8 -18 14 -2.07 5.3
18 -14 8 -5.97 4.64
18 14 -8 -2.05 3.05
-8 -18 -14 -8.31 3.18
-14 -8 -18 0.19 3.38
14 8 -18 -4.91 3.21
8 18 -14 -4.44 2.93
8 18 -14 -5.25 3.69
-8 18 14 0.33 3.04
-8 18 14 -1.08 3.03
18 -14 8 -1.55 4.03
-14 -8 -18 -4.7 3.01
-8 -18 -14 -2.18 3.26
-14 8 18 1.02 3.31
14 -8 18 -2.17 4.14
18 -14 -8 -5.9 4.4
-18 -14 8 -2.93 3.35
14 8 18 1.13 3.8
8 18 14 -0.3 3.83
14 -8 -18 -5.84 3.47
18 -14 -8 -3.52 3.84
-14 8 -18 -0.47 3.24
14 -8 -18 -7.5 3
-14 -8 18 -6.53 4.98
8 18 14 -2.99 3.54
8 -18 -14 -3.73 3.97
-14 8 -18 -1.82 3.8
8 -18 -14 -0.78 4.02
18 14 8 -7.47 4.16
-18 14 -8 7.99 3.29
18 14 8 -1.5 3.64
14 8 18 -5.57 4.49
-18 14 -8 -5.37 3.28
-8 -18 14 -0.91 3.45
-8 -18 14 -3.1 4.86
-8 18 -14 -1.38 2.99
-8 18 -14 1.08 3.06
8 -18 -14 0.37 2.5
-18 -14 8 -10.47 5.08
18 0 10 17.67 2.79
0 10 -18 18.01 3.06
10 -18 0 12.23 3.19
18 0 -10 17.68 3.75
18 0 -10 8.26 3.34
0 10 18 11.38 3.55
10 -18 0 13.43 4.25
0 10 18 14.69 3.66
-18 0 10 9.79 4.59
-10 -18 0 16.56 3.65
10 18 0 15.04 3.15
0 -10 18 12.52 4.28
18 0 10 15.41 3.92
10 18 0 9.36 3.67
0 -10 -18 16.48 3.46
0 -10 -18 20.96 3.33
0 -10 18 17.39 2.9
0 -10 18 17.85 3.28
-10 -18 0 18.35 4.26
-10 18 0 11.44 3.28
-10 18 0 15.71 3.58
0 10 -18 14.87 3.15
0 10 18 18.12 4.29
0 -10 18 16.87 5.12
-18 0 -10 13.65 3.6
-18 0 10 10.86 2.8
18 0 10 11.21 4.31
10 18 0 9.57 3.52
0 10 -18 16.71 3.06
0 10 -18 13.46 3.33
0 10 18 19.04 2.82
-18 0 10 14.41 2.91
18 0 -10 13.87 3.54
-10 -18 -2 6.95 3.92
-10 -18 -2 9.62 3.42
-2 -10 -18 13.39 3.19
10 18 -2 7.98 2.85
-2 10 18 11.44 3.54
-2 10 18 7.54 4.03
10 -18 2 3.57 4.1
-2 10 18 10.96 2.56
-2 10 18 12.38 3.48
-18 -2 -10 15.72 2.77
18 2 -10 11.7 3.33
-10 18 2 6.94 2.32
2 -10 18 9.48 3.23
18 2 -10 6.55 3.15
10 18 -2 9.15 3.43
2 10 -18 10.7 2.87
2 10 -18 9.08 3.08
-10 18 2 11.08 3.08
18 -2 10 4.44 4.13
-18 -2 -10 6.14 3.2
-18 2 10 6.23 2.76
-18 2 10 8.92 2.91
-18 2 10 5.02 2.6
-18 2 10 11.57 2.8
-18 2 10 5.63 4.15
2 10 -18 8.91 3
-10 18 2 8.68 3.05
-2 -10 -18 15.11 3.31
18 -2 10 10.17 2.36
2 -10 18 5.54 2.31
2 -10 18 13.78 4.58
2 -10 18 6.18 4.06
18 -2 10 10.18 3.81
-10 -18 2 7.38 2.83
-18 2 -10 13.13 2.41
18 2 10 8.66 4.13
2 10 18 10.56 3.83
-10 -18 2 15.78 4.15
10 -18 -2 13.92 3.29
-18 -2 10 7.65 4.44
-2 10 -18 5.93 3.08
-18 2 -10 9.2 3.19
-18 -2 10 8.53 2.75
18 2 10 11.9 2.84
-2 10 -18 8.81 3.02
-2 10 -18 9.51 2.96
2 10 18 12.57 2.63
2 -10 -18 9.73 3.37
2 -10 -18 10.95 3.08
10 18 2 6.66 3.24
18 2 10 11.62 3.74
10 -18 -2 3.99 3.83
18 -2 -10 12.02 3.66
18 -2 -10 5.82 3.13
-2 -10 18 10.39 2.8
2 10 18 7.16 3.43
10 18 2 11.55 3.43
10 18 2 9.11 3.1
-2 10 -18 8.82 2.73
-10 18 -2 7.1 3.06
2 10 18 9.89 3.28
-2 -10 18 3.9 4.72
-10 -18 2 10.5 3.39
-2 -10 18 1.31 4.03
-4 10 18 4 2.33
-10 -18 -4 0.98 3.62
-10 18 4 5.78 2.88
18 4 -10 6.48 3.31
-10 18 4 3.16 2.76
-4 -10 -18 3.38 2.86
-4 -10 -18 10.24 3.15
10 18 -4 1.59 3.28
-18 -4 -10 -0.29 3.17
-10 -18 -4 3.84 3.37
-10 -18 -4 4.37 2.44
-10 18 4 4.56 2.18
10 18 -4 -4.18 3.62
4 -10 18 7.78 4
-18 4 10 2.24 2.35
-18 4 10 1.44 2.5
-18 4 10 0.58 2.67
-18 4 10 4.16 4.22
18 -4 10 0.88 4.16
18 4 -10 3.03 3.01
-18 -4 -10 10.75 2.8
4 -10 18 2.93 3.27
-4 10 18 3.18 3.95
4 -10 18 5.11 4.37
10 -18 4 6.22 3.39
10 -18 4 0.61 4.34
10 18 -4 6.85 2.79
-4 10 18 6.14 3.14
4 10 -18 2.14 2.84
-4 -10 -18 2.17 2.39
4 10 -18 3.91 2.71
-4 10 -18 2.81 3.34
18 4 10 2.1 3.99
-4 -10 18 0.15 4.9
-10 -18 4 1.33 2.7
4 -10 -18 2.29 3.22
4 -10 -18 5.38 2.93
4 10 18 5.29 2.92
10 -18 -4 4.05 3.32
-10 -18 4 10.14 4.12
-4 10 -18 0.95 2.64
-4 10 -18 1.09 2.97
4 10 18 7.32 2.66
4 10 18 1.58 2.89
10 18 4 5.76 3.03
4 10 18 2.64 3.75
-10 -18 4 6.23 3.35
10 18 4 3.4 3.21
-4 -10 18 1.32 3.83
4 10 18 6.72 3.58
-18 -4 10 5.88 4.3
-18 -4 10 -1.57 2.54
-18 4 -10 7.86 3.17
-10 18 -4 4.58 2.8
18 -4 -10 6.31 3.45
18 -4 -10 1.87 2.95
-18 -4 10 5.99 3.45
10 -18 -4 4.06 3.75
18 4 10 5.59 3.51
10 18 4 6.68 2.96
6 -10 18 0 4.08
-18 6 10 2.22 4.36
6 10 -18 0.06 2.75
-18 6 10 -1.26 2.58
6 -10 18 4.69 4.64
-6 -10 -18 0.97 2.89
-18 -6 -10 1.9 2.84
-18 -6 -10 -5.46 3.21
-6 10 18 2.14 3.08
-6 10 18 -2.68 3.93
10 -18 6 2.28 4.51
-18 6 10 -5.12 2.61
-10 -18 -6 -0.92 3.25
-10 -18 -6 -0.7 2.54
-6 -10 -18 0.21 2.8
-18 6 10 -3.14 2.97
18 6 -10 2.87 2.94
18 6 -10 3.57 3.28
-10 18 6 3.78 2.9
-10 18 6 2.09 2.84
10 18 -6 -3.89 3.32
-10 18 6 -1.46 2.28
-6 -10 -18 0.35 2.49
-10 -18 -6 -3.39 3.21
-18 6 10 0.29 2.06
10 -18 6 -0.88 3.31
-10 -18 -6 -1.47 2.59
10 18 -6 -2.24 2.78
18 -6 10 -4.83 3.87
18 6 10 1.52 4.18
-10 -18 6 0.76 3.04
-10 -18 6 1.31 4.36
6 10 18 3.22 2.57
10 -18 -6 0.68 3.49
6 -10 -18 -2.48 2.96
-18 6 -10 0.01 3.07
18 -6 -10 1.92 2.85
6 -10 -18 -0.48 2.85
6 10 18 0.15 3.03
-6 -10 18 1.7 3.04
-6 -10 18 -3.38 4.74
-6 10 -18 2.36 2.75
-6 10 -18 -5.68 3.16
-18 -6 10 9.61 4.51
10 18 6 -0.19 3.25
6 10 18 1.38 3.53
18 6 10 1.84 2.55
18 6 10 2.04 3.7
10 18 6 -1.55 3.14
18 -6 -10 -1.53 3.38
-10 18 -6 -0.43 2.76
-18 6 -10 0.73 3.38
-18 -6 10 7.72 3.36
-18 -6 10 -2.45 2.63
10 -18 -6 2.43 3.11
10 -18 -6 2.57 3.93
-18 8 10 -6.68 3.1
-10 -18 -8 -2.9 3.27
-10 -18 -8 -1.09 3.37
8 -10 18 -3.06 4.07
8 -10 18 2.2 5.09
8 10 -18 1.54 2.91
-8 -10 -18 -0.85 3.03
-8 10 18 2.21 3.11
-18 8 10 -5.08 2.73
-10 -18 -8 -2.61 2.81
18 8 -10 6.08 3.42
-8 10 18 1.59 4.2
10 18 -8 -1.58 2.93
10 18 -8 -2.82 3.42
-18 -8 -10 -3.58 3.14
-18 -8 -10 -2.21 3.3
10 -18 8 -3.19 3.73
10 -18 8 -0.93 4.74
18 -8 10 -2.43 4.11
-10 -18 -8 -0.1 2.71
-18 8 10 -6.81 3.33
18 -8 10 8.86 3.89
18 8 -10 -1.66 2.91
-8 -10 -18 -0.69 2.79
-18 8 10 1.13 2.04
10 -18 8 0.53 2.6
-10 18 8 -0.02 2.94
-10 18 8 4.55 2.91
-10 18 -8 -1.73 2.84
-10 -18 8 -0.96 3.01
18 -8 -10 1.35 3.56
18 8 10 3.43 3.8
-8 10 -18 2.68 2.8
-8 10 -18 -1.88 3.31
18 8 10 -2.47 4.25
-18 8 -10 7.15 2.76
-10 -18 8 3.89 4.57
-10 18 -8 4.1 2.61
-18 -8 10 10.79 3.65
-18 -8 10 0.55 2.89
8 -10 -18 -1.24 2.85
-18 8 -10 -0.17 3.34
8 10 18 -0.48 3.85
10 -18 -8 -1.73 3.77
8 -10 -18 1.04 3.33
10 -18 -8 1.74 3.96
10 18 8 -0.28 3.48
18 -8 -10 0.37 2.82
8 10 18 3.88 3.35
-18 8 -10 1.34 3.66
-8 -10 18 -1.65 4.86
10 18 8 4.92 3.5
-18 -8 10 6.05 4.82
10 10 -18 1.53 3.27
10 -18 10 -1.57 2.75
18 10 -10 5.96 3.64
-18 10 10 -7.93 3.04
-10 -10 -18 -2.32 2.92
-10 -18 -10 -7.05 2.87
-10 -10 -18 -0.09 3.17
10 -10 18 4.19 4.96
18 10 -10 3.38 3.06
10 -18 10 -1.09 4.91
18 -10 10 1.2 4.15
-10 10 18 -2.2 3.06
-18 10 10 -3.39 2.98
-10 -18 -10 0.78 3.42
-18 -10 -10 -5.19 3.24
-18 -10 -10 -0.66 3.39
-10 10 18 4.06 4.48
10 18 -10 1.26 3.61
18 -10 10 4.45 4.25
-10 18 10 5.89 2.99
-10 18 10 -1.58 2.98
10 18 -10 -0.11 3.27
-18 10 10 5.39 2.09
10 -10 18 -0.15 4.13
10 -18 10 -1.36 3.9
-10 -18 -10 -5.78 3.33
-10 18 -10 0.74 3.05
-10 10 -18 1.94 3.15
-10 -18 10 -0.89 4.69
10 18 10 -1.39 3.48
10 10 18 4.71 3.46
10 10 18 -1.6 4.35
10 -18 -10 -5.08 3.86
-10 18 -10 3.71 2.88
-10 -18 10 -0.37 3.3
18 -10 -10 -1.05 3.72
10 -18 -10 1.26 4.15
18 10 10 -0.51 3.69
10 -10 -18 -1.3 3.58
-18 10 -10 6.8 3.04
-10 10 -18 -0.94 3.48
10 18 10 -4.58 3.7
-18 -10 10 9.7 3.78
-18 -10 10 2.01 3.03
-18 -10 10 7.17 5.17
-18 10 -10 -0.43 3.4
-18 10 -10 1.37 3.67
-10 -10 18 -6.44 5.05
18 10 10 -2.21 4.24
18 -10 -10 -3.1 4.41
-10 -18 -12 -1.89 3.45
12 10 -18 4.67 3.25
12 -10 18 2.68 5.15
10 18 -12 2.74 3.13
18 12 -10 4.57 3.21
-18 -12 -10 2.46 3.46
12 -10 18 2.88 4.39
18 12 -10 3.24 3.91
10 -18 12 9.91 5.47
18 -12 10 4.21 4.42
-18 12 10 -2.08 3.19
-18 12 10 0.15 3.16
-12 -10 -18 4.38 3.14
-12 -10 -18 0.33 3.51
-10 -18 -12 -1.48 3.2
-10 -18 -12 -0.74 3.66
10 -18 12 2.16 4.32
10 18 -12 -1.11 3.7
-12 10 18 1.41 2.38
-12 10 18 5.97 3.41
-12 10 18 4.27 4.64
-10 18 12 3.97 3.09
-18 -12 -10 6.24 3.54
-10 18 12 8.23 3.03
18 -12 10 10.06 4.81
-12 -10 18 -2.63 5.26
-12 -10 18 -1.45 3.93
12 -10 -18 3.75 3.89
-18 -12 10 4.32 3.8
10 18 12 -0.56 3.69
18 -12 -10 -0.17 4.65
-18 12 -10 -1.29 3.73
-18 12 -10 3.81 3.43
-12 10 -18 3.03 3.66
10 -18 -12 0.93 4.12
10 -18 -12 6.37 2.81
10 -18 -12 -0.4 4.01
-12 10 -18 3.02 3.32
12 10 18 1.39 3.69
18 -12 -10 3.36 3.93
-18 -12 10 -0.45 5.46
-10 -18 12 2.23 3.6
-10 -18 12 -2.67 4.89
-10 18 -12 3.11 3.09
-10 18 -12 2.35 3.14
18 12 10 4.93 3.66
12 10 18 1.76 4.33
10 18 12 -2.4 4.04
18 12 10 -4.44 4.32
18 0 12 40.73 6
0 12 18 61.72 7.63
0 12 18 42.46 5.85
-18 0 -12 62.88 5.51
0 -12 18 60.36 7.17
0 12 18 37.65 5.81
0 12 -18 47.37 6.11
12 -18 0 50.49 5.65
12 -18 0 38.8 6.3
12 18 0 52.95 6.16
12 18 0 56.94 7.3
18 0 12 32.16 6.28
-18 0 -12 54.36 6.57
-18 0 12 36.58 5.66
-18 0 12 36.14 5.71
-18 0 12 32.4 6.69
-12 -18 0 63.5 6.69
0 -12 18 62.52 8.5
18 0 -12 38.31 5.23
0 12 -18 53.79 6.35
0 12 -18 30.11 5.26
0 12 18 53.27 5.54
18 0 -12 39.12 5.59
-12 18 0 46.64 6.67
0 -12 18 56.03 5.63
0 -12 18 45.55 6.35
-12 -18 0 60.1 7.48
-12 18 0 52.08 6.88
0 -12 -18 54.84 6.51
0 -12 -18 58.37 6.13
-2 12 18 26.42 4.53
-2 12 18 38.04 5.39
-12 18 2 35.48 4.31
-18 2 12 21.3 3.84
-12 18 2 30.21 4.58
18 -2 12 45.26 4.47
12 -18 2 27.18 5.52
-12 -18 -2 33.49 4.78
-12 18 2 26.93 4.46
-18 2 12 29.22 5.65
2 12 -18 26.54 4.14
18 2 -12 25.93 4.29
18 -2 12 25.09 4.95
18 -2 12 19.05 5.21
-18 2 12 26.26 3.98
-12 -18 -2 31.73 4.03
2 12 -18 26.15 4.2
2 -12 18 32.77 5.16
2 12 -18 32.34 4.3
12 18 -2 29.98 4.67
12 18 -2 27.47 4.11
-18 -2 -12 47.3 4.85
-18 -2 -12 29.88 4.45
2 -12 18 31.56 4.49
2 -12 18 35.1 5.76
-2 -12 -18 34.77 4.48
-2 -12 -18 44.68 5.36
-2 -12 18 31.11 3.98
18 2 12 23.33 4.92
2 12 18 33.44 4.64
-12 -18 2 38.12 5.36
12 18 2 32.95 4.48
12 18 2 29.76 4.71
12 -18 -2 28.51 5.3
18 2 12 17.91 5.18
-2 -12 18 30.37 4.29
12 -18 -2 32.3 4.31
18 -2 -12 29.25 4.27
-2 12 -18 24.33 3.99
-2 12 -18 30.73 4.27
-2 -12 18 32.11 5.12
2 12 18 42.24 5.25
18 -2 -12 36.37 4.87
2 -12 -18 31.05 4.64
-18 2 -12 33.9 4.52
2 12 18 47.44 5.03
2 12 18 24.15 4.62
-12 18 -2 26.4 4.41
-12 -18 2 37.32 4.66
-18 -2 12 27.2 5.87
-2 -12 18 29.47 5.97
12 18 2 23.09 4.67
4 -12 18 12.61 3.71
-4 -12 -18 20.06 3.61
-18 4 12 11.64 3.08
4 -12 18 16.15 4.41
-4 12 18 19.01 4.7
4 12 -18 10.88 3.27
12 -18 4 17.39 4
-4 12 18 14.59 3.67
4 12 -18 15.69 3.51
-18 4 12 11.58 2.85
-12 18 4 12.36 2.75
-18 -4 -12 14.3 3.23
-18 -4 -12 15.04 3.73
-12 -18 -4 14.28 3.45
-4 -12 -18 11.85 2.96
18 -4 12 8.19 4.61
4 -12 18 20.3 5.14
-18 4 12 12.35 4.79
-12 18 4 13.15 3.41
-12 18 4 6.62 3.26
12 -18 4 16.44 4.97
12 18 -4 12.97 3.86
18 4 -12 15.21 3.56
-18 4 12 12.27 3.12
-4 -12 -18 26.58 3.63
-12 -18 -4 14.63 3.85
12 18 -4 11.01 3.19
12 -18 -4 14.33 4.4
18 -4 -12 19.24 4.01
-4 -12 18 14.54 3.28
12 -18 -4 15.77 3.69
-12 -18 4 18.26 3.64
4 12 18 16.92 4.21
4 -12 -18 16.71 4.02
4 12 18 10.24 4.09
-12 -18 4 21.61 4.68
-12 18 -4 11.74 3.34
4 12 18 15.61 3.51
-4 12 -18 12.28 3.25
-4 12 -18 13.98 3.51
18 -4 -12 12.41 3.44
18 4 12 10.24 4.67
-18 4 -12 14.18 3.44
-18 -4 12 6.18 4.96
12 18 4 15.68 3.84
18 4 12 13.34 4.04
-4 -12 18 14.95 3.79
-18 -4 12 7 3.76
4 12 18 23.14 3.11
-4 -12 18 4.36 5.17
4 12 18 10.72 3.38
-12 -18 -6 0.53 2.68
-18 -6 -12 1.78 2.93
6 -12 18 3.78 4.21
18 6 -12 4.21 3.31
-6 -12 -18 3 3.11
-18 -6 -12 -0.04 3.47
18 -6 12 -4.77 4.31
12 -18 6 2.05 4.74
-12 -18 -6 -1.46 3.63
-12 -18 -6 2.65 3.6
6 -12 18 7.83 5.18
-12 18 6 2.81 2.98
6 12 -18 1.02 3.11
6 12 -18 5.02 3.13
-6 12 18 3.38 3.27
-6 12 18 2.08 4.4
-18 6 12 -2.44 4.4
-12 18 6 3.1 2.35
12 18 -6 1.01 2.84
12 18 -6 -2.32 3.45
12 -18 6 2.78 3.51
-6 -12 -18 3.08 2.91
-12 18 6 7.28 3.06
-6 -12 -18 -1.01 2.66
-18 6 12 0.66 2.26
18 6 -12 4.42 3.25
-18 6 12 0.57 2.71
18 6 12 4.69 3.79
18 -6 -12 2.72 3.62
-6 12 -18 4.57 3.03
-6 12 -18 1.45 3.28
-12 -18 6 7.63 4.76
-12 18 -6 1.48 3.01
6 -12 -18 -2.55 3.75
-12 -18 6 1.31 3.2
6 12 18 0.51 3.14
6 12 18 -2.15 3.8
18 -6 -12 1.92 2.96
-6 -12 18 0.8 3.55
12 -18 -6 0.44 4.01
18 6 12 -3.21 4.26
-18 -6 12 -1.39 2.54
-18 -6 12 2.33 4.76
-18 6 -12 4.92 3.36
-18 6 -12 8.06 3.74
6 12 18 2.18 2.83
6 12 18 7.48 2.73
12 18 6 0.99 3.36
12 18 6 0.41 3.36
-6 -12 18 -5.88 5.03
12 -18 -6 -0.83 3.53
-18 -6 12 4.57 3.65
-6 -12 18 6.77 2.78
-18 -8 -12 -3.35 3.31
-8 12 18 -5.15 4.31
8 -12 18 -4 4.29
8 12 -18 1.46 2.97
12 -18 8 0.33 4.93
-8 12 18 -1.94 3.11
-12 18 8 4.71 2.96
-18 -8 -12 -2.93 3.16
8 -12 18 -0.26 5.07
-18 8 12 1.3 2.12
-18 8 12 -3.03 2.85
12 -18 8 3.4 2.75
12 -18 8 -2.25 3.85
12 18 -8 -3.58 3.06
-12 18 8 -1.4 2.97
-18 8 12 -2.62 4.62
8 12 -18 3.15 3.27
18 -8 12 5.35 4.19
18 8 -12 -1.33 3.1
-8 -12 -18 -1.23 3.01
-8 -12 -18 1.14 3.22
-12 -18 -8 -3.78 3.22
12 18 -8 -2.67 3.6
-12 -18 -8 2.91 3.6
-12 -18 -8 -5.32 2.82
18 8 -12 -0.94 3.43
18 -8 12 -1.52 4.06
18 8 12 1.36 3.96
-18 8 -12 -3.42 3.38
-18 8 -12 -1.37 3.63
8 12 18 -4.68 3.93
-8 -12 18 -7.37 5.11
-8 12 -18 0.44 2.89
-8 12 -18 -1.53 3.49
-18 -8 12 6.65 5.05
8 -12 -18 -2.72 3.4
18 -8 -12 -3.6 2.89
-12 -18 8 -4.82 3.1
12 18 8 -3.56 3.54
18 -8 -12 0.76 3.67
8 12 18 0.9 3.27
-18 -8 12 2.43 3.5
-18 -8 12 -0.42 2.71
-12 -18 8 2.01 4.64
-12 18 -8 1.44 2.73
18 8 12 -2.19 4.45
-18 8 -12 8.7 2.88
12 -18 -8 -9.64 3.65
12 -18 -8 -0.23 4.1
-8 -12 18 3.81 3.79
-12 18 -8 -1.39 3.1
12 18 8 -4.63 3.47
-10 12 18 -2.45 4.5
18 -10 12 4.09 4.34
-10 12 18 1.69 3.34
-12 18 10 4.18 3.25
-10 -12 -18 2.03 3.09
-12 18 10 11.77 3.11
10 -12 18 -5.57 4.51
10 -12 18 -3.4 5.34
10 12 -18 2.17 3.2
18 -10 12 7 4.62
12 18 -10 6.13 3.9
12 -18 10 4.64 2.93
18 10 -12 2.64 3.72
-10 -12 -18 0.29 3.55
12 18 -10 -0.82 3.13
-12 -18 -10 3.89 3.66
18 10 -12 3.71 3.3
-18 -10 -12 1.16 3.36
-18 -10 -12 0.85 3.6
-18 10 12 -3.15 2.98
12 -18 10 5.96 5.36
-12 -18 -10 5.31 3.58
12 -18 10 -3.26 4.01
-12 18 -10 10.5 3.06
10 12 18 3.56 3.45
-10 -12 18 3.22 3.97
12 18 10 -3.43 3.73
-12 -18 10 2.05 5.05
18 -10 -12 3.38 3.92
-18 -10 12 -1.03 2.98
-12 -18 10 0.67 3.5
10 12 18 2.97 4.25
-18 10 -12 6.29 3.1
18 10 12 3.46 3.92
18 10 12 -4.89 4.46
-10 -12 18 -1.15 5.28
-10 12 -18 0.19 3.26
-10 12 -18 2.62 3.6
10 -12 -18 -0.81 3.86
12 -18 -10 -5.51 3.91
12 -18 -10 4.19 4.32
-18 -10 12 4.5 5.34
-18 10 -12 -2.01 3.6
-18 10 -12 3.71 3.7
12 18 10 1.37 3.93
-18 -10 12 8.89 3.84
-12 18 -10 2.65 3.34
0 -14 -18 98.89 9.1
0 -14 18 93.31 11.26
-18 0 -14 100.64 8.09
-14 18 0 77.52 9.32
14 18 0 95.94 9.82
14 18 0 58.95 9.76
0 -14 18 90.49 8.21
0 -14 18 81.2 9.15
0 -14 18 80.11 9.69
0 14 -18 89.41 8.54
-14 18 0 78.4 9.38
-14 -18 0 85.61 9.05
-18 0 14 82.68 11.56
18 0 14 77.93 10.32
0 14 -18 96.43 9.13
0 14 18 93.5 10
14 -18 0 95.14 8.31
14 -18 0 89.59 10.64
14 18 0 82.65 8.76
-18 0 14 65.65 8.56
0 14 -18 73.41 9.17
18 0 -14 84.05 9.54
18 0 -14 78.51 8.68
18 0 14 103.33 8.26
18 0 14 87.91 10.29
-18 0 -14 90.21 9.07
-18 0 14 71.46 8.56
0 -14 18 80.46 8.37
18 2 -14 60.11 8.09
-18 -2 -14 71.7 6.84
2 -14 18 84.21 9.68
2 14 -18 61.43 7.37
2 14 -18 64.5 7.75
2 14 -18 48.59 7.39
-2 14 18 66.25 8.04
18 -2 14 74.29 6.52
14 -18 2 62.79 9.02
14 18 -2 60.82 7.33
-2 14 18 76.7 8.97
-14 -18 -2 61.42 7.78
-2 -14 -18 81.09 7.17
14 18 -2 59.68 8.71
-18 2 14 54.42 7.23
-14 18 2 53.84 8.01
-14 18 2 51.39 7.99
-2 -14 -18 57.03 7.17
18 2 -14 59.63 7.53
2 -14 18 71.68 8.61
-14 18 2 64.34 6.49
-2 -14 -18 73.82 7.66
18 -2 -14 61.06 7.86
14 18 2 75.23 8.43
-2 -14 18 66.16 7.16
2 14 18 44.41 7.12
-2 14 -18 72.68 7.78
-2 -14 18 68.98 9.73
-2 -14 18 53.89 7.78
-18 2 -14 67.08 6.33
-14 -18 2 65.81 7.64
18 -2 -14 54.54 7.25
-18 2 -14 75.09 7.8
2 -14 -18 63.63 8.06
-2 -14 18 61.46 8.15
18 2 14 79.22 7.12
18 2 14 59.82 8.77
18 2 14 66.04 8.94
2 14 18 80.9 8.67
2 14 18 53.03 7.45
14 -18 -2 69.61 7.16
14 -18 -2 62.59 8.93
2 14 18 71.05 6.77
2 14 18 67.51 8.23
-18 -2 14 45.78 8.15
-2 -14 18 57.77 7.24
14 18 2 64.43 7.56
-14 18 -2 56.63 8.09
-2 14 -18 61.99 7.23
-14 -18 2 75.44 8.87
14 -18 4 25.14 5.41
14 18 -4 18.31 3.66
14 18 -4 13.51 4.44
4 14 -18 16.23 3.6
4 14 -18 21.22 4.16
18 4 -14 22.78 4.19
18 -4 14 6.94 5.03
-4 14 18 20.17 4.11
-14 -18 -4 18.78 4.32
4 -14 18 21.07 5.01
4 -14 18 28.24 5.92
-4 -14 -18 33.57 3.94
-14 18 4 22.49 3.22
14 -18 4 21.03 4.44
-18 4 14 19.59 5.24
-18 4 14 16.94 3.44
-4 -14 -18 17.95 3.5
-18 -4 -14 24.33 3.74
14 18 -4 14.06 4.63
-14 18 4 16.01 4.1
-4 -14 -18 27.49 4.11
-18 -4 -14 13.92 4.05
-14 18 4 23.93 4.02
-4 14 -18 21.34 3.97
-14 18 -4 20.02 4.14
14 -18 -4 14.64 4.99
4 14 18 26.89 4.59
-18 4 -14 22.61 4.23
4 14 18 22.87 3.82
-4 -14 18 21.82 3.71
4 14 18 16.28 4.64
18 -4 -14 22.74 4.62
18 -4 -14 21.24 3.89
-4 -14 18 20.45 4.09
-4 14 -18 19.53 3.7
18 4 14 19.44 4.55
-18 -4 14 18.09 5.56
4 -14 -18 13.87 4.29
-14 -18 4 17.58 3.98
-14 -18 4 31.86 5.33
14 -18 -4 24.17 4.19
4 14 18 18.51 4.11
14 18 4 26.96 4.32
18 4 14 20.72 5.15
-4 -14 18 16.43 5.81
-4 -14 18 15.99 3.81
14 -18 6 3.05 2.75
-14 -18 -6 1.31 3.57
18 6 -14 4.09 3.53
-14 18 6 3.66 2.67
-14 18 6 10.99 3.35
-14 18 6 -0.63 3.07
-6 -14 -18 7.2 3.13
18 -6 14 -5 4.44
-6 14 18 5.34 3.33
-18 -6 -14 3.48 3.24
6 -14 18 5.5 4.62
6 -14 18 11.98 5.47
6 14 -18 5.09 3.14
6 14 -18 1.36 3.35
14 18 -6 -0.49 3.85
-14 -18 -6 2.49 2.73
-18 6 14 -0.81 2.28
-6 -14 -18 -1.89 2.78
-18 6 14 4.06 4.73
-18 6 14 1.73 2.81
-14 -18 -6 4.5 3.73
14 -18 6 6.51 3.75
14 -18 6 0.26 4.86
-6 -14 -18 5.86 3.29
-18 -6 -14 -0.13 3.35
14 18 -6 1.46 3.04
18 6 14 0.36 4.73
18 -6 -14 1.74 3.72
-6 14 -18 6.83 2.94
-6 -14 18 3.51 3.01
-18 6 -14 7.43 3.53
-18 6 -14 -0.92 3.86
6 14 18 -1.05 4.04
6 -14 -18 -1.82 3.79
-6 -14 18 0.33 3.47
14 -18 -6 -0.41 4.2
-6 -14 18 -3.73 5.21
6 14 18 -0.03 3.42
-14 -18 6 1.66 3.19
-14 -18 6 10.72 4.78
-14 18 -6 3.01 3.34
14 18 6 1.69 3.57
14 18 6 7.14 3.75
18 6 14 -0.94 3.81
18 -6 -14 2.81 3.12
-6 14 -18 0.75 3.27
14 -18 -6 3.18 3.81
-18 -6 14 0.19 3.69
6 14 18 6.45 2.85
-18 -6 14 0.71 5.1
14 18 -8 -5.8 3.79
14 18 -8 -1.68 2.89
-8 14 18 -0.74 3.21
8 -14 18 0.37 5.36
-14 -18 -8 0.14 3.7
-14 -18 -8 -2.4 2.78
18 -8 14 -0.96 4.15
18 8 -14 -4.44 3.34
-18 -8 -14 -7.85 3.23
8 14 -18 0.76 3.07
-14 18 8 2.87 3.1
-14 18 8 -3.48 2.94
-8 -14 -18 -0.63 3.21
-8 -14 -18 -1.33 3.33
-18 8 14 -2.68 4.38
-14 -18 -8 -5.13 3.46
14 -18 8 -3.49 3.93
8 14 -18 -1.73 3.48
14 -18 8 -0.71 5.11
-18 -8 -14 -2.59 3.39
18 -8 14 -2.98 4.39
8 -14 18 -6.16 4.42
18 8 -14 -1.05 3.4
-18 8 14 -2.49 2.86
-18 8 14 -6.08 2.03
14 -18 8 0.71 2.77
-8 14 -18 -0.55 3.4
-18 -8 14 -2.46 5.12
14 18 8 -5.02 3.7
-18 8 -14 -4.66 3.42
-18 8 -14 -3.14 3.66
-18 8 -14 8 3.01
14 18 8 -11.42 3.79
14 -18 -8 -0.29 4.23
-8 -14 18 1.09 3.69
-8 -14 18 -0.99 2.8
18 8 14 -6.16 3.98
18 8 14 -1.31 4.56
-14 18 -8 -4.81 3.19
-8 14 -18 0.51 3.06
8 14 18 -4.2 3.23
8 14 18 -2.57 3.78
14 -18 -8 -7.02 3.88
-14 18 -8 4.73 2.94
18 -8 -14 -5.25 3.82
-8 -14 18 -9.9 5.06
-18 -8 14 -3.07 3.54
-18 -8 14 -2.6 2.68
8 -14 -18 -9.61 3.53
-14 -18 8 -2.95 3.25
-14 -18 8 -4.21 4.76
18 -8 -14 -3.43 2.99
0 16 -18 112.35 10.75
0 16 -18 101.14 9.93
0 16 18 103.79 11.25
16 -18 0 106.41 9.66
16 -18 0 104.4 11.8
16 18 0 108.49 10.27
16 18 0 108.76 11.44
18 0 -16 102.76 10.74
0 -16 -18 113.14 10.5
0 -16 -18 112 10.16
0 -16 18 109.89 9.76
0 -16 18 106.13 9.72
0 -16 18 104.89 11.21
0 -16 18 129.46 12.51
-18 0 16 87.22 12.96
-16 -18 0 95.71 10.34
0 16 -18 85.63 10.78
0 16 18 110.83 10.42
18 0 -16 95.76 10.18
18 0 16 118.7 9.7
18 0 16 99.77 11.69
-16 18 0 103.66 11.07
18 0 16 86.44 11.94
-18 0 -16 108.36 9.53
-18 0 -16 96.52 10.27
-18 0 16 81.25 10.11
-16 18 0 103.49 10.93
-16 -18 -2 71.3 8.31
-2 -16 -18 81.57 8.05
16 18 -2 72.69 9.03
2 16 -18 71.03 7.72
2 -16 18 64.81 8.93
18 2 -16 60.8 8.42
18 2 -16 68.52 7.88
16 18 -2 62.66 7.55
-18 -2 -16 75.92 7.31
-18 -2 -16 72.18 8.12
-2 -16 -18 73.41 7.7
-18 2 16 67.2 7.73
-18 2 16 42.98 8.35
16 -18 2 66.45 9.48
-16 18 2 72.52 8.57
-16 18 2 66.54 8.59
16 18 -2 66.82 8.64
-2 16 18 64.61 8.41
-16 18 2 52.92 6.82
2 16 -18 72.65 8.35
2 16 -18 54.95 7.78
2 -16 18 89.89 10.54
2 16 18 67.12 8.87
-2 -16 18 70.81 7.74
-2 -16 18 72.96 7.44
18 2 16 45.26 8.02
-2 -16 18 74.95 10.31
16 -18 -2 72.72 7.61
16 -18 -2 68.8 9.79
18 -2 -16 68.22 8.37
18 2 16 84.18 7.34
18 2 16 66.55 9.01
2 16 18 57.49 8.05
-18 2 -16 75.56 6.87
-18 2 -16 70.16 8.32
-2 16 -18 63.79 7.64
-2 16 -18 81.78 8.34
-2 -16 18 63.81 8.52
-16 -18 2 70.04 8.17
-16 -18 2 85.6 9.2
-16 18 -2 73.78 8.63
16 18 2 75.86 8.97
2 -16 -18 67.66 8.34
18 -2 -16 64.99 7.78
-18 -2 16 43.61 8.45
18 -4 16 7.37 5.23
-18 4 16 23.27 3.96
-16 -18 -4 18.86 4.37
-4 -16 -18 34.82 4.13
-4 16 18 23.35 4.4
-16 18 4 14.25 3.34
4 -16 18 24.58 5.2
4 16 -18 16.21 3.82
4 16 -18 20.14 4.42
16 18 -4 17.93 3.87
-18 -4 -16 24.74 3.94
-18 -4 -16 19.74 4.28
18 4 -16 24.73 4.43
-16 18 4 23.92 4.25
-4 -16 -18 26.12 4.23
16 -18 4 21.96 4.54
16 -18 4 24.56 5.5
16 18 -4 20.98 4.71
16 18 4 24.53 4.7
18 -4 -16 25.55 4.54
18 -4 -16 20.7 4.18
-4 -16 18 23.59 4.35
4 16 18 28.19 4.1
18 4 16 26.44 5.56
-4 16 -18 23.26 4.11
4 16 18 18.24 4.12
4 16 18 16.67 4.8
-18 4 -16 24.75 4.41
-18 4 -16 22.33 5.02
-4 -16 18 24.91 3.96
-4 16 -18 17.72 3.83
-16 -18 4 21.56 4.13
-16 18 -4 21.12 4.32
4 -16 -18 18.92 4.55
16 -18 -4 22.83 4.43
16 -18 -4 12.68 5.23
-19 -1 -1 0.74 2.37
-19 -1 -1 0.08 2.4
-19 -1 -1 -0.31 2.93
-19 -1 -1 -0.64 3.2
-19 -1 -1 -4.92 2.86
-1 1 19 0.9 3.31
1 -19 1 -1.08 2.75
1 -19 1 -1.09 3.84
1 19 -1 -1.76 1.89
1 19 -1 1.88 2.61
1 19 -1 0.93 2.27
1 19 -1 -0.8 2.12
1 19 -1 1.27 2.85
1 -1 19 -0.28 3.48
1 -1 19 1.31 3.88
1 1 -19 -0.5 2.72
1 1 -19 1.31 2.7
-19 1 1 1.03 2.37
-19 1 1 0.48 2.3
-19 1 1 -0.37 2.93
-19 1 1 -1.6 2.57
-19 1 1 -2.08 3.1
-19 1 1 1.09 2.79
-19 1 1 6.76 3.27
-19 1 1 2.88 2.7
-1 -19 -1 -2.73 2.91
-1 -19 -1 -2.69 3.64
-1 19 1 0.22 1.95
-1 19 1 -1.55 2.63
-1 -1 -19 -0.01 2.66
-1 -1 -19 0.57 2.66
-1 -1 -19 3.2 2.69
-1 -1 -19 1.01 2.78
1 -1 19 0.29 2.03
19 -1 1 -0.66 3.15
19 -1 1 -1.09 3.14
19 1 -1 -1.96 3.09
19 1 -1 -0.96 2.85
1 1 -19 0.14 2.65
1 1 -19 -0.81 2.97
-1 19 1 -2.17 2.35
-1 1 19 -1.78 2.24
-1 1 19 -0.37 2.42
-1 19 1 -1.21 2.34
-1 1 19 -2.83 3.74
-1 19 1 3.89 3.07
-1 19 -1 -1.21 2.52
-1 19 -1 -2.61 2.24
-1 19 -1 -0.28 2.11
-1 -19 1 0.87 2.82
-1 -19 1 0.59 3.78
-19 -1 1 4.75 2.69
-1 1 -19 -1.04 2.85
-1 19 -1 3.45 1.95
1 -19 -1 -1.33 2.86
1 -19 -1 -2.06 3.6
-19 -1 1 -0.62 2.55
-19 -1 1 0.68 2.78
1 -1 -19 -1.75 2.78
1 -1 -19 2.08 2.73
1 -1 -19 1.7 2.63
1 -1 -19 -2.66 2.8
-1 -1 19 -0.31 2.31
-19 1 -1 -2.88 2.97
-19 1 -1 -0.4 2.6
-19 1 -1 -0.04 3.29
-19 1 -1 -4.2 2.92
-1 1 -19 -0.04 2.69
-1 1 -19 -0.51 2.72
1 1 19 -0.1 2.11
1 1 19 -1.16 2.39
1 1 19 0.37 3.5
1 1 19 -1.58 3.74
-19 -1 1 -4.59 2.99
-19 -1 1 5.76 2.97
-19 -1 1 2.04 3.18
-19 1 -1 1.69 2.19
-19 1 -1 -1.67 2.21
1 19 1 -0.75 2.02
1 19 1 -1.71 2.33
1 19 1 -3.21 2.27
1 19 1 0.51 2.96
19 -1 -1 -1.48 3.11
19 -1 -1 2.34 2.88
-1 -1 19 0.87 2.72
-1 -1 19 1.05 3.57
-1 -1 19 1.67 3.89
-1 1 -19 1.17 2.75
19 1 1 -2.11 3.08
19 1 1 -1.12 3.1
1 19 -3 -0.27 2.16
-3 1 19 2.06 2.47
-3 1 19 -0.08 2.43
-3 1 19 1.59 2.97
-3 1 19 4.1 3.9
19 -3 1 -2.64 3.25
19 -3 1 2.53 3.22
19 -3 1 -1.18 3.1
19 3 -1 -3.03 3.21
19 3 -1 -1.62 2.76
3 -1 19 -0.13 3.78
3 1 -19 3.87 2.74
3 1 -19 -0.2 2.69
3 1 -19 1.07 2.49
3 1 -19 1.61 3.08
-1 19 3 0.14 2.01
-1 19 3 0.69 2.67
-1 19 3 0.74 2.41
-1 19 3 0.72 2.9
-19 -3 -1 -2.42 2.97
-19 3 1 0.1 2.13
1 -19 3 1.08 2.79
1 -19 3 -1.01 3.8
1 19 -3 1.67 1.99
1 19 -3 1.1 2.62
1 19 -3 -0.06 2.18
-1 -19 -3 0.31 2.53
-1 -19 -3 2.92 3.69
-3 -1 -19 -0.72 2.9
-3 -1 -19 2.59 2.78
-19 -3 -1 -3.9 2.94
-3 -1 -19 3.73 2.91
-19 3 1 -1.52 2.5
-19 3 1 -1.93 2.24
-19 3 1 0.26 2.87
3 -1 19 -3.71 3.53
-19 3 1 -3.86 2.95
-19 3 1 -0.1 2.8
-19 3 1 4.9 2.6
-19 -3 -1 1.22 2.57
-1 -19 -3 1.91 3.07
3 -1 -19 1.17 2.9
1 19 3 2.54 3.16
-1 -19 3 -0.65 2.84
3 1 19 -1.56 2.09
-1 -19 3 -1.54 3.97
-1 19 -3 3 1.86
-1 19 -3 1.93 2.48
-1 19 -3 0.19 2.33
-1 19 -3 -0.93 1.24
1 19 3 0.69 2.32
-3 -1 19 0.91 2.44
-3 -1 19 0.17 3.3
-3 -1 19 -0.2 3.95
-3 1 -19 0.81 2.72
-3 1 -19 0.51 2.67
3 -1 -19 0.69 2.71
1 -19 -3 -3.7 2.81
1 19 3 3.06 2.18
-19 -3 1 -0.13 2.77
-19 -3 1 1.25 2.79
-19 -3 1 1.89 3.03
-19 -3 1 2.84 2.89
-19 3 -1 -2.47 2.12
-19 3 -1 1.75 2.26
-19 3 -1 2.74 3.01
-19 3 -1 1.37 2.54
-19 3 -1 -2.37 3.27
-19 3 -1 -3.52 2.98
-19 3 -1 4.04 2.44
1 -19 -3 -2.28 3.46
3 -1 -19 -3.44 2.6
3 -1 -19 -1.47 2.98
-1 -19 3 -0.6 2.25
19 3 1 -1.35 2.93
19 3 1 -1.95 2.99
19 -3 -1 -1.24 3.27
19 -3 -1 -0.48 2.97
1 19 3 1.32 2.6
3 1 19 -0.02 3.72
3 1 19 -0.79 3.53
-3 1 -19 -0.95 2.76
-1 -19 -5 2.92 3.08
-1 -19 -5 3.82 2.54
-1 -19 -5 -1.29 3.46
-5 1 19 -1.22 4.04
-5 1 19 0.37 3.16
-5 1 19 3.19 2.4
-19 5 1 1.63 2.78
-19 5 1 -1.14 2.42
-5 -1 -19 -0.61 2.78
-5 -1 -19 4.83 2.93
-5 -1 -19 -0.29 2.84
-19 -5 -1 4.53 2.64
-19 -5 -1 -0.31 2.92
-19 -5 -1 -5.62 2.73
1 -19 5 -0.67 2.65
1 -19 5 1.07 2.42
5 -1 19 1.26 2.15
5 -1 19 -1.48 3.77
5 1 -19 1.8 2.48
1 19 -5 1.68 2.24
1 19 -5 -0.42 2.34
-19 5 1 3.17 2.34
-1 19 5 1.84 2.01
-1 19 5 -0.33 2.56
-1 19 5 3.24 2.52
-1 19 5 1.89 3.09
19 5 -1 3.91 3.49
-19 5 1 -0.06 2.48
-19 5 1 0.84 2.92
19 5 -1 2.98 2.91
-19 5 1 6.57 2.25
1 -19 5 0.86 4.09
1 19 -5 2.2 1.94
1 19 -5 3.25 2.32
1 19 -5 -0.43 2.75
19 -5 1 0.57 3.39
5 1 -19 0.35 2.75
5 -1 19 -4.14 3.94
-19 5 1 0.29 2.74
19 -5 1 0.82 3.21
5 1 -19 2.29 2.8
-5 1 -19 -0.11 2.64
-1 19 -5 0.43 2.5
-5 -1 19 1.09 3.96
1 19 5 3.11 2.13
-5 -1 19 0.85 3.12
-1 19 -5 2.29 2.54
1 19 5 4.51 2.91
5 -1 -19 1.55 2.98
5 -1 -19 1.3 2.8
5 -1 -19 2.25 2.45
-5 1 -19 2.16 2.62
-5 1 -19 1.07 2.84
-1 19 -5 -0.57 2.44
-1 -19 5 4.81 2.52
-1 -19 5 1.63 4.08
-1 19 -5 4.57 1.94
5 1 19 0.84 3.85
5 1 19 0.68 3.7
19 -5 -1 2.59 3.16
19 -5 -1 3.16 3.61
1 19 5 3.33 2.73
-5 1 -19 2.07 2.88
-1 -19 5 3.61 2.88
-5 -1 19 4.17 2.56
19 5 1 2.31 2.38
19 5 1 -1.78 3.48
19 5 1 1.75 2.98
-19 5 -1 2.03 2.15
-19 5 -1 4.56 2.4
-19 5 -1 6.39 2.94
-19 5 -1 1.96 2.43
-19 5 -1 2.01 3.07
-19 5 -1 3.99 2.66
1 19 5 2.52 2.5
1 -19 -5 0.51 2.68
1 -19 -5 1.39 3.44
-19 -5 1 2.74 2.71
1 -19 -5 2.35 3.01
7 1 -19 -0.64 0.93
-7 1 19 -0.2 2.4
19 -7 1 0.44 3.66
19 7 -1 0.5 3.02
19 7 -1 0.67 3.46
-19 7 1 -1.85 2.85
19 -7 1 1.09 3.34
7 1 -19 -0.68 2.97
7 -1 19 1.36 3.8
7 -1 19 -0.49 3.97
7 1 -19 2.58 2.87
-1 -19 -7 2.22 3.15
-1 -19 -7 1.82 2.61
-1 -19 -7 -1.92 3.45
-7 -1 -19 0.42 2.68
-7 -1 -19 -0.25 2.82
1 19 -7 -0.83 2.36
7 -1 19 -0.55 2.2
-7 -1 -19 -0.44 2.75
-19 -7 -1 1.64 2.75
-1 19 7 4.48 2.93
-1 19 7 0.47 2.53
-1 19 7 -0.55 3.09
-7 1 19 -0.47 3.04
-7 1 19 -3.14 4.15
-7 -1 -19 2.5 3.02
1 -19 7 -4.42 2.67
1 -19 7 1.09 2.53
1 -19 7 -0.54 4.12
1 19 -7 0.85 1.79
1 19 -7 2.05 2.47
1 19 -7 0.24 2.74
-19 7 1 -3.93 2.45
-19 7 1 -0.37 3.19
-19 7 1 -4.13 2.52
-19 7 1 3.23 2.29
1 19 7 1.86 3.16
7 -1 -19 2.53 3
7 -1 -19 0.83 2.41
-1 19 -7 1.01 1.79
-1 19 -7 3.3 2.94
1 -19 -7 -1.99 3.58
7 -1 -19 -0.31 2.9
19 -7 -1 2.67 3.67
-1 -19 7 -0.49 4.16
1 19 7 0 2.87
1 19 7 -0.68 2.51
-7 1 -19 0.78 2.98
-7 1 -19 -4.72 3.1
-7 1 -19 -2.74 2.82
-7 1 -19 2.02 2.82
7 1 19 -1.24 2.1
1 -19 -7 3.77 3.11
1 -19 -7 -1.85 2.57
-1 -19 7 -1.08 2.79
-1 -19 7 1.54 2.46
-7 -1 19 -1.61 3.22
-7 -1 19 2.14 4
-7 1 -19 -1.76 2.69
-19 7 -1 -1.16 2.71
-19 7 -1 -4.4 2.26
-1 19 -7 0.26 2.42
-19 7 -1 -3.58 2.58
-19 -7 1 1 2.8
-19 7 -1 1.76 2.11
-19 7 -1 3.92 2.36
-19 7 -1 -2.51 3.27
7 1 19 -0.76 3.83
7 1 19 -6.02 3.79
19 -7 -1 2.11 3.13
19 7 1 -4.9 3.37
-1 19 -7 0.06 2.5
-1 -19 -9 -0.02 3.03
1 -19 9 -3.41 2.72
-19 9 1 -5.65 2.9
19 -9 1 -1.15 3.47
19 -9 1 0.31 3.94
19 9 -1 -0.22 3.09
19 9 -1 -1.09 3.33
-1 19 9 -1.83 2.93
-1 19 9 0.69 2.61
-1 -19 -9 1.12 3.63
-19 -9 -1 1.38 2.66
-19 9 1 1.01 2.36
1 -19 9 -3.64 2.69
1 19 -9 -2.48 2.51
9 -1 19 1.43 3.87
9 -1 19 2.77 3.91
9 1 -19 -4.31 2.49
1 19 -9 0.3 1.75
1 -19 9 -2.71 4.18
1 19 -9 -0.55 2.74
9 -1 19 -3.61 2.03
-19 9 1 -1.25 2.53
-9 -1 -19 1.58 2.79
9 1 -19 -0.47 2.93
9 1 -19 0.91 3.04
-19 9 1 1.91 3.25
-19 9 1 -1.37 2.91
-9 -1 -19 -3.57 2.79
1 19 -9 3.75 2.62
-9 -1 -19 2.12 3.12
-9 1 19 1.84 4.31
-9 1 19 -0.09 3.07
1 19 9 3.76 2.76
1 19 9 0.48 3.06
-9 1 -19 2.74 2.75
-9 -1 19 1.57 4.14
-9 -1 19 -0.61 3.16
9 1 19 -3.77 3.78
-19 9 -1 -0.69 3.34
-19 9 -1 -1.34 2.77
-1 -19 9 -0.71 4.16
-1 19 -9 0.97 1.68
-1 19 -9 -4.53 2.45
-1 19 -9 -0.99 2.92
-1 19 -9 -3.74 2.6
19 9 1 -5.36 3.32
-19 9 -1 -0.37 2.37
1 -19 -9 -0.24 3.15
1 -19 -9 -1.99 2.59
1 -19 -9 -0.76 3.61
19 -9 -1 -3.42 3.06
19 -9 -1 -1.07 3.25
19 -9 -1 1.05 3.94
9 1 19 -2.48 2.19
1 19 9 4.57 3.12
-1 -19 9 -3.87 2.8
-19 -9 1 -2.06 2.81
-9 1 -19 -2.4 2.97
-19 9 -1 -2.36 2.28
-9 1 -19 -3.05 2.76
9 -1 -19 -0.26 2.91
9 -1 -19 -1.7 3.02
9 1 19 -5.38 3.24
-19 9 -1 -1.91 2.75
-19 11 1 0.37 2.61
-1 -19 -11 -1.91 3.36
-11 -1 -19 -4.57 2.75
1 -19 11 -9.91 3.64
-11 1 19 2.67 3.28
-11 1 19 -1.63 4.59
11 1 -19 -3.84 2.62
-19 11 1 2.61 3.48
19 11 -1 -3.27 3.46
1 19 -11 0.56 2.82
11 -1 19 -3.19 2.39
11 -1 19 0.17 4.14
11 1 -19 2.69 3.11
11 1 -19 1.85 3.28
1 -19 11 -1.1 4.51
-11 -1 -19 -0.08 2.98
-19 -11 -1 0.69 3.04
19 -11 1 -1.45 3.46
19 -11 1 3.84 4.15
19 11 -1 1.91 3.07
-19 11 1 -3.49 3
-1 -19 -11 -3.36 3.87
-1 19 11 1.4 2.99
19 -11 1 -6.85 3.02
1 19 -11 3.46 3.03
1 -19 11 -4.3 2.74
1 19 -11 -1.45 2.81
-1 19 11 -1.38 3.12
-19 11 1 -2.68 2.3
-11 1 -19 -4.36 2.93
-19 11 -1 0.23 3.09
11 -1 -19 -1.11 3.22
-19 -11 1 1.73 2.95
-19 11 -1 -0.65 2.29
1 19 11 -1.76 3.08
1 19 11 -2.36 3.05
-1 -19 11 6.1 4.56
11 1 19 2.59 3.56
11 1 19 2.75 4.23
19 -11 -1 -4.45 3.21
19 -11 -1 1.47 3.48
19 -11 -1 -0.81 4.27
-1 -19 11 -1.94 3
-1 -19 11 1.6 2.87
-1 -19 11 -8.5 3.39
1 19 11 -1.56 3.11
11 -1 -19 -0.86 3.07
-19 11 -1 -0.37 3.44
11 1 19 1.36 2.55
-1 19 -11 -3.54 2.9
1 -19 -11 1.21 3.35
1 -19 -11 0.15 2.74
1 -19 -11 -3.7 3.84
-1 19 -11 0.25 2.66
-11 -1 19 -3.81 3.23
-11 -1 19 -1.38 4.64
-11 1 -19 -7.49 2.75
-19 11 -1 2.81 2.49
19 11 1 -4 3.47
-1 19 -11 1.51 3.16
-1 19 13 -0.99 3.2
1 -19 13 3.67 5.02
1 19 -13 1.85 3.12
13 1 -19 0.78 3.44
-13 1 19 3.25 3.44
-13 1 19 7.16 4.75
-1 -19 -13 -1.33 3.38
-1 -19 -13 2.23 4.14
19 -13 1 8.02 4.57
19 13 -1 -1.52 3.17
-13 -1 -19 -1.17 3.1
1 19 -13 3.82 3.29
-1 19 13 0.76 3.38
-19 13 1 3.25 3.48
-19 -13 -1 -2.69 3.16
1 19 -13 -3.03 3.09
13 1 -19 4.54 3.44
13 1 -19 -5.34 2.93
-19 13 1 -7.86 2.35
19 13 -1 -4.48 3.73
-13 -1 -19 -8.29 2.9
13 -1 19 -3.59 2.7
19 -13 1 2.76 3.77
13 -1 19 2 4.68
19 13 1 -8.81 3.6
13 1 19 -7.17 2.77
-1 19 -13 -9.06 3.14
-13 1 -19 -2.99 3.22
13 -1 -19 3.07 3.25
13 -1 -19 2.61 3.47
1 19 13 -0.25 3.36
-1 -19 13 10.11 4.86
13 1 19 8.31 3.97
19 -13 -1 -4.91 3.45
19 -13 -1 8.82 4.68
13 1 19 1.47 4.49
-1 19 -13 2.18 3.31
-19 -13 1 0.29 3.09
-19 13 -1 -2.6 3.03
-19 13 -1 1.77 2.51
-19 13 -1 2.86 3.51
-13 -1 19 2.97 4.87
-1 -19 13 -6.81 3.75
13 -1 -19 -5.67 3.01
-1 19 -13 -0.28 2.94
1 19 13 1.04 3.18
1 -19 -13 1.45 3.82
-13 -1 19 -4.1 3.43
1 -19 -13 -2.38 3.62
15 1 -19 2.63 3.64
1 19 -15 -4.56 3.5
-1 -19 -15 -4.3 4.2
-19 15 1 4.6 3.71
-1 19 15 4.56 3.26
-1 19 15 3.35 3.58
19 15 -1 -5.61 4.08
1 19 -15 3.91 3.52
1 -19 15 11.17 5.21
15 1 -19 0.86 3.55
19 15 -1 0.22 3.27
1 19 -15 0.96 3.08
-19 -15 -1 -2.33 3.6
19 -15 1 5 4.11
-1 -19 -15 2.23 3.75
-15 -1 -19 -7.17 3.11
-15 -1 -19 2.91 3.21
1 -19 15 -10.28 4.43
19 -15 1 16 4.93
15 -1 19 -6.12 2.93
15 -1 19 7.94 4.9
-15 1 19 8.81 3.5
-15 1 19 4.66 5.09
15 1 -19 -2.39 3.16
15 -1 -19 -4.2 3.22
1 19 15 0.94 3.41
-15 1 -19 -3.06 3.34
19 15 1 -6.83 3.97
-1 19 -15 4.83 3.58
15 -1 -19 -2.39 3.54
1 -19 -15 2.77 2.76
15 -1 -19 2.92 3.69
-1 19 -15 -8.14 3.58
-1 -19 15 -7.65 4.25
1 -19 -15 -0.6 4.21
-1 -19 15 11.07 5.44
19 -15 -1 -8.1 3.62
-1 19 -15 -0.9 3.1
1 -19 -15 -4 3.75
-15 -1 19 7.37 3.61
-15 -1 19 4.77 5.23
15 1 19 11.13 4.26
-19 -15 1 0.94 3.31
19 -15 -1 12.22 4.92
15 1 19 3.81 5.07
15 1 19 -7.12 3
-19 15 -1 0.01 3.77
1 19 15 1.9 3.52
-3 19 1 -0.56 2.36
1 3 -19 -1.6 2.79
1 3 -19 -2.3 2.9
19 -1 3 -2.63 3.25
-1 3 19 -1.11 2.32
-1 3 19 1.38 2.93
-1 3 19 0.51 3.92
3 19 -1 0.42 2.12
3 19 -1 1.13 2.9
-19 -1 -3 3.46 2.32
-19 -1 -3 1.86 3.03
19 -1 3 2.01 3.25
3 -19 1 0.16 2.77
3 -19 1 -1.97 3.79
3 19 -1 -0.28 1.99
-1 3 19 0.19 2.11
-1 -3 -19 0.78 2.9
1 -3 19 -0.57 4.02
1 -3 19 -0.15 3.82
-19 1 3 5.51 3.33
1 -3 19 2.53 2.1
3 19 -1 -0.36 2.54
3 19 -1 -1.04 2.16
-3 19 1 -1.39 1.93
-19 1 3 -1.47 2.8
-1 -3 -19 0.66 2.69
-1 -3 -19 2.48 2.73
-3 -19 -1 1.27 2.98
-19 -1 -3 -7.29 3.01
19 1 -3 2.48 2.99
-19 1 3 0.39 2.47
-3 -19 -1 -2.39 3.69
1 3 -19 1.49 2.68
19 1 -3 -0.44 3.12
19 1 -3 -0.25 2.69
-3 19 1 1.01 2.32
-3 19 1 2.82 2.3
-19 1 3 -2.57 2.57
1 3 -19 -0.07 2.7
-19 1 3 -0.83 2.49
-19 1 3 3.75 2.9
-19 1 3 1.26 2.69
-1 -3 19 -0.07 3.58
-3 -19 1 -1.12 3.68
-3 19 -1 0.37 1.9
19 1 3 -1.91 3.14
19 1 3 -0.67 3.25
-19 1 -3 -5.59 3.03
1 -3 -19 2.35 2.68
1 -3 -19 -0.94 2.63
-19 1 -3 -1.04 3.08
-1 3 -19 -0.09 2.69
-1 3 -19 1.08 2.68
3 19 1 -0.87 2.22
3 -19 -1 3.75 3.75
-3 19 -1 -0.1 2.36
-1 3 -19 0.35 2.68
3 -19 -1 0.99 2.93
-19 -1 3 1.12 2.67
-19 -1 3 -1.69 2.56
-19 -1 3 -2.45 2.78
-19 -1 3 8.19 2.95
-19 -1 3 -0.98 3.17
19 -1 -3 -0.59 2.7
19 -1 -3 -1.98 3.15
-1 -3 19 -0.04 2.27
1 -3 -19 -1.27 2.73
-3 -19 1 -2.66 2.98
1 3 19 1.66 2.17
1 3 19 -0.81 2.35
-19 -1 3 5.9 2.83
-19 1 -3 -0.01 2.23
3 19 1 3.15 2.9
-3 19 -1 0.92 2.67
-3 19 -1 -1.29 2.21
-1 3 -19 -1.24 2.92
1 -3 -19 -0.76 2.71
-19 1 -3 -1.34 2.31
3 19 1 0.15 2.01
1 3 19 0.92 3.29
1 3 19 -1.19 3.64
-1 -3 19 -0.15 4.05
3 19 1 -0.06 2.64
19 3 -3 3.84 3.4
-3 -19 -3 2.69 2.46
-3 -19 -3 1.28 3.7
-3 3 19 0.68 3.19
-3 3 19 -0.54 3.95
3 -19 3 0.62 3.84
-19 -3 -3 -8.49 2.86
-3 19 3 3.31 1.96
19 -3 3 2.8 3.39
3 3 -19 6.82 2.91
-3 19 3 0.81 2.61
-3 19 3 3.17 2.6
-3 -3 -19 4 2.92
3 -3 19 -0.34 4.14
19 -3 3 1.58 3.45
3 19 -3 2.3 2.59
19 3 -3 2.32 2.94
3 19 -3 2.64 2.33
-19 -3 -3 3.35 2.6
-19 -3 -3 2.12 3.08
-19 3 3 3.22 2.65
-19 3 3 2.37 2.75
-3 -19 -3 2.46 3.12
-3 -3 -19 5.91 2.96
-3 -3 -19 1.59 2.73
-19 3 3 -3.92 2.43
-19 3 3 1.01 2.85
3 3 -19 3.45 2.74
3 3 -19 2.23 2.64
-19 3 3 2.67 2.54
-19 3 3 2.61 2.41
3 -19 3 0.73 2.71
3 19 -3 4.16 2.91
3 19 -3 5.59 2.13
3 -3 19 0.62 3.73
-3 3 19 0.89 2.49
3 19 -3 4.55 2.25
3 19 -3 4.93 2.23
3 -3 19 4.72 2.1
3 -19 -3 -1.41 3.54
3 19 3 4.19 2.87
-19 3 -3 0.67 2.09
3 3 19 6.1 3.78
19 -3 -3 2.76 3.34
-3 -3 19 2.4 2.48
3 19 3 3.07 2.25
-19 -3 3 -4.26 3.31
-19 -3 3 6.28 2.94
3 -19 -3 3.59 2.97
3 19 3 5.5 3.05
-3 -19 3 6.32 3
-3 -19 3 5.15 2.35
-3 19 -3 2.43 2.45
3 3 19 1.58 3.54
19 -3 -3 1.79 2.94
3 -3 -19 4.94 3.03
3 -3 -19 1.6 2.79
3 -3 -19 3.84 2.51
-19 3 -3 1.9 3.01
3 3 19 7.25 2.37
3 3 19 3.7 2.44
-19 3 -3 3.46 2.38
-3 -3 19 2.46 3.89
-3 3 -19 0.91 2.72
-3 3 -19 3.62 2.68
-3 3 -19 3.61 2.71
-3 3 -19 1.91 2.94
19 3 3 -2.5 3.14
-3 19 -3 4.1 1.87
-3 19 -3 2.13 2.76
-3 19 -3 4.41 2.51
-19 -3 3 4.85 2.92
-19 3 -3 0.7 3.34
-3 -3 19 1.37 3.61
-19 -3 3 2.49 3.12
3 19 3 3.55 2.37
-19 -3 3 7.01 2.97
19 3 3 1.89 2.31
-3 -19 3 1.27 3.9
-19 3 -3 2.71 2.43
3 -3 -19 0.83 3.08
19 3 3 1.36 3.14
-3 -19 -5 13.98 2.89
3 19 -5 11.59 3.15
-19 5 3 10.23 2.69
-19 5 3 13.84 3.09
-19 5 3 6.95 2.81
5 3 -19 4.88 2.24
-3 19 5 13.77 3.25
-19 5 3 10.88 2.72
19 5 -3 8.74 3.64
5 3 -19 14.1 3.3
5 -3 19 9.8 4.47
-3 -19 -5 9.96 3.83
19 5 -3 6.63 3.1
-19 -5 -3 8.49 3.41
3 19 -5 4.59 2.44
-19 -5 -3 6.51 2.82
-5 -3 -19 12.22 3.13
-5 -3 -19 10.65 3.25
-5 -3 -19 12.01 3.13
5 -3 19 9.66 2.45
-19 5 3 11.4 3.06
-19 5 3 7.13 2.96
-3 19 5 11.58 2.52
5 3 -19 9.18 3.21
19 -5 3 8.44 3.78
3 -19 5 6.81 2.82
-5 3 19 10.9 2.66
-5 3 19 8.38 3.27
-5 3 19 7.3 4.34
19 -5 3 11.31 3.72
3 19 -5 12.93 2.72
5 -3 19 6.89 4.07
-3 -19 -5 13.16 3.5
3 -19 5 6.89 4.36
3 19 -5 10.54 2.42
-3 19 5 8.96 2.88
-5 3 -19 14.14 3.37
-5 3 -19 11.62 3.17
-5 3 -19 12.32 3.02
19 5 3 4.61 3.78
5 3 19 12.23 3.88
3 19 5 12.65 3.33
19 -5 -3 13.99 3.98
-3 19 -5 11.72 2.23
-3 19 -5 13.25 3.16
-19 -5 3 8.22 3.18
-19 -5 3 9.92 3.29
-19 -5 3 -1.92 3.54
-19 5 -3 7.29 2.32
-5 -3 19 8.04 4.37
-5 3 -19 14.75 3.07
19 5 3 11.85 2.78
5 3 19 11.58 2.72
3 -19 -5 2.03 3.6
-5 3 -19 9.16 3.25
19 -5 -3 8.24 3.28
-5 -3 19 7.43 2.83
19 5 3 7.23 3.52
-3 -19 5 8.51 4.3
5 -3 -19 8.81 2.83
3 -19 -5 10.15 3.44
-19 5 -3 11.33 2.63
-19 5 -3 9.7 3.16
-19 5 -3 8.89 2.63
-19 5 -3 8.74 2.74
3 19 5 7.09 2.78
3 19 5 12.97 3.58
5 -3 -19 9.04 3.3
-5 -3 19 11.88 3.79
5 3 19 6.15 3.88
-3 -19 5 13.07 3.26
-3 19 -5 8.45 2.73
3 -19 -5 13.45 3.33
-3 -19 5 13.49 2.77
5 -3 -19 10.47 3.07
19 7 -3 17.72 3.95
-3 -19 -7 20.72 3.22
7 -3 19 19.97 4.58
-7 3 19 13.25 4.63
-3 -19 -7 16.62 3.89
-7 -3 -19 16.98 3.52
7 3 -19 15.36 3.4
-7 -3 -19 16.87 3.18
-3 -19 -7 14.63 3.7
-19 -7 -3 15.69 3.36
-19 -7 -3 13.62 3.61
-19 -7 -3 7.05 3.31
-19 7 3 13.22 2.97
19 7 -3 19 3.42
19 -7 3 9.61 4
7 3 -19 16.01 3.43
-19 7 3 21.4 3.56
-7 -3 -19 12.25 3.27
3 19 -7 15.11 2.93
3 19 -7 17.35 3.57
7 3 -19 14.97 3.08
-7 -3 -19 19.57 3.45
-3 19 7 18.84 3.64
7 -3 19 14.34 2.82
19 -7 3 16.26 4.12
-19 7 3 13.68 3.4
-3 19 7 16.42 3.36
-19 7 3 17.47 3.06
3 -19 7 13.32 3.09
-19 7 3 9.69 3.43
3 -19 7 13.7 3.71
3 -19 7 9.12 4.56
3 19 -7 18 2.67
7 -3 19 14.81 4.37
3 -19 7 16.17 3.05
-7 3 19 17.25 3.08
-19 7 3 14.34 3.57
19 7 -3 10.96 3.33
-7 3 19 13.05 3.49
7 3 19 10.43 4.46
-19 7 -3 15.02 2.62
-19 -7 3 11.55 3.5
7 3 19 15.53 2.78
-7 3 -19 18.09 3.16
-7 3 -19 16.76 3.47
3 19 7 20.75 3.51
7 3 19 16.5 3.62
-19 7 -3 12.94 3.85
-3 -19 7 16.22 3.45
19 7 3 10.21 3.94
-3 -19 7 16.94 4.46
-19 7 -3 16.98 2.94
7 -3 -19 10.85 3.15
7 -3 -19 17.16 3.48
-7 -3 19 17.14 4.78
7 -3 -19 12.81 3.62
-19 7 -3 15.37 2.86
-19 7 -3 19.41 3.39
3 19 7 16.45 3.5
3 19 7 15.24 3.26
-19 7 -3 7.65 3.06
-7 -3 19 9.67 3.76
-3 19 -7 17.46 3.44
19 -7 -3 22.49 3.74
19 -7 -3 14.96 4.38
3 -19 -7 18.79 3.69
-7 3 -19 11.73 3.36
3 -19 -7 13.54 4.11
19 7 3 20.55 3.78
-3 19 -7 17.25 2.85
-7 3 -19 15 3.72
-7 3 -19 16.28 3.5
7 3 19 14.84 4.19
3 -19 -7 18.18 3.32
3 -19 9 8.93 4.71
-19 -9 -3 6.81 3.66
9 3 -19 15.02 3.42
9 3 -19 13.63 3.38
3 -19 9 8.6 3.77
3 -19 9 11.87 3.15
19 -9 3 4.94 3.78
3 19 -9 11.95 3.04
19 9 -3 7.95 3.25
19 9 -3 11.55 3.73
-19 9 3 13.71 3.56
-9 -3 -19 13.25 3.09
-9 -3 -19 14.15 3.34
-9 -3 -19 7.79 3.17
-3 -19 -9 9.48 3.52
-3 -19 -9 17.36 4.07
-9 3 19 13.56 2.85
-9 3 19 16.76 3.51
-9 3 19 8.52 4.62
9 -3 19 18.77 4.4
3 19 -9 12.76 3.42
-19 9 3 11.35 2.95
3 19 -9 8.48 2.26
9 -3 19 5.87 2.4
-3 19 9 14.34 3.4
-19 9 3 5.93 3.44
9 3 -19 7.08 2.83
-19 -9 -3 10.96 3.25
9 -3 19 7.64 4.35
-19 9 3 9.49 2.71
-3 19 9 11.27 3.17
19 -9 3 14.42 4.13
9 3 19 8.92 3.65
-19 -9 3 20.63 4.19
9 -3 -19 11.92 3.04
-3 19 -9 10.37 3.23
9 -3 -19 15 3.51
19 -9 -3 16.3 3.66
-9 3 -19 9.36 3.1
-9 3 -19 6.17 3.32
-9 3 -19 10.1 3.93
-9 3 -19 13.65 3.15
3 -19 -9 16.63 4.11
3 19 9 17.26 3.57
19 9 3 5.68 3.82
3 -19 -9 17.11 3.79
3 -19 -9 10.82 3.11
19 -9 -3 12.78 4.26
-19 9 -3 10.21 3.79
-19 9 -3 6.27 3.16
-9 -3 19 10.18 3.58
-9 -3 19 8.6 4.68
-3 19 -9 12.42 3.01
9 -3 -19 8.13 3.41
-19 -9 3 10.07 3.36
3 19 9 14.9 3.41
-19 9 -3 14.4 3.31
-3 -19 9 17.88 3.44
-3 -19 9 17.27 4.73
9 3 19 8.09 4.42
-3 19 11 5.75 3
3 19 -11 7.82 3.49
-3 19 11 10.59 3.41
-3 -19 -11 4.99 3.42
3 -19 11 1.43 4.68
-3 -19 -11 5.84 3.99
19 11 -3 6.07 3.63
11 -3 19 5.05 2.48
11 -3 19 7.23 4.46
11 3 -19 1.81 2.84
-19 11 3 3.04 2.74
-19 11 3 3.45 2.57
3 -19 11 2.46 3.87
-19 -11 -3 8.81 3.33
-19 -11 -3 0.47 3.57
19 11 -3 7.17 3.12
11 -3 19 12.54 4.17
11 3 -19 6.91 3.42
-19 11 3 3.15 3.36
-11 3 19 7.45 3.36
-11 3 19 0.17 4.5
19 -11 3 11.26 4.34
19 11 -3 6.95 3.19
-19 11 3 6.17 3.49
-11 -3 -19 6.26 3.03
-11 -3 -19 6.07 3.08
19 -11 3 -0.84 3.78
11 3 -19 8.6 3.46
3 19 -11 5.44 3.04
11 3 19 5.82 2.86
11 3 19 0.95 4.22
11 -3 -19 7.18 3.47
19 11 3 -3.09 3.6
-11 3 -19 2.79 2.91
-11 3 -19 2.85 3.21
-19 -11 3 13.02 4.34
-19 11 -3 8.87 3.12
-19 11 -3 7.58 3.76
11 3 19 8.68 3.68
-11 3 -19 9.08 3.03
3 -19 -11 10.04 3.76
3 -19 -11 6.21 4.13
-11 3 -19 1.61 3.94
11 -3 -19 4.68 3.4
-19 -11 3 5.46 3.26
-11 -3 19 4.78 4.66
-3 19 -11 10.86 3.01
19 -11 -3 6.97 4.38
-3 19 -11 8.33 3.24
3 19 11 2.04 3.22
-11 -3 19 5.21 3.57
-3 -19 11 8.99 3.18
3 19 11 10.3 3.38
19 -11 -3 5 3.53
-3 -19 11 12.35 4.59
-13 3 19 4.43 3.3
-19 13 3 3.84 3.21
-3 -19 -13 -7.45 4.06
-3 19 13 4.07 3.27
-3 19 13 -0.14 3.26
19 13 -3 -1.71 3.77
19 -13 3 10.28 4.44
3 -19 13 -2.57 4.22
3 -19 13 0.34 4.87
-13 3 19 6.86 4.62
13 -3 19 2.71 4.54
13 3 -19 4.46 3.41
13 3 -19 6.13 3.5
19 13 -3 1.77 3.01
3 19 -13 2.73 3.65
19 13 -3 3.43 3.13
3 19 -13 -1.19 2.97
-19 13 3 -6.52 2.34
19 -13 3 -0.73 3.96
-13 -3 -19 -1.81 2.93
-3 -19 -13 4.36 3.56
-19 -13 -3 -5.35 3.07
-19 -13 -3 -0.65 3.55
13 -3 19 0.83 2.49
-19 13 3 6.67 3.37
-13 -3 -19 2.56 3.16
13 -3 -19 0.77 3.38
3 19 13 7.17 3.5
-13 3 -19 -0.28 3.96
-13 -3 19 -1.72 4.5
-19 -13 3 1.25 3.22
13 -3 -19 1.92 3.29
-13 3 -19 -5.47 3.15
3 19 13 3.44 3.38
19 13 3 -4.9 3.61
3 -19 -13 0.94 3.75
-3 -19 13 -6.54 3.16
-3 -19 13 7.22 4.82
-19 13 -3 -3.07 3.11
-19 13 -3 1.52 3.57
13 3 19 3.22 2.88
-3 19 -13 2.17 2.99
-3 19 -13 1.65 3.2
19 -13 -3 2 4.68
3 -19 -13 5.02 3.79
13 3 19 -0.92 4.51
19 -13 -3 0.09 3.48
13 3 19 6.38 3.81
-13 -3 19 -0.35 3.41
19 -15 3 3.38 3.99
-19 -15 -3 -3.18 3.33
-3 -19 -15 -5.55 3.31
3 -19 15 -1.08 5.12
3 19 -15 -3.96 3.08
19 15 -3 -3.71 4.02
3 -19 15 -3.92 4.53
-19 15 3 -7.04 2.4
-19 15 3 5.13 3.65
-19 15 3 0.68 3.41
-15 -3 -19 -2.85 3.06
15 -3 19 -0.98 4.47
15 3 -19 1.04 3.53
15 3 -19 0.67 3.46
19 -15 3 4.97 4.62
19 15 -3 0.23 3.11
-3 19 15 -2.35 3.31
3 19 -15 -4.99 3.76
-3 19 15 4.63 3.38
-15 3 19 5.64 3.49
-15 -3 -19 -1.51 3.31
-3 -19 -15 -3.49 4.01
-3 -19 15 -11.58 3.53
3 19 15 -4.11 3.53
-19 -15 3 2.68 3.29
15 -3 -19 -4.26 3.41
3 -19 -15 0.1 3.85
-19 15 -3 -0.03 3.65
3 19 15 -4.08 3.54
15 -3 -19 -7.95 3.29
15 3 19 -3.46 2.92
15 3 19 3.63 4.02
15 3 19 -3 4.7
19 -15 -3 -2.91 3.66
3 -19 -15 3.04 2.62
3 -19 -15 2.83 4.15
-3 -19 15 8.59 5.37
-19 15 -3 -9.41 3.04
19 -15 -3 0.81 5.04
-3 19 -15 1.83 3.06
-3 19 -15 -0.64 3.46
-15 3 -19 3.07 4.26
-15 3 -19 -6 3.14
19 15 3 -5.67 3.69
-1 -5 -19 2.1 2.9
5 -19 1 -1.95 2.69
5 -19 1 -4.74 3.75
5 19 -1 2.77 2.19
5 19 -1 2.72 2.39
-19 -1 -5 5.23 2.27
-1 5 19 1.54 3.87
5 19 -1 7.11 2.91
-19 1 5 1.13 2.68
19 -1 5 3.1 3.56
-5 19 1 2.14 2.54
19 1 -5 1.6 3.19
19 1 -5 3.89 2.97
5 19 -1 1.84 2.15
1 5 -19 2.34 2.65
-19 1 5 1.87 2.85
1 5 -19 1.63 2.72
-19 -1 -5 2.35 3.12
-5 19 1 2.25 1.86
-5 19 1 2.01 2.73
-5 19 1 0.29 2.48
-19 1 5 -1.07 3.37
-5 -19 -1 2.68 2.39
19 -1 5 1.16 3.24
-5 -19 -1 2.67 2.14
5 19 -1 -0.63 2.74
-1 -5 -19 -0.67 2.7
-19 1 5 5.82 2.73
1 5 -19 4.03 2.63
-19 1 5 3.04 2.84
-5 -19 -1 1.3 3.8
-1 5 19 2.77 2.42
-1 5 19 2.8 3.21
-19 1 5 0.45 2.6
-19 -1 -5 -1.75 3.26
1 -5 19 0.89 2.18
1 -5 19 -3.63 3.7
1 -5 19 -1.03 4.2
-19 1 5 -2.98 2.63
-5 -19 -1 2.36 3.1
-5 19 -1 0.09 2.35
1 5 19 1.17 2.36
-5 19 -1 2.42 2.5
-19 1 -5 -1.46 2.96
-19 1 -5 0.49 3.27
5 -19 -1 2.74 3.02
5 -19 -1 -1.97 3.63
19 1 5 4.37 2.23
1 5 19 2.45 2.37
-1 -5 19 -1.26 3.73
19 1 5 3.56 3.43
-19 -1 5 -0.3 3.32
-19 -1 5 2.34 2.67
-1 5 -19 0.58 3.01
5 19 1 0.84 2.09
5 19 1 3.88 2.41
5 19 1 1.12 2.81
5 19 1 2.35 2.25
5 19 1 3.72 2.98
19 -1 -5 -1.68 2.86
-1 -5 19 -1.76 4.28
-1 5 -19 3.61 2.63
1 5 19 3.82 3.06
1 5 19 1.27 3.96
-5 -19 1 0.12 3.89
19 -1 -5 0.12 3.13
19 1 5 -2.15 3.19
1 -5 -19 1.18 3.02
1 -5 -19 2.68 2.87
-19 -1 5 3.47 2.82
-19 -1 5 3.18 2.73
-19 -1 5 -1.08 2.68
-1 5 -19 -0.84 2.55
-1 5 -19 1.87 2.61
-5 -19 1 3.3 3.04
-19 1 -5 0.38 2.14
-19 -1 5 4.06 2.93
-5 19 -1 3.02 1.94
-5 19 -1 2.57 2.69
-5 -19 1 4.03 2.37
-5 -19 -3 14.11 2.72
3 -5 19 -1.54 4.61
5 19 -3 11.26 2.42
19 -3 5 8.54 3.65
19 -3 5 7.5 3.69
19 3 -5 9.96 3.04
19 3 -5 9.22 3.69
-19 -3 -5 -2.1 3.42
-19 3 5 4.74 2.77
-5 19 3 11.43 2.48
-5 19 3 9.59 3.05
-5 19 3 11.09 2.84
-19 -3 -5 9.74 3.36
-19 3 5 8.83 3.1
3 5 -19 10.25 3.13
-5 -19 -3 11.99 3.4
3 -5 19 8.42 2.44
-5 -19 -3 14.11 4.13
-19 3 5 8.46 2.86
-19 3 5 11.97 3.95
-19 3 5 7.87 3.28
5 19 -3 11.27 2.81
5 19 -3 11.18 3.16
5 19 -3 13.46 3.37
-3 5 19 13.32 2.75
-3 5 19 7.16 3.27
-3 5 19 10.97 4.25
-3 -5 -19 14.63 3.26
-3 -5 -19 14.66 3.34
-19 -3 -5 12.32 2.92
3 5 -19 11.04 3.08
3 5 -19 4.33 1.92
3 -5 19 7.52 4.15
5 -19 3 10.14 4.41
5 -19 3 8.43 2.97
-19 3 5 7.79 2.92
19 3 5 8.91 3.77
-5 19 -3 8.55 2.78
19 3 5 7.21 3.57
19 3 5 12.59 2.69
5 -19 -3 9.94 3.33
-19 3 -5 7.25 3.53
-19 -3 5 10.94 3.25
-19 3 -5 5.67 2.52
-19 3 -5 13.78 2.71
-19 3 -5 6.69 3.3
5 19 3 13.26 3.12
19 -3 -5 13.42 3.31
5 -19 -3 8.36 3.8
-3 -5 19 7.98 2.8
-5 -19 3 10.7 4.2
-5 19 -3 10.95 2.14
-5 -19 3 13.24 3.43
-19 -3 5 8.95 3.87
-5 19 -3 12.95 2.99
-19 -3 5 8.82 3.17
-3 5 -19 10.48 3.16
-3 5 -19 8.97 3.21
-3 5 -19 5.91 3.17
5 19 3 6.93 3.13
5 19 3 6.41 2.68
3 5 19 5.94 3.57
3 5 19 12.01 4.02
19 -3 -5 13.04 3.58
-5 -19 3 12.92 2.76
-19 -3 5 4.64 2.96
-3 -5 19 4.43 3.94
-3 -5 19 9.55 4.48
3 5 19 11.74 2.66
3 5 19 10.24 2.8
-5 19 -3 8.77 2.89
3 -5 -19 11.69 3.18
3 -5 -19 11.9 3.21
-3 5 -19 9.37 2.84
5 -5 19 15.39 4.65
19 -5 5 12.88 4.28
19 5 -5 17.87 3.55
19 5 -5 22.39 4.22
-19 5 5 15.79 3.49
-5 -19 -5 28.49 4.6
-19 5 5 11.07 3.92
-5 -19 -5 26.81 4.12
5 19 -5 22.15 3.06
-19 5 5 21.93 3.7
-5 5 19 21.2 3.82
-5 5 19 25.19 4.88
5 -5 19 15.25 4.92
5 19 -5 20.43 3.84
-5 19 5 19.22 3.12
5 19 -5 26.7 3.38
-19 5 5 20.82 3.35
5 5 -19 23.81 3.73
5 5 -19 21.18 3.51
-5 -19 -5 26.06 3.46
5 -19 5 15.21 3.23
5 -19 5 19.02 4.94
5 5 -19 20.87 3.7
-19 -5 -5 21.21 3.65
5 -5 19 19.03 2.9
-5 19 5 24.05 3.61
-19 -5 -5 19.35 4.04
-19 5 5 20.82 3.45
-19 -5 -5 13.47 4
-19 5 5 18.34 3.4
-5 -5 -19 23.16 3.68
-5 -5 -19 23.99 3.83
-5 5 19 27.64 3.49
-5 19 5 21.76 3.62
-5 19 -5 17.36 3.53
-5 19 -5 19.63 3.5
5 19 5 19.62 3.86
-5 5 -19 23.7 3.43
19 5 5 17.82 4.36
-5 -19 5 25.68 3.89
-19 -5 5 21.82 3.88
-5 -19 5 22.48 4.67
19 5 5 24.52 3.35
-5 -5 19 20.8 3.53
19 5 5 23.83 4.21
-5 5 -19 24.43 3.68
5 5 19 20.5 3.15
5 5 19 21.84 4.5
-5 -5 19 16.93 5.02
-19 5 -5 19.84 3.05
-19 5 -5 21.37 3.07
-19 5 -5 20.05 3.92
-19 5 -5 22.85 3.31
-5 5 -19 17.41 3.77
5 -19 -5 17.58 3.93
5 -19 -5 11.93 4.29
-19 -5 5 16.27 3.76
-19 -5 5 18.44 4.29
5 -5 -19 26.23 4.06
-5 -5 19 19.52 4.31
-5 5 -19 20.16 3.53
-5 5 -19 23.36 3.67
5 19 5 19.35 3.66
19 -5 -5 23.94 4.02
5 -5 -19 25.3 3.75
5 5 19 25.74 4.33
5 19 -7 32.86 4.83
-5 -19 -7 53.4 5.53
-7 5 19 45.33 6.08
-19 7 5 26.34 4.73
-5 -19 -7 42.29 5.12
-19 -7 -5 28.51 4.84
-7 5 19 30.3 5.75
7 -5 19 57.91 7.59
7 5 -19 48.73 5.68
7 5 -19 28.82 4.43
-5 19 7 52.71 6.03
-5 19 7 32.68 4.73
7 -5 19 42.2 4.82
7 -5 19 31.98 5.7
-19 7 5 47.08 6.14
-7 5 19 46.96 5.17
-7 -5 -19 35.15 4.61
-7 -5 -19 43.43 5.59
-19 7 5 42.1 5.17
5 19 -7 50.32 4.82
-7 -5 -19 50.15 5.52
5 -19 7 45.57 6.19
5 -19 7 23.07 5.83
19 7 -5 48.23 6.03
19 -7 5 30.56 5.38
-5 -19 -7 34.38 5.25
-19 -7 -5 45.73 5.62
5 19 -7 46.22 5.22
19 -7 5 35.93 5.25
19 7 -5 31.2 4.55
-5 19 7 40.62 5.03
7 5 -19 48.09 6
-19 7 5 31.44 4.38
-19 -7 -5 34.9 4.97
19 7 -5 36.35 5.11
-19 7 5 45.72 6.13
-19 7 -5 34.03 5.17
19 -7 -5 39.77 5.71
7 -5 -19 36.25 4.99
-5 -19 7 38.98 5.79
-5 19 -7 27.49 4.52
19 -7 -5 38.18 4.92
5 19 7 35.9 5.11
-7 5 -19 29.69 4.64
5 -19 -7 52.54 5.93
5 19 7 55.19 6.42
5 -19 -7 37.53 5.39
-5 -19 7 47.5 5.61
-7 5 -19 35.52 5.03
-7 5 -19 31 4.82
-7 5 -19 46.72 6.17
-19 -7 5 30.8 4.82
-19 -7 5 29.31 4.8
-19 7 -5 29.56 4.51
-5 19 -7 44.04 4.88
-7 -5 19 29.79 5.22
-5 19 -7 41.02 5.69
7 -5 -19 51.21 5.74
-7 5 -19 43.67 4.99
7 5 19 45.52 4.97
7 5 19 36.56 4.89
5 -19 -7 32.01 4.72
5 19 7 47.9 5.9
19 7 5 28.52 5.21
-7 -5 19 25.37 5.73
7 5 19 26.34 5.45
19 7 5 34.86 5.27
-19 -9 -5 30.93 4.51
-19 9 5 48.76 6.09
-9 -5 -19 33.61 4.75
-9 -5 -19 53.1 5.88
-5 19 9 48.85 5.88
-5 19 9 29.78 4.74
5 19 -9 50.88 6.41
9 -5 19 37.57 5.65
5 19 -9 45.47 5.29
-9 5 19 31.9 4.12
-9 5 19 32.08 4.76
-9 5 19 27.91 5.8
-5 -19 -9 38.21 5.01
-5 -19 -9 39.61 5.23
9 5 -19 50.84 6.18
19 9 -5 33.84 4.81
-19 9 5 28.56 4.53
19 -9 5 36.55 5.37
19 9 -5 29.72 4.4
19 9 -5 31.16 4.98
5 -19 9 32.06 6.04
19 -9 5 22.38 5.45
-19 9 5 28.63 4.88
5 -19 9 31.63 4.4
5 -19 9 32.22 5.17
-19 9 5 31.17 4.23
-19 9 5 39.81 4.85
-19 9 5 35.46 4.27
-19 -9 -5 30.87 4.67
9 5 -19 35.5 4.65
9 5 -19 28.7 4.23
19 -9 5 31.62 4.27
-19 -9 -5 31.34 4.93
5 19 -9 41.32 4.68
-5 19 -9 48.69 5.15
-9 5 -19 32.2 4.72
5 19 9 53.89 6.17
-5 -19 9 29.8 4.51
-5 -19 9 36.15 5.74
19 -9 -5 29.64 5.73
-5 19 -9 29.45 4.68
5 19 9 51.76 6.3
-9 -5 19 34.13 5.03
5 -19 -9 49.52 6.11
5 -19 -9 35.4 4.74
-9 5 -19 48.66 6.43
-9 -5 19 31.38 6.18
-19 9 -5 33.18 5.16
-5 19 -9 27.97 4.45
19 9 5 45.91 6.12
-19 9 -5 27.16 4.6
-5 -19 9 34.39 4.56
9 5 19 45.47 5.2
9 5 19 36.9 5.07
9 5 19 21.26 5.66
19 -9 -5 48.76 5.89
-19 -9 5 59.75 7.47
-9 5 -19 43.07 5.94
5 19 9 53.68 6.24
5 -19 -9 34.54 5.38
9 -5 -19 33.48 4.97
9 -5 -19 48.64 5.69
19 9 5 27.24 5.24
-19 -9 5 33.65 4.97
-5 19 11 22.13 3.91
5 -19 11 8.81 5.46
-5 19 11 23.15 3.93
11 5 -19 16.77 3.99
-11 5 19 16.96 3.33
-11 5 19 23.56 3.9
11 -5 19 18.67 5.06
19 11 -5 15.71 4.05
5 19 -11 20.49 3.96
-19 -11 -5 14.36 3.55
-19 11 5 18.04 3.29
-19 11 5 18.28 3.94
-19 11 5 18.77 3.97
-11 -5 -19 23.82 3.64
-11 -5 -19 19.63 3.77
19 -11 5 10.68 4.54
19 -11 5 18.96 4.69
19 11 -5 16.82 3.58
-11 5 19 18.58 5.03
11 5 -19 18.7 3.91
-19 -11 -5 13.33 4.17
19 11 -5 19.43 4.19
-5 -19 -11 21.28 4.46
-5 -19 -11 18.6 4.2
5 -19 11 17.11 4.42
-19 -11 -5 17.03 3.7
11 -5 19 32.38 5.23
5 19 -11 15.51 3.6
-19 11 -5 16.55 4.3
-5 19 -11 17.4 3.55
5 -19 -11 25.22 4.37
11 -5 -19 19.37 3.96
-5 19 -11 18.72 3.45
-11 5 -19 17.16 4.44
11 -5 -19 16.91 3.97
-5 -19 11 21.53 5.32
5 -19 -11 19.48 4.63
-19 11 -5 26.66 3.83
5 19 11 20.23 4.02
5 19 11 25.19 4.17
-11 -5 19 11.08 5.22
-11 5 -19 14.41 3.76
19 11 5 15.1 4.26
-19 -11 5 15.49 4.06
-5 -19 11 21.45 3.66
5 19 11 24.81 4.15
-11 5 -19 17.28 3.68
19 11 5 25.47 4.41
19 -11 -5 12.91 4.92
11 5 19 24.48 4.3
11 5 19 9 4.99
19 -11 -5 27.77 4.23
-19 -11 5 20.83 5.17
5 19 -13 0.58 3.4
-5 19 13 0.12 3.03
-19 13 5 2.15 3.46
-5 -19 -13 2.23 3.51
-5 19 13 5.67 3.36
-13 -5 -19 3.52 3.25
5 19 -13 -0.02 3.07
-19 -13 -5 2.54 2.93
-19 13 5 -2.29 2.49
-13 -5 -19 4.52 3.16
-19 13 5 2.05 3.24
-13 5 19 5.08 4.67
19 -13 5 -0.21 3.93
19 -13 5 -3.54 4.32
19 13 -5 3.95 3.13
19 13 -5 5.95 3.9
19 13 -5 6.43 3.39
5 -19 13 -0.65 5.27
-5 -19 -13 -4.51 4.14
13 -5 19 11 4.61
19 -13 5 3.85 2.86
-19 -13 -5 3.82 3.3
-19 -13 -5 0.82 3.75
-13 5 19 9.8 3.45
13 5 -19 2.08 3.45
13 5 -19 2.96 3.33
13 -5 19 1.2 4.42
5 -19 13 5.39 4.25
-5 19 -13 3.7 3.01
-19 13 -5 -0.1 3.6
-5 19 -13 2.35 2.88
5 19 13 -1.67 3.46
19 -13 -5 4.21 3.67
19 13 5 -1.87 3.46
-13 5 -19 -2.19 3.12
-13 5 -19 3.26 4.04
-13 5 -19 -0.7 3.11
19 -13 -5 -2.6 4.49
5 -19 -13 7.85 4.02
5 -19 -13 5.53 2.77
-5 -19 13 4.32 5.07
13 -5 -19 1.43 3.36
-19 13 -5 10.23 3.25
13 5 19 -3.53 4.51
-19 -13 5 1.36 3.23
-19 -13 5 -0.98 4.73
13 5 19 5.42 3.88
13 -5 -19 -1.59 3.46
5 -19 -13 7.98 3.99
-5 -19 13 4.39 3.45
-13 -5 19 -6.31 4.82
5 19 13 -2.29 3.48
5 19 13 6.58 3.88
1 7 -19 -3.08 2.59
1 -7 19 -2.53 3.78
-1 -7 -19 1.33 2.83
-1 7 19 1.47 3.96
19 -1 7 2.82 3.68
19 1 -7 -1.34 2.8
19 1 -7 -2.45 3.16
-19 1 7 -2.92 2.68
19 -1 7 0.39 2.18
19 -1 7 -0.36 3.42
-19 1 7 1.22 2.43
-19 1 7 -3.53 2.6
-19 1 7 -0.38 3.52
-19 1 7 -0.66 3.05
-7 -19 -1 0.61 3.16
-7 -19 -1 2.34 2.38
-7 -19 -1 3.74 3.73
7 -19 1 -0.72 2.71
7 -19 1 -1.86 4.01
7 19 -1 1.09 2.47
7 19 -1 -0.13 2.72
7 19 -1 4.04 3.04
-19 -1 -7 2.24 3.03
-1 7 19 2.55 3.05
1 7 -19 2.03 2.7
1 -7 19 -2.6 4.44
-19 -1 -7 -4.83 3.21
-7 19 1 -2.36 2.61
-19 1 7 -0.84 2.63
-1 -7 -19 1.73 2.96
-19 -1 -7 3.88 2.41
1 -7 19 1.71 2.19
-1 7 19 -6.28 2.9
-7 19 1 3.11 1.93
1 7 -19 0.9 0.48
-7 19 1 1.06 2.58
-1 7 19 1.7 2.34
-1 7 -19 -0.16 2.65
19 1 7 3.72 2.29
-19 -1 7 -4.53 2.67
1 7 19 2.07 3.4
7 -19 -1 -2.05 2.88
7 -19 -1 2.16 3.84
-7 -19 1 3.06 3.22
19 -1 -7 -2.35 2.85
1 -7 -19 0.58 3.01
1 -7 -19 0.25 2.86
-19 1 -7 -1.06 2.19
-1 7 -19 2.29 2.57
7 19 1 -0.82 2.76
-1 7 -19 -3.53 2.76
1 7 19 2.65 2.5
-19 -1 7 0.64 3.02
-7 19 -1 -1.03 2.6
-19 -1 7 -1.28 2.35
19 -1 -7 -0.88 3.16
-19 1 -7 -2.25 2.99
19 1 7 -4.24 3.33
-1 -7 19 2.08 2.36
-19 -1 7 1.87 2.55
-7 19 -1 1.66 2.75
-1 -7 19 -1.91 3.75
-1 -7 19 -2.91 4.26
19 1 7 0.98 3.76
-19 -1 7 5.43 3.81
-7 -19 1 -0.63 3.86
-7 19 -1 2.29 1.74
-19 -1 7 1.39 2.91
7 19 1 1.04 2.43
1 7 19 -1.23 2.15
1 7 19 2.14 3.91
-7 -19 1 -1.13 2.33
3 7 -19 17.02 3.41
-19 3 7 10.88 3.04
3 7 -19 16.54 3.35
7 19 -3 17.86 3.56
-19 3 7 9.15 3.03
3 7 -19 17.61 3.29
3 -7 19 15.53 2.75
-19 3 7 14.01 3.45
-3 7 19 14.08 3.58
-7 19 3 13.86 2.64
-7 19 3 15.6 3.43
-7 -19 -3 12.71 3.59
-3 -7 -19 18.76 3.48
3 -7 19 14.47 4.55
3 -7 19 16.8 4.87
-7 -19 -3 17.82 2.89
-19 -3 -7 16.09 3.69
7 -19 3 12.72 4.87
-19 3 7 12.49 4.42
-19 3 7 6.21 3.77
7 19 -3 13.46 3.83
-3 7 19 18.11 4.53
-19 -3 -7 8.07 3.94
19 3 -7 13.19 3.31
-3 -7 -19 21.81 3.63
-7 19 3 16.93 3.43
-3 7 19 19.3 2.93
-19 -3 -7 17.41 3.11
-19 3 7 14.13 3.09
-7 -19 -3 18.35 4.27
-7 -19 -3 14.27 2.75
19 -3 7 17.27 4.28
19 3 -7 14.43 3.82
7 19 -3 14.47 2.99
19 -3 7 13.84 3.95
19 -3 -7 20.96 3.84
-7 -19 3 17.74 3.72
7 -19 -3 17.01 3.56
-19 -3 7 20.95 4.51
-3 -7 19 7.99 4.22
3 7 19 18.52 3.43
3 7 19 18.91 3.06
-3 7 -19 13.7 3.27
7 19 3 19.29 3.31
7 19 3 16.98 3.58
7 19 3 16.18 3.3
7 19 3 17.4 3.5
-3 -7 19 17.6 5.16
-3 7 -19 20.52 3.21
19 -3 -7 12.06 3.36
7 -19 -3 16.81 4.18
19 3 7 9.13 3.85
3 -7 -19 19.31 3.42
-19 -3 7 13.02 3.53
-19 -3 7 17.14 3.57
-7 19 -3 17.11 2.38
-7 19 -3 13.89 3.11
19 3 7 17.28 4.2
-7 19 -3 14.03 3.11
-3 7 -19 15.42 3.28
-3 7 -19 14.44 3.48
3 -7 -19 14.4 3.44
-7 -19 3 17.52 4.53
3 7 19 13.1 3.69
3 7 19 18.72 4.28
19 -3 -7 13.61 3.75
-19 -3 7 6.12 3.23
-19 3 -7 11 2.68
-19 3 -7 12.48 3.48
-5 -7 -19 53.21 5.88
-7 -19 -5 50.24 6
19 5 -7 34.64 5.21
-19 5 7 45.51 6.14
5 -7 19 37.3 5.76
-19 5 7 33.65 4.35
-19 5 7 47.61 6.2
-19 -5 -7 46.36 5.37
-19 5 7 35.49 6.01
-7 -19 -5 48.76 6.7
5 -7 19 57.39 7.65
-19 -5 -7 28.1 5.07
19 -5 7 32.41 5.53
-19 5 7 40.5 5.35
7 -19 5 31.48 6.17
7 19 -5 43.97 5.46
7 19 -5 34.32 4.95
-5 -7 -19 47.95 5.76
5 7 -19 49.94 5.89
-5 7 19 49.01 5.21
-5 7 19 32.84 5.08
-19 -5 -7 28.95 4.87
-19 5 7 25.64 4.57
-5 7 19 38.71 5.81
-7 -19 -5 44.72 5.49
-7 -19 -5 50.28 5.34
-7 19 5 33 4.85
5 7 -19 33.87 4.68
5 7 -19 31.84 4.66
19 5 -7 28.19 4.55
-7 19 5 44.23 4.84
-7 19 5 33.78 4.81
7 19 5 53.67 6.01
-19 -5 7 23.98 4.63
-19 -5 7 61.22 7.38
7 19 5 51.15 6.48
-5 -7 19 27.63 5.4
-5 7 -19 32.04 4.64
5 7 19 57.33 5.52
-7 -19 5 37.22 4.86
-7 -19 5 36.31 5.8
-7 19 -5 44.23 5.81
-5 7 -19 45.8 6.01
-5 7 -19 46.31 6.21
5 7 19 31.59 5.33
-5 7 -19 35.09 4.86
7 19 5 54.04 6.18
19 -5 -7 40.64 5.18
19 -5 -7 37.15 4.63
5 -7 -19 37.55 4.97
5 -7 -19 46.94 5.68
-5 7 -19 44.62 5.03
19 5 7 51.1 5.35
19 5 7 31.17 5.43
19 5 7 33.06 5.52
-5 -7 19 45.74 5.58
5 7 19 54.58 6.75
5 7 19 42.24 5.83
-19 5 -7 34.68 4.88
7 -19 -5 59.79 6.01
-19 -5 7 34.89 4.95
7 -19 -5 34.86 5.46
-5 -7 19 32.35 6.22
-7 -7 -19 66.75 6.99
19 7 -7 52.2 7.06
7 7 -19 62.58 6.92
7 7 -19 47.79 6.59
7 19 -7 53.27 7.78
-7 -7 -19 69.26 7
-7 -19 -7 69.52 6.96
-7 -19 -7 52.38 7.8
-7 7 19 55.35 7.35
-7 7 19 67.99 8.87
-7 -19 -7 60.71 6.08
-19 7 7 66.91 7.47
-7 7 19 58.3 6.34
-19 -7 -7 64.01 6.82
-19 -7 -7 43.84 6.36
-7 -7 -19 61.08 7.01
-19 7 7 60.75 7.6
7 -7 19 65.05 8.69
19 -7 7 63.16 7.65
19 7 -7 60 6.91
-7 19 7 54.94 7.37
-19 -7 -7 49.02 7.48
19 7 -7 52.43 7.77
7 -19 7 66.22 7.61
7 -19 7 35.87 7.34
-19 7 7 60.28 6.26
-7 19 7 65.71 6.97
7 7 -19 63.88 7.09
-19 7 7 55.36 7.24
-7 19 7 49.24 6.2
-7 -19 -7 64.15 7.21
7 -7 19 79.95 8.78
7 19 -7 64.28 6.66
-7 19 -7 65.68 6.2
-19 -7 7 55.87 7.29
19 -7 -7 62.59 7.25
7 19 7 66.02 7.57
-7 7 -19 57.07 7.27
-7 7 -19 57.72 7.46
-7 7 -19 60.21 7.55
-7 -19 7 67.18 8.68
7 7 19 66.1 7.52
19 7 7 54.53 7.79
7 19 7 70.43 7.34
-7 19 -7 59.3 7.18
-7 -19 7 65.05 6.91
-19 7 -7 74.34 7.19
-19 -7 7 48.08 7.34
-19 -7 7 76.72 8.64
7 -19 -7 64.83 8.23
-19 7 -7 57.81 7.97
-19 7 -7 50.94 6.92
-7 -7 19 36.58 7.43
7 -7 -19 61.3 6.78
19 -7 -7 62.46 6.67
7 7 19 41.25 7.03
7 -19 -7 61.99 7.19
7 19 7 68.23 7.47
-7 -19 7 58.42 6.77
7 -7 -19 56.53 7.53
-9 -7 -19 72.44 7.24
19 9 -7 66.6 7.91
-7 -19 -9 49.16 7.77
-9 7 19 57.29 6.39
-9 7 19 56.32 7.31
-19 9 7 59.77 7.59
-7 -19 -9 65.14 7.47
-19 -9 -7 57.12 7.37
-7 19 9 60.68 7.48
7 -19 9 71.31 7.92
7 -19 9 35.99 7.62
7 19 -9 52.1 6.7
-19 9 7 57.37 7.48
-19 -9 -7 63.38 7.14
-19 9 7 64.13 7.7
9 -7 19 76.81 9.05
9 7 -19 63.57 7.43
9 7 -19 63.42 7.22
-9 -7 -19 56.02 7.78
7 -19 9 53.95 6.97
-7 19 9 66.91 7.21
19 -9 7 64.15 8.05
19 9 -7 55.67 7
7 19 -9 57.72 7.85
19 -9 7 40.76 7.09
-9 -7 -19 72.21 7.02
-7 -19 -9 78.17 6.76
-9 7 19 66.62 8.97
-19 -9 -7 61.59 7.8
19 9 -7 52.77 7.76
-19 9 7 61.92 6.35
19 -9 -7 47.36 7.41
-7 -19 9 66.45 9.13
-7 -19 9 66.06 6.97
-9 -7 19 38.76 7.66
19 -9 -7 69.42 7.48
-7 19 -9 59.28 7.31
-9 7 -19 58.64 7.16
-9 7 -19 60.64 7.81
9 7 19 64.07 7.68
9 7 19 41.27 7.14
-7 19 -9 66.39 6.57
-19 -9 7 72.07 9.06
-19 9 -7 79.6 7.31
-19 9 -7 47.43 7.26
7 19 9 77.44 8.02
7 19 9 62.95 7.62
7 19 9 68.25 7.64
9 -7 -19 56.68 7.69
9 -7 -19 66.37 6.88
7 -19 -9 40.26 6.97
19 9 7 66.53 8.28
19 9 7 63.38 7.86
-19 -9 7 55.99 7.61
7 -19 -9 65.72 7.53
-19 -11 -7 22.94 4
19 -11 7 32.23 5.1
-19 11 7 23.35 4.29
-19 11 7 18.42 4.3
19 -11 7 20.75 5.15
-19 -11 -7 29.86 4.24
11 7 -19 21.12 4.23
-11 7 19 26.43 3.63
-7 -19 -11 29.42 4.65
-7 19 11 41.1 4.47
-7 19 11 18.64 4.14
7 19 -11 24.31 4.56
-11 7 19 27.78 4.42
7 -19 11 28.25 4.8
19 11 -7 21.59 3.92
-11 -7 -19 25.18 4.14
11 -7 19 35.76 5.84
-11 7 19 22.87 5.26
-11 -7 -19 30.62 4.13
-19 -11 -7 19.74 4.59
11 -7 19 22.17 5.21
-19 11 7 23.1 4.11
19 11 -7 17.82 4.57
-7 -19 -11 33.07 4.82
7 -19 11 27.7 5.99
7 19 -11 20.77 3.8
11 7 -19 25.8 4.33
19 11 -7 30.77 4.67
-19 -11 7 20.26 5.9
-7 19 -11 19.64 3.91
-19 -11 7 22.56 4.53
-11 -7 19 13.24 5.61
-7 -19 11 32.23 4.21
11 7 19 23 4.57
-7 19 -11 27.3 3.88
-19 11 -7 22.53 4.63
-7 -19 11 27.61 5.91
7 -19 -11 29.36 4.75
19 -11 -7 33.46 4.63
-11 7 -19 13.35 4.3
7 19 11 28.43 4.64
7 19 11 30.36 4.84
19 -11 -7 22.68 5.45
7 -19 -11 25.74 5.02
-11 7 -19 26.82 4.87
19 11 7 26.81 5
-19 11 -7 19.62 4.66
11 -7 -19 28.16 4.21
11 -7 -19 21.66 4.58
-11 7 -19 25.22 4.26
11 7 19 15.75 5.37
19 11 7 22.93 4.55
7 19 11 30.58 4.36
19 13 -7 1.1 3.97
-13 -7 -19 6.16 3.54
13 7 -19 5.29 3.43
-7 19 13 7.29 3.39
-13 -7 -19 7.59 3.19
-7 -19 -13 5.84 3.68
19 13 -7 3.16 3.16
-19 -13 -7 6.38 3.23
-19 13 7 1.59 3.49
-19 13 7 7.73 3.25
-7 19 13 9.37 3.33
-13 7 19 4.91 4.52
-19 -13 -7 3.82 3.59
-19 -13 -7 5.75 3.88
19 -13 7 5.26 4.52
13 -7 19 5.83 4.75
13 -7 19 7.1 5
13 7 -19 5.68 3.49
19 -13 7 4.49 4.31
7 -19 13 9.87 4.4
7 -19 13 1.12 5.32
7 19 -13 4.36 3.14
7 19 -13 5.51 3.85
19 13 -7 0.32 3.66
-7 -19 -13 5 4.1
-13 7 19 7.8 3.43
-13 7 19 3.98 2.59
7 19 13 4.68 3.7
-7 19 -13 8.91 3.25
19 13 7 5.79 3.79
19 13 7 6.51 4.29
-19 13 -7 13.16 3.48
7 19 13 10.53 4.07
-19 13 -7 2.85 3.72
7 -19 -13 3.41 4.14
13 7 19 7.02 4.08
-19 -13 7 8.34 3.7
-19 -13 7 -6.3 5.32
-7 -19 13 5.17 5
-7 19 -13 5.8 3.17
-13 -7 19 -3.04 4.86
-13 7 -19 3.49 3.37
7 -19 -13 7.22 4.28
13 -7 -19 3.83 3.76
7 -19 -13 9.45 2.9
13 7 19 -2.3 4.59
19 -13 -7 7.06 3.94
19 -13 -7 -4.69 4.69
-13 7 -19 13.08 4.16
-7 -19 13 6.08 3.5
13 -7 -19 2.24 3.46
-13 7 -19 -3.98 3.37
-1 9 19 0.05 2.29
1 -9 19 -0.9 2.2
9 -19 1 -4.75 3.93
1 9 -19 3.04 2.78
-1 -9 -19 0.83 3.06
19 -1 9 -2.77 3.46
-19 1 9 4.94 2.63
-19 1 9 0.43 2.42
9 19 -1 1.93 3.06
-19 1 9 -1.67 3.87
-9 19 1 -4.65 2.65
-19 -1 -9 2.68 2.97
1 9 -19 -0.92 2.59
1 9 -19 1.44 2.49
19 -1 9 1.84 3.99
19 1 -9 -4.78 2.94
19 1 -9 -2.24 3.11
-1 9 19 -0.93 3.01
1 -9 19 0.91 4.52
1 9 -19 1 2.69
-19 1 9 1.1 2.54
-1 -9 -19 2.38 2.97
-9 -19 -1 -1.05 3.23
-9 -19 -1 -1.86 3.95
9 19 -1 1.04 2.67
1 -9 19 3.6 4.01
19 -1 9 2.93 2.16
-1 9 19 -7.1 3.04
-1 9 19 -3.82 3.7
-9 19 1 1.07 1.9
1 -9 19 -1.39 2.84
-9 19 1 -0.41 2.73
9 -19 1 1.53 2.78
9 19 1 1.2 3.03
-1 -9 19 1.99 2.4
9 -19 -1 1.59 2.97
9 -19 -1 -0.4 3.63
-1 9 -19 -0.32 2.73
-1 9 -19 -2.14 2.79
-19 1 -9 0.65 3.06
9 19 1 2.79 3.07
-1 -9 19 0.37 4.61
1 -9 -19 0.35 3.07
1 -9 -19 2.06 2.94
19 -1 -9 0.26 3.29
19 -1 -9 -5.84 3.03
19 -1 -9 0.7 3.17
1 9 19 -1.48 3.13
1 9 19 -6.51 3.7
-19 -1 9 3.1 2.58
-19 -1 9 3.16 2.32
-19 -1 9 2.58 4.11
-1 9 -19 1.76 2.62
-9 -19 1 1.34 3.86
-9 19 -1 1.88 1.77
-1 -9 19 1.83 3.98
9 19 1 -0.27 2.74
1 9 19 0.35 2.28
19 1 9 1.39 3.85
-9 -19 1 0.06 3.1
19 1 9 -1.96 3.52
19 1 9 3.15 2.38
-9 19 -1 -3.35 2.59
-9 19 -1 -2.87 2.84
-1 9 -19 1.04 2.65
-19 -1 9 -1.14 3.23
-19 1 -9 6.09 2.27
-9 -19 -3 12.45 2.65
-9 -19 -3 10.66 2.76
-3 -9 -19 15.84 3.57
3 -9 19 10.46 2.46
3 -9 19 7.31 3.46
3 -9 19 16.14 4.45
3 -9 19 17.02 4.92
3 9 -19 17.06 3.29
3 9 -19 12.82 3.29
3 9 -19 13.97 3.07
9 19 -3 12.08 3.58
9 19 -3 5.33 3.81
-3 -9 -19 11.55 3.36
19 -3 9 11.65 3.94
19 3 -9 14.65 3.75
19 -3 9 12.88 2.5
-9 19 3 11.18 2.43
-9 -19 -3 11.53 4.14
9 -19 3 2.11 4.69
-19 3 9 10.2 2.96
-19 3 9 10.73 4.6
-9 -19 -3 14.62 3.8
-19 -3 -9 20.31 3
-3 9 19 11.31 2.73
-9 19 3 6.72 3.21
19 -3 9 6.61 4.18
-3 9 19 15.81 3.63
-19 3 9 5.03 2.82
-19 3 9 13.85 3.1
-19 3 9 7.62 2.83
-19 -3 -9 11.23 3.44
9 19 -3 11.12 3.07
-9 19 3 9.27 3.15
-3 9 19 11.49 4.17
19 3 -9 7.25 3.31
-9 -19 3 7.71 3.23
-19 3 -9 12.05 2.5
3 -9 -19 16.54 3.77
-19 -3 9 11.25 3.6
9 19 3 13.75 3.3
-3 9 -19 9.64 2.9
-3 -9 19 6.24 4.16
-19 3 -9 16.71 3.44
-9 -19 3 21.4 4.44
9 -19 -3 11.55 3.52
9 -19 -3 15.25 4.04
-3 9 -19 15.67 3.3
-19 -3 9 3.73 2.86
3 9 19 15.7 2.89
3 9 19 12.02 3.95
3 9 19 16.2 4.23
19 -3 -9 12.19 3.73
19 -3 -9 6.92 3.23
-3 9 -19 8.29 3.08
-3 -9 19 6.43 4.94
-9 -19 3 16.28 3.61
9 19 3 11.21 3.25
-9 19 -3 11.33 3.13
19 3 9 7.86 3.75
19 3 9 12.73 4.36
3 9 19 7.35 3.31
9 19 3 11.29 3.43
-3 9 -19 8.6 3.52
3 -9 -19 17.91 3.45
-19 -3 9 12.84 4.57
5 9 -19 34 4.63
-19 5 9 30.82 6.05
19 5 -9 35.21 5.06
-9 -19 -5 47.41 5.24
-19 -5 -9 54 5.54
-19 -5 -9 33.51 4.78
9 19 -5 31.61 5.04
5 9 -19 29.19 4.5
19 5 -9 29.36 5.09
-5 9 19 47.09 6.2
-19 5 9 50.67 6.01
-9 -19 -5 30.3 5.37
9 -19 5 49.9 6.54
9 -19 5 35.11 6.28
9 19 -5 35.01 4.41
5 9 -19 33.41 4.61
-19 5 9 46.48 6.27
-5 9 19 39.48 5.77
-5 -9 -19 51.81 5.84
-9 -19 -5 34.08 4.92
-9 -19 -5 38.13 4.76
-9 -19 -5 29.28 4.16
5 -9 19 40.78 5.94
19 -5 9 25.14 5.46
19 5 -9 31.88 4.57
5 -9 19 34.57 5.59
-9 19 5 42.87 4.95
-9 19 5 45.02 5.81
-9 19 5 32.71 4.84
-5 -9 -19 48.56 5.94
-19 5 9 39.18 5.28
-5 -9 -19 41.39 5.34
-19 5 9 31.45 4.18
-5 9 19 46.97 5.04
-19 5 9 26.71 4.47
-5 -9 19 26.98 6.13
-19 5 -9 34.19 4.84
-9 -19 5 34.83 4.71
19 5 9 53.42 5.44
-5 -9 19 31.33 4.5
9 19 5 48.66 6.42
5 -9 -19 37.41 4.91
-9 -19 5 58.75 7.75
-9 -19 5 38.37 5.06
-19 -5 9 31.28 4.89
-9 19 -5 44.84 5.95
5 9 19 48.98 5.48
5 9 19 35.44 4.72
19 5 9 26.67 4.97
19 5 9 33.07 5.49
-19 -5 9 39.91 6.04
9 -19 -5 31.65 5.33
5 -9 -19 46.46 5.59
19 -5 -9 38.11 5.1
19 -5 -9 36.32 4.52
-5 9 -19 36.98 4.93
5 9 19 46.77 5.89
-19 -5 9 23.13 4.5
9 19 5 53.43 5.93
9 19 5 44.11 5.89
-5 -9 19 24.84 5.27
5 9 19 23.6 5.06
5 9 19 52.52 6.83
-5 9 -19 29.55 4.56
9 -19 -5 48.38 5.97
-9 19 7 56.98 7.54
-19 -7 -9 53.9 7.43
-9 -19 -7 70.8 7.09
19 -7 9 72.98 7.68
-7 9 19 64.25 8.8
9 -19 7 67.14 7.87
9 -19 7 44.42 7.76
9 19 -7 53.72 6.89
9 19 -7 58.49 8.02
19 7 -9 41.29 6.93
-7 9 19 62.48 7.5
19 7 -9 61.43 7.13
19 7 -9 60.16 7.68
7 9 -19 57.59 7.14
19 -7 9 39.67 7.05
-9 -19 -7 54.58 6.91
-19 7 9 54.51 7.43
7 -9 19 85.14 9.23
-7 -9 -19 66.81 7.1
7 9 -19 58.87 7.09
-19 7 9 54.17 7.21
-9 -19 -7 66.92 7.45
-9 19 7 82.53 7.37
-7 9 19 59.64 6.39
-19 7 9 62.73 7.42
-7 -9 -19 67.18 7.17
-19 7 9 57.3 6.29
-19 -7 -9 65.17 7.08
7 -9 19 57.3 8.47
-9 -19 -7 58.26 6.44
-7 -9 -19 62.97 7.09
-7 9 -19 68.28 7.81
19 -7 -9 63.13 6.74
-19 -7 9 49.35 7.3
7 -9 -19 55.51 7.52
9 19 7 69.32 7.35
-7 9 -19 64.11 7.06
-9 19 -7 62.46 7.57
-7 -9 19 36.74 7.81
-19 -7 9 54.73 7.6
7 9 19 62.83 7.62
9 -19 -7 65.52 7.61
9 19 7 65.42 7.51
19 7 9 57.77 8.35
-9 -19 7 63.65 7.34
-9 -19 7 74.3 8.96
9 19 7 65.57 8.05
19 7 9 67.13 8.75
9 -19 -7 63.77 8.51
-19 7 -9 52.79 7.17
19 -7 -9 55.36 7.6
-19 -7 9 67.92 9.08
-19 7 -9 58.45 7.4
-19 7 -9 54.97 8.16
-9 19 -7 71.67 6.36
7 -9 -19 61.97 6.89
-9 9 19 64.5 7.98
-19 9 9 57.49 7.84
-19 -9 -9 64.46 8.25
-9 -9 -19 76.06 7.34
-19 -9 -9 58.79 7.81
-19 -9 -9 64.09 7.54
19 9 -9 61.85 7.35
19 9 -9 61.89 8.1
-9 -19 -9 69.59 6.9
-9 19 9 76.16 7.65
-9 19 9 53.97 7.87
-19 9 9 60.26 7.85
-9 9 19 64.99 6.6
9 -19 9 71.82 7.27
-9 -19 -9 65.58 7.72
-9 -19 -9 77.77 7.34
9 -19 9 76.35 8.52
9 -19 9 68.99 9.8
9 -9 19 48.91 7.66
-9 -9 -19 73.46 7.54
-19 9 9 57.9 7.83
-19 9 9 71.66 6.59
9 19 -9 74.76 8.47
9 19 -9 59.97 7.25
19 -9 9 69.68 8.3
9 -9 19 77.42 9.56
-9 9 19 64.72 9.36
9 9 -19 61.16 7.46
-9 19 -9 66.85 6.82
-9 -9 19 45.77 8.25
19 -9 -9 63.93 7.78
-9 9 -19 68.79 8.45
9 -19 -9 66.35 7.95
9 9 19 69.06 8.12
9 9 19 48.39 7.69
-19 9 -9 79.47 7.91
-9 19 -9 61.83 7.84
9 19 9 67.44 8.35
19 9 9 72.63 8.67
9 19 9 56.64 8.07
9 -9 -19 45.09 6.84
19 -9 -9 68.75 6.87
-19 9 -9 60.81 7.71
9 -19 -9 63.66 9.24
19 9 9 68.74 8.76
-19 9 -9 60.62 8.81
-9 -19 9 69.44 9.66
-19 -9 9 45.5 8.04
9 -9 -19 71.16 7.1
-9 9 -19 66.2 7.55
-19 -9 9 62.55 8.17
-9 -19 9 73.04 7.6
-19 -11 -9 24.5 4.62
11 -9 19 17.27 5.24
-19 11 9 20.81 4.55
-19 11 9 18.56 4.23
-19 11 9 22.44 4.33
-11 -9 -19 31.92 4.31
-11 -9 -19 34.97 4.57
11 9 -19 22.34 4.31
-19 -11 -9 25.64 4.38
-19 -11 -9 26.63 4.32
-11 9 19 26.39 4.49
-11 9 19 18.53 5.47
9 19 -11 28.25 4.17
9 19 -11 29.12 4.8
19 11 -9 27.56 4.78
9 -19 11 25.6 4.2
-9 19 11 21.45 4.24
19 -11 9 19.43 5.25
19 11 -9 21.77 4.12
9 -19 11 33.26 5.12
11 -9 19 40.09 6.09
-11 9 19 24.04 3.54
-9 -19 -11 32.44 4.44
-9 -19 -11 25.88 3.95
-9 -19 -11 30.89 4.76
9 -19 11 34.98 6.35
19 -11 9 29.25 5.36
-19 11 -9 23.6 4.5
11 -9 -19 33.39 4.2
9 -19 -11 25.15 5.28
-9 19 -11 21.02 4.14
11 9 19 24.91 5.44
9 -19 -11 24.84 5.04
9 19 11 28.71 4.97
19 11 9 28.5 4.93
19 -11 -9 26.77 4.8
19 -11 -9 22.01 5.66
-9 19 -11 28.51 3.9
-19 11 -9 21.76 4.82
-9 -19 11 30.71 4.57
-9 -19 11 26.21 5.84
11 9 19 29.86 4.9
-11 9 -19 29.53 4.69
-19 -11 9 31.85 4.84
19 11 9 24.57 5.27
-11 9 -19 26.27 4.3
-19 11 -9 30.99 4.58
11 -9 -19 22.82 4.84
-19 -11 9 20.11 6.23
9 19 11 26.06 4.71
-11 -9 19 22.57 6.09
-11 -19 -1 -1.21 3.43
19 -1 11 4.8 2.38
1 -11 19 -0.48 4.1
19 1 -11 -4.85 3.19
1 -11 19 1.12 2.31
19 -1 11 2.75 3.83
-11 19 1 -2.48 2.92
-1 -11 -19 -0.52 3.05
-1 -11 -19 0.48 3.16
1 -11 19 1.68 3.04
1 -11 19 -1.4 4.58
-11 19 1 -4.27 2.88
1 11 -19 -0.35 2.81
1 11 -19 0.82 2.79
1 11 -19 -0.08 2.94
-19 1 11 3.89 2.64
-19 1 11 -2.01 4.35
-1 11 19 0.51 2.33
-1 11 19 1.55 3.41
-1 11 19 -1.25 4.06
11 -19 1 -2.96 2.85
11 -19 1 -4.38 4.09
-11 19 1 0.68 1.92
11 19 -1 -2.09 2.77
11 19 -1 -1.56 3.34
-19 1 11 5.98 2.8
-19 1 11 1.08 2.45
-19 -1 -11 7.36 2.53
-19 -1 -11 0.27 3.31
19 -1 11 3.64 4.21
-11 -19 -1 0.12 4.04
-1 -11 19 2.14 4.06
-1 -11 19 -1.14 4.98
-11 19 -1 1.33 2.99
19 1 11 8.15 2.6
19 1 11 3.05 3.73
19 1 11 -1 4.1
1 11 19 0.04 3.95
-11 -19 1 4.85 4.17
-1 11 -19 0.81 2.77
-1 11 -19 2.41 2.79
11 -19 -1 0.66 3.05
-19 -1 11 1.64 4.62
-19 1 -11 8.56 2.4
-19 1 -11 4.09 3.14
11 19 1 0.76 2.96
11 19 1 5.09 3.34
11 19 1 -3.79 3.35
-11 -19 1 -1.23 3.33
-11 -19 1 -1 2.87
19 -1 -11 0.28 3.26
11 -19 -1 -0.55 3.74
1 -11 -19 -0.46 3.04
-1 -11 19 -0.7 2.83
19 -1 -11 1.79 3.49
19 -1 -11 -5.03 3.19
1 -11 -19 -1.91 3.13
-11 19 -1 -0.82 2.93
-1 -11 19 2.48 2.63
1 11 19 1.29 3.27
-19 -1 11 2.74 2.65
1 11 19 1.34 2.36
11 -19 3 -2.06 4.41
-19 -3 -11 3.53 3.43
-3 11 19 9.3 4.4
-11 -19 -3 5.52 3.6
-3 11 19 7.31 2.52
-19 3 11 1.58 2.63
-11 19 3 2.94 3.02
-11 19 3 5.49 2.88
-3 -11 -19 8.98 3.29
-3 -11 -19 11.81 3.48
19 3 -11 3.2 3.29
19 3 -11 8.47 3.46
-19 3 11 5.51 4.49
-3 11 19 8.41 3.45
19 -3 11 1.54 4.4
11 19 -3 3.43 3.49
3 11 -19 8.82 2.88
-19 -3 -11 13.42 2.91
-19 3 11 5.63 2.9
-11 19 3 7.42 2.28
19 -3 11 8.02 3.8
3 11 -19 7.49 3.01
11 19 -3 5.71 2.96
3 -11 19 9.3 4.6
3 -11 19 3.54 3.34
3 -11 19 3.84 4.27
3 -11 -19 5.77 3.47
-3 -11 19 5.51 5
19 3 11 8.87 4.5
3 11 19 13.24 2.93
-3 -11 19 6.92 2.87
3 11 19 10.27 3.95
3 11 19 3.36 3.21
11 -19 -3 10.6 3.41
11 -19 -3 4.48 3.97
-19 -3 11 -1.34 2.68
-19 -3 11 3.27 4.68
-19 3 -11 10.19 3.38
11 19 3 7.58 3.56
11 19 3 4.91 3.4
-3 -11 19 8.31 2.92
-19 -3 11 8.47 3.6
-3 -11 19 6.12 4.28
-3 11 -19 2.67 2.96
-11 -19 3 14.72 4.43
-11 19 -3 6.4 3.06
3 11 19 4.39 3.78
19 3 11 10.92 2.93
19 3 11 5.48 3.86
-11 -19 3 9.96 3.52
19 -3 -11 8.65 3.69
19 -3 -11 0.69 3.18
-3 11 -19 6.9 3.03
5 11 -19 16.01 3.48
-5 -11 -19 29.28 3.96
-5 -11 -19 16.01 3.35
5 -11 19 17.68 4.91
11 -19 5 21.49 4.29
11 -19 5 15.7 5.5
11 19 -5 15.05 3.49
-11 -19 -5 16.51 3.25
-19 5 11 14.7 3.04
-19 5 11 13.02 3.43
-19 5 11 13.56 5.11
-11 -19 -5 16.46 4.37
-11 -19 -5 22.25 4.03
5 -11 19 8.15 4.19
-19 -5 -11 16.57 3.99
-11 19 5 19.54 3.83
-5 -11 -19 22.9 3.86
5 -11 19 29.25 5.58
19 5 -11 19.84 4.07
-5 11 19 15.72 3.87
-19 -5 -11 23.21 3.63
19 -5 11 10.39 4.76
19 5 -11 16.74 3.7
-11 19 5 15.95 2.99
11 19 -5 15.87 4.11
-11 19 5 20.66 3.75
-5 11 19 17.21 4.87
19 -5 -11 20.81 3.74
19 -5 -11 23.43 4.42
-19 5 -11 24.8 4.04
-5 11 -19 23.8 3.97
-11 19 -5 19.07 3.58
-5 -11 19 11.35 5.55
-5 11 -19 18.98 3.7
-11 -19 5 25.09 5.02
5 11 19 28.77 3.51
5 11 19 12.52 3.69
5 11 19 10.34 4.36
5 11 19 26.86 4.44
5 11 19 22.61 3.71
5 -11 -19 17.67 4.38
11 -19 -5 12.69 4.58
-19 -5 11 15.42 4.18
-19 -5 11 10 3.21
-19 -5 11 17.53 5.26
-11 -19 5 25.51 4.33
11 19 5 21.83 4.3
11 19 5 23.23 3.95
19 5 11 18.1 4.87
19 5 11 14.42 4.26
11 -19 -5 22.49 4.22
5 -11 -19 22.33 3.7
-19 -7 -11 20.45 4.35
-11 19 7 31.95 4.19
19 -7 11 15.74 5.13
-11 19 7 21.55 4.24
-7 -11 -19 28.58 4.21
-7 -11 -19 32.08 4.27
-11 -19 -7 29.98 4.49
-11 -19 -7 27.73 3.94
-19 7 11 20.22 4.08
7 -11 19 33 6.1
-19 -7 -11 29.64 4.18
-19 7 11 17.77 3.96
11 -19 7 27.45 5.96
19 -7 11 34.54 4.77
19 7 -11 24.8 4.08
19 7 -11 24.11 4.39
-19 7 11 22.17 3.26
-7 11 19 21.71 4.3
-7 11 19 28.27 5.34
-19 7 11 15.5 5.6
7 -11 19 23.27 5.22
11 19 -7 24.8 3.98
7 11 -19 26.45 4.14
11 -19 7 24.62 4.66
-11 -19 -7 26.62 4.43
-7 -11 -19 25.5 3.78
11 19 -7 27.55 4.73
7 11 19 24.48 4.29
11 -19 -7 28.51 4.75
-11 -19 7 27.12 5.75
11 -19 -7 23.9 4.97
11 19 7 20 4.5
11 19 7 26.09 4.6
19 -7 -11 24.16 4.63
19 -7 -11 28.97 3.96
7 -11 -19 22.61 4.45
7 11 19 21.65 4.89
-11 -19 7 25.23 4.26
-19 -7 11 23.12 5.66
-11 19 -7 23.47 4.02
-19 7 -11 22.59 4.7
19 7 11 25.74 5.26
-11 19 -7 38.01 4.54
-19 7 -11 23.02 3.88
-19 7 -11 27.7 4.47
-7 -11 19 11.94 5.79
-7 11 -19 26.32 4.08
-7 11 -19 22.24 4.48
-19 -7 11 19.9 4.48
-19 -7 11 16.85 3.73
19 7 11 23.59 4.96
-11 -19 -9 27.26 4.11
11 -19 9 30.09 6.35
11 19 -9 23.74 4.17
11 19 -9 25.32 4.84
-9 11 19 22.63 4.48
-19 -9 -11 22.58 4.35
11 -19 9 25.18 5.05
-19 9 11 25.55 4.33
19 -9 11 22.34 5.37
-19 -9 -11 26.3 4.48
11 -19 9 21.86 3.84
9 -11 19 33.02 6.34
9 11 -19 26.21 4.23
-11 19 9 29.16 4.49
-9 -11 -19 27.14 4.22
-9 -11 -19 29.3 4.42
9 -11 19 21.97 5.36
-19 9 11 19.61 4.26
19 9 -11 23.49 4.12
19 9 -11 21.61 4.57
-11 -19 -9 40.41 4.76
-19 9 11 42.84 4.29
-19 9 11 30.15 4.38
-11 -19 -9 28.8 4.71
-9 11 19 35.39 5.77
11 19 9 21.66 4.72
-9 11 -19 26.91 4.68
19 9 11 26.07 4.98
9 11 19 29.12 4.59
-19 -9 11 27.98 4.74
-9 11 -19 24.33 4.18
11 -19 -9 17.87 5.15
-11 19 -9 24.14 4.24
-19 -9 11 19.68 4.07
-11 -19 9 32.38 5.93
9 11 19 27.48 5.39
11 -19 -9 25.28 5.05
-9 -11 19 12.09 6.02
-19 -9 11 20.78 6
-19 9 -11 18.87 4.56
-19 9 -11 30 5.06
-19 9 -11 22.65 4.11
11 19 9 20.79 4.95
19 -9 -11 30.6 4.88
19 -9 -11 33.16 3.94
19 9 11 21.79 5.53
9 -11 -19 24.94 4.82
-11 19 -9 41.56 4.88
-11 -19 9 28.95 4.45
1 13 -19 -6.71 3.03
-19 -1 -13 8.25 2.94
13 19 -1 4.16 3.71
-13 19 1 1.82 2.04
-13 19 1 -1.44 3.17
-1 13 19 -2.17 4.16
13 19 -1 2.91 3.04
1 -13 19 -10.31 3.12
1 -13 19 -0.43 2.42
1 -13 19 3.37 3.19
1 -13 19 1.88 4.19
1 -13 19 4.56 4.72
1 13 -19 -1.83 2.89
1 13 -19 -0.53 3.09
-13 19 1 -1.84 3.3
-19 1 13 4.96 2.85
-19 1 13 3.07 4.78
-13 -19 -1 -0.39 3.54
-13 -19 -1 0.74 4.12
19 -1 13 2.23 4.52
-19 -1 -13 4.28 3.33
13 -19 1 0.11 4.28
-1 -13 -19 2.3 3.27
19 -1 13 12.05 2.72
-19 1 13 0.46 2.54
-1 13 19 4.34 3.58
19 1 -13 3.41 3.74
19 1 -13 -2.42 3.47
19 -1 13 9.42 4.09
-1 -13 -19 1.21 3.27
-1 -13 19 1.44 2.76
-1 -13 19 1.72 3.03
19 -1 -13 -1.03 3.67
19 -1 -13 -10.46 3.39
1 -13 -19 0.23 3.36
-1 13 -19 -1.38 2.83
13 19 1 6.78 3.66
-1 -13 19 -5.01 3.37
-1 -13 19 5.1 4.91
-19 -1 13 4.74 4.96
1 13 19 -3.16 3.5
-13 -19 1 0.91 3.52
13 19 1 3.6 3.19
1 13 19 -2.37 2.47
19 1 13 10.35 2.76
19 1 13 10.4 3.96
19 1 13 5.35 4.65
13 -19 -1 1.75 3.12
13 -19 -1 6.23 4.5
-13 -19 1 9.4 4.22
-13 19 -1 -1.58 3.16
-13 19 -1 -0.46 2.85
1 13 19 -2.25 4.08
-19 1 -13 4.9 2.65
-19 1 -13 2.61 3.24
-1 -13 19 -0.75 4.21
-1 13 -19 -1.79 2.99
13 19 -3 -0.33 3.81
13 19 -3 0.14 3.09
-19 3 13 -2.8 2.47
13 -19 3 -5.1 4.62
3 13 -19 0.11 3.01
3 13 -19 1.48 3.15
3 13 -19 -4.42 2.9
3 -13 19 2.13 4.24
19 -3 13 0.5 4.58
-19 -3 -13 4.47 3.09
-19 -3 -13 -1.18 3.28
-19 3 13 1.5 4.55
-13 -19 -3 -2.75 3.64
-13 19 3 1.6 2.24
-13 19 3 -0.39 3.27
-13 19 3 -0.55 3.23
-3 -13 -19 2.67 3.13
-3 -13 -19 6.71 3.39
-3 -13 -19 -1.78 2.55
19 3 -13 2.88 3.37
-3 13 19 4.08 3.31
-19 3 13 2.72 2.8
13 19 -3 -7.34 3.85
-3 13 19 5.97 4.36
3 -13 19 7.51 5.09
-3 13 -19 -0.8 3.13
-3 -13 19 1.79 2.92
3 13 19 -3.51 3.25
3 -13 -19 -2.01 3.49
3 13 19 6.56 2.61
13 -19 -3 5.8 3.36
-3 -13 19 -0.86 3.55
19 3 13 3.44 3.94
3 13 19 -0.2 4.09
-19 -3 13 -1.46 4.89
-19 3 -13 6.87 3.38
13 -19 -3 0.2 4.24
-3 -13 19 3.78 3.11
-3 -13 19 -7.2 5.22
-3 13 -19 2.97 2.97
-13 -19 3 2.63 3.53
-13 -19 3 12.1 4.54
-3 -13 19 2.05 4.08
13 19 3 2.86 3.53
19 -3 -13 2.5 3.62
19 -3 -13 -4.59 3.27
3 13 19 -2.48 3.14
19 3 13 2.04 4.41
-13 19 -3 0.45 3.06
3 13 19 -1.51 3.74
-5 -13 -19 6.26 3.28
-5 -13 -19 -1.22 2.58
13 19 -5 -3.52 3.81
-5 -13 -19 4.83 3.35
-13 19 5 -1.13 3.07
-13 19 5 3.62 3.13
19 -5 13 -4.41 4.57
-5 13 19 5.62 3.41
-5 13 19 4.98 4.52
-19 5 13 -3.44 4.63
5 -13 19 1.46 4.41
5 -13 19 7.9 5.43
5 13 -19 1.29 2.98
5 13 -19 8.15 3.39
-13 19 5 5.12 2.53
-13 -19 -5 -0.95 3.76
-13 -19 -5 4.27 3.6
-19 5 13 2.14 2.75
-19 -5 -13 -6.83 3.53
-19 -5 -13 7.47 3.35
13 19 -5 0.39 2.99
13 -19 5 1.93 3.71
13 -19 5 0.64 4.98
19 5 -13 6.97 3.48
-5 -13 19 7.57 3.67
13 -19 -5 0.73 4.39
5 13 19 -4.02 3.18
19 -5 -13 1.2 3.24
-5 13 -19 2.28 3.32
13 -19 -5 3.54 3.6
5 13 19 10.33 2.84
19 5 13 6.81 4.64
5 13 19 -8.43 3.85
5 -13 -19 -2.56 3.75
5 13 19 3.64 3.1
-19 -5 13 1.77 3.81
-19 -5 13 -0.59 4.83
-19 5 -13 4.9 3.44
-19 5 -13 3.09 4.08
5 13 19 3.88 3.85
13 19 5 4.31 3.57
-5 -13 19 3.4 2.94
-5 -13 19 -6.16 5.09
-5 13 -19 3.45 3.01
19 5 13 2.19 3.84
-13 -19 5 4.18 3.36
-13 -19 5 11.99 4.72
-13 19 -5 3.25 3.05
19 -5 -13 2.38 3.89
-19 7 13 4.28 3.11
-19 7 13 -2.98 4.81
-13 -19 -7 3.97 3.63
-19 7 13 2.76 2.47
-7 -13 -19 -1.44 3.01
-7 13 19 6.6 4.73
-13 19 7 4.96 3.23
-7 -13 -19 9.89 3.51
7 13 -19 9.85 3.52
-19 -7 -13 -0.76 3.63
-13 19 7 14.88 3.3
19 7 -13 5.02 3.59
7 -13 19 2.91 5.55
13 -19 7 2.22 4.03
13 -19 7 3.08 5.37
13 19 -7 3.47 3.11
13 19 -7 -2.44 3.92
-7 13 19 3.27 3.46
-7 -13 -19 6.46 3.28
7 -13 19 1.2 4.61
7 13 -19 4.11 3.1
19 -7 13 1.09 4.56
19 7 -13 6.29 3.48
-13 -19 -7 8.28 3.87
-13 -19 -7 3.01 2.92
-19 -7 -13 6.17 3.59
13 19 7 7.87 3.86
-19 7 -13 7.17 4.04
19 -7 -13 3.98 3.95
7 13 19 1.62 3.47
-19 -7 13 3.81 3.78
-7 -13 19 5.86 3.76
-7 -13 19 12.87 3
-13 -19 7 5.73 3.44
13 -19 -7 5.41 3.9
-13 19 -7 12.26 3.05
-13 19 -7 5.94 3.33
-13 -19 7 10.38 5
7 13 19 3.54 3.96
-19 -7 13 1.79 2.9
-19 -7 13 6.78 5.15
13 -19 -7 7.78 4.42
19 -7 -13 6.82 3.27
-7 -13 19 -3.72 5.18
-7 13 -19 2.33 3.21
-7 13 -19 8.78 3.59
13 19 7 3.44 3.84
-19 7 -13 3.91 3.8
7 -13 -19 0.51 3.75
19 7 13 2.89 4.75
19 7 13 3.55 4.02
1 -15 19 -2.07 2.68
19 1 -15 -2.8 3.96
15 19 -1 -4.49 3.79
-1 15 19 6.51 3.92
1 15 -19 -2.32 3.41
1 15 -19 -1.71 3.23
15 19 -1 5.86 3.99
-19 1 15 1.13 3.06
1 -15 19 9.25 5.39
1 -15 19 -0.95 4.59
-1 15 19 13 4.74
-19 -1 -15 3.75 2.86
-19 -1 -15 -0.65 3.3
15 -19 1 -2.08 4.52
-15 19 1 1.51 2.23
-15 19 1 -1.21 3.46
-15 19 1 -0.99 3.46
-1 -15 -19 1.66 3.4
19 -1 15 12.79 4.37
19 -1 15 2.53 5.04
19 1 -15 -2.35 3.88
15 19 -1 1.36 3.3
-19 1 15 5.43 5.04
1 15 -19 -3.1 3.08
-15 -19 -1 0.82 3.7
-19 1 15 0.42 3.05
19 -1 15 11.11 2.77
-1 15 -19 -9.14 3.61
19 -1 -15 -8.02 3.75
15 19 1 4.33 3.93
-1 -15 19 -7.16 3.37
-1 -15 19 -6.45 2.86
-1 -15 19 3.81 4.5
1 -15 -19 -2.98 3.5
19 1 15 14.24 3.11
19 1 15 11.09 4.38
19 1 15 15.8 4.98
15 19 1 3.24 3.53
-1 15 -19 -4.02 2.84
19 -1 -15 0.61 3.76
-15 -19 1 1.05 3.54
-15 -19 1 11.66 4.5
-15 19 -1 -2.47 3.49
-1 -15 19 7.35 5.06
-19 1 -15 3.32 3.48
15 -19 -1 3.92 4.57
1 15 19 2.01 4.49
15 -19 -1 0.25 3.43
-19 1 -15 7.07 2.88
1 15 19 4.7 4.03
-1 15 -19 -3.13 3.35
-19 -1 15 4.66 5.18
-19 3 15 -1.33 3.17
-15 -19 -3 -9.62 3.5
-19 -3 -15 -0.15 3.36
3 15 -19 -1.69 3.39
-19 -3 -15 4.66 3.11
-3 -15 -19 -2.45 3.31
-3 -15 -19 -5.34 2.61
-15 19 3 -4.19 3.14
3 15 -19 -1.4 3.01
19 -3 15 -7.99 4.66
-15 19 3 1.73 2.35
-15 19 3 -1.31 3.38
-3 15 19 4.82 3.4
-3 -15 -19 -1.68 3.26
3 -15 19 -2.47 4.6
3 -15 19 0.33 5.54
19 3 -15 -2.4 3.77
15 -19 3 2.28 4.73
3 15 -19 -1.26 2.97
15 19 -3 -1.99 3.98
15 19 -3 2.79 3.16
3 15 19 -5.12 3.84
-3 -15 19 -5.71 3.2
15 -19 -3 0.58 3.57
15 -19 -3 -2.58 4.5
-19 3 -15 2.69 3.45
3 15 19 -2.23 3.18
-3 -15 19 -5.52 3.47
15 19 3 -0.42 3.76
19 -3 -15 -1.07 3.78
19 -3 -15 -6.11 3.44
-3 -15 19 -0.39 4.29
3 15 19 -7.79 3.3
19 3 15 6 3.05
19 3 15 4.35 4.23
19 3 15 9.11 5
-15 -19 3 3.21 3.85
-15 -19 3 6.95 4.54
-15 19 -3 -2.48 3.41
-3 15 -19 -1.31 2.92
-3 15 -19 2.13 3.3
3 15 19 4.27 2.61
3 -15 -19 -2.93 3.8
-20 0 0 76.7 6.87
-20 0 0 65.24 6.69
-20 0 0 59.85 7.52
-20 0 0 61.82 7.55
0 -20 0 66.03 6.95
0 -20 0 58.84 8.42
0 0 -20 62.19 7.11
0 0 -20 68.48 7.04
0 0 -20 62.8 7.96
0 0 20 63.81 6.65
0 0 20 56.7 8.27
0 0 20 68.07 8.84
0 20 0 59.45 6.43
0 20 0 61.86 7.44
0 20 0 56.36 7.09
20 0 0 59.68 7.99
20 0 0 58.71 7.38
-2 0 20 34.55 5.67
0 -20 -2 31.39 4.68
0 -20 -2 28.23 5.54
0 -20 2 36.33 4.54
0 -20 2 32.12 5.54
0 20 -2 43.2 4.56
0 20 -2 33.47 4.57
0 20 -2 42.29 5.2
0 20 -2 39.67 4.82
0 20 2 31.46 4
0 20 2 37.66 4.68
0 20 2 26.82 4.37
2 0 -20 34.16 4.72
2 0 -20 33.99 4.55
2 0 -20 32.45 4.46
2 0 20 38.81 4.68
2 0 20 34.98 5.32
2 0 20 32.12 5.56
20 -2 0 26.25 5.1
20 -2 0 27.61 4.77
20 2 0 32.67 4.95
20 2 0 33.44 4.6
-20 2 0 52.3 5.53
-2 0 -20 42.65 4.62
-2 0 -20 47.96 5.57
-2 0 -20 27.04 4.86
-2 0 20 29.47 4.25
-2 0 20 33.74 5.12
-20 2 0 24.08 4.77
-20 -2 0 30.94 4.66
-20 -2 0 30.2 4.63
-20 2 0 33.54 4.14
-20 2 0 40.89 4.77
-20 2 0 30.68 4.65
-20 -2 0 31.95 4.43
-20 -2 0 25.15 4.24
-4 0 -20 8.94 3.02
-4 0 20 8.13 3.54
-4 0 20 7.69 4.31
0 -20 -4 10.63 3.44
0 -20 -4 8.64 3.02
0 -20 -4 5.49 3.99
0 -20 4 12.13 3.23
-4 0 -20 9.47 3.33
-4 0 -20 10.6 3.42
-20 4 0 9.59 2.72
-20 4 0 12.25 3.44
-20 4 0 4.64 2.84
-20 4 0 3.63 3.32
-20 4 0 11.72 2.81
-20 4 0 8.75 2.53
0 20 -4 4.25 2.62
0 20 -4 6.32 2.66
0 20 4 9.18 2.57
0 20 4 6.48 2.99
-20 -4 0 4.24 2.87
-20 -4 0 7.93 3.28
4 0 -20 8.53 2.98
4 0 20 0.71 4.09
4 0 20 3.38 4.14
20 -4 0 3.7 3.35
20 -4 0 6.01 3.73
20 4 0 8.4 3.78
20 4 0 9.93 3.24
0 20 4 6.56 2.86
4 0 -20 9.58 3.19
4 0 -20 6.67 3.17
0 20 -4 11.51 3.06
0 20 -4 9.09 2.25
0 -20 4 8.24 4.43
0 20 6 -0.78 2.89
0 20 -6 0.5 2.37
-20 6 0 -2.32 2.33
-20 6 0 -1.3 3.44
-20 6 0 -1.35 2.55
-6 0 -20 -1.06 2.89
0 20 -6 -1.5 2.4
0 20 -6 -0.49 2.68
0 20 -6 1.88 2.5
6 0 -20 -1.87 3
6 0 -20 -0.76 2.51
6 0 20 1.24 2.32
6 0 20 -1.18 3.84
6 0 20 -7.27 3.95
20 -6 0 -1.04 3.25
20 -6 0 -1.16 3.67
20 6 0 -1.83 3.52
-20 -6 0 3.21 2.92
-6 0 -20 -0.66 3.07
-6 0 -20 -2.41 2.66
-6 0 -20 -0.52 2.81
-6 0 20 -0.83 3.29
-6 0 20 1.07 4.21
0 -20 -6 -1.89 3.23
0 -20 -6 0.13 3.39
0 -20 6 -2.9 2.78
0 -20 6 -0.81 2.47
0 20 6 1.05 2.54
6 0 -20 -0.8 2.78
-20 6 0 0.27 2.19
-20 6 0 0.9 2.43
-20 6 0 0.27 2.95
0 20 -6 2.29 1.94
0 -20 6 1.14 4.15
-6 0 -20 1.31 2.94
20 8 0 2.94 3.73
-8 0 -20 2.2 3.01
-8 0 -20 3.55 3.28
20 -8 0 6.95 4.02
20 -8 0 3.43 3.42
8 0 20 3.12 4.08
-8 0 20 7.01 4.71
0 20 8 5.94 2.82
8 0 -20 5.34 3.12
8 0 -20 5.78 3.11
8 0 20 3.92 2.46
8 0 20 3.23 4.04
-20 8 0 3.26 2.92
-8 0 -20 4.62 2.9
-8 0 20 8.52 3.49
-20 -8 0 5.49 3.1
-20 8 0 9.06 2.46
-20 8 0 4 2.57
-20 8 0 5.68 3.07
-20 8 0 7.22 2.63
-20 8 0 6.77 3.58
0 20 -8 7.54 2
0 20 -8 5.3 2.75
0 20 -8 5.55 2.98
0 20 -8 4.14 2.65
0 -20 -8 5.84 3.4
0 -20 8 3.94 3.07
0 -20 8 6.76 2.79
0 -20 8 1.99 4.39
0 20 8 5.13 3.25
0 -20 -8 5.11 3.78
-8 0 -20 2.34 3.13
0 20 10 11.6 3.55
0 20 -10 9.2 3.1
10 0 20 -1.86 4.36
20 -10 0 6.19 3.76
20 -10 0 10.61 4.42
-20 10 0 9.72 3.72
-10 0 -20 6.91 3.2
-10 0 -20 5.48 3.22
10 0 -20 8.76 3.41
20 10 0 2.72 3.73
-10 0 20 7.43 4.81
0 -20 -10 4.67 3.85
0 -20 -10 11.06 4.18
0 -20 10 1.84 3.16
0 -20 10 2.61 3.64
0 -20 10 6.41 4.58
0 20 -10 11.48 2.04
0 20 -10 8.13 2.95
-10 0 20 2.58 3.47
0 20 -10 9.33 3.19
10 0 20 7.56 2.9
-20 -10 0 6 3.21
0 20 10 9.84 3.33
10 0 -20 2.13 3.42
-20 10 0 13.98 2.75
-20 10 0 9.26 3.45
-20 10 0 13.28 2.91
0 -20 12 14.69 5.25
-20 12 0 12.86 4.15
-12 0 -20 13.79 3.51
-12 0 -20 9.73 3.64
0 -20 12 7.88 4.31
-12 0 20 19.42 5.36
0 -20 -12 21.76 4.22
0 -20 -12 22.14 4.77
0 -20 12 11.41 3.53
12 0 -20 13.24 3.47
-20 12 0 14.91 3.9
-20 12 0 22.69 3.3
12 0 20 14.73 3.32
12 0 20 9.77 5.02
20 -12 0 15.02 3.87
20 -12 0 11.83 4.41
20 -12 0 22.65 5.15
20 12 0 15.34 3.79
20 12 0 11.39 4.3
0 20 -12 23.42 3.61
0 20 -12 19.05 3.75
0 20 -12 11.75 3.52
12 0 -20 19.92 3.99
-12 0 20 14.19 4.08
-20 -12 0 17.09 4.03
-20 12 0 20.38 3.08
12 0 -20 14.23 3.87
0 20 12 19.62 4.14
0 20 12 19.63 3.92
-14 0 -20 25.08 4.41
0 -20 14 24.61 4.98
-14 0 -20 26.3 4.03
14 0 -20 29.92 4.56
14 0 20 24.35 4.02
0 20 -14 26.11 4.06
20 -14 0 34.61 5.72
20 14 0 32.33 4.46
0 -20 14 26.24 4.39
14 0 20 22.26 5.76
20 -14 0 24.27 4.41
0 20 -14 34.21 4.76
0 20 -14 12.49 4.26
0 20 14 30.7 4.77
14 0 -20 20.42 4.46
0 -20 -14 33.73 4.99
0 -20 -14 37.4 5.32
20 -14 0 19.9 4.75
0 -20 14 23.9 4.01
-20 14 0 28.98 4.8
-14 0 20 22.69 4.55
-20 -14 0 26.02 4.46
-20 14 0 22.39 3.49
0 -2 -20 45.27 5.58
0 2 20 41.08 5.41
2 -20 0 34.12 4.45
0 -2 -20 38.62 4.45
-2 20 0 29.96 3.77
-2 20 0 34.74 4.41
-2 20 0 30.23 4.17
-20 0 -2 28.17 4.71
0 -2 20 27.19 5.17
0 -2 20 27.72 5.69
-20 0 2 29.87 4.69
-20 0 2 31.11 4.64
-2 -20 0 36.2 4.54
-2 -20 0 34.26 5.49
20 0 -2 29.76 4.9
20 0 -2 19.29 4.47
20 0 2 31.92 5.01
20 0 2 36.71 4.85
0 2 -20 37.89 4.55
0 2 -20 35.68 4.37
0 2 -20 28.53 4.62
0 2 -20 29.36 4.94
0 2 20 40.67 4.84
0 2 20 32.8 4.98
-20 0 2 24.81 4.17
-20 0 2 29.62 4.15
2 -20 0 29.63 5.69
2 20 0 38.08 4.49
-2 20 0 36.54 5.08
2 20 0 30.28 4.5
2 20 0 27.27 4.09
2 20 0 26.98 4.08
-20 0 -2 37.85 4.8
-20 0 -2 41.11 4.99
-20 0 -2 34.83 4.73
0 -2 20 30.89 4
0 -2 -20 28.83 4.78
-20 0 2 29.18 4.66
-20 0 2 29.28 5.08
-20 2 2 24.71 3.88
-20 2 2 15.26 4.32
-20 2 2 33.66 4.72
2 -20 2 24.4 5.07
-2 -2 -20 30.66 3.96
2 -2 20 21.96 5.01
-2 -20 -2 35.64 4.64
2 -2 20 37.59 3.52
-20 -2 -2 26.16 3.86
2 20 -2 19.72 3.7
2 -20 2 26.6 3.89
-2 20 2 22.77 3.38
-2 20 2 27.98 4.12
-2 20 2 24.76 3.81
-2 20 2 24.04 3.8
-2 2 20 27.61 4.98
-2 -20 -2 24.91 4.99
2 -2 20 20.56 5.19
2 2 -20 25.29 4.06
2 2 -20 23.75 3.89
-20 2 2 23.39 3.58
2 2 -20 25.83 4.01
-20 -2 -2 21.87 4.23
-2 -20 -2 30.43 4.17
-2 2 20 26.8 3.89
2 20 -2 33.69 4.11
-20 2 2 21.09 3.51
2 20 -2 22.88 3.45
20 -2 2 16.41 4.48
20 -2 2 26.85 4.38
20 2 -2 20.9 4.37
20 2 -2 18.82 3.76
-2 -2 -20 25.84 4.3
-20 2 2 11.35 4.03
-20 2 2 25.54 3.93
-2 -2 -20 32.57 4.02
-20 2 2 25.11 4.13
-20 -2 -2 24.13 4.22
2 20 -2 22.57 3.42
-2 2 20 24.96 4.22
2 20 2 17.43 3.64
-20 -2 2 24.91 3.85
-20 -2 2 28.08 4.16
20 2 2 24.9 4.44
-2 -2 20 20.28 3.64
-2 -20 2 25.03 3.96
-20 -2 2 14.91 4.56
-2 2 -20 33.33 4.07
-2 20 -2 22.07 3.55
-20 2 -2 25.14 3.33
-2 20 -2 19.55 3.51
2 -2 -20 31.02 4.21
2 20 2 24.65 4.13
-20 2 -2 29.26 3.61
-20 2 -2 22.58 4.29
-2 20 -2 20.65 3.66
-20 -2 2 22.03 4.48
-2 -2 20 20.11 4.69
-20 -2 2 18.64 4.08
2 -2 -20 24.13 4.67
2 2 20 25.62 3.46
20 -2 -2 12.83 4.1
-20 2 -2 27.22 4.39
-2 2 -20 29.13 3.98
-2 -2 20 24.98 5.31
2 -2 -20 29.6 4.07
2 -20 -2 19.03 4.15
2 -20 -2 17.07 4.91
20 2 2 30.37 4.26
-2 2 -20 18.63 4.37
-2 -20 2 24.42 4.98
2 20 2 22.53 3.34
-2 20 -2 24.98 3.12
2 2 20 24.75 4.72
2 2 20 31.91 4.96
2 20 2 28.24 4.39
20 -2 -2 18 4.45
-20 -2 2 22.59 3.86
-2 20 4 6.98 3.02
-2 20 4 6.32 2.78
-20 -4 -2 7.18 3.03
-20 -4 -2 11.86 3.47
-20 -4 -2 2.91 3.17
20 -4 2 4.72 3.52
-20 4 2 9.72 2.63
20 4 -2 7.16 3.75
-2 20 4 7.73 2.29
-20 4 2 0.74 3.39
2 20 -4 8.83 2.46
-2 -20 -4 4.53 3.94
-20 4 2 9.11 2.89
-4 -2 -20 11.8 3.25
-4 -2 -20 10.94 3.29
-4 -2 -20 8.87 3.15
20 -4 2 5.56 3.65
2 20 -4 8.95 2.33
20 4 -2 4.11 3.12
-20 4 2 4.49 3.11
-20 4 2 5.03 2.71
-4 2 20 8.17 2.98
-4 2 20 7.34 3.51
-2 -20 -4 4.87 2.86
2 -20 4 5.6 4.17
2 20 -4 6.81 2.63
2 20 -4 7.36 3.1
20 -4 2 5.63 3.7
4 -2 20 1.54 4.33
4 2 -20 6.58 3.14
4 2 -20 5.57 3.05
4 2 -20 6.97 2.73
4 -2 20 9.78 2.41
4 -2 20 5.59 4.12
-20 4 2 5.95 3.01
-20 4 2 7.09 2.57
2 -20 4 8.36 3
-4 2 20 3.64 4.41
-2 -20 -4 8.08 3.51
2 20 -4 6.05 2.53
-20 4 -2 9.56 2.77
-2 -20 4 1.6 4.18
2 20 4 11.54 3.21
2 20 4 5.79 2.67
-20 4 -2 5.93 2.41
2 -20 -4 4.84 3.79
4 2 20 8.69 2.58
-2 20 -4 10.06 2.16
2 -20 -4 6.4 3.29
-2 20 -4 4.7 2.7
-2 20 -4 6.22 2.69
-20 -4 2 11.8 3.24
20 4 2 6.85 2.8
-20 4 -2 11.41 2.65
-4 2 -20 4.88 2.95
4 2 20 8.32 4.13
2 20 4 10.15 3.5
4 -2 -20 10.69 3.39
4 -2 -20 8.4 3.14
4 2 20 6.45 3.86
-2 -20 4 8.9 2.71
20 4 2 5.74 3.67
20 -4 -2 2.33 3.19
-4 -2 20 7.47 2.91
-4 -2 20 5.53 3.74
-4 -2 20 5.03 4.35
-20 4 -2 9.34 3.44
-20 4 -2 8.7 3.81
-4 2 -20 6.47 3.22
-4 2 -20 9.61 3.08
20 4 2 6.61 3.43
-2 -20 4 4.94 3.15
2 20 -6 -2.38 2.19
-2 20 6 -0.57 2.64
20 -6 2 0.23 3.41
20 -6 2 -2.61 3.58
20 6 -2 -3.31 3.06
20 6 -2 -1.02 3.4
6 2 -20 1.39 2.94
-6 -2 -20 -1.62 2.99
-2 -20 -6 2.23 3.19
-2 -20 -6 -0.8 2.5
2 20 -6 0.43 2.89
-2 -20 -6 0.12 3.54
6 2 -20 -0.48 2.93
6 -2 20 -3.62 3.82
6 -2 20 0.47 4.2
-20 -6 -2 1.72 2.64
-20 -6 -2 -1.48 3.03
-2 20 6 -0.25 2.51
-20 6 2 -2.31 2.63
-6 -2 -20 -0.83 2.9
-20 6 2 1.44 2.41
-20 6 2 0.47 2.84
-20 6 2 -3.54 2.27
-20 6 2 -4.27 3.03
6 -2 20 0.1 2.22
2 -20 6 -2.34 2.71
2 20 -6 0.66 1.93
2 20 -6 -0.14 2.38
2 20 -6 -0.75 2.22
2 -20 6 -3.71 4.27
-6 -2 -20 2.59 2.75
-6 2 20 -0.06 3.2
-6 2 20 -3.06 4.12
-6 -2 -20 -3.15 2.55
20 6 2 -4.01 3.14
20 6 2 -2.27 3.72
6 -2 -20 0.04 3.06
-2 20 -6 -2.51 2.86
-2 20 -6 3.06 2.18
-20 6 -2 -0.78 2.25
2 20 6 4 2.99
6 -2 -20 0.39 3.04
2 20 6 2.1 2.83
2 20 6 -0.36 2.49
-6 2 -20 -0.86 2.93
-6 2 -20 0.05 3.08
-20 6 -2 -4.9 3.39
-6 -2 20 -3.05 3.39
-6 -2 20 -0.97 4.18
-20 6 -2 3.62 2.8
-2 20 -6 2.26 1.85
6 2 20 -0.79 3.98
6 2 20 -3.97 3.72
6 -2 -20 -2.74 2.61
2 -20 -6 0.9 3.52
-6 2 -20 -0.3 2.59
-6 2 -20 -0.23 2.85
-20 -6 2 2.16 3.02
-2 -20 6 -0.49 2.98
-2 -20 6 -1.85 2.49
-2 -20 6 0.6 4.22
-20 6 -2 -5.37 2.63
2 -20 -6 -0.7 3.2
-20 6 -2 -0.31 2.18
-20 6 -2 1.86 2.38
20 -6 -2 2.4 3.22
20 -6 -2 -0.63 3.83
-6 2 -20 -3.66 2.64
-20 -8 -2 6.5 3.41
-2 20 8 7.97 3.21
-20 -8 -2 8.15 3.03
2 20 -8 4.95 3.27
8 -2 20 8.53 4.26
2 20 -8 12.58 2.9
-2 -20 -8 7.63 3.56
-2 -20 -8 6.32 3.95
8 -2 20 0.43 4.11
2 -20 8 5.63 2.94
8 2 -20 8.68 3.28
-8 2 20 6.46 3.37
-20 8 2 7.47 2.71
-8 -2 -20 2.6 2.97
-8 2 20 7.22 4.72
2 -20 8 4.17 2.84
-8 -2 -20 8.36 3.25
-2 20 8 4.39 2.89
2 20 -8 8.74 2.12
20 8 -2 4.14 3.27
20 8 -2 3.54 3.66
20 -8 2 5.28 3.62
-20 8 2 6.05 2.55
-20 8 2 4.43 3.24
2 -20 8 7.36 4.63
-20 8 2 6.36 3.45
-20 8 2 0.89 3.17
-8 -2 -20 8.14 3.09
8 2 -20 5.03 2.69
8 -2 20 5.39 2.4
8 2 -20 5.17 3.07
20 -8 2 5.59 4.14
-20 8 -2 6.22 3.02
-20 8 -2 2.48 2.92
-2 -20 8 6.69 4.23
-20 8 -2 5.52 2.52
-8 -2 20 5.01 3.42
-8 -2 20 4.93 4.48
-8 2 -20 2.47 3.04
-2 20 -8 5.13 1.85
8 -2 -20 4.44 2.88
8 2 20 3.85 3.43
-2 -20 8 5.54 3.26
8 -2 -20 7.01 3.21
-2 20 -8 3.43 2.73
-8 2 -20 2.31 3.18
-8 2 -20 6.12 3.55
-8 2 -20 3.85 3.13
8 2 20 11.29 4.33
20 -8 -2 2.33 3.47
-2 20 -8 5.48 3.21
2 20 8 10.39 3.59
2 20 8 9.4 3.29
8 -2 -20 6.47 3.19
20 -8 -2 4.95 4.07
20 8 2 2.63 3.87
2 -20 -8 7.4 3.84
-20 8 -2 7.54 2.5
2 20 8 7.25 2.93
2 -20 -8 4.85 3.5
-8 2 -20 7.06 3.04
-2 20 -8 6.25 2.8
-20 -8 2 8.01 3.2
-20 8 -2 6.12 2.25
-20 8 -2 6.64 3.63
20 10 -2 3.74 3.68
-10 -2 -20 4.95 3.04
2 20 -10 4.76 1.92
-20 10 2 3.8 3.54
-2 -20 -10 -0.59 4.1
2 -20 10 -2.83 4.6
-10 2 20 5.57 4.59
10 -2 20 0.31 2.4
-20 -10 -2 5.35 3.19
-2 20 10 7.99 3.43
20 -10 2 7.41 4.21
20 10 -2 4.44 3.19
-10 2 20 5.39 3.44
-20 10 2 6.14 2.52
10 2 -20 -3.19 2.79
10 2 -20 5.22 3.27
10 2 -20 6.41 3.22
2 20 -10 4.23 3.39
-20 10 2 7.18 2.8
20 -10 2 0.3 3.78
-2 -20 -10 4.11 3.48
-10 -2 -20 3.28 3.16
-20 10 2 4.7 3.36
-2 20 10 1.16 3
10 -2 20 0.77 4.25
10 -2 20 5.89 4.27
2 -20 10 7.12 3.73
2 20 -10 7.19 2.98
-2 20 -10 6.43 3.29
-2 20 -10 5.32 3.07
10 2 20 -2.81 4.16
20 -10 -2 4.51 3.48
2 -20 -10 7.62 3.57
-10 2 -20 2.99 2.96
-10 2 -20 1.3 3.81
-2 -20 10 8.3 4.58
-2 20 -10 2.6 2.75
10 2 20 3.16 3.73
-10 2 -20 4.68 3.41
-20 -10 2 1.94 3.2
20 -10 -2 3.31 4.21
2 -20 -10 7.64 3.95
2 20 10 8.56 3.22
10 -2 -20 5.56 3.4
-2 -20 10 5.82 3.23
-10 -2 20 2.72 4.38
-10 2 -20 2.56 3.04
-20 10 -2 6.2 3.72
-20 10 -2 4.73 3.23
-20 10 -2 6.99 2.5
10 2 20 4.87 2.71
10 -2 -20 8.8 3.43
2 20 10 3.93 3.44
-10 -2 20 -0.43 3.63
20 10 2 -1.95 3.57
-20 10 -2 3.68 2.1
2 20 -12 10.45 3.76
12 2 -20 15.44 3.76
-20 12 2 8.73 2.66
2 -20 12 6.08 4.14
-20 12 2 12.88 2.93
-20 12 2 9.12 3.65
20 -12 2 9.97 3.98
12 2 -20 10.6 3.65
20 12 -2 7.99 3.5
-2 -20 -12 11.37 4.44
20 12 -2 5.69 3.99
20 -12 2 11.55 4.67
-20 -12 -2 11.35 3.46
2 -20 12 6.69 4.98
-2 20 12 5.05 3.45
-2 -20 -12 -2.08 3.83
2 20 -12 5.47 3.11
12 -2 20 5.62 2.73
-20 12 2 5.99 3.51
12 -2 20 6.73 4.73
-2 20 12 10.86 3.62
-12 -2 -20 7.04 3.18
-12 -2 -20 5.8 3.28
-12 2 20 13.64 3.74
-12 2 20 7.8 4.85
12 2 -20 -1.25 2.88
-20 12 -2 9.72 3.83
-2 -20 12 14.11 4.95
-20 -12 2 3.89 3.33
-2 20 -12 10.4 3.52
2 20 12 10.22 3.65
2 20 12 10.15 3.62
12 -2 -20 3.01 3.65
12 -2 -20 11.24 3.77
-12 -2 20 9.43 4.77
-12 2 -20 6.28 3.12
12 2 20 8.77 4.05
-12 2 -20 7.04 4.1
-2 -20 12 3.38 3.22
20 -12 -2 5 4.65
-12 2 -20 4.45 3.38
12 2 20 -0.92 4.71
-20 12 -2 7.55 3.42
20 12 2 0.91 3.87
-2 20 -12 8.83 3.4
20 -12 -2 6.43 3.69
2 -20 -12 10.5 4.31
2 -20 -12 12.38 4.03
12 2 20 8.38 2.98
-12 -2 20 0.29 3.66
-2 20 -12 12.87 3.24
-20 12 -2 8.39 2.83
-2 -20 -14 16.95 4.76
14 2 -20 17.14 4.09
20 -14 2 21.29 5.25
20 -14 -2 14.82 5.31
2 -20 -14 19.46 4.68
14 -2 -20 14.22 4.03
0 4 20 8.19 3.37
-20 0 4 -3.43 3.01
20 0 4 8.49 3.71
20 0 -4 5.09 3.61
20 0 -4 1.93 3.06
0 4 -20 9.1 3.11
0 4 20 5.91 2.69
-20 0 4 7.9 3.24
-20 0 4 3.82 2.93
-4 20 0 7.85 2.78
-20 0 4 5.7 3.06
0 -4 20 4.52 4.59
0 4 -20 7.6 3.08
0 4 -20 7.81 3.01
4 -20 0 3.5 3.17
4 -20 0 4.26 4.21
4 20 0 9.78 2.43
4 20 0 8.62 3.16
-4 20 0 6.55 2.77
0 -4 -20 12.19 3.26
0 -4 -20 12.46 3.22
0 -4 -20 3.43 3.35
0 -4 20 6.31 4.1
-4 -20 0 8.43 3.32
-4 -20 0 7.38 4.09
-4 20 0 8.6 2.27
0 4 20 5.42 4.18
-20 0 -4 6.2 2.66
-20 0 -4 8.61 3.54
20 0 4 7.03 3.66
4 20 0 5.4 2.4
-4 20 0 7.86 3.09
20 0 -4 6.05 3.33
4 20 0 8.02 3.23
-20 0 4 5.69 3.09
-20 0 4 2.91 3.52
-20 0 -4 7.49 3.64
-2 -4 -20 8.17 3.35
-20 2 4 5.71 2.87
-20 2 4 8.71 3.02
-20 2 4 1.62 3.12
-4 20 2 7.68 2.75
-4 20 2 7.32 2.82
4 -20 2 2.67 3.04
4 20 -2 6.74 2.44
4 20 -2 9.85 2.5
-20 2 4 9.37 3.24
-4 -20 -2 6.59 3.35
4 20 -2 8.83 3.18
4 20 -2 7.01 2.39
4 20 -2 5.58 2.35
4 -20 2 11.22 4.34
-20 -2 -4 9.46 2.74
-20 -2 -4 7.63 3.4
-2 4 20 8.5 2.71
-2 4 20 6.3 3.58
-2 4 20 3.19 4.17
-20 2 4 6.32 3.68
-4 -20 -2 8.67 2.89
20 -2 4 7.97 3.77
2 -4 20 8.31 2.5
2 -4 20 1.35 3.95
2 -4 20 4.26 4.53
2 4 -20 5.26 3.05
2 4 -20 7.68 3.03
2 4 -20 13.86 3.18
-20 2 4 5.64 3.01
-4 -20 -2 7.22 4.02
-4 20 2 5.54 2.19
20 2 -4 6.88 3.23
-20 2 4 8.88 2.98
-2 -4 -20 8.08 3.18
-2 -4 -20 8.46 3.29
20 -2 4 9.61 3.75
20 2 -4 5.55 3.63
-20 -2 -4 -3.75 3.35
4 -20 -2 6.75 3.23
-20 2 -4 8.73 3.5
-2 -4 20 8.93 2.67
20 2 4 8.52 2.47
-4 20 -2 5.61 2.15
-4 20 -2 4.31 2.99
-4 20 -2 8.6 2.78
-2 4 -20 8.54 3.07
20 2 4 4.59 3.62
2 -4 -20 10.09 3.25
-4 -20 2 6.75 4.32
-2 4 -20 5.8 3.26
-20 -2 4 10.27 3.21
4 20 2 8.08 3.18
4 20 2 6.24 2.56
4 20 2 11.7 3.23
-20 -2 4 6.47 3.2
-20 2 -4 8.66 2.59
-2 -4 20 6.97 4.08
2 -4 -20 7.03 3.13
-20 2 -4 10.49 2.74
20 -2 -4 6.01 3.65
-4 -20 2 9.16 3.38
2 -4 -20 5.02 3.68
-2 4 -20 8.18 2.96
20 2 4 2.39 3.52
-20 2 -4 5.51 3.23
2 4 20 9.37 3.72
-4 20 -2 6.35 2.78
2 4 20 9.25 4.07
-20 -2 4 2.18 3.19
-4 -20 2 5.9 2.52
4 -20 -2 5.16 3.97
-2 -4 20 6.2 4.58
-20 -2 4 10.94 3.23
-20 -2 4 0.31 3.62
20 -2 -4 2.15 3.14
-4 -20 -4 2.82 2.51
-4 20 4 0.7 2.73
-4 -20 -4 4 3.85
-4 -4 -20 -2.53 2.98
-4 20 4 -0.4 2.58
20 4 -4 4.26 3.07
20 4 -4 -4.79 3.47
-20 4 4 -5.65 2.42
-20 4 4 -3.73 2.46
-20 -4 -4 5.99 2.71
4 20 -4 0.88 2.22
-20 4 4 -2.76 2.85
-4 -20 -4 4.24 3.29
4 -4 20 -0.56 4.36
-4 -4 -20 2.54 3.04
-20 4 4 -0.41 2.93
20 -4 4 2.93 3.74
4 20 -4 0.3 2.54
4 4 -20 2.96 2.88
4 4 -20 0.83 1.02
-4 -4 -20 3.85 2.95
-20 4 4 1.93 2.64
-20 -4 -4 1.63 3.2
4 -20 4 2.62 2.76
4 -20 4 1.66 4.21
-4 4 20 -3.9 3.15
4 20 -4 3.2 2.84
4 -4 20 0.93 2.09
4 -4 20 -2.06 3.9
-4 4 20 1.65 2.53
4 4 -20 1.85 2.95
20 -4 4 0.11 3.4
-4 4 20 2.32 4.27
-4 20 4 -0.22 2.05
-4 4 -20 -1.35 2.63
-4 -20 4 2.04 3.15
4 20 4 -0.56 2.49
-20 -4 4 0.55 2.98
-20 -4 4 3.89 3.08
20 4 4 -1.09 3.17
4 -4 -20 2.07 3.05
4 20 4 4.13 3.07
-20 4 -4 -1.5 2.08
-20 4 -4 4.55 2.42
-20 4 -4 3.38 3.08
-4 20 -4 4.53 1.89
-4 20 -4 0.81 2.77
-4 20 -4 4.18 2.77
-4 20 -4 -2.53 2.61
20 4 4 1.91 2.47
-4 -20 4 2.64 2.5
20 4 4 -3.54 3.54
-20 -4 4 -0.94 2.98
4 -4 -20 3.17 3.03
4 4 20 1.46 2.46
4 4 20 1.04 3.66
4 4 20 -2.45 3.73
-4 -4 20 1.01 3.69
-4 -4 20 0.21 4.23
4 -20 -4 -0.5 3.48
4 20 4 2.72 3.03
-4 4 -20 0.68 3.01
-4 -4 20 0.37 2.53
-20 -4 4 -0.43 3.5
-20 4 -4 1.97 2.44
-4 4 -20 -3.77 2.68
4 -20 -4 1.43 3.16
-4 -20 4 -5.89 4.08
20 6 -4 0.36 3
-6 -4 -20 -1.93 2.59
-4 20 6 -0.22 3.02
-20 -6 -4 -0.67 2.68
-20 6 4 -2.75 2.37
-20 6 4 -2.54 3.06
-6 -4 -20 4.09 2.79
-6 -4 -20 0.79 2.91
-20 6 4 1.84 2.95
-6 4 20 -5.15 4.28
4 20 -6 1.72 2.6
-20 6 4 -0.59 2.7
-20 6 4 -3.93 2.76
-6 4 20 -1.39 2.27
-6 4 20 -2.93 3.11
20 -6 4 3.21 3.75
20 -6 4 -2.83 3.76
4 20 -6 -1.41 2.03
6 4 -20 -3 2.74
6 -4 20 -0.23 2.16
6 -4 20 -0.62 3.95
6 -4 20 0.14 4.19
6 4 -20 -3.66 2.85
-20 6 4 -7.47 2.34
-6 -4 -20 -6.49 3.04
4 20 -6 2.18 2.88
4 -20 6 -3.56 2.47
4 -20 6 -9.18 4.19
6 4 -20 -3.68 2.57
20 6 -4 -6.08 3.43
-4 -20 -6 -2.97 3.22
-20 -6 -4 -2.29 3.15
-4 -20 -6 -1.83 2.49
-4 -20 -6 0.62 3.64
-4 20 6 0.71 2.55
-20 6 -4 -0.34 2.01
-6 -4 20 -1.24 4.42
-20 6 -4 -0.9 3.49
-6 4 -20 -1.42 2.89
4 20 6 -2.25 2.58
20 -6 -4 0.9 3.91
4 20 6 6.52 2.33
20 6 4 -7.98 3.73
20 6 4 -5.1 3.47
20 -6 -4 -4.08 3.28
-20 6 -4 4.09 3.08
6 4 20 -4.03 2.1
-20 6 -4 -1.22 2.28
4 20 6 -2.48 2.89
-4 -20 6 -2.84 4.01
6 4 20 3.36 3.84
6 -4 -20 0.36 3.15
-6 4 -20 -2.3 2.72
-6 4 -20 -4.41 2.94
-6 4 -20 -1.17 3.14
-6 4 -20 -0.26 2.73
-6 -4 20 -0.67 3.73
4 -20 -6 -0.39 3.64
4 -20 -6 0.59 3.28
6 -4 -20 -0.72 3.02
6 4 20 -6.63 3.56
-20 -6 4 -0.83 3.09
-20 -6 4 -3.93 3.53
-4 -20 6 -1.84 3.11
-4 -20 6 -2.29 2.58
-4 20 -6 -1.06 2.53
-4 20 -6 -1.99 2.83
-4 20 8 5.11 3.2
8 4 -20 5.87 3.22
8 4 -20 0.94 2.64
-20 8 4 8.48 2.73
8 4 -20 5.84 3.13
-4 20 8 6.33 2.99
-4 -20 -8 4.07 3.81
-20 -8 -4 -2.25 3.19
8 -4 20 4.34 4.33
4 20 -8 6.31 2.79
-20 8 4 4.36 3.26
-20 -8 -4 8.05 3.15
-20 -8 -4 4.77 3.54
-8 4 20 5.11 2.69
-20 8 4 -0.01 2.58
20 8 -4 0.43 3.04
8 -4 20 4.59 2.35
8 -4 20 8.1 4.42
4 -20 8 -0.37 2.91
4 -20 8 -1.77 3.52
-20 8 4 3.71 3.39
-8 -4 -20 3.71 3.04
-8 -4 -20 6.18 3.15
4 -20 8 3.01 4.76
4 20 -8 3.85 2.1
20 -8 4 5.54 3.99
4 20 -8 4.56 2.99
-4 -20 -8 5.63 3.49
20 8 -4 4.93 3.67
20 8 -4 4.83 3.01
-8 4 20 5.8 4.63
20 -8 4 7.39 4
-8 -4 -20 5.55 3.05
-8 4 20 5.84 3.39
8 -4 -20 6.54 3.27
-4 -20 8 3.91 4.41
-8 4 -20 3.55 3.2
-20 -8 4 6.81 4.17
-20 8 -4 5.91 2.38
4 20 8 5.12 3.36
4 20 8 9.35 3.35
4 -20 -8 4.95 3.56
4 -20 -8 1.96 3.91
-4 20 -8 1.83 2.73
8 4 20 7.25 4.37
-4 -20 8 5.94 3.3
-8 4 -20 6.52 2.96
-8 4 -20 5.5 3.55
-20 -8 4 5.21 3.32
-20 8 -4 11.94 3.33
-8 -4 20 7.8 4.68
8 -4 -20 2.19 3.34
20 8 4 -2.77 3.71
20 8 4 4.31 3.72
-4 20 -8 4.16 3.05
-8 4 -20 1.67 2.79
-20 8 -4 3.94 3.58
20 -8 -4 3.79 3.55
20 -8 -4 5.98 4.37
8 4 20 7 2.53
8 4 20 7.14 3.5
-20 8 -4 3.24 2.82
-8 -4 20 5.5 3.76
-8 4 -20 2.55 3.41
20 10 -4 -4.5 3.08
10 -4 20 6.6 4.37
20 -10 4 3.54 4.26
20 10 -4 4.66 3.65
-20 -10 -4 0.49 2.91
-20 10 4 -2.53 2.44
-20 10 4 2.54 3.37
-20 10 4 5.22 2.73
-20 10 4 -5.36 3.43
10 -4 20 -1.75 2.15
10 -4 20 0.83 4.33
-4 -20 -10 1.72 3.5
10 4 -20 -2.5 2.58
20 -10 4 2.6 3.94
10 4 -20 4.95 3.28
-20 -10 -4 -1.02 3.51
4 20 -10 4.5 2.79
4 20 -10 0.48 3.32
4 -20 10 3.4 3.04
20 10 -4 -0.03 2.96
-20 -10 -4 4.36 3.18
-10 4 20 7.72 3.4
4 -20 10 -0.55 4.91
-10 -4 -20 5.9 3.09
10 4 -20 4.65 3.25
4 -20 10 -3.93 3.8
-10 4 20 3 4.54
4 20 -10 0.57 2.06
-4 20 10 -1.67 3.15
-4 20 10 -1.77 3.01
-10 -4 -20 2.47 3.09
-20 10 4 -0.31 3.07
-4 20 -10 -2.65 2.87
-20 -10 4 3.12 3.24
10 4 20 -2.34 4.33
-4 20 -10 1.66 3.13
-20 -10 4 -1.19 4.42
-20 10 -4 4.53 3.09
4 20 10 2.22 3.35
4 20 10 2.54 3.26
10 -4 -20 0.61 3.29
10 -4 -20 -4.63 3.31
20 10 4 2.32 3.7
-10 -4 20 2.24 3.65
-10 -4 20 -0.13 4.58
20 -10 -4 4.49 3.59
4 -20 -10 5.68 3.65
-20 10 -4 -1.96 3.58
-20 10 -4 1.5 3.06
-10 4 -20 -3.06 2.86
-10 4 -20 3.78 3.75
4 -20 -10 3.05 3.9
10 4 20 -0.82 3.56
20 -10 -4 0.45 4.45
-4 -20 10 4.36 4.54
-4 -20 10 0.24 3.11
-10 4 -20 -2.38 3.24
20 10 4 -1.5 3.65
12 -4 20 9.01 4.63
4 20 -12 1.87 3
-4 20 12 4.22 3.42
-12 4 20 3.9 4.67
-4 -20 -12 -4.63 3.4
-4 -20 -12 -1.37 4.31
12 4 -20 3.01 3.49
12 4 -20 -0.84 2.65
-20 12 4 1.23 2.51
-12 -4 -20 5.02 3.21
-20 -12 -4 1.54 3.62
4 -20 12 -2.67 5.18
20 -12 4 -3.61 3.89
20 -12 4 4.76 4.54
20 12 -4 -0.32 2.95
20 12 -4 4.41 3.72
20 12 -4 0.59 3.31
12 4 -20 6.25 3.48
-12 -4 -20 3.6 3.04
-4 20 12 -3.2 3.02
4 20 -12 4 3.53
4 -20 12 2.74 3.98
-20 12 4 3.74 3.36
12 -4 20 0.5 4.56
-12 4 20 4.31 3.42
-20 12 4 2.51 3.44
-20 -12 -4 1.77 3.14
-4 20 -12 3.8 3.33
-4 -20 12 2.38 3.23
-4 -20 12 6.47 4.88
20 -12 -4 -4.69 4.39
20 12 4 -2.54 3.71
-20 12 -4 1.91 3.81
12 4 20 0.14 3.76
-12 -4 20 4.62 4.86
-12 4 -20 2.05 3.02
4 -20 -12 2.25 3.81
-12 4 -20 0.97 3.32
-4 20 -12 1.42 2.95
-20 -12 4 3.97 3.29
12 4 20 -5.12 4.47
4 20 12 7.05 3.54
4 20 12 7.33 3.6
4 20 12 2.26 3.44
12 -4 -20 -2.48 3.36
12 -4 -20 -0.06 3.53
-12 4 -20 3.16 4.01
4 -20 -12 4.43 4.13
-20 -12 4 -3.96 4.73
-20 12 -4 4.79 3.21
20 -12 -4 4.43 3.74
-20 0 6 -1.67 3.37
6 -20 0 0.99 2.86
-6 20 0 -1.96 2.7
6 20 0 4.67 2.96
20 0 -6 -0.3 3.04
20 0 6 1.22 3.47
0 6 -20 1.05 2.79
0 6 20 -2.22 2.93
20 0 6 3.09 3.74
6 20 0 1.02 2.82
0 6 20 -6.3 3.86
0 -6 20 0.69 2.31
0 -6 20 -4.51 3.88
0 -6 20 -3.44 4.33
6 -20 0 -1.19 3.85
6 20 0 3.21 2.56
-6 -20 0 1.71 2.34
0 6 -20 -1.63 2.75
-6 20 0 2.66 1.88
-20 0 -6 4.07 2.36
0 6 20 0.17 2.42
20 0 -6 -3.82 3.33
20 0 6 0.32 2.32
0 6 -20 -0.09 2.72
-20 0 6 -1.4 2.91
-20 0 6 -1.88 2.66
-20 0 6 1.25 2.61
-20 0 6 1.88 2.81
0 -6 -20 1.12 2.95
-6 20 0 -0.65 2.66
-6 -20 0 0.66 3.18
0 6 20 -0.06 3.38
-20 0 -6 2.91 2.98
-20 0 -6 -2.23 3.74
-6 -20 0 2.79 3.98
0 -6 -20 -1.35 3.04
-20 0 6 0.21 2.97
6 20 -2 1.52 2.5
-20 2 6 -1.9 2.75
2 -6 20 1.45 2.25
2 6 -20 3.36 2.74
2 6 -20 1.97 2.79
-20 2 6 0.66 2.71
6 -20 2 1.74 4.09
-6 20 2 -2.51 2.76
-6 20 2 1.92 2.68
-20 -2 -6 -8.59 3.35
6 -20 2 0.84 2.82
-2 -6 -20 -2.38 3.1
-20 2 6 2.31 2.58
-20 2 6 -2.7 3.55
-20 -2 -6 6.81 2.56
20 -2 6 -0.09 3.53
20 -2 6 0.48 3.71
20 2 -6 -1 2.88
-6 -20 -2 -1.3 3.16
-6 -20 -2 -0.41 2.38
-6 -20 -2 0.37 3.96
-20 -2 -6 -1.8 3.05
-6 20 2 0.81 1.97
-2 6 20 -2.99 3.1
6 20 -2 4.14 3.25
-2 -6 -20 -3.27 2.97
-2 6 20 -0.36 4.02
-2 6 20 0.28 2.32
-6 -20 -2 1.84 2.28
-20 2 6 0.27 2.96
6 20 -2 1.91 2.78
2 -6 20 -1.1 3.87
2 -6 20 -0.68 4.51
20 2 -6 -6.49 3.3
6 -20 -2 -0.5 3.64
-2 6 -20 -0.91 2.71
-6 -20 2 -0.63 3.23
2 6 20 1.23 2.54
-20 -2 6 -1.07 3.52
-6 20 -2 4.4 1.89
20 2 6 -1.62 3.46
-6 20 -2 0.95 2.71
6 20 2 0.94 2.71
2 6 20 -5.93 3.88
6 -20 -2 0.59 3.02
6 20 2 2.29 2.9
6 20 2 -0.35 2.4
20 2 6 -4.11 3.74
-2 -6 20 0.04 4.61
20 -2 -6 -0.64 3.37
2 6 20 -1.96 3.11
-2 -6 20 -4.62 3.77
-6 -20 2 -3.46 4.03
-6 -20 2 -0.25 2.45
2 -6 -20 -0.16 2.85
2 -6 -20 0.58 2.91
-2 6 -20 -1.31 2.55
-20 -2 6 1.15 2.95
-20 -2 6 -8.65 2.74
-6 20 -2 -1.22 2.66
-20 -2 6 1.21 2.92
-20 2 -6 -2.16 2.17
-20 2 -6 3.38 3.1
20 -2 -6 -3.2 3.01
-6 20 4 0.25 2.07
-20 -4 -6 3.24 2.65
4 6 -20 0.7 2.85
4 6 -20 -1 2.84
20 -4 6 5.03 3.76
-4 -6 -20 -5.61 3.05
6 20 -4 -0.59 2.93
-20 4 6 -4.86 2.31
-20 4 6 4.51 2.95
-20 4 6 -4.32 2.65
-20 4 6 -0.54 2.61
-20 4 6 -5.38 3.88
-4 6 20 -5.62 3.04
-4 6 20 -3.24 4.08
20 4 -6 -5.37 3.59
-6 -20 -4 -3.41 3.76
4 -6 20 -4.83 3.93
4 -6 20 -1.34 4.35
-6 -20 -4 -1.85 3.18
-20 4 6 2.48 3.21
-4 6 20 -1.41 2.33
-4 -6 -20 -0.76 2.93
-20 -4 -6 -1.62 3.09
4 -6 20 -0.89 1.96
4 6 -20 0.38 2.73
-6 20 4 -2.99 2.88
-6 20 4 -2.02 2.6
-6 -20 -4 0.23 2.43
20 4 -6 -1.61 2.91
6 -20 4 -4.32 4.27
6 20 -4 0.08 2.68
20 -4 -6 -4.31 3.08
-6 20 -4 -4.38 2.62
-6 -20 4 0.37 2.61
-20 4 -6 -3.79 2.15
-20 4 -6 -0.43 2.3
6 -20 -4 0.34 3.25
4 -6 -20 4.43 3.06
-6 20 -4 -1.75 2.47
4 6 20 -1.09 3.47
-20 4 -6 1.23 3.09
6 20 4 -1.37 2.95
6 20 4 1.08 2.84
6 20 4 6.08 1.9
-20 -4 6 2.52 2.95
-4 -6 20 5.06 2.66
-4 -6 20 -2.73 3.92
6 -20 -4 0 3.5
20 -4 -6 -5.66 3.24
20 4 6 3.71 2.38
20 4 6 -4.87 3.37
20 4 6 -8.42 3.72
-4 -6 20 -1.48 4.47
-6 -20 4 -6.76 3.07
4 -6 -20 -1.56 2.96
-4 6 -20 -3.1 2.59
-4 6 -20 -4.1 2.76
-6 -20 4 -5.71 4.16
-20 -4 6 0.25 3.01
-20 -4 6 3.06 3.65
-4 6 -20 0.29 2.7
4 6 20 -4.03 3.84
-4 6 -20 1.12 2.82
6 20 -6 -2.62 2.73
20 6 -6 -4.58 3.61
20 6 -6 -2.61 2.96
6 6 -20 -1.83 2.97
20 -6 6 4.4 3.98
20 -6 6 1.44 3.7
6 20 -6 0.15 3.04
-6 6 20 -1.19 2.51
6 -20 6 -3.72 4.46
-6 20 6 -1.34 2.7
-6 20 6 -2.25 2.16
6 -6 20 -1.01 2.09
6 -6 20 -4.06 4.22
6 -6 20 0.36 4.67
6 6 -20 -1.19 3
-20 -6 -6 1.1 2.8
-20 -6 -6 1.91 3.42
-20 -6 -6 -7.49 3.25
-6 -6 -20 -2.42 3.17
-6 -20 -6 -3.88 3.72
-6 6 20 -5.94 4.21
-6 20 6 -1.49 2.73
6 6 -20 -1.01 2.53
20 6 -6 1.04 3.13
-6 -20 -6 -1.76 2.49
-20 6 6 -3.36 2.3
-20 6 6 -1.63 3.32
-20 6 6 1.03 2.98
-20 6 6 -3.77 2.85
-6 -20 -6 -2.92 3.32
-6 -6 -20 -2 2.96
-6 6 20 -3.92 3.24
-20 -6 6 4.63 3.94
-20 -6 6 -7.18 3.23
-20 6 -6 -4.83 2.46
6 20 6 -1.74 3.09
6 20 6 -2.94 3.02
-20 6 -6 -1.52 2.24
-20 6 -6 3.14 3.3
-20 6 -6 -3.24 3.47
6 -6 -20 -4.8 3.13
6 -6 -20 2.13 3.11
-6 -6 20 -0.19 3.98
-6 -6 20 0.51 4.53
-20 -6 6 1.19 3.34
20 6 6 -6.15 3.78
20 6 6 -7.59 3.73
-6 6 -20 -3.57 3.09
6 -20 -6 -3.48 3.35
6 6 20 1.32 3.93
-6 6 -20 -3.83 2.54
-6 6 -20 -2.68 2.81
-6 6 -20 2.29 3.11
-6 -20 6 0.06 4.22
-6 -20 6 -3.84 3.18
-6 20 -6 -2.15 2.55
-6 6 -20 -1.45 2.85
20 -6 -6 -5 3.46
6 -20 -6 -0.79 3.69
6 20 6 0.97 3.15
-6 -20 -8 1.73 3.56
6 -20 8 -2.96 3.68
6 -20 8 2.42 2.97
-6 20 8 2.19 2.89
-20 -8 -6 4.83 3.56
-20 -8 -6 -2.11 3.29
-6 -20 -8 -2.48 3.77
-8 -6 -20 3.74 3.17
-8 -6 -20 5.73 3.11
20 -8 6 4.59 4.13
20 -8 6 5.73 4.23
20 8 -6 -1 3
20 8 -6 -0.72 3.61
20 8 -6 0.81 3.23
-8 -6 -20 5.71 3.11
8 -6 20 1.37 4.57
8 6 -20 2.49 3.18
6 -20 8 -3.86 4.78
6 20 -8 2.88 2.92
-20 8 6 -0.71 2.49
-20 8 6 -7.5 3.53
-20 8 6 -5.04 3.38
-20 -8 -6 0.64 2.91
8 6 -20 6.11 2.68
-6 20 8 4.43 3.14
-8 6 20 1.02 3.28
-8 6 20 -4.26 4.45
8 6 -20 1.35 3.3
6 20 -8 4.73 3.34
-20 8 6 -2.02 3.03
-8 6 20 3.49 2.55
8 -6 20 -1.22 4.38
-20 8 -6 9.59 3.36
20 -8 -6 1.94 4.37
-8 -6 20 3.75 3.93
-6 -20 8 2.58 3.41
-6 20 -8 0.5 2.66
6 20 8 -0.19 3.29
6 20 8 0.28 3.34
6 20 8 5.45 3.52
8 -6 -20 5.08 3.61
8 -6 -20 5.27 3.24
20 8 6 1.52 3.99
-6 20 -8 2.93 2.82
8 6 20 7 3.58
-8 6 -20 -1.89 3.11
20 8 6 0.14 3.83
8 6 20 4.13 4.23
20 -8 -6 2.96 3.61
-8 6 -20 2.26 3.07
-8 6 -20 4.87 3.48
-8 -6 20 2.68 4.69
-6 -20 8 2.61 4.55
-20 8 -6 1.11 3.55
-20 8 -6 -1.17 2.77
6 -20 -8 6.68 3.74
6 -20 -8 1.35 4.09
-20 -8 6 7.75 4.6
-20 -8 6 7.57 3.51
10 -6 20 -2 4.51
-6 -20 -10 0.13 3.51
10 6 -20 -1.56 3.33
6 20 -10 -0.11 2.81
-20 -10 -6 -5.59 3.04
10 6 -20 -0.96 3.27
10 -6 20 4.95 4.79
-20 10 6 -4.04 3.36
-10 -6 -20 -0.85 3.11
-6 20 10 -2.07 2.9
-10 -6 -20 0.27 3.02
6 20 -10 3.22 3.47
-10 6 20 -0.15 4.5
20 -10 6 3.73 4.2
20 10 -6 -0.66 3.09
20 10 -6 1.52 3.7
20 10 -6 -1.63 3.38
6 -20 10 -1.72 3.96
-10 6 20 -5.11 2.58
-10 6 20 7.58 3.46
-20 -10 -6 -1.9 3.57
-20 10 6 -2.22 3.15
-20 -10 -6 -1.21 3.01
20 -10 6 2.73 4.19
-6 20 10 0.31 3.16
6 -20 10 -2.65 5.04
6 -20 10 -1.73 3.01
-20 10 6 -0.19 2.57
20 10 6 -0.93 3.74
-6 20 -10 -2.02 2.8
-20 10 -6 -5.35 3.61
6 20 10 -3.94 3.38
10 6 20 -3.74 4.42
-10 6 -20 -0.82 3.82
-20 10 -6 -1.78 2.85
-6 -20 10 -5.31 3.14
-6 -20 10 1.16 4.75
20 -10 -6 -1.49 4.47
20 10 6 -2.22 3.95
10 -6 -20 1.79 3.54
20 -10 -6 -1.24 3.73
10 6 20 0.61 3.66
-10 -6 20 7.06 3.93
-10 -6 20 6.24 4.66
-10 6 -20 -5.9 3.21
6 20 10 1.44 3.5
-10 6 -20 -4.21 3.1
10 -6 -20 -5.99 3.27
-20 10 -6 10.43 3.42
6 -20 -10 -0.22 3.93
6 20 10 -2.37 3.43
-6 20 -10 -3.6 2.86
-20 -10 6 3.06 3.48
-20 -10 6 2.43 4.96
6 -20 -10 -0.4 4.08
-6 20 12 -5.31 3.07
-20 12 6 0.6 3.28
12 -6 20 1.98 4.86
12 -6 20 -5.56 4.38
12 6 -20 -3.13 3.49
6 20 -12 -2.17 2.99
-20 -12 -6 0.57 3.35
-6 20 12 -0.79 3.25
20 12 -6 4.53 3.84
-20 12 6 -8.62 3.35
-12 -6 -20 3.2 3.2
-20 -12 -6 5.51 3.03
20 12 -6 -0.13 3.53
-6 -20 -12 -3.45 3.46
12 6 -20 -0.86 3.35
-12 6 20 3 3.44
6 -20 12 -2.89 3.92
6 -20 12 -3.69 5.13
-12 -6 -20 1.26 3.03
6 20 -12 -1.18 3.53
20 -12 6 0.52 3.99
20 -12 6 2.89 4.46
-20 -12 -6 1.81 3.8
20 12 -6 0.87 3.1
-12 6 20 1.2 4.61
-6 -20 12 1.54 3.2
-12 6 -20 4.42 4.01
12 -6 -20 0.06 3.53
-12 6 -20 -4.64 3.33
12 -6 -20 -7.44 3.36
-20 12 -6 4.49 3.22
-20 12 -6 -5.2 3.67
6 20 12 -11.01 3.6
-12 -6 20 -1.54 5.03
-20 -12 6 3.02 3.5
-12 6 -20 -1.68 3.19
12 6 20 -1.47 4.74
6 -20 -12 0.88 4.08
6 -20 -12 -0.61 4.27
-6 20 -12 3.5 3.06
-6 -20 12 2.81 5.13
6 20 12 0.07 3.59
20 12 6 1.73 3.67
20 -12 -6 1.63 4.74
-6 20 -12 2.57 2.97
20 12 6 5.2 4.09
-20 -12 6 -2.86 5.03
20 -12 -6 3.09 3.76
12 6 20 3.5 3.76
6 20 12 4.94 3.9
-8 -20 0 8.54 2.57
-8 20 0 7.48 2.09
0 8 -20 7.78 3.03
-8 -20 0 8.98 4.34
-20 0 8 5.05 4.19
-20 0 -8 6.82 3.26
-20 0 8 7.85 3.53
-8 -20 0 6.93 3.47
8 20 0 5.79 3.28
20 0 -8 1 3.2
20 0 -8 1.58 3.54
20 0 8 9.65 2.52
20 0 8 3.76 3.76
20 0 8 4.96 4.08
-8 20 0 1.49 3.04
-8 20 0 7.63 2.92
0 8 20 3.71 3.39
-20 0 -8 9.76 2.56
0 -8 20 4.51 2.47
-20 0 8 5 3.25
-20 0 8 5.84 2.94
8 -20 0 6.42 3.1
-20 0 8 5.09 2.62
0 8 -20 2.97 2.82
0 8 20 2.82 2.52
8 -20 0 5.78 4.08
0 8 20 5.58 4.17
0 8 20 5.1 3.23
0 -8 20 4.54 4.22
8 20 0 9.53 2.9
0 -8 -20 8.11 3.18
0 -8 -20 9 3.42
0 -8 20 4.15 4.9
2 -8 20 8.09 4.77
-2 8 20 2.46 4.21
-8 -20 -2 9.12 2.49
8 20 -2 0.49 3.45
2 8 -20 5.35 2.94
-8 -20 -2 5.51 4.13
-2 8 20 6.45 3.3
-8 20 2 6.86 2.96
-2 -8 -20 8.44 3.29
-20 -2 -8 12.84 2.75
20 -2 8 8.63 2.52
20 -2 8 4.93 3.85
-8 -20 -2 7 3.5
20 2 -8 -0.81 3.15
20 2 -8 4.16 3.58
-2 -8 -20 9.44 3.41
-8 -20 -2 7.88 2.51
-20 2 8 6.65 3.02
-20 2 8 3.26 2.65
2 -8 20 7.85 2.43
-8 20 2 8.37 2.2
-8 20 2 3.75 3.01
8 20 -2 3.5 3.25
2 -8 20 7.78 4.28
20 -2 8 4.39 4.02
2 8 -20 13.32 3.17
8 -20 2 3.11 2.84
2 8 -20 5.43 2.96
-20 2 8 7.38 2.88
-2 8 20 6.44 2.58
8 20 -2 7.91 2.8
8 -20 2 4.23 4.4
-20 -2 -8 1.97 3.23
-20 2 8 12.6 4.31
-20 2 -8 2.44 2.35
2 8 20 8.65 3.04
8 -20 -2 13.24 3.43
-2 8 -20 6.39 2.88
-2 -8 20 9.52 2.74
20 -2 -8 -2.27 3.12
2 8 20 6.82 2.67
8 -20 -2 0.96 3.77
-20 -2 8 4.19 4.19
-20 -2 8 6.41 3.34
20 2 8 11.92 2.56
20 2 8 0.88 3.73
20 2 8 2.69 4.06
2 -8 -20 8.08 3.14
-8 -20 2 5.75 3.51
-8 -20 2 7.19 4.3
-20 -2 8 0.81 2.87
-8 20 -2 7.63 3.17
8 20 2 8.45 3
8 20 2 6.02 3.24
-20 2 -8 9.08 3.34
2 -8 -20 5.8 3.43
-2 8 -20 3.82 2.96
-2 8 -20 9.56 2.88
2 8 20 8.1 3.77
2 8 20 2.8 4.12
8 20 2 7.2 3.11
-8 20 -2 9.94 2.06
20 -2 -8 3.24 3.56
-20 -2 8 6.35 3.34
-2 -8 20 1.31 3.98
-2 -8 20 -2.15 4.72
8 20 2 6.4 2.89
-8 20 -2 5.68 2.93
-20 4 8 8.92 3.27
-8 -20 -4 7.84 3.58
20 4 -8 -0.63 3.7
4 -8 20 1 4.22
8 20 -4 5.89 2.83
8 20 -4 5.41 3.31
-8 20 4 3.9 2.92
-4 -8 -20 3.53 3.17
-8 20 4 4.66 2.26
-8 20 4 3.84 3.09
-8 -20 -4 5.17 4.09
4 -8 20 4.99 4.85
-20 4 8 1.11 4.23
-4 8 20 7.68 2.51
-20 -4 -8 12.68 2.97
-4 -8 -20 5.36 3.43
-20 4 8 0.5 2.53
20 -4 8 8.62 4.23
4 8 -20 1.87 2.82
-4 8 20 3.4 3.46
-20 -4 -8 0.49 3.17
-20 4 8 5.15 2.77
-20 4 8 3.03 2.65
4 -8 20 7.13 2.29
8 -20 4 2.5 4.67
4 8 -20 4.4 3.2
-8 -20 -4 2.27 2.48
-8 -20 -4 8.68 2.56
4 8 -20 5.35 3.19
-4 8 20 6.12 4.23
20 4 -8 -0.51 3.09
20 -4 -8 2.62 3.71
-4 8 -20 5.85 3.14
8 -20 -4 6.25 3.55
-4 8 -20 2.06 2.91
8 20 4 8.5 3.17
8 20 4 5.88 3.24
8 20 4 5.47 3.12
4 -8 -20 5.35 3.23
4 -8 -20 6.34 3.17
8 -20 -4 5.13 3.98
4 8 20 6.44 4.04
20 4 8 0.61 4.13
4 8 20 1.97 3.53
-20 -4 8 11.45 4.45
-4 8 -20 5.76 2.74
-20 4 -8 7.55 2.4
-20 4 -8 6.77 3.4
-20 -4 8 8.6 3.48
20 4 8 -0.03 3.68
4 8 20 3.69 2.92
-4 -8 20 1.67 4.07
-4 -8 20 -1.12 4.86
20 -4 -8 0.53 3.16
-8 -20 4 1.87 3.48
-8 -20 4 8.03 4.2
-8 20 -4 6.63 2.85
-20 4 -8 2.29 2.31
-6 8 20 1.58 3.4
-6 8 20 1.08 4.21
-6 -8 -20 2.93 3.42
-8 -20 -6 0.36 3.89
6 -8 20 7.73 4.63
-20 6 8 1.7 2.41
6 -8 20 -3.16 4.4
-6 -8 -20 1.51 3.05
6 8 -20 0.81 2.97
20 6 -8 -0.41 3.2
20 6 -8 -2.71 3.66
-20 -6 -8 3.58 3.05
-20 -6 -8 0.25 3.45
8 20 -6 3.61 3.41
6 8 -20 2.5 3.25
-8 -20 -6 1.59 3.48
-8 -20 -6 -3.13 3.35
-8 -20 -6 -2.33 2.48
8 -20 6 -5.78 3.62
20 -6 8 5.02 4.18
20 -6 8 8.14 3.72
-8 -20 -6 -4.63 2.78
-20 6 8 -2.54 3.56
-20 6 8 2.44 3.29
-20 6 8 -5.97 2.69
-20 6 8 0.58 4.39
-8 20 6 0.81 2.48
-8 20 6 5.1 3.11
-8 20 6 1.91 2.89
8 20 -6 -0.94 2.91
-6 8 20 3.12 2.6
8 -20 6 1.63 4.97
6 8 -20 4.99 2.88
6 8 20 6.85 3.85
8 -20 -6 -0.96 3.65
-8 -20 6 0.88 3.4
6 8 20 1.21 3.82
-6 -8 20 6.22 4.12
-8 20 -6 2.86 2.8
-6 8 -20 2.66 2.93
-6 8 -20 1.76 3.26
-20 -6 8 -5.81 3.07
8 20 6 -2.91 3.29
8 20 6 7.82 3.06
20 -6 -8 -3.62 3.7
-8 -20 6 1.06 4.41
-20 6 -8 4.06 3.37
-20 6 -8 2.12 3.71
8 20 6 2.43 3.28
6 -8 -20 6.02 3.22
20 6 8 -0.9 4.2
-20 -6 8 12.06 4.63
-6 -8 20 -0.59 5.1
20 6 8 1.64 3.9
6 -8 -20 3.57 3.39
-20 -6 8 7.44 3.56
20 -6 -8 0.76 3.15
8 -20 -6 3.2 3.92
8 -8 20 1.24 4.46
8 -8 20 13.31 5.09
-8 -8 -20 10.12 3.13
-8 8 20 2.68 2.55
20 8 -8 3.85 3.72
-8 -20 -8 3.89 3.54
20 -8 8 13.33 4.3
-8 -20 -8 4.46 3.84
8 8 -20 2.08 3.46
8 -20 8 0 5.1
-8 8 20 3.48 4.47
20 -8 8 9.24 4.36
-20 -8 -8 3.82 3.19
8 8 -20 -3.04 3.26
-20 8 8 4.95 2.49
-20 8 8 -10.1 3.76
8 20 -8 4.58 3.14
8 20 -8 3.71 3.53
-8 -20 -8 -8.37 3.42
8 -20 8 0 3.82
20 8 -8 2.25 3.32
8 -20 8 -0.47 2.97
-20 8 8 -2.78 3.52
-20 -8 -8 -3.8 3.52
-8 -8 -20 3.4 3.27
-8 8 20 4.97 3.42
-8 -20 -8 -2.9 2.67
-20 8 8 -3.02 2.92
-8 20 8 5.53 3.15
-20 -8 -8 2.77 3.59
-8 20 8 11.18 3.13
-8 -8 -20 5.95 3.36
20 8 8 2.69 4.32
8 -8 -20 4.81 3.27
8 -20 -8 3.2 3.96
-8 8 -20 3.31 3.59
8 8 20 14.6 3.74
8 8 20 5.73 4.55
8 20 8 2.56 3.55
8 20 8 2.73 3.73
-8 20 -8 1.19 2.89
-8 -8 20 6.56 5.19
-8 8 -20 6.45 3.4
-20 8 -8 3.33 3.78
-20 8 -8 7.08 3.2
8 20 8 9.62 3.35
20 -8 -8 1.61 3.88
20 -8 -8 4.14 3.32
-20 -8 8 21.89 5.18
-20 8 -8 9.62 3.61
-8 -20 8 0.68 3.45
-8 -20 8 4.78 4.7
-8 20 -8 4.41 2.79
-20 -8 8 7.24 3.86
20 8 8 6.86 4.13
8 -20 -8 2.95 4.21
8 -8 -20 2.34 3.59
-10 8 20 -2.69 2.53
8 20 -10 -1.34 3.6
-20 -10 -8 3.72 3.7
-10 -8 -20 -1.41 3.02
-10 -8 -20 0.1 3.25
20 -10 8 1.32 4.31
10 8 -20 -3.55 3.24
8 -20 10 -2.24 5.26
10 -8 20 -3.06 4.47
10 -8 20 5.98 5.35
8 -20 10 0.22 3.12
8 -20 10 -4.26 4.06
-8 -20 -10 -4.76 3.56
20 10 -8 -0.2 3.73
10 8 -20 -1.92 3.28
-20 -10 -8 2.17 3.19
-10 8 20 2.19 3.42
-20 10 8 -4.45 3.02
20 -10 8 8.09 4.38
20 10 -8 -4.14 3.09
-20 -10 -8 -4.34 3.31
-20 10 8 -9.58 3.21
-10 8 20 -3.14 4.32
8 20 -10 -2.79 3.12
-8 20 10 4.53 3.17
-8 20 10 0.42 2.99
-8 -20 -10 -9.18 3.99
20 10 8 3.55 4.36
10 -8 -20 -8.7 3.29
8 20 10 -5.32 3.4
8 20 10 -6.18 3.5
8 20 10 -4.54 3.83
20 -10 -8 -4.29 4.6
-10 8 -20 2.71 3.26
-20 10 -8 4.96 3.44
10 -8 -20 -0.99 3.67
-8 -20 10 3.14 3.33
-8 -20 10 -1.32 5.01
-8 20 -10 -1.05 2.89
-8 20 -10 -1.77 2.89
20 -10 -8 -0.95 3.78
-20 10 -8 -3.95 3.71
8 -20 -10 0.43 4.1
8 -20 -10 -3.05 4.36
10 8 20 3 4.4
-20 -10 8 1.83 5.27
-10 8 -20 2.95 3.69
10 8 20 3.88 3.6
-10 -8 20 2.38 5.09
20 10 8 -1.27 3.72
-20 10 -8 6.03 3.32
-20 -10 8 5.75 3.82
-10 20 0 6.74 3.08
-10 20 0 6.21 3.2
-20 0 -10 18.63 2.86
-20 0 -10 7.94 3.53
20 0 10 6.62 4.34
10 20 0 10.53 3.56
20 0 10 12.6 2.66
0 10 -20 10.05 3.04
0 -10 -20 11.96 3.56
0 -10 -20 11.42 3.36
0 -10 20 8.29 2.63
0 -10 20 9.64 3.16
0 -10 20 6.74 4.55
0 -10 20 8.25 5.13
0 10 20 11.75 2.75
-10 20 0 9.19 2.21
0 10 20 7.84 3.62
0 10 20 10.21 4.29
20 0 10 7.66 3.99
10 20 0 9.68 3.07
10 20 0 5.67 3.76
20 0 -10 2.14 3.44
20 0 -10 4.71 3.56
-20 0 10 7.55 2.76
-20 0 10 11.34 2.91
-20 0 10 6.55 4.69
-20 0 10 7.51 3.02
10 -20 0 10.41 3.33
10 -20 0 4.95 4.25
0 10 -20 10.31 3.15
0 10 -20 8 3.07
-10 -20 0 10.64 3.7
-10 -20 0 11.64 4.35
-2 10 20 5.74 3.37
-2 10 20 4.96 4.14
2 10 -20 7.23 2.86
2 10 -20 -1.46 2.87
10 -20 2 1.05 4.36
-20 2 10 7.73 2.91
-20 -2 -10 0.29 3.17
-2 10 20 4.84 2.46
-20 -2 -10 13.31 2.85
20 -2 10 5.71 2.41
-10 -20 -2 7.29 4.16
20 2 -10 2.65 3.58
2 -10 20 -1.87 2.3
2 -10 20 2.75 3.22
2 -10 20 7.42 4.43
-10 20 2 7.25 2.15
-10 20 2 2.16 3.01
-10 20 2 4.89 2.95
-2 -10 -20 8.39 3.24
20 2 -10 -0.78 3.23
20 -2 10 1.53 3.95
10 20 -2 3.84 3.05
-20 2 10 6.98 2.9
-20 2 10 3.82 4.26
-10 -20 -2 9.41 3.69
2 -10 20 14.23 5.16
10 20 -2 1.9 3.42
2 10 -20 3.9 3
2 10 -20 10.47 3.1
-2 -10 -20 7.4 3.45
10 -20 2 -2.93 3.03
20 -2 10 2.02 4.35
-20 2 10 2.68 2.62
10 20 2 9.32 3.37
-2 -10 20 -3.82 4.24
-2 -10 20 -7.15 4.96
-20 2 -10 6.78 3.28
2 10 20 4.64 3.7
20 2 10 8.57 2.68
20 2 10 3.45 3.94
-2 -10 20 8.25 2.84
-2 10 -20 2.54 2.96
-10 -20 2 7.76 4.43
-10 20 -2 3.1 2.92
20 -2 -10 -0.77 3.31
10 20 2 10.47 3.6
2 -10 -20 6.56 3.2
20 -2 -10 5.82 3.84
2 -10 -20 4.05 3.34
-10 -20 2 10.34 3.74
10 20 2 7.62 3.21
-20 -2 10 -3.09 2.74
-20 -2 10 0.31 4.59
-20 2 -10 4.14 2.49
-20 -2 10 -3.02 3.45
20 -2 -10 6.63 3.49
-10 20 -2 3.21 3.1
20 2 10 3.94 4.29
2 10 20 9.36 2.66
-2 10 -20 1.7 2.93
10 -20 -2 6.22 3.31
10 -20 -2 3.26 4.05
2 10 20 6.23 4.26
-2 10 -20 1.86 3.09
-4 10 20 0 3.33
-10 -20 -4 -1.71 4
20 -4 10 3.32 4.32
-10 20 4 3.13 3.06
-4 -10 -20 0.58 3.06
-4 -10 -20 2.92 3.41
10 -20 4 -4.48 4.67
-20 4 10 4.24 4.54
-10 20 4 -3.1 2.98
4 10 -20 0.96 3.03
4 10 -20 -1.18 2.88
4 10 -20 -2.25 2.84
10 20 -4 -2.94 2.87
-10 20 4 -0.21 2.2
-20 -4 -10 8.17 2.95
20 4 -10 -0.49 3.2
-20 -4 -10 -6.16 3.37
-20 4 10 7.82 3.04
-20 4 10 0.82 2.63
-20 4 10 -2.78 2.74
4 -10 20 4.64 4.54
-10 -20 -4 1.09 3.67
-10 -20 -4 -0.03 2.54
-4 10 20 -1.26 4
10 20 -4 -8.44 3.47
-10 -20 -4 0.61 2.53
4 -10 20 0.66 4.32
-4 10 20 2.04 2.43
20 4 -10 -3.14 3.6
20 4 10 -0.59 3.77
4 10 20 -0.2 3.74
-10 -20 4 1.95 3.52
-20 4 -10 6.41 3.4
20 4 10 -0.3 4.3
4 10 20 0.79 2.66
10 -20 -4 -1.21 3.61
10 20 4 5.27 3.49
10 -20 -4 2.68 4.01
10 20 4 2.28 3.11
4 10 20 5.05 3.07
4 -10 -20 -2.07 3.4
4 -10 -20 4.92 3.21
-10 -20 4 5.41 4.46
-10 20 -4 -0.55 2.82
4 10 20 3.88 3.98
10 20 4 0.13 3.24
-4 -10 20 -10.23 5.11
-4 10 -20 -0.4 2.8
-20 -4 10 3.19 3.48
-20 -4 10 -6.56 2.79
-20 -4 10 6.15 4.66
20 -4 -10 -0.03 3.71
20 -4 -10 0.94 3.2
-4 -10 20 -4.52 4.32
-4 10 -20 -1.5 3.23
-6 -10 -20 -1.94 3.11
10 20 -6 1.24 2.99
-20 6 10 -1.46 2.41
-20 -6 -10 -1.6 3.01
-10 20 6 2.2 3.02
-10 20 6 -1.55 2.92
6 -10 20 -0.99 4.39
20 -6 10 0.07 4.4
-6 10 20 -2.71 3.34
-6 10 20 -4.24 4.12
-20 6 10 -0.73 4.48
-10 -20 -6 -4.48 2.64
-10 -20 -6 -2.87 2.75
-20 6 10 -7.49 3.58
-20 6 10 1.08 3.13
10 -20 6 -6.17 3.66
-20 6 10 -5.94 2.68
-10 -20 -6 -0.18 3.48
6 -10 20 2.24 5.15
-6 -10 -20 -1.38 3.24
-6 -10 -20 4.18 2.62
6 10 -20 2.2 2.79
10 -20 6 5.67 5.2
20 6 -10 -4.1 3.66
-6 10 20 0.41 2.32
-10 -20 -6 -5.29 3.48
6 10 -20 -3.05 2.91
10 20 -6 -7.73 3.57
20 6 -10 0.28 3.19
-10 -20 6 -4.01 3.61
-10 20 -6 -2.94 2.88
-6 10 -20 -5.58 3.4
20 6 10 -0.29 3.89
-20 -6 10 -4.05 2.88
10 20 6 4.67 2.9
20 -6 -10 1.42 3.13
-20 6 -10 1.08 3.42
-20 -6 10 7.87 4.86
-6 10 -20 -2.56 3.04
10 -20 -6 -2.67 3.82
10 -20 -6 1.45 4.2
-10 -20 6 0.03 4.57
-20 -6 10 2.65 3.62
-6 -10 20 -7.31 5.11
6 10 20 -0.18 3.26
6 10 20 -0.53 3.84
-20 6 -10 -1.1 3.5
6 -10 -20 -1.99 3.12
6 -10 -20 -0.81 3.2
20 6 10 -3.58 4.28
6 10 20 2.41 2.83
20 -6 -10 -1.12 3.82
10 20 6 -3.37 3.45
10 20 6 -4.39 3.46
20 -8 10 11.93 4.04
10 20 -8 -6.45 3.73
-8 -10 -20 2.54 2.78
-20 -8 -10 -2.55 3.19
-10 -20 -8 -5.57 2.79
-10 -20 -8 -8.07 3.03
-20 8 10 0.46 2.21
-8 10 20 2.25 3.39
-8 10 20 0.14 2.4
-10 -20 -8 -8.38 3.53
-20 8 10 -5.21 2.95
-20 8 10 -0.39 4.73
10 -20 8 2.36 2.81
10 -20 8 -4.97 3.84
10 -20 8 -4.2 5.23
-10 20 8 1.66 3.09
-8 10 20 -3.23 4.33
-8 -10 -20 -2.14 3.25
20 -8 10 2.97 4.47
20 8 -10 -0.58 3.29
10 20 -8 -1.49 3.15
-20 8 10 -0.11 3.34
20 8 -10 3.57 3.71
8 10 -20 -1.16 3.22
-10 -20 -8 -0.91 3.58
-10 20 8 6.13 3.17
-8 -10 -20 -1.81 3.22
8 -10 20 1.32 5.44
8 -10 20 -1.31 4.7
-20 -8 -10 -8.5 3.33
10 -20 -8 -0.78 4.16
20 8 10 -4.08 4.04
-20 8 -10 -3.47 3.44
-20 8 -10 -0.85 3.71
-20 8 -10 1.67 2.87
-10 -20 8 1.74 4.88
8 10 20 -3.95 4.14
20 -8 -10 0.41 3.23
10 -20 -8 -9.39 3.97
8 -10 -20 -1.34 3.59
-10 -20 8 -1.91 3.35
-8 -10 20 -0.37 5.28
-8 10 -20 0.86 3.06
-8 10 -20 -4.14 3.51
-20 -8 10 7.32 5.29
8 -10 -20 0.58 3.12
10 20 8 -5.49 3.7
10 20 8 -9.51 3.61
20 -8 -10 -4.64 3.89
20 8 10 -2.46 4.51
-10 20 -8 0.57 2.63
-10 20 -8 -1.27 3.11
8 10 20 5.32 3.53
-20 -8 10 6.04 3.92
20 -10 10 3.81 4.3
10 20 -10 -1.54 3.21
10 -20 -10 0.76 4.46
-10 20 -10 2.57 2.85
0 -12 20 17.81 5.5
-12 20 0 18.24 4.03
12 20 0 16.82 3.74
12 20 0 19.18 4.14
12 20 0 1.89 4.25
20 0 -12 19.2 4.32
20 0 -12 13.69 3.98
20 0 12 26.65 3.27
0 -12 -20 19.36 3.98
-20 0 12 11.9 5.34
0 -12 20 21.66 4.88
0 -12 -20 27.34 3.89
0 -12 20 18.67 3.16
0 -12 20 19.91 3.8
-20 0 -12 19.01 3.93
0 12 -20 15.39 3.56
0 12 -20 16.97 3.85
0 12 -20 14.05 3.75
0 12 20 22.76 3.23
0 12 20 17.23 4.12
0 12 20 21.23 5.01
12 -20 0 8.04 4.75
-12 -20 0 22.94 4.95
20 0 12 16.42 4.57
20 0 12 12.55 4.89
-12 20 0 11.58 3.73
-20 0 12 16.71 3.28
-12 -20 0 23.43 4.32
-2 12 20 13.76 4.66
12 20 -2 6.59 3.24
12 20 -2 4.39 3.69
-2 -12 -20 17.96 3.69
20 -2 12 6.28 4.16
12 -20 2 6.51 4.86
2 12 -20 10.45 3.39
-12 20 2 9.88 3.42
-12 -20 -2 10.89 3.92
20 2 -12 6.23 3.67
-12 -20 -2 3 4.41
2 -12 20 13.19 4.92
-20 2 12 4.98 4.84
-20 -2 -12 15.02 3.09
-20 -2 -12 8.72 3.59
-20 2 12 4.93 2.9
20 2 -12 8.55 3.61
-2 12 20 10.48 2.66
-2 12 20 12.17 3.84
-12 20 2 9.76 2.49
-12 20 2 5.36 3.39
20 -2 12 12.26 2.55
2 -12 20 7.11 2.5
2 -12 20 6.07 3.53
2 -12 20 14.81 4.7
2 12 -20 3.22 3.25
2 12 -20 10.07 3.35
20 -2 12 5.38 4.72
-2 -12 -20 8.12 3.47
-20 2 12 8.11 3.01
-12 -20 2 19.01 4.62
-12 20 -2 8.18 3.4
2 -12 -20 14.12 3.5
12 20 2 15.26 3.91
12 20 2 3.75 3.67
20 2 12 9.21 4.24
-12 20 -2 7.76 3.32
12 20 2 8.54 3.65
-2 -12 20 12.74 3.03
-2 -12 20 6.33 3.09
20 -2 -12 8.87 4.01
20 -2 -12 3.76 3.51
-20 -2 12 8.58 5.15
-20 2 -12 19.35 2.72
-20 -2 12 8.23 2.85
2 12 20 13.43 2.92
2 12 20 5.96 3.87
-12 -20 2 12.6 3.97
-20 2 -12 7.7 3.49
2 -12 -20 9.88 3.85
-2 -12 20 10.07 5.5
-2 12 -20 6.47 3.12
-2 12 -20 6.46 3.4
20 2 12 18.61 3.12
2 12 20 10.59 4.25
12 -20 -2 5.26 4.49
20 2 12 11.6 4.83
-2 -12 20 2.05 4.47
12 -20 -2 10.22 3.62
20 -4 12 -5.41 4.57
-4 12 20 1.66 3.3
-20 -4 -12 8.08 3.01
-4 12 20 4.29 4.41
12 20 -4 -2.03 3.69
-4 -12 -20 0.19 3.07
4 -12 20 2.69 4.82
4 12 -20 3.18 3.19
4 12 -20 6.14 3.29
4 12 -20 -6.28 2.89
-4 -12 -20 6.2 3.47
12 -20 4 -0.51 4.74
12 20 -4 -0.44 3
-4 12 20 3.25 2.43
-20 4 12 -1.97 3.08
-20 4 12 -0.55 4.55
-12 -20 -4 1.91 3.76
-12 -20 -4 6.41 2.6
-4 -12 -20 0.8 2.46
20 4 -12 4.26 3.57
4 -12 20 3.18 4.42
-12 20 4 2.56 2.23
-12 20 4 2.19 3.14
-20 -4 -12 -0.41 3.57
-12 20 4 1.82 3
20 4 -12 1.53 3.41
-20 4 12 0.02 2.67
-12 -20 4 -1.07 3.5
-4 -12 20 4.05 2.97
-12 20 -4 1.55 3.01
-4 -12 20 -10.07 5.2
-20 -4 12 1.43 2.65
-20 -4 12 1.92 4.77
-20 4 -12 4.54 3.48
4 12 20 4.52 3.13
-4 12 -20 2.68 3.08
-20 -4 12 -1.5 3.81
20 4 12 3.55 3.88
12 -20 -4 2.2 3.67
12 -20 -4 3.19 4.08
4 12 20 -2.42 4.01
4 12 20 5.15 3.96
4 -12 -20 -2.04 3.62
12 20 4 1.97 3.64
20 -4 -12 0.98 3.81
20 -4 -12 1.57 3.28
-4 12 -20 -4.74 3.31
4 12 20 5.24 2.63
-12 -20 4 11.29 4.78
-4 -12 20 -11.23 4.2
20 4 12 0.29 4.5
12 -20 6 0.48 3.82
-6 -12 -20 -0.96 2.67
-12 20 6 1.58 2.92
-6 -12 -20 -0.29 3.17
12 -20 6 -5.6 5.1
12 20 -6 -1.81 2.98
12 20 -6 -4.75 3.73
6 -12 20 0.21 4.55
6 -12 20 8.28 5.55
6 12 -20 1.79 3.05
-12 20 6 3.35 3.22
20 -6 12 -5.92 4.46
20 6 -12 -1.38 3.28
-6 12 20 1.78 3.42
-6 12 20 -0.97 4.49
-6 -12 -20 2.42 3.31
-20 6 12 -2.92 2.81
-20 6 12 0.68 4.71
-20 -6 -12 -8.2 3.43
-12 -20 -6 -1.96 3.52
-12 -20 -6 -1.38 3.69
-12 -20 -6 -3.04 2.79
20 6 -12 1.79 3.67
-20 -6 -12 -3.14 3.2
20 6 12 0.41 4.64
20 -6 -12 2.15 3.3
20 -6 -12 -4.14 3.85
-20 -6 12 5.24 3.75
-20 -6 12 -5.22 2.68
-20 -6 12 4.03 5.07
-20 6 -12 -0.93 3.39
6 -12 -20 -2.74 3.47
12 20 6 1.67 3.75
12 20 6 -0.17 3.71
6 12 20 -1.15 3.25
6 12 20 -0.91 3.76
6 12 20 4.39 2.96
12 -20 -6 -4.3 3.91
12 -20 -6 3.72 4.34
-12 -20 6 2.63 3.5
-20 6 -12 -2.54 3.63
20 6 12 3.39 3.86
-6 -12 20 -11.44 5.38
-6 12 -20 1.14 3.11
-6 12 -20 -8 3.46
-12 20 -6 0.35 3.01
-12 -20 6 6.74 4.8
-20 0 -14 41.81 4.87
0 -14 -20 29.63 4.6
-14 20 0 22.85 4.47
0 -14 20 30.69 5.38
0 14 -20 26.01 4.21
0 14 -20 31.68 4.44
0 14 -20 21.7 4.42
0 14 20 23.85 4.94
14 -20 0 28.94 4.29
14 -20 0 23.54 5.62
14 20 0 26.2 4.37
14 20 0 28.04 5.09
20 0 -14 31.97 4.96
20 0 -14 18.69 4.51
20 0 14 23.28 5.73
0 -14 -20 36.88 4.39
0 -14 20 24 4.27
0 -14 20 23.02 3.73
-20 0 14 22.64 3.95
-14 -20 0 34.54 4.94
-14 -20 0 38.76 5.48
-20 0 -14 20.06 4.36
-14 20 0 24.17 3.38
14 -20 2 12.69 5.06
14 -20 -2 12.44 4.94
-2 14 -20 12.26 3.5
-21 -1 -1 4.06 2.55
-21 -1 -1 0.96 2.49
-21 -1 -1 -0.25 3.18
-21 -1 -1 -4.78 3.12
21 1 -1 -2.14 3.01
-1 1 21 -1.91 3.58
-1 1 21 -3.36 4.04
1 21 -1 0.62 2.06
1 21 -1 2.69 2.87
1 21 -1 -2.65 2.37
1 21 -1 0.43 2.33
1 -1 21 2.61 2.19
1 -1 21 -3.14 3.7
1 -1 21 0.85 4.13
1 1 -21 -1.55 2.97
1 1 -21 -0.71 2.86
-21 1 1 1.33 2.53
-21 1 1 -0.92 2.35
-21 1 1 0.44 3.17
-21 1 1 -0.78 2.98
-21 1 1 5.75 3.51
-21 1 1 2.77 2.92
-1 -21 -1 -2.57 3.08
-1 -21 -1 -1.05 4.06
1 -21 1 -0.1 4.15
-1 21 1 -0.75 2.48
-1 -1 -21 -0.88 3.03
-1 -1 -21 -1.25 2.9
-1 -1 -21 1.17 2.93
21 -1 1 0.03 3.37
21 1 -1 -4.59 3.31
-1 21 1 -1.79 2.37
-1 21 1 -0.02 2.85
1 -21 1 -1.21 3.03
21 -1 1 0.9 3.45
-1 21 1 1 2.1
-1 21 -1 1.65 1.97
-21 -1 1 -1.07 2.61
-1 21 -1 -0.8 2.37
-21 -1 1 1.49 3.12
-1 1 -21 2.7 3.09
-1 -21 1 0.31 4.09
-1 -1 21 0.06 4.13
1 -21 -1 -1.78 3.12
1 -21 -1 -2.64 3.9
-1 1 -21 -0.06 2.83
-1 -21 1 -6.09 3.03
1 -1 -21 -5.29 3.03
1 -1 -21 0.43 2.89
-21 1 -1 -4.06 2.27
-21 1 -1 -1.96 3.17
-21 1 -1 0.96 3.16
-21 1 -1 4.12 3.41
-21 1 -1 2.83 2.66
1 1 21 0.23 2.26
1 1 21 -2.15 3.82
1 1 21 -2.45 3.96
-21 -1 1 7.57 3.11
-21 -1 1 0.99 3.31
-21 -1 1 2.87 2.84
-21 1 -1 2.7 2.32
1 21 1 1.81 2.13
1 21 1 -0.31 2.57
1 21 1 -0.68 2.39
21 -1 -1 -0.53 3.42
21 -1 -1 1.68 3.07
-1 21 -1 -0.98 2.85
-1 -1 21 -2.62 2.37
-1 -1 21 -2.87 3.76
-21 -1 1 2.89 2.73
21 1 1 -3.12 3.34
21 1 1 -3.68 3.25
21 -3 1 -0.71 3.44
-21 -3 -1 2.3 2.76
-21 3 1 1.83 2.34
-21 3 1 -0.46 2.4
-21 3 1 0.07 3.14
-21 3 1 -0.5 2.9
-21 3 1 0.89 2.8
-3 -1 -21 0.78 2.88
-3 -1 -21 -0.15 2.93
-3 -1 -21 -0.7 2.88
1 21 -3 0.65 2.07
21 -3 1 1.3 3.59
3 -1 21 -4.8 4.1
21 -3 1 -0.83 3.48
21 3 -1 -1.7 3.4
-3 1 21 -1.08 3.41
-3 1 21 -2.36 4.06
-1 -21 -3 -2.55 3.25
-1 -21 -3 0.57 2.62
-1 -21 -3 -2.31 3.81
3 1 -21 0.49 2.98
3 1 -21 1.43 2.95
1 21 -3 -0.26 2.34
-21 -3 -1 -7.3 3.2
21 3 -1 3.62 3.06
-1 21 3 -0.36 2.1
-1 21 3 -0.71 2.89
-1 21 3 1.1 2.54
3 -1 21 -4.78 3.89
-21 -3 -1 2.64 3.28
1 -21 3 -0.39 2.96
1 -21 3 2.62 4.17
1 21 -3 0.67 2.4
1 21 -3 0.96 2.81
-1 21 -3 2.46 1.96
-3 -1 21 -2.77 3.61
1 21 3 0.63 2.8
1 21 3 -1.24 2.45
3 -1 -21 -0.44 3.08
-1 21 -3 -1.37 2.63
1 -21 -3 -2.36 3.25
-3 1 -21 -3.29 2.92
-1 -21 3 2.37 3.17
-1 -21 3 -3.04 4.08
3 1 21 -2.43 2.21
3 1 21 -1.8 3.68
3 1 21 -3.16 3.91
21 -3 -1 2.06 3.59
21 -3 -1 1.6 3.31
-3 -1 21 -3.23 4.21
-21 3 -1 -3.64 3.28
-3 1 -21 0.56 2.9
-3 1 -21 2.68 2.96
-1 21 -3 -0.15 2.36
21 3 1 -2.81 3.37
21 3 1 -5.79 3.19
-21 3 -1 2.7 2.31
-21 3 -1 -2.26 3.21
-21 -3 1 7.22 3.24
-21 3 -1 -0.17 2.28
3 -1 -21 3.3 3.02
-21 -3 1 1.73 2.75
-21 3 -1 3.27 2.68
1 -21 -3 -0.48 3.74
-21 5 1 1.12 2.64
-5 -1 -21 1.49 3.09
-21 5 1 2.29 2.45
-21 5 1 -1.2 3.09
5 1 -21 1.76 3.03
-21 5 1 0.58 2.33
5 -1 21 -7.71 4.26
5 1 -21 4.53 3.11
21 5 -1 -2.34 3.66
5 -1 21 -1.43 4
-5 1 21 -3.87 4.3
-1 -21 -5 0.22 3.26
-1 -21 -5 -1.79 3.7
5 1 -21 2.12 2.7
5 -1 21 -0.24 2.25
-1 21 5 -0.1 2.91
-1 21 5 2.22 2.68
-5 1 21 0.17 3.46
21 -5 1 -1.28 3.34
1 -21 5 -0.67 2.94
1 -21 5 0.83 4.31
1 21 -5 -0.03 2.02
1 21 -5 -0.07 2.39
1 21 -5 2.43 3.02
1 21 -5 -0.92 2.28
1 21 -5 -0.97 2.41
-21 -5 -1 -1.45 3.21
-5 -1 -21 -2.31 2.95
-5 -1 -21 3.03 3.18
21 -5 1 -1.2 3.82
-21 -5 -1 0.65 2.78
5 -1 -21 0.94 2.97
-21 5 -1 2.96 2.48
-21 5 -1 0.99 3.13
-21 5 -1 2.02 2.74
-1 21 -5 -0.32 2.48
5 1 21 -7.4 4.05
-21 5 -1 -0.29 2.33
1 21 5 -0.48 2.55
21 -5 -1 -1.69 3.86
1 -21 -5 1.27 3.68
1 -21 -5 0.96 3.36
-21 -5 1 -0.67 2.82
21 5 1 -4.74 3.67
21 5 1 0.69 3.17
-1 -21 5 -0.3 4.33
-1 21 -5 -1.72 2.52
-1 21 -5 0.27 2.71
-1 -21 5 -0.55 3.05
-1 -21 5 3.47 2.55
21 -5 -1 -1.21 3.37
-5 -1 21 -1.05 3.57
-5 -1 21 -1.56 4.3
-5 1 -21 -0.62 2.82
-5 1 -21 -0.38 3.19
-5 1 -21 2.24 2.99
5 -1 -21 0.63 3.03
1 21 5 2.19 3.02
5 1 21 -5.54 4.05
-1 21 -5 4.12 2.07
-7 -1 -21 -1.9 2.73
-21 7 1 6.79 2.51
1 21 -7 3.47 2.03
1 -21 7 1.64 3.05
1 -21 7 -3.98 2.63
1 -21 7 0.97 4.43
-7 1 21 0.69 3.48
-7 1 21 -3.99 4.52
-1 -21 -7 0.35 3.49
-1 -21 -7 -0.24 3.7
1 21 -7 -0.87 2.5
7 -1 21 3.11 2.49
1 21 -7 1.29 2.63
1 21 -7 2.1 3.23
1 21 -7 3.05 2.53
-1 21 7 -2.99 3.13
-1 21 7 5.02 2.82
21 -7 1 -4.16 3.58
21 -7 1 -3.48 3.96
21 7 -1 1.33 3.78
7 -1 21 -3.13 4.31
7 1 -21 1.29 3.17
7 1 -21 2.36 3.18
-21 -7 -1 3.34 2.97
7 -1 21 -4.01 4.01
-7 -1 -21 0.99 3.09
-7 -1 -21 0.87 3.24
-7 -1 -21 -2.1 3
-21 7 1 1.75 2.5
-21 7 1 -4.93 3.18
-21 7 1 -2.56 2.68
-21 7 1 -1.79 3.52
-21 7 1 -1.93 2.72
-7 1 -21 -8.94 3.45
-7 1 -21 -1.95 2.85
1 -21 -7 -1.22 3.77
21 7 1 -1.98 3.75
-7 -1 21 1.41 3.44
-7 -1 21 -1.52 4.41
-7 1 -21 2.3 3.12
-7 1 -21 -1.91 3.04
-1 -21 7 2.52 4.5
-1 21 -7 4.14 1.94
-1 21 -7 -3.33 2.67
-1 -21 7 2.67 3.23
1 -21 -7 3.1 3.36
1 21 7 3.56 2.71
7 -1 -21 1.83 3.1
7 -1 -21 0.73 3.22
-1 -21 7 0.27 2.64
-21 7 -1 3.06 2.52
-21 7 -1 0.45 3.06
-21 7 -1 -4.07 3.54
-21 7 -1 -0.43 2.84
7 1 21 1.76 2.43
-21 -7 1 0.69 3.11
-1 21 -7 1.37 2.77
-1 21 -7 1.56 2.42
-1 21 -7 0.2 2.73
21 -7 -1 3.49 3.5
21 -7 -1 3.03 4.16
1 21 7 -2.22 3.12
7 1 21 -6.62 4.12
-21 7 -1 2.75 2.33
-7 1 -21 -0.49 2.95
-1 -21 -9 4.24 3.51
1 21 -9 1.01 3.23
1 -21 9 -0.43 4.67
1 21 -9 2.85 1.89
9 -1 21 -2.29 2.28
9 -1 21 2.04 4.28
1 -21 9 -9.18 2.96
1 -21 9 -1.9 2.89
1 21 -9 -2.36 2.73
21 -9 1 -2.01 3.87
-21 9 1 3.22 2.57
-21 9 1 -8.82 3.27
-21 9 1 -6.46 2.77
-21 9 1 -0.04 3.53
-9 -1 -21 -2.12 3.06
-9 -1 -21 -1.44 3.31
-9 -1 -21 -2.09 2.97
21 -9 1 -1.36 4.17
1 21 -9 2.24 2.86
9 1 -21 0.21 3.19
-9 1 21 -7.16 4.61
-1 21 9 -5.94 3.3
-1 -21 -9 6.48 4.02
-21 -9 -1 2.2 2.94
-9 1 21 0.25 3.44
21 9 -1 0.79 3.27
9 1 -21 3.78 3.39
9 -1 21 -4.17 4.15
21 9 -1 -0.98 3.81
-1 21 9 2.06 2.81
-9 1 -21 0.47 3.37
-21 9 -1 3.01 3.65
9 -1 -21 0.97 3.32
-1 21 -9 1.01 1.72
-1 21 -9 -1.69 2.93
-1 21 -9 -1.79 2.96
-9 1 -21 -0.81 2.96
-1 -21 9 9.36 4.62
-1 -21 9 -4.41 3.11
1 -21 -9 -1.98 3.47
1 -21 -9 3.01 4.02
-21 9 -1 2.05 2.55
-21 9 -1 0.52 3.16
-21 9 -1 -1.29 2.53
1 21 9 -0.18 3.37
-21 -9 1 -2.77 3.17
-21 9 -1 -0.75 2.14
21 9 1 -5.75 3.88
-9 -1 21 2.15 4.48
-9 1 -21 -5.78 3.16
21 -9 -1 2.92 3.67
-9 -1 21 -1.36 3.69
-9 1 -21 -1.43 3.13
-1 21 -9 0.66 2.82
1 21 9 2.6 2.96
9 1 21 -1.72 2.29
9 1 21 -1.93 4.11
9 -1 -21 1.83 3.23
21 -9 -1 7.25 4.36
1 -21 11 -4.87 3.73
11 1 -21 -3.43 2.79
1 21 -11 4.39 3.38
11 1 -21 5.2 3.56
-21 11 1 -4.97 3.39
-21 11 1 -2.27 2.89
-11 -1 -21 -4.75 3.04
11 -1 21 -6.09 2.49
11 -1 21 3.88 4.54
-1 21 11 -4.18 3.02
-1 -21 -11 -0.47 4.08
11 1 -21 -0.76 3.17
-11 -1 -21 -1.66 3.07
21 11 -1 -1.33 3.46
-21 11 1 1.82 2.47
-11 1 21 2.72 4.84
-1 -21 -11 3.41 3.75
-21 11 1 2.76 3.69
21 -11 1 -0.59 4.6
1 -21 11 -2.36 2.97
-11 1 21 -0.99 3.49
1 -21 11 -0.24 4.75
1 21 -11 -1.95 1.9
1 21 -11 -0.91 2.93
21 -11 1 -2.46 3.71
-21 -11 -1 -1.14 3
-1 21 11 -4.75 3.39
21 11 -1 -2.41 3.73
-21 11 -1 -2.54 2.74
11 1 21 -2.83 4.43
21 -11 -1 -1.92 3.43
21 11 1 -8.27 3.7
1 21 11 1.42 3.4
-11 1 -21 0.73 3.01
1 -21 -11 2.25 4.07
-21 11 -1 -0.91 3.66
-1 -21 11 -6.53 3.55
-1 -21 11 -4.62 3.11
-1 -21 11 0.39 4.61
1 -21 -11 -0.94 3.56
-11 1 -21 -0.97 3.39
1 21 11 -1.69 3.42
-1 21 -11 0.25 3.08
21 -11 -1 4.9 4.58
-11 1 -21 -5.23 3.06
11 1 21 -2.04 2.65
21 -11 -1 -0.72 3.79
-21 -11 1 1.08 3.1
-21 11 -1 -1.19 2.38
-21 11 -1 -2.98 3.25
-11 -1 21 -3.08 3.57
-1 21 -11 -2.15 1.75
-1 21 -11 0.04 2.96
-1 21 -11 -0.47 3.36
11 -1 -21 1.46 3.44
11 -1 -21 -0.95 3.35
-11 -1 21 -1.64 4.65
-3 -21 -1 -1.27 4.02
1 -3 21 -1.07 4.32
-21 1 3 6.82 3.07
21 1 -3 -3.81 3.42
1 -3 21 -5.09 3.96
-3 21 1 -0.35 2.68
-3 21 1 -1.6 2.48
-1 -3 -21 -1.98 2.87
-1 -3 -21 -0.14 2.95
-1 -3 -21 0.96 2.88
-3 21 1 2.49 2.01
21 -1 3 -0.85 3.5
-21 1 3 0.09 2.71
-21 -1 -3 3.82 2.49
-21 -1 -3 1.59 3.15
-1 3 21 -6.08 3.19
-1 3 21 2.09 4.09
3 21 -1 1.75 2.1
-21 1 3 3.76 3
3 21 -1 0.23 2.21
21 1 -3 0.18 2.82
1 3 -21 2.32 2.93
1 3 -21 0.62 2.88
3 21 -1 -0.19 2.31
-3 -21 -1 -3.33 3.2
-21 -1 -3 -9.6 3.25
21 -1 3 -1.92 3.53
3 -21 1 1.27 3.05
3 -21 1 -0.41 4.24
-21 1 3 0.79 3.5
3 21 -1 -0.75 2.85
1 3 21 -0.81 3.57
1 -3 -21 -1.29 3
-1 -3 21 -0.66 4
1 -3 -21 -1.9 2.87
-1 3 -21 1.51 2.95
-1 3 -21 0.11 2.81
3 -21 -1 -0.64 3.18
-3 21 -1 -0.13 2.56
-21 1 -3 -1.32 3.22
-21 1 -3 -6.51 3.23
-1 -3 21 -1.71 4.35
21 1 3 -1.42 3.45
-1 -3 21 2.15 2.49
21 -1 -3 0.28 3.43
21 -1 -3 2.61 2.97
3 -21 -1 -1.4 3.93
-3 21 -1 -1.84 2.49
-21 -1 3 6.5 3.07
-21 -1 3 -2.89 3.43
-21 -1 3 1.64 2.94
-21 1 -3 2.07 2.39
-21 1 -3 1.52 2.48
-21 -1 3 3.18 2.92
-3 21 -1 -0.45 2.49
-3 -21 1 -0.17 3.21
-3 -21 1 -2.8 3.95
-3 21 -1 0.64 1.94
3 21 1 -0.53 2.86
21 1 3 -3.55 3.54
3 21 1 0.04 2.38
1 3 21 -7.56 3.86
-21 3 3 12.45 3.94
-3 -3 -21 11.64 3.2
-21 3 3 8.95 3.03
21 -3 3 8.24 3.84
-3 21 3 10.71 2.44
-3 21 3 6.5 3.35
21 3 -3 4.06 3.64
3 -21 3 9.7 3.3
-21 3 3 9.71 3.2
-3 21 3 9.2 2.89
3 21 -3 10.47 2.56
-3 -3 -21 12.48 3.46
-3 -3 -21 7.03 3.49
-21 -3 -3 14.35 3.08
-21 -3 -3 10.59 3.64
-3 -21 -3 11.59 2.99
3 -3 21 10.52 4.69
3 3 -21 8.23 3.21
3 3 -21 11.45 3.24
21 -3 3 5.63 3.83
21 3 -3 7.18 3.5
3 -3 21 8.7 2.5
3 21 -3 11.34 2.49
-3 -21 -3 8.15 4.23
3 -3 21 8.79 4.32
21 3 -3 10.29 3.1
3 21 -3 9.13 3.23
3 21 -3 8.96 2.65
3 3 -21 7.22 3.12
-3 3 21 8.25 3.75
-3 3 21 7.52 4.59
-3 -21 -3 12.99 3.62
-21 3 3 11.47 2.82
3 -21 3 9 4.55
-21 -3 -3 -2.99 3.32
-21 3 3 7.53 2.77
-3 21 -3 6.16 2.86
21 3 3 3.86 3.73
-21 -3 3 8.54 3.21
-21 3 -3 3.76 2.48
-3 -3 21 11.28 4.14
-3 -21 3 4 4.44
3 -21 -3 8.15 3.49
3 -21 -3 5.54 4.1
3 21 3 10.37 2.77
21 3 3 2.74 2.82
21 3 3 6.17 3.9
-3 -21 3 10.56 2.68
-3 21 -3 10.17 2.31
-3 21 -3 8.8 3.22
-3 3 -21 13.28 3.39
-3 3 -21 11.26 3.3
3 3 21 5.76 4.25
-3 -21 3 5.21 3.45
21 -3 -3 6.85 3.71
21 -3 -3 11.43 3.37
-3 -3 21 2.02 4.46
-3 21 -3 9.79 2.85
3 3 21 3.68 4.09
-3 3 -21 7.11 3.4
-21 3 -3 8.44 3.43
-21 -3 3 9.15 3.91
-21 -3 3 11.28 3.28
-21 3 -3 9.8 2.73
3 21 3 11.05 3.35
3 -3 -21 13.91 3.36
3 -3 -21 9.64 3.5
-3 -21 -5 17.05 4.61
-21 5 3 14.93 3.27
-21 5 3 17.46 3.85
-21 5 3 15.1 3.47
5 3 -21 22.48 3.86
-3 -21 -5 23.82 3.49
-3 -21 -5 17.07 4.19
3 21 -5 18.33 3.67
-5 3 21 17.32 5.12
3 -21 5 15.13 4.93
5 -3 21 20.04 4.87
21 -5 3 12.2 4.32
21 -5 3 15.29 4.28
-3 21 5 20.88 3.63
21 5 -3 17.4 3.85
21 5 -3 15.83 4.52
5 -3 21 15.39 3.09
-5 -3 -21 21.41 3.82
5 -3 21 14 5.03
5 3 -21 19.71 3.84
-21 -5 -3 21.19 3.49
-21 -5 -3 14.88 4.02
3 21 -5 17.15 3.01
3 21 -5 24.3 3.42
-5 3 21 18.39 4.13
-5 -3 -21 21.94 3.86
-5 -3 -21 19.07 3.88
-3 21 5 19.14 3.92
-21 5 3 18.78 3.29
3 -21 5 19.43 3.5
-21 5 3 16.05 3.65
-3 21 -5 20.14 3.56
-3 -21 5 17.64 5.08
-5 -3 21 20.21 5.28
-5 3 -21 22.88 3.72
-5 3 -21 14.03 3.54
21 5 3 17.67 4.51
-5 -3 21 23.1 4.64
5 3 21 20.65 3.69
5 3 21 13.95 4.65
-5 3 -21 20.27 3.6
-5 3 -21 16.11 3.83
-21 -5 3 21 4
3 -21 -5 23.24 4.2
3 -21 -5 14.56 4.22
5 -3 -21 24.08 3.92
5 3 21 17.7 4.71
-21 5 -3 18.82 3.44
21 5 3 15.99 4.1
-3 -21 5 22.02 3.95
-3 -21 5 21.88 3.35
-3 21 -5 19.84 2.83
-3 21 -5 13.92 3.71
21 -5 -3 16.11 3.96
3 21 5 18.49 3.82
-21 5 -3 22.8 3.27
-21 5 -3 23.88 3.87
5 -3 -21 19.04 4.04
-5 3 -21 23.51 3.85
-21 -5 3 15.17 4.3
-21 -5 3 26.54 3.8
-21 5 -3 15.66 3.02
3 21 5 19.74 3.38
3 -21 7 20.7 3.64
-7 -3 -21 31.31 4.15
21 7 -3 28.75 4.79
-7 -3 -21 21.12 4.04
3 -21 7 19.8 5.52
-3 21 7 29.03 4.4
-3 21 7 22.01 3.97
3 21 -7 23.32 4.22
-7 3 21 19.28 4.28
3 -21 7 24.01 3.74
7 -3 21 23.33 3.46
7 -3 21 23.3 5.05
7 -3 21 33.4 5.37
7 3 -21 24.44 4.11
-7 -3 -21 22.29 3.73
-21 -7 -3 26.39 3.93
-21 -7 -3 16.07 4.33
-21 -7 -3 10.78 4.04
21 -7 3 22.52 4.84
7 3 -21 30.25 4.2
7 3 -21 20.79 3.68
-21 7 3 23.49 3.73
-21 7 3 21.92 4.39
-21 7 3 23.23 4.24
-7 -3 -21 30.14 4.37
-7 3 21 17.36 5.5
-3 -21 -7 26.09 4.49
-3 -21 -7 21.02 4.67
3 21 -7 29.8 3.55
21 7 -3 20.21 4.15
3 21 -7 21.49 3.22
-21 7 3 19.92 3.53
21 -7 3 14.64 4.69
21 7 3 23.1 4.41
-21 -7 3 31.14 4.89
21 7 3 19.65 4.78
3 -21 -7 26.51 4.8
-21 -7 3 18.95 4.18
-21 7 -3 17.06 4.48
-3 -21 7 27.66 5.54
-3 21 -7 21.26 2.94
-3 21 -7 24.85 3.53
-3 21 -7 21.69 4.13
-21 7 -3 30.15 4.13
-3 -21 7 28.62 4.2
3 -21 -7 37.62 4.6
3 21 7 30.18 4.33
-21 7 -3 22.2 3.23
7 3 21 20.59 4.28
7 3 21 13.96 5.22
7 3 21 12.39 4.88
3 21 7 25.7 3.89
7 -3 -21 21.35 4.24
-7 3 -21 29.34 3.95
-7 3 -21 17.72 4.09
-7 3 -21 28.45 4.48
-7 3 -21 23.15 3.97
-7 3 -21 20.36 4.03
-3 -21 7 27.15 3.77
7 -3 -21 31.18 4.28
21 -7 -3 27.39 5.05
-21 7 -3 14.31 3.71
-7 -3 21 25.36 4.63
-21 7 -3 24.07 3.41
-7 -3 21 20.89 5.54
-21 -9 -3 20.63 3.87
21 -9 3 8.42 4.51
-3 -21 -9 28.63 4.8
3 -21 9 18.48 3.68
3 -21 9 16.43 4.43
3 -21 9 22.74 5.5
3 21 -9 19.25 2.9
3 21 -9 27.44 3.67
9 3 -21 20.43 3.92
9 3 -21 22.54 4.11
21 -9 3 20.45 5.03
-3 -21 -9 19.09 4.5
-21 9 3 22.15 3.46
-21 9 3 14.28 4.29
-21 9 3 15.54 3.57
9 -3 21 30.6 5.24
-9 -3 -21 24.5 3.96
-9 -3 -21 17.81 3.74
-3 21 9 19.16 3.85
9 -3 21 21.52 5.03
-9 3 21 18.9 4.08
21 9 -3 21.72 3.96
21 9 -3 20.59 4.43
-21 -9 -3 17.43 3.88
-9 3 21 12.1 5.26
-3 21 9 20.19 4.25
9 3 -21 15.33 3.43
-21 9 3 21.51 4.24
3 21 -9 25.55 4.2
-9 -3 -21 26.15 4.23
-21 -9 -3 8.72 4.22
9 -3 21 18.18 3.18
9 3 21 8.5 5.07
-9 -3 21 17.27 4.37
21 9 3 10.09 4.49
-9 3 -21 14.16 3.98
21 9 3 24.78 4.24
-3 -21 9 26.39 3.98
-9 3 -21 24.29 3.73
-21 9 -3 9.36 3.7
-3 21 -9 24.79 3.54
9 -3 -21 24.2 4.12
9 3 21 14.89 4.33
3 21 9 29.29 4.43
9 -3 -21 18.97 4.19
-9 3 -21 16.16 4.56
-9 -3 21 20.3 5.4
21 -9 -3 27.52 5.22
-3 21 -9 18.4 3.99
3 -21 -9 25.62 4.45
3 -21 -9 21.71 4.74
-21 -9 3 13.27 3.97
-21 9 -3 18.11 2.88
-21 9 -3 27 4.04
-21 9 -3 19.7 4.41
3 21 9 25.6 4.13
-3 -21 9 21.69 5.1
-9 3 -21 19.72 3.87
21 -9 -3 28.44 4.29
21 -11 3 10.96 4.61
-21 11 3 11.69 3.92
-11 -3 -21 12.78 3.37
-21 11 3 2.57 3.04
3 21 -11 7.07 2.3
3 -21 11 2.35 5.19
-21 -11 -3 10.96 3.6
21 -11 3 0.23 4.22
-3 21 11 11.26 3.37
21 11 -3 13.84 3.67
21 11 -3 8.69 4.07
3 -21 11 3.45 4.08
-3 -21 -11 10.06 3.95
11 -3 21 17.47 4.64
3 21 -11 12.16 3.3
3 21 -11 7.02 3.68
-3 21 11 10.54 3.89
-11 3 21 3.66 4.91
-21 11 3 9.78 2.74
-3 -21 -11 7.47 4.36
11 -3 21 8.34 2.8
11 -3 21 2.79 4.83
-21 -11 -3 2.26 3.89
11 3 -21 6.29 3.1
-11 3 21 12.88 3.78
-11 -3 -21 8.47 3.43
11 3 -21 7.74 3.72
-21 11 3 1.65 3.84
11 3 -21 13.16 3.79
-21 11 -3 15.02 3.53
-11 3 -21 5.49 4.4
-21 -11 3 2.28 3.61
-3 21 -11 9.71 3.6
3 21 11 13.3 3.85
21 11 3 1.25 4.02
-11 3 -21 6.34 3.63
-3 -21 11 12.97 3.54
-3 -21 11 13.39 4.97
-3 21 -11 12.39 3.19
11 3 21 -1.82 4.58
21 -11 -3 16.37 3.88
21 -11 -3 9.63 4.86
-11 -3 21 7.88 5.09
-21 11 -3 9.24 3.94
-11 3 -21 8.75 3.24
3 21 11 13 3.76
-11 -3 21 8.32 3.88
3 -21 -11 11.41 4.16
3 -21 -11 15.83 4.51
11 3 21 6.86 4.11
11 -3 -21 4.65 3.65
11 -3 -21 13.06 3.78
-11 3 -21 7.38 3.2
1 5 -21 1.07 2.88
-21 1 5 0.04 2.85
-21 1 5 -5.48 2.85
1 5 -21 1.31 2.86
-5 21 1 5.42 2.05
-5 -21 -1 -0.91 4.05
-21 1 5 5.42 2.87
1 5 -21 1.45 2.86
1 -5 21 -5.27 3.95
1 -5 21 -3.29 4.43
-21 -1 -5 -0.04 3.12
-21 -1 -5 -5.81 3.49
21 1 -5 -0.65 3.16
-21 1 5 -3.72 3
-5 21 1 -4.44 2.81
-5 21 1 -0.44 2.59
-1 -5 -21 -0.96 3.18
-1 -5 -21 -3.31 2.98
21 1 -5 -6.74 3.46
5 21 -1 -2.01 2.33
-5 -21 -1 0.31 3.32
-21 1 5 -0.4 3.63
5 21 -1 2.12 2.96
-1 5 21 0.13 4.28
21 -1 5 -6.19 3.63
-21 -1 -5 7.03 2.54
-1 5 21 -2.63 3.39
5 -21 1 -4.65 2.91
5 -21 1 0.57 4.23
5 21 -1 3.12 2.49
5 21 -1 -1.88 2.28
21 -1 5 -3.33 3.66
1 -5 21 1.13 2.4
1 5 21 -5.42 4.07
21 1 5 -4.28 3.61
5 -21 -1 3.95 3.97
-21 1 -5 -1.21 2.3
5 21 1 -0.12 2.88
-21 1 -5 3.95 3.17
-21 -1 5 -0.13 3.61
-1 5 -21 0.12 2.84
-5 21 -1 -1.61 2.69
-1 5 -21 1.01 2.87
21 1 5 -4.9 3.66
5 21 1 3.11 2.4
21 -1 -5 -7.22 3.16
21 -1 -5 -2.07 3.45
5 -21 -1 -1.28 3.2
-5 21 -1 0.62 2.94
-1 -5 21 -1.31 4.65
-21 -1 5 -2.16 2.9
-21 -1 5 2.66 3.08
-1 -5 21 1.56 4.11
-21 -1 5 1.28 3.06
1 5 21 -0.73 3.42
1 -5 -21 0.8 3.03
-5 -21 1 1.32 3.36
-5 -21 1 0.73 2.41
-5 -21 1 -2.75 4.13
-5 21 -1 2.13 1.98
1 -5 -21 2.18 3.02
-21 -3 -5 25.94 3.47
-21 3 5 16.93 3.99
3 -5 21 20.01 3.06
3 -5 21 18.37 4.81
21 3 -5 16.07 3.81
-21 3 5 14.32 4.56
3 5 -21 21.92 3.72
-21 -3 -5 15.76 3.97
-21 -3 -5 3.96 4.06
3 5 -21 23.89 3.76
-5 21 3 14.49 3.44
-5 21 3 22.88 3.61
21 -3 5 17.04 4.38
-5 21 3 20.07 2.96
-3 5 21 19.26 3.42
-3 5 21 16.63 4.1
-5 -21 -3 22.36 3.4
-5 -21 -3 22.77 4.96
-3 -5 -21 22.39 3.98
-3 -5 -21 21.19 4.06
-21 3 5 17.85 3.58
21 3 -5 11.89 4.15
21 -3 5 15.79 4.39
-5 -21 -3 18.19 4.11
-3 5 21 22.37 5.04
5 -21 3 18.04 3.69
5 -21 3 16.17 5.1
5 21 -3 23.65 3.33
5 21 -3 17.39 3.8
3 -5 21 18.27 5.26
-21 3 5 21.11 3.54
-21 3 5 12.94 3.81
-21 -3 5 24.79 3.93
5 21 3 20.61 3.85
-3 5 -21 22.35 3.64
-21 3 -5 18.37 3.91
3 5 21 25.04 4.81
5 -21 -3 24.85 4
-5 -21 3 21.66 4.11
-21 3 -5 21.04 3.3
-5 -21 3 20.05 4.98
-5 21 -3 16.64 2.72
-5 21 -3 18.53 3.66
-5 21 -3 18.84 3.6
5 21 3 18.17 3.36
5 21 3 23.24 3.83
21 -3 -5 15.06 4.24
-21 -3 5 14.18 3.77
-21 -3 5 18.36 4.46
-3 5 -21 18.39 3.84
21 3 5 9.19 4.26
21 3 5 16.64 4.39
5 -21 -3 15.81 4.42
3 -5 -21 21.76 4.01
3 -5 -21 21.81 3.92
-5 -21 3 18.89 3.26
-3 -5 21 21.43 3.34
-3 -5 21 13.1 4.72
-3 -5 21 15.18 5.23
-21 3 -5 15.64 3.14
3 5 21 18.62 4.47
-5 -21 -5 44.31 6.49
5 -5 21 39.76 6.51
5 -5 21 65.74 8.53
-5 -5 -21 57.7 6.59
5 5 -21 57.4 6.69
5 5 -21 48.13 6.41
-21 5 5 50.93 6.26
5 5 -21 62.04 6.74
5 21 -5 63.64 6
5 21 -5 59.07 7.36
-5 -21 -5 51.8 6.3
-5 21 5 48.92 6.79
-5 21 5 53.69 6.67
-5 5 21 52.61 6.26
-5 5 21 36.37 5.88
-5 5 21 42.68 6.88
5 -5 21 45.68 5.52
-5 -5 -21 56.66 6.73
-21 -5 -5 58.66 6.22
-21 -5 -5 36.61 5.85
5 -21 5 43.91 6.93
-21 5 5 35.24 5.86
-21 5 5 44.07 6.58
-5 -21 -5 61.54 6.85
21 5 -5 38.93 6.25
21 -5 5 35.29 6.31
21 5 -5 37.48 5.49
5 5 21 44.47 6.59
5 5 21 58.26 7.71
-21 5 -5 46.27 6.21
-21 5 -5 52.46 5.74
-21 5 -5 58.46 6.85
-21 5 -5 44.73 5.6
21 5 5 30.04 6.09
21 5 5 52.57 7.3
5 21 5 63.52 7.23
-5 21 -5 50.93 6.79
-5 21 -5 54.97 6.46
-5 -5 21 41.97 6.32
-5 -5 21 33.35 6.96
-5 5 -21 50.33 6.11
-5 5 -21 48.82 6.4
-5 5 -21 59.62 6.75
5 -21 -5 59.35 6.61
5 -21 -5 35.29 6.27
5 21 5 63.22 6.43
-5 -21 5 56.73 6.09
-5 -21 5 41.66 6.86
5 -5 -21 44.98 5.9
5 -5 -21 65.16 6.72
-5 -21 5 65.7 6.72
-21 -5 5 53.36 6.99
-21 -5 5 57.3 7.61
-21 -5 5 66.2 7.01
-5 5 -21 54.08 6.69
5 21 -7 79.23 7.29
-21 7 5 90.17 7.81
21 7 -5 56.39 7.67
-7 -5 -21 74.56 7.95
-7 -5 -21 65.45 7.76
-21 7 5 72.35 8.47
-21 7 5 55.48 8.13
21 -7 5 57.53 8.61
21 -7 5 61.96 8.7
-21 -7 -5 60.44 8.2
-21 -7 -5 56.78 8.19
-7 5 21 70.79 9.88
-5 -21 -7 74.33 8.33
-5 -21 -7 59.71 8.81
-21 7 5 63.51 7.35
7 5 -21 54.78 7.68
7 -5 21 60.5 6.97
7 -5 21 75 9.4
7 5 -21 77.19 7.73
-21 -7 -5 74.26 7.66
-7 -5 -21 81.09 7.73
-5 21 7 63.31 8.06
5 -21 7 45.46 8.22
5 21 -7 79.94 8.69
21 7 -5 69.79 8.92
7 -5 21 85.65 9.54
7 5 -21 77.68 8
-7 5 21 58.87 8.22
-5 21 7 66.35 8.23
-5 21 -7 63.15 8.14
-5 21 -7 68.12 6.87
-7 5 -21 75.26 8.3
5 21 7 86.65 8.24
7 -5 -21 70.44 8.27
-21 7 -5 52.41 7.74
-7 -5 21 55.39 8.71
-5 -21 7 78.07 9.79
21 -7 -5 76.29 7.99
21 -7 -5 78.89 9.21
-7 5 -21 69.2 7.32
-21 -7 5 70.01 8.27
7 -5 -21 74.23 7.75
-21 7 -5 91.04 8.1
-7 5 -21 72.85 8.47
5 -21 -7 79.59 7.97
5 -21 -7 81 9.15
5 21 7 84.64 8.64
21 7 5 65.45 9.06
21 7 5 80.61 8.43
7 5 21 66.67 8.28
-5 -21 7 68.58 7.71
-21 7 -5 64.12 8.79
-7 5 -21 58.5 7.85
-7 5 -21 77.87 8.29
-21 7 -5 61.9 6.65
-21 -7 5 74.44 9.1
-5 21 9 50.09 7.31
-9 -5 -21 62.95 6.94
5 21 -9 62.65 6.41
5 21 -9 60.27 7.64
-5 -21 -9 63.46 7.45
9 5 -21 62.02 7.3
5 -21 9 38.65 7.51
21 9 -5 50.6 6.85
5 -21 9 51.85 6.73
5 -21 9 62.07 7.67
9 -5 21 45.28 7.04
9 -5 21 69.67 8.61
9 5 -21 44.21 6.58
-5 21 9 59.13 7.47
21 -9 5 44.3 6.88
-21 -9 -5 36.63 6.3
-9 -5 -21 54.91 7.19
21 9 -5 62.14 7.31
-21 -9 -5 63.83 6.94
9 5 -21 62.27 7.18
-21 9 5 48.02 6.44
-9 5 21 57.6 7.35
-9 5 21 40.76 7.37
-21 -9 -5 58.55 7.29
-5 -21 -9 46.57 6.76
-9 -5 -21 73.57 6.97
-21 9 5 47.01 6.19
21 9 -5 62.63 7.86
-21 9 5 58.79 7.47
-9 5 -21 53.25 7.1
-5 -21 9 70.58 8.96
-9 -5 21 38.12 6.56
5 -21 -9 64.8 8.49
-9 -5 21 36.21 7.45
5 21 9 74.94 7.41
5 21 9 64.24 7.73
-21 -9 5 35.81 6.23
-21 -9 5 68.17 8.48
-21 9 -5 78.29 7.07
-21 9 -5 37.08 6.5
21 9 5 65.79 7.61
-9 5 -21 63.31 7.37
5 -21 -9 69.21 7.45
21 9 5 38.04 6.53
-5 -21 9 74.59 7.11
21 -9 -5 65.08 7.17
-5 21 -9 58.79 6.37
-9 5 -21 63.96 7.92
9 -5 -21 66.45 6.93
9 5 21 45.43 6.47
9 5 21 31.29 7.07
9 -5 -21 46.12 6.35
21 -9 -5 61.4 8.56
-5 21 -9 52.09 7.35
5 21 9 62.54 7.82
5 -21 11 25.56 4.97
21 -11 5 10.47 4.89
-21 11 5 17.35 3.65
11 -5 21 38.63 5.66
11 5 -21 24 4.21
-5 21 11 21.13 4.39
-11 5 21 22.14 4.32
-21 11 5 22.3 4.43
-21 11 5 20.12 4.43
-5 -21 -11 23.92 5.07
-21 11 5 16.82 4.39
-11 -5 -21 31.88 4.1
-11 -5 -21 21.44 3.97
21 11 -5 26.22 4.67
21 11 -5 17.14 4.05
21 11 -5 18.32 3.86
21 -11 5 18.78 5.3
-5 -21 -11 25.58 4.78
5 -21 11 13.33 3.94
-21 -11 -5 20.22 4.68
5 -21 11 18.29 5.95
5 21 -11 23.33 3.87
5 21 -11 24.25 4.43
-5 21 11 18.56 4.04
11 -5 21 18.1 5.33
-11 5 21 20.28 5.46
-21 -11 -5 21.97 3.81
11 5 -21 22.37 4.34
-21 -11 -5 18.83 4.06
5 -21 -11 21.27 5.15
21 11 5 18.12 4.7
-5 21 -11 26.15 3.84
21 11 5 30.08 4.7
-11 5 -21 19.61 4.79
-11 5 -21 15.33 3.93
-11 -5 21 19.11 4.61
-11 -5 21 23.24 5.95
-5 -21 11 26.94 4.1
-5 -21 11 22.3 5.42
-21 -11 5 22.74 5.65
-21 -11 5 14.61 4.3
5 21 11 30.53 4.61
-5 21 -11 17.86 4.18
-21 11 -5 15.1 4.47
5 21 11 24.71 4.53
5 -21 -11 35.19 4.96
11 5 21 9.94 5.41
5 21 11 29.45 4.6
11 -5 -21 14.52 4.32
11 -5 -21 28.69 4.38
21 -11 -5 22.28 5.6
21 -11 -5 26.94 4.57
-21 11 -5 30.92 4.17
-11 5 -21 18.19 4.28
11 5 21 19.42 4.7
-1 7 21 1.46 3.51
-1 -7 -21 -2.23 3.15
1 7 -21 3.61 2.96
-7 -21 -1 2.27 3.55
1 7 -21 1.65 2.96
-1 7 21 1.6 2.55
21 -1 7 3.12 3.89
21 1 -7 -2.83 3.07
21 1 -7 -1.37 3.59
7 21 -1 -1.18 2.74
-7 21 1 3.86 2
-21 1 7 6.83 2.84
-7 21 1 1.19 2.94
-7 21 1 2.17 2.77
1 -7 21 2.45 4.16
1 -7 21 -0.58 4.76
7 -21 1 3.1 3.04
7 -21 1 -3.97 4.28
-1 7 21 0.6 4.33
7 21 -1 2.11 2.95
-21 -1 -7 6.93 2.6
-21 -1 -7 6.42 3.33
1 -7 21 1.84 2.41
-21 1 7 4.5 3.16
-21 1 7 -4.78 2.82
-21 1 7 -1.06 2.68
21 -1 7 -3.5 2.44
-7 -21 -1 -0.21 2.35
-21 1 7 -4.49 3.79
-7 -21 -1 1.75 4.25
21 -1 7 -3.47 3.89
-1 -7 -21 -0.85 3.17
-7 -21 -1 3.69 2.55
21 1 7 -4.13 3.87
1 7 21 -2.9 4.18
-21 -1 7 5.23 2.84
7 -21 -1 -2.41 4.07
-21 -1 7 1.97 3.15
-21 1 -7 3.25 2.46
-21 -1 7 2.43 4.01
-7 -21 1 3.66 4.48
-7 21 -1 1.14 1.96
-21 1 -7 1.73 3.07
-7 21 -1 0.33 2.84
1 -7 -21 -1.25 3.32
-21 -1 7 -5.4 2.94
-21 -1 7 1.59 2.58
7 -21 -1 4.28 3.24
21 1 7 -2.41 3.99
21 -1 -7 -1.96 3.26
-21 -1 7 -1.44 3.09
1 -7 -21 1.33 3.17
-7 21 -1 1.28 2.86
1 7 21 0.58 3.54
7 21 1 1.4 2.7
21 -1 -7 -0.01 3.56
-1 -7 21 6.15 2.52
-1 -7 21 -1.28 4.19
-1 -7 21 2.18 4.71
-1 7 -21 -0.12 2.89
-1 7 -21 -2.91 3
21 1 7 1.03 2.44
7 21 1 2 3.08
-7 -21 1 2.19 3.57
-7 -21 1 -0.64 2.6
3 -7 21 22.05 5.18
-21 -3 -7 41.94 4.78
-21 3 7 21.68 4.01
21 -3 7 21.27 4.79
21 -3 7 23.16 4.92
-7 21 3 21.44 3.83
3 -7 21 29.86 5.6
3 7 -21 32.29 4.22
7 -21 3 13.49 5.6
7 21 -3 23.87 3.68
7 21 -3 26.79 4.36
21 3 -7 23.48 4.03
3 7 -21 28.12 4.03
-3 -7 -21 28.12 4.33
-3 7 21 32.92 5.48
-7 21 3 38.39 4.26
-21 -3 -7 26.43 4.32
3 -7 21 18.63 3.37
21 3 -7 16.03 4.48
-3 -7 -21 26.28 4.24
-3 7 21 24.98 4.42
3 7 -21 21.51 4.1
-7 21 3 26.41 4.2
-7 -21 -3 35.71 4.54
7 -21 3 15.42 3.83
-21 3 7 16.89 3.7
-21 3 7 25.58 3.84
-21 3 7 19.35 5.2
-7 -21 -3 28.79 4.51
-3 7 21 25.2 3.56
-7 -21 -3 30.85 5.16
-7 -21 3 29.07 4.58
-3 -7 21 20.22 5.94
-21 3 -7 25.77 4.14
-21 -3 7 12.13 3.93
-7 21 -3 17.36 3.85
-7 21 -3 23.48 4.09
3 -7 -21 27.89 4.22
-21 3 -7 27.23 3.56
-3 7 -21 25.02 3.94
-3 7 -21 15.72 3.72
7 21 3 29.88 4.37
-21 -3 7 21.47 4.13
-3 -7 21 16.48 5.06
-3 7 -21 16.02 3.74
3 -7 -21 31.38 4.22
-21 -3 7 19.24 4.24
7 21 3 28.98 4
-21 -3 7 28.2 5.09
3 7 21 20.15 4.59
3 7 21 29.88 5.12
3 7 21 19.7 3.98
7 -21 -3 27.44 4.3
-7 -21 3 27.25 5.38
-7 -21 3 27.6 3.79
21 3 7 15.57 4.57
21 3 7 21.84 4.93
-21 3 -7 17.61 3.41
21 -3 -7 23.58 4.08
21 -3 -7 22.82 4.42
-3 7 -21 28.37 3.98
-7 21 -3 19.08 3
7 -21 -3 19.76 4.7
-5 -7 -21 79.61 7.96
-21 -5 -7 77.13 7.4
21 -5 7 56.07 8.85
21 5 -7 69.87 7.7
21 5 -7 64.25 8.86
-7 -21 -5 75.39 8.28
-5 -7 -21 74.29 8
7 21 -5 73.75 7.39
7 21 -5 69.06 8.7
-7 21 5 65.74 8.14
5 -7 21 80.5 9.46
-7 -21 -5 73.91 7.65
-5 7 21 67.31 7.2
-5 7 21 62.24 8.3
-5 7 21 85.42 9.95
-21 -5 -7 65.93 8.3
-7 21 5 68.13 7.04
5 -7 21 53.79 6.79
-7 21 5 69.76 8.16
5 -7 21 89.58 10.15
-21 5 7 81.21 8.4
-7 -21 -5 67.93 8.95
7 -21 5 52.41 8.53
5 7 -21 87.74 7.99
5 7 -21 67.75 7.92
5 7 -21 50.21 7.94
-21 5 7 64.85 8.51
-21 5 7 56.74 7.96
-5 -7 21 45.39 8.54
5 -7 -21 81.88 8.23
-21 -5 7 66.29 8.09
-21 -5 7 78.21 9.24
-21 5 -7 84.29 8.33
7 -21 -5 78.95 9.3
7 21 5 81.71 8.38
21 -5 -7 74.04 8.39
5 7 21 61.83 8.96
-5 7 -21 62.27 8.25
5 7 21 69.81 8.14
-7 -21 5 72.48 7.95
-7 -21 5 77.61 9.63
-7 21 -5 64.37 8.2
5 -7 -21 77.05 7.78
21 -5 -7 72.52 7.67
7 21 5 82.38 8.67
7 21 5 83.8 7.95
7 -21 -5 76.74 7.94
21 5 7 57.18 8.75
5 7 21 84.36 9.05
-5 7 -21 64.78 7.3
-5 7 -21 56.94 7.7
-5 7 -21 68.82 8.28
-7 -7 -21 97.51 9
-7 -21 -7 98.84 9.26
-21 -7 -7 93.43 8.82
-21 7 7 80.16 8.5
21 7 -7 80.4 9.73
7 -7 21 97.64 10.83
7 -7 21 113.29 10.92
7 7 -21 98.4 9.28
-21 -7 -7 75.63 9.38
-21 -7 -7 69.44 9.83
-7 -21 -7 78.71 10.22
7 21 -7 87.6 8.65
21 7 -7 79.82 8.85
-7 21 7 100.42 9.44
7 21 -7 84.61 10.03
21 7 -7 85.37 10.02
-21 7 7 84.55 9.72
-21 7 7 89.95 9.58
-21 7 7 76.26 9.34
-7 -21 -7 90.85 9.19
-7 21 7 78 9.49
-7 7 21 96.52 11.31
21 -7 7 68.29 10.2
21 -7 7 92.11 9.82
7 7 -21 87.57 9.04
-7 -7 -21 95.77 9.15
-7 -7 -21 85.58 9.1
7 -21 7 95.05 9.95
7 -21 7 80.9 11.26
7 7 -21 68.14 8.88
-7 7 21 86 9.72
-7 7 21 82.49 8.55
-7 7 -21 91.8 9.68
7 7 21 97.87 9.8
-7 21 -7 80.94 9.4
-7 7 -21 87.01 9.08
7 7 21 70.68 10.56
-7 -21 7 98.99 9.17
7 -21 -7 89.32 10.47
-7 -7 21 64.22 10.12
-7 -7 21 78.14 11.63
7 -7 -21 85.97 9.41
7 -7 -21 93.31 8.9
21 7 7 87.44 10.31
21 7 7 82.54 9.9
21 -7 -7 85.81 9.27
-21 7 -7 106.37 9.26
-21 7 -7 78.68 10.1
7 7 21 83.4 9.55
7 21 7 85.67 9.9
-21 -7 7 97 10.58
-7 -21 7 98.37 11
-21 7 -7 73.45 9.1
7 21 7 102.87 9.92
7 21 7 100.1 9.49
-21 -7 7 82.74 9.39
7 -21 -7 96.85 9.39
-7 21 9 69.41 8.87
-21 -9 -7 66.05 8.8
-21 -9 -7 80.94 8.31
-21 -9 -7 65.19 8.7
-21 9 7 72.68 7.72
-21 9 7 78.61 8.92
7 21 -9 72.69 7.94
-21 9 7 69.66 8.9
-9 -7 -21 95.25 8.22
7 -21 9 72.54 8.11
7 21 -9 75.76 9.43
21 9 -7 81.52 9.17
21 9 -7 71.07 9.06
-7 -21 -9 59.98 9.1
-9 7 21 71.95 8.87
9 7 -21 83.37 8.6
9 7 -21 76.76 8.29
7 -21 9 53.4 9.06
-9 -7 -21 81.56 8.33
-9 -7 -21 71.69 8.58
9 7 -21 56.65 7.83
21 9 -7 72.47 8.21
9 -7 21 79.74 10.28
9 -7 21 99.81 10.07
-9 7 21 69.9 7.7
-7 21 9 87.72 8.73
-9 7 21 79.9 10.68
-7 -21 -9 77.1 8.73
7 -21 9 82.81 9.07
21 -9 7 83.48 9.31
9 -7 -21 65.17 9.08
9 -7 -21 74.92 8.06
7 21 9 81.24 8.94
7 21 9 72.12 8.99
21 9 7 76.71 9.63
7 -21 -9 93.92 9.06
7 -21 -9 70.13 9.81
-7 -21 9 98.24 8.36
-21 9 -7 98.79 8.58
-21 9 -7 65.58 9.39
-21 9 -7 63.77 8.57
9 7 21 71.25 9.06
9 7 21 50.28 8.42
-7 21 -9 73.45 8.6
21 9 7 89.21 9.24
21 -9 -7 78.16 8.68
21 -9 -7 77.67 10.08
7 21 9 93.62 9.2
-9 7 -21 77.89 8.55
-9 -7 21 54.68 9.08
-7 21 -9 75.7 7.61
-21 -9 7 64.85 8.79
-21 -9 7 82.3 10.25
-7 -21 9 85.58 10.19
-9 7 -21 81.99 9.18
-9 21 1 -5.16 2.94
-1 -9 -21 2.45 3.32
1 -9 21 -0.87 4.3
-1 -9 -21 -1.87 3.14
-1 9 21 2.58 3.49
-1 9 21 3.77 2.54
1 -9 21 3.5 4.91
1 9 -21 2.35 2.96
1 9 -21 -2.94 2.94
-21 1 9 4.27 2.93
-21 -1 -9 10.65 2.7
-9 21 1 2.48 3.1
-1 9 21 -4.87 4.3
-9 21 1 2.89 2.04
9 -21 1 -1.67 3.02
9 -21 1 -3.82 4.43
-21 1 9 3.57 2.86
1 -9 21 3.27 2.34
-9 -21 -1 4.99 4.23
-21 -1 -9 1.22 3.17
21 -1 9 2.38 2.42
21 -1 9 -6.25 3.93
21 -1 9 0.33 4.25
21 1 -9 -1.87 3.24
21 1 -9 -0.18 3.61
-21 1 9 2.29 2.66
-21 1 9 -1.84 4.33
-9 -21 -1 2.43 3.74
-9 -21 -1 -1.32 2.62
9 21 -1 -5.34 2.95
1 -9 21 -1.36 3.08
9 21 -1 2.39 3.46
-1 -9 21 0.65 2.53
-1 -9 21 -1.49 4.98
-21 1 -9 3 3.31
21 -1 -9 -0.86 3.61
1 9 21 -0.08 3.6
9 21 1 3.14 3.4
-1 -9 21 6.1 4.55
9 21 1 1.38 2.95
1 -9 -21 4.3 3.38
-1 9 -21 -4.51 2.87
-1 9 -21 -0.35 2.77
-1 9 -21 1.42 2.94
9 -21 -1 0.1 4.03
-21 -1 9 3.26 4.38
-21 1 -9 6.55 2.51
1 -9 -21 0.86 3.24
21 1 9 7.07 2.52
21 1 9 -2.63 3.95
21 1 9 4.26 4.24
-9 21 -1 -1.43 2.89
-9 21 -1 -0.5 2.98
-21 -1 9 -0.41 3.44
-21 -1 9 -3.43 2.76
9 -21 -1 2.6 3.32
21 -1 -9 -2.99 3.18
-9 -21 1 2.16 3.65
-9 -21 1 7.14 4.4
-9 21 -1 3.83 1.87
1 9 21 -4.57 4.14
1 9 21 5.46 2.58
9 -21 3 9.56 5.5
-9 -21 -3 23.03 3.3
-9 21 3 18.79 3.88
9 21 -3 19.95 3.7
-9 21 3 18.6 3.07
-21 3 9 9.9 5.21
-9 -21 -3 26.39 4.69
-3 9 21 21.13 4.17
-3 9 21 27 5.23
-9 -21 -3 18.77 3.28
3 -9 21 18.89 3.13
3 -9 21 24.13 5.22
3 -9 21 24.09 5.75
3 9 -21 27.84 3.89
3 9 -21 20.74 3.86
3 9 -21 16.55 3.72
21 -3 9 16.53 4.59
21 3 -9 14.77 4.38
9 21 -3 20.37 4.35
-21 3 9 20.06 3.62
-9 21 3 19.79 3.9
-3 -9 -21 20.04 4.03
-3 -9 -21 33.07 4.35
21 3 -9 15.99 3.87
-21 3 9 15.36 3.51
-21 -3 -9 20.7 4.12
-3 9 21 26.74 3.49
-9 -21 -3 18.78 4.94
21 -3 9 20.81 4.86
-21 3 9 26.11 3.84
-3 -9 21 22.17 5.76
-3 9 -21 17.82 3.83
-3 -9 21 11.23 4.95
3 9 21 23.75 4.94
-9 21 -3 21.14 3.83
9 -21 -3 23.26 4.26
9 -21 -3 17.61 4.64
-21 3 -9 19.89 3.18
-3 9 -21 11.55 3.78
-9 21 -3 19.82 3.75
9 21 3 21.59 4.16
9 21 3 21.97 3.89
9 21 3 19.46 3.92
21 -3 -9 25.09 4.5
21 -3 -9 23.95 3.9
3 9 21 20.18 4.51
3 -9 -21 21.59 4.37
-3 9 -21 21.62 3.65
-21 -3 9 17.01 4.21
-21 -3 9 7.79 3.64
-21 -3 9 27.3 5.53
-9 -21 3 29.86 4.53
-9 -21 3 26.65 5.28
21 3 9 15.05 4.5
21 3 9 21.06 4.95
-21 3 -9 25.99 4.22
3 9 21 19.33 4.03
3 -9 -21 31.91 4.16
9 21 -5 38.32 6.49
-21 -5 -9 75.14 6.85
-9 21 5 55.5 6.04
-21 5 9 40.56 6.58
-21 5 9 61.92 7.55
-21 5 9 44.52 6.96
-21 5 9 38.27 7.41
9 -21 5 38.25 7.82
-9 -21 -5 53.39 7.01
-9 -21 -5 54.7 6.27
-9 -21 -5 59.53 6.63
-9 -21 -5 63.86 8.41
9 21 -5 48.79 6.74
21 -5 9 41.99 6.99
21 5 -9 56.95 7.2
21 5 -9 40.46 6.66
5 -9 21 63.45 8.78
5 9 -21 76 7.29
-5 9 21 59.05 6.3
-5 9 21 54.94 7.88
-5 9 21 66.76 8.96
-5 -9 -21 67.45 7.33
-9 -21 -5 63.55 7.46
-9 21 5 56.67 7.35
5 -9 21 69.09 9.14
-5 -9 -21 65.24 7.27
5 9 -21 63.12 7.22
-9 21 5 62.85 7.47
-5 9 -21 54.39 7.47
5 9 21 72.4 8.19
9 21 5 67.09 8.04
21 5 9 60.48 8.41
5 -9 -21 57.13 6.98
-9 -21 5 63.37 7.36
-9 -21 5 78.55 9.1
9 21 5 67.89 7.19
9 21 5 64.14 7.36
21 -5 -9 61.64 7.78
21 -5 -9 59.06 6.8
9 -21 -5 65.2 8.5
5 -9 -21 63.07 7.4
-9 21 -5 53.92 7.23
-21 5 -9 63.41 7.49
-21 -5 9 36.01 6.27
-21 -5 9 71.13 9.22
-5 -9 21 33.32 7.64
9 -21 -5 59.8 7.18
5 9 21 61.68 7.41
7 9 -21 85.08 8.65
-7 9 21 78.97 10.21
-9 21 7 87.33 8.75
-9 21 7 73.45 8.79
-7 -9 -21 90.09 8.49
-7 -9 -21 85.79 8.44
-7 -9 -21 80.92 8.36
-9 -21 -7 79.54 8.67
-9 -21 -7 72.03 7.63
-9 -21 -7 79.14 8.32
-9 -21 -7 73.51 9.34
-21 7 9 61.52 8.61
-21 7 9 80.97 10.76
7 9 -21 78.42 8.33
7 9 -21 53.52 8.16
-7 9 21 77.07 7.66
-7 9 21 71.64 8.93
7 -9 21 69.51 10.05
7 -9 21 87.84 10.47
-21 7 9 74.95 8.95
-21 -7 -9 81.43 8.25
-21 -7 -9 62.75 8.71
9 21 -7 70.87 8.06
9 -21 7 77.17 10.91
9 21 -7 68.35 9.32
9 -21 7 83.03 9.31
-21 7 9 65.31 7.66
-21 7 9 71.52 8.99
21 7 -9 65.17 9.29
21 -7 9 63.42 9.67
21 7 -9 77.02 8.32
-9 -21 -7 79.31 8.19
21 7 9 79.17 9.54
7 9 21 79.27 8.81
-21 -7 9 70.67 8.84
-21 7 -9 74.68 8.66
9 21 7 82.96 9.5
-9 -21 7 80.18 8.55
-9 -21 7 94.97 10.68
-9 21 -7 74.63 8.77
21 -7 -9 79.41 7.97
7 9 21 71.03 9.82
9 -21 -7 80.42 8.81
21 -7 -9 85.29 9.08
21 7 9 80.13 9.69
-7 9 -21 84.4 8.45
-7 9 -21 78.04 9.14
7 -9 -21 79.46 8.15
9 -21 -7 86.22 9.89
-21 7 -9 68.5 9.5
-21 -7 9 82.02 10.58
9 21 7 91.1 8.88
7 -9 -21 73.71 8.82
9 21 7 78.61 8.84
-1 11 21 -0.2 3.38
21 1 -11 -0.49 3.63
-1 11 21 2.19 2.45
-21 -1 -11 8.75 2.71
-21 -1 -11 -1.52 3.37
21 -1 11 4.32 2.38
1 -11 21 -1.13 4.4
1 -11 21 6.52 5.36
1 11 -21 -1.62 3.02
1 11 -21 2.64 2.97
1 11 -21 1.04 3.03
21 1 -11 -0.85 3.43
11 -21 1 -9.16 4.35
11 21 -1 -2.24 3.05
-11 21 1 0.85 2.1
-11 21 1 3.4 3.1
-1 -11 -21 3.39 3.4
-1 -11 -21 0.46 3.33
-21 1 11 -0.69 2.84
1 -11 21 -0.37 2.35
1 -11 21 2.76 3.21
21 -1 11 -2.47 4.09
21 -1 11 2.64 4.5
11 21 -1 0.31 3.44
-11 21 1 -4.48 2.97
-21 1 11 3.95 2.95
-21 1 11 -3.39 2.61
-11 -21 -1 4.21 3.81
-11 -21 -1 -3.32 4.32
-1 11 21 -1.06 4.2
11 -21 1 -2.27 3.13
-21 1 11 -1.96 4.7
-11 21 -1 -1.54 3.21
-11 -21 1 2.74 4.46
21 1 11 4.96 4.45
-11 21 -1 -3.32 2.91
11 21 1 -2.07 3.51
-11 -21 1 2.64 3.72
1 -11 -21 -0.87 3.4
1 -11 -21 0.94 3.38
-21 -1 11 0.26 2.82
-1 -11 21 -0.26 4.45
-1 -11 21 -4.13 5.16
-1 11 -21 2.06 2.86
11 -21 -1 0.28 4.14
-1 11 -21 -2.07 3.03
-1 11 -21 -4.95 2.88
21 1 11 4.18 2.65
-21 -1 11 -0.74 4.73
21 1 11 -4.38 3.92
1 11 21 1.93 3.53
1 11 21 -5.54 4.16
11 21 1 -0.27 3.51
11 21 1 -0.66 3.07
21 -1 -11 1.16 3.56
21 -1 -11 -1.25 3.56
-1 -11 21 -0.71 2.55
11 -21 -1 -1.64 3.31
-1 -11 21 4.95 3.08
-21 1 -11 6.39 2.54
-21 1 -11 1.57 3.35
1 11 21 0.48 2.5
-21 3 11 11.38 3.21
-21 3 11 2.01 2.98
11 21 -3 4.8 3.36
11 21 -3 6.34 3.83
-3 -11 -21 19.23 3.84
-3 11 21 9.91 2.72
-21 -3 -11 18.93 3.19
-21 -3 -11 9.58 3.77
-21 3 11 7.18 3.21
3 11 -21 8.9 3.25
-11 21 3 6.42 3.46
-11 21 3 10.42 3.37
-3 -11 -21 12.22 3.69
3 -11 21 15.09 5.04
3 11 -21 13.71 3.6
11 -21 3 2.84 5.08
-21 3 11 3.69 4.84
21 -3 11 10.63 2.54
21 -3 11 7.11 4.2
21 -3 11 4.87 4.77
21 3 -11 6.45 3.64
21 3 -11 7.55 3.93
-3 11 21 8.24 3.82
-3 11 21 9.58 4.56
3 -11 21 13.01 4.77
-11 -21 -3 9.75 4.12
3 -11 21 10.31 2.57
3 -11 21 5.12 3.69
-11 -21 -3 8.37 4.5
11 21 3 7.77 3.82
3 -11 -21 10.8 3.92
-11 21 -3 8.34 3.22
-3 -11 21 8.49 5.48
3 -11 -21 11.33 3.62
-3 -11 21 11.51 3.06
11 -21 -3 8.99 3.81
11 -21 -3 8.01 4.49
-3 -11 21 5.43 4.57
3 11 21 11 3.51
-3 11 -21 3.55 3.36
-3 11 -21 14.57 3.53
11 21 3 8.96 3.54
21 -3 -11 13.37 4.28
21 -3 -11 5.45 3.67
-21 -3 11 6.09 3.96
-21 -3 11 1.8 3
-21 -3 11 16.7 5.13
-21 3 -11 15.15 2.64
-21 3 -11 14.23 3.82
21 3 11 15.87 3.03
21 3 11 2.93 4.24
21 3 11 14.91 4.94
3 11 21 5.09 4.22
3 11 21 11.97 4.56
-11 -21 3 19.51 4.8
-11 -21 3 15.31 4.15
5 11 -21 14.99 3.74
-5 11 21 22.25 4.47
-5 11 21 24.05 5.28
-11 -21 -5 26.82 4.53
21 -5 11 14.36 5.06
21 5 -11 18 4.13
21 5 -11 17.96 4.6
5 11 -21 19.81 3.93
-21 -5 -11 28.9 3.95
-21 -5 -11 16.52 4.15
5 -11 21 24.5 5.34
11 -21 5 15.93 6.03
11 21 -5 15.87 3.81
11 21 -5 17.28 4.53
-21 5 11 18.63 4.43
-21 5 11 22.38 3.9
-21 5 11 15.09 3.68
-21 5 11 11.91 5.52
-11 -21 -5 24.7 4.56
-5 -11 -21 34.32 4.51
-11 -21 -5 21.56 3.73
-11 -21 -5 21.02 3.56
-11 -21 -5 18.49 4.9
-5 11 21 21.84 3.35
5 -11 21 24.17 5.68
-5 -11 -21 22.79 4.1
-11 21 5 18.15 3.41
-11 21 5 23.23 4.12
-11 21 5 21.4 4.05
-11 21 -5 17.8 3.83
21 -5 -11 28.73 4.18
-5 -11 21 16.28 6.22
-5 11 -21 15.8 3.82
-5 11 -21 21.53 4.35
-11 -21 5 25.49 4.6
11 21 5 21.05 4.04
21 -5 -11 20.84 4.68
5 -11 -21 18.06 4.24
5 -11 -21 27.41 4.16
-21 -5 11 18.24 4.46
-11 -21 5 33.65 5.54
21 5 11 15.95 4.77
21 5 11 26.46 5.37
5 11 21 22.96 4.1
5 11 21 20.25 4.6
5 11 21 38.06 4.96
5 11 21 26.76 4.01
11 -21 -5 27.08 4.67
11 -21 -5 20.85 5.04
-21 -5 11 10.87 3.58
-21 -5 11 21.66 5.76
-21 5 -11 17.49 4.2
11 21 5 19.69 4.58
11 21 5 25.97 4.31
-22 0 0 8.32 2.76
-22 0 0 2.67 2.68
-22 0 0 4.74 3.38
-22 0 0 3.67 3.36
-22 0 0 8.05 3.71
-22 0 0 4.14 2.95
0 -22 0 0.12 3.3
0 -22 0 3.88 4.43
0 0 -22 0.25 3.25
0 0 -22 7.87 3.18
0 0 22 -3.9 4.02
0 0 22 3.33 4.41
0 22 0 5.27 2.31
0 22 0 6.82 3.08
0 22 0 4.85 2.66
22 0 0 2.39 3.79
22 0 0 0.78 3.41
22 -2 0 0.73 3.73
22 -2 0 -1.82 3.3
22 2 0 2.15 3.72
22 2 0 -4.66 3.3
2 0 -22 -2.78 3.05
-22 -2 0 1.83 2.8
-22 -2 0 5.28 3.41
-22 -2 0 -3.15 3.21
-22 2 0 -0.58 2.48
-22 2 0 2.11 2.38
-22 2 0 -1.31 3.32
-22 2 0 -0.41 2.81
-2 0 -22 1.05 3.2
-2 0 -22 4.12 3.18
-2 0 22 -4.14 3.9
-2 0 22 -1.01 4.33
0 -22 -2 -4.57 3.29
0 -22 -2 -3.02 4.11
0 -22 2 -1.49 3.24
0 -22 2 -5.94 4.2
0 22 -2 0.41 2.08
0 22 -2 -1.49 2.92
0 22 -2 0.82 2.48
0 22 2 0.84 2.75
0 22 2 0.16 2.6
2 0 -22 -1.23 3.25
2 0 22 -1.49 4.18
2 0 22 -2.23 3.9
0 22 -4 0.58 2.08
0 -22 -4 1.84 3.49
0 -22 -4 -0.14 4
0 -22 4 -2.98 3.1
0 -22 4 -2.82 4.27
0 22 -4 -2.37 2.38
0 22 -4 2.47 2.59
0 22 4 -3.48 2.91
0 22 4 0.06 2.6
4 0 -22 -1.68 3.03
4 0 -22 0.28 3.13
4 0 22 -0.8 4.11
4 0 22 -1.73 4.26
22 -4 0 1.32 3.44
22 -4 0 -7.69 3.82
22 4 0 -3.62 3.36
22 4 0 -1.58 3.19
-4 0 -22 -1.27 3.02
-4 0 -22 -2.38 3.08
-4 0 22 -4.29 3.66
0 22 -4 -2.33 3
-4 0 -22 -1.46 2.99
-22 4 0 -4.57 3.15
-22 4 0 -3.6 2.69
-4 0 22 -6.13 4.33
-22 4 0 0.86 2.51
-22 -4 0 4.86 3.03
-22 -4 0 0.2 3.15
-22 4 0 -0.65 2.37
-22 6 0 4.26 3.3
-22 -6 0 2.72 2.93
-22 6 0 1.67 2.41
0 -22 -6 0.21 3.6
22 -6 0 -2.31 4.17
22 6 0 -2.76 4.02
-6 0 22 0.75 3.54
-22 6 0 4.46 2.62
6 0 22 -1.45 4.4
0 -22 -6 7.03 4.02
0 -22 6 -4.67 3.2
0 -22 6 -2.37 2.62
0 -22 6 -5.89 4.55
-6 0 22 -7.88 4.4
0 22 -6 -0.16 2.72
0 22 -6 -3.03 3.1
0 22 -6 2.35 2.55
0 22 -6 3.42 2.59
0 22 6 -0.45 3.18
0 22 6 1.63 2.74
6 0 -22 -2.52 3.04
6 0 -22 5.23 3.43
6 0 22 0 2.53
6 0 22 2.57 4.37
0 22 -6 4.41 2.17
22 -6 0 3.17 3.75
-6 0 -22 2.08 3.35
-6 0 -22 1.3 3.16
-22 6 0 -1.68 2.76
-6 0 -22 0.44 3.23
-22 6 0 -2.27 3.81
-8 0 -22 -0.91 3.19
8 0 22 1.44 4.52
22 -8 0 1.24 3.69
22 -8 0 1.82 4.34
8 0 22 6.53 2.69
0 22 8 8.22 3.6
0 22 8 6.78 2.98
-8 0 -22 7.79 3.35
-8 0 -22 5.32 3.24
-8 0 22 6.84 3.93
0 -22 -8 8.8 4.09
0 -22 8 2.42 3.25
8 0 22 1.89 4.32
-8 0 -22 3.69 3.49
-8 0 -22 8.26 3.9
0 22 -8 2.74 2.89
0 22 -8 2.5 3.29
0 22 -8 5.93 2.77
0 22 -8 6.68 2.79
-22 8 0 2.73 3.78
-22 8 0 5.8 2.5
8 0 -22 9.78 3.52
22 8 0 4.54 4.08
-22 8 0 6.16 3.39
8 0 -22 4.6 3.4
-8 0 22 2.64 4.76
0 -22 -8 7.13 3.8
0 -22 8 5.76 2.97
0 -22 8 2.39 4.76
0 22 -8 6.39 2.11
-22 8 0 6.43 2.75
-22 -8 0 6.36 3.37
0 22 -10 2.52 2.97
0 22 -10 5.52 2.98
-22 10 0 2.25 3.79
0 22 -10 4.47 1.93
-22 -10 0 0.42 3.14
-10 0 -22 1.41 3.48
-10 0 -22 2.47 3.09
-10 0 22 5.52 3.79
-10 0 22 2.46 4.73
0 -22 -10 -3.51 4.03
0 -22 -10 -0.69 4.29
0 22 -10 2.63 3.32
0 -22 10 -2.02 3.29
0 -22 10 4.07 4.81
10 0 22 -6.99 4.49
22 -10 0 1.16 3.94
22 -10 0 3.38 4.53
22 10 0 -0.73 4.03
10 0 -22 6.28 3.69
10 0 22 -0.23 2.46
0 22 10 0.6 3.22
10 0 -22 -0.12 3.42
-22 10 0 1.78 3.37
0 22 10 3.41 3.59
-10 0 -22 5.88 3.34
-22 10 0 4.79 2.61
-22 10 0 1.51 2.48
-2 -22 0 -0.46 3.34
0 -2 -22 -4.2 3.18
-22 0 2 -2 2.84
-22 0 2 5 3.33
22 0 2 4.38 3.82
22 0 2 -4.88 3.56
22 0 -2 -2.21 3.17
2 22 0 0.51 2.49
2 22 0 1.6 2.4
-22 0 -2 -8.31 3.32
0 -2 -22 1.07 3.04
2 -22 0 0.4 4.2
2 22 0 -0.33 2.88
0 -2 22 -2.04 4.16
-2 -22 0 -3.82 4.37
-2 22 0 -1.69 2.15
22 0 -2 1.07 3.74
-22 0 2 3.69 3.11
0 -2 22 -1.49 4.47
0 2 -22 -1.54 3.06
0 2 -22 2.56 3.05
0 2 22 -2.36 3.78
-22 0 -2 4.51 2.42
-22 0 -2 4.86 2.52
-22 0 -2 -0.97 3.3
0 2 22 -1.26 4.21
-22 0 2 -1.32 3.58
-2 22 0 -0.62 2.89
2 -22 0 0.05 3.2
-2 22 0 -1.55 2.57
2 22 -2 -0.36 2.15
2 2 -22 1.52 3.06
-2 -2 -22 -4.54 2.95
-22 -2 -2 7.07 2.82
22 2 -2 -0.61 3.01
-22 2 2 -0.24 2.53
-2 2 22 -5.16 3.59
22 -2 2 -0.13 3.77
22 -2 2 0.2 3.69
-2 -22 -2 -3.73 3.21
-2 -22 -2 -2.93 4.1
2 -2 22 -4.27 4.19
-2 2 22 -6.44 4.11
2 2 -22 -3.22 2.96
-22 2 2 3.11 3.73
22 2 -2 -1.13 3.6
-22 -2 -2 0.63 3.36
2 22 -2 1.27 2.34
2 22 -2 -0.47 2.45
2 -2 22 0.4 4.46
2 -22 2 -3 3.25
-2 -2 -22 1.28 3.21
-2 22 2 0.06 2.6
-2 22 2 1.33 2.16
-22 2 2 1.02 2.99
2 -22 2 -1.63 4.37
-2 22 2 -2.08 2.97
2 22 -2 -3.47 2.69
-22 2 2 -2.8 3.23
-22 2 2 0.95 3.02
-2 -2 -22 -1.32 3.07
-2 -2 22 -5.6 4.18
-22 2 -2 -0.02 3.24
-22 -2 2 0.07 2.95
2 -22 -2 -4.88 3.34
2 -22 -2 -4.44 3.9
-2 22 -2 -3.65 2.73
-22 2 -2 -3.28 2.39
2 -2 -22 -2.76 3.16
2 -2 -22 0.7 3.18
-22 -2 2 7.3 3.28
2 2 22 -7.8 4.03
-2 22 -2 -0.94 1.97
22 2 2 -3.97 3.46
-2 -2 22 -5.3 3.83
-2 22 -2 -0.64 2.54
-22 2 -2 1.84 2.37
-2 2 -22 -1.26 3.14
-2 2 -22 1.11 3.04
-22 -2 2 -5.3 3.73
-22 -2 2 0.37 3.08
2 22 2 -1.52 2.47
22 -2 -2 -2.48 3.7
22 -2 -2 -2.1 3.22
2 22 2 -0.55 2.97
-2 -22 2 -7.17 3.23
22 2 2 -6.51 3.5
-2 -22 2 -7.63 4.2
2 2 22 -2.95 4.03
-2 22 4 -3.09 2.53
2 22 -4 1.41 2.5
22 4 -2 -0.77 2.9
-22 4 2 -3.04 2.79
-4 -2 -22 -6.32 3.26
2 -22 4 -0.21 4.48
-22 4 2 -2 2.4
-22 -4 -2 -4.1 3.26
-22 -4 -2 -0.05 2.88
4 2 -22 -1.88 3.03
22 -4 2 -7.92 3.8
-4 2 22 -4.89 3.37
-4 2 22 -7.11 4.33
-2 -22 -4 -1.03 3.56
-2 -22 -4 0.02 4.03
4 -2 22 -4.37 4.11
4 -2 22 -9.39 4.41
4 2 -22 -0.8 3.08
-4 -2 -22 -4 3.3
4 -2 22 1.28 2.35
2 22 -4 0.11 2.2
22 -4 2 -1.59 3.67
2 22 -4 -0.73 3.15
2 22 -4 0.43 2.36
-22 4 2 -2.74 3.18
-2 22 4 -1.12 3.02
22 4 -2 -6.52 3.69
-4 -2 -22 -1.55 3.03
-22 4 2 -3.93 2.43
2 -22 4 -1.17 2.98
2 -22 -4 -1.49 3.86
4 2 22 -1.66 3.93
4 2 22 -10.19 4.03
2 22 4 1.55 2.65
-2 22 -4 3.42 2.02
4 -2 -22 -0.17 3.26
-22 -4 2 2.62 2.93
-22 4 -2 -2.41 2.7
-4 2 -22 1.33 2.89
-22 4 -2 1.62 2.55
4 -2 -22 -0.92 3.15
-2 22 -4 -2.48 2.68
-2 -22 4 -6.5 3.35
-22 -4 2 3.06 3.27
-2 22 -4 -1.03 2.6
22 -4 -2 3.77 3.33
2 -22 -4 -3.18 3.33
22 4 2 -5.12 3.48
22 4 2 -3.92 3.44
-4 -2 22 -7.07 3.87
-22 4 -2 -2.45 2.32
-4 2 -22 -2.69 3.02
-2 -22 4 0.3 2.5
-2 -22 4 -8.56 4.54
-22 4 -2 2.78 3.31
2 22 4 -3.81 2.88
-4 -2 22 1.42 4.53
22 6 -2 -5.12 3.99
-22 6 2 -5.71 3.34
-22 -6 -2 -0.43 3.4
-22 -6 -2 2.44 2.95
2 22 -6 -2.84 2.33
2 22 -6 0.47 2.14
-22 6 2 -3.44 3.13
-2 22 6 -1.72 2.99
-2 22 6 1.07 2.79
22 -6 2 -10.82 3.98
22 6 -2 -4.56 3.24
2 -22 6 -5.84 2.99
2 -22 6 -5.92 2.68
2 22 -6 -1.77 2.55
2 22 -6 -1.41 3.17
6 -2 22 0.21 4.25
-6 -2 -22 -0.39 2.99
6 -2 22 -0.56 4.57
2 -22 6 -1.28 4.57
6 2 -22 -0.07 3.22
-22 6 2 -0.84 2.52
-6 -2 -22 -5.14 3.18
-6 -2 -22 -3.8 3.24
-6 2 22 -5.87 4.69
6 2 -22 1.37 3.2
2 22 -6 1.68 2.36
-6 2 22 -4.32 3.71
22 -6 2 1.32 3.72
-2 -22 -6 1.39 3.51
-22 6 2 3.51 2.52
6 -2 22 1.91 2.48
-2 -22 -6 -1.49 3.88
-2 -22 6 -0.52 2.77
-22 6 -2 -0.05 2.55
2 22 6 -2.84 3.03
-2 22 -6 -4.14 2.8
-6 2 -22 1.19 3.35
-6 2 -22 -0.3 3.09
-2 22 -6 -4.71 2.65
-22 6 -2 4.34 3.29
6 -2 -22 -0.72 3.06
-22 6 -2 -5.45 3.77
-22 6 -2 -1.06 2.35
22 6 2 -9.46 3.92
22 6 2 -3.96 3.51
-6 2 -22 -2.17 3.02
-6 2 -22 -4.42 3.3
-2 -22 6 -0.71 3.28
6 2 22 -3.76 4.16
22 -6 -2 0.65 3.44
22 -6 -2 1.23 4.25
2 22 6 2.05 2.68
2 -22 -6 -4.45 3.5
-2 22 -6 -1.52 2.75
6 2 22 -2.83 4.33
-6 -2 22 -1.23 3.84
-22 -6 2 -0.61 3.02
-2 22 -6 4.07 2.02
-6 -2 22 -6.21 4.51
2 -22 -6 3.32 3.83
6 -2 -22 2.93 3.31
-2 -22 6 -9.69 4.5
-22 6 -2 -7.07 2.78
-22 8 2 3.6 3.65
8 -2 22 1.24 4.48
2 22 -8 1.13 2.86
22 -8 2 -2.21 4.4
-22 8 2 -0.18 3.28
8 -2 22 -0.57 4.43
-2 22 8 1.83 2.98
-8 2 22 0.44 3.59
-8 2 22 -7.85 4.8
8 2 -22 3.32 3.3
-2 -22 -8 -2.69 4.05
2 -22 8 5.79 4.8
8 2 -22 0.37 3.12
-8 -2 -22 1.02 3.42
22 -8 2 2.44 3.88
22 8 -2 -5.06 3.51
22 8 -2 -0.42 3.98
-8 -2 -22 0.48 2.95
-22 -8 -2 3.12 3.13
-22 -8 -2 3.15 3.56
-2 -22 -8 -0.92 3.74
2 -22 8 0.77 3.05
2 -22 8 -8.5 2.81
-8 -2 -22 -0.95 3.22
2 22 -8 -1.93 3.27
8 -2 22 1.73 2.42
-8 -2 -22 -3.32 2.95
2 22 -8 -0.75 2.44
2 22 -8 4.15 2.07
-22 8 2 -0.21 2.49
-2 22 8 2.97 3.34
2 -22 -8 1.23 3.93
-8 2 -22 1.58 3.69
-2 -22 8 4.94 2.86
-2 -22 8 4 3.4
2 -22 -8 3.12 3.8
22 -8 -2 0.97 3.71
-2 -22 8 -0.75 4.69
-22 8 -2 5.91 2.59
-8 2 -22 -1.76 3.18
-8 -2 22 -0.36 3.79
-8 -2 22 -2.02 4.68
-8 2 -22 1.24 3.05
-8 2 -22 -0.67 3.22
-22 8 -2 5.67 3.73
-22 8 -2 -4.12 2.95
8 -2 -22 2.78 3.3
-22 8 -2 4.55 2.3
8 2 22 -3.26 4.34
2 22 8 2.44 3.32
-8 2 -22 3.09 3.12
-2 22 -8 4.21 1.92
-2 22 -8 -4.8 2.81
-2 22 -8 -1.77 3.24
-2 22 -8 2.83 2.82
22 8 2 -4.07 3.95
8 -2 -22 3.82 3.44
22 -8 -2 2.62 4.45
-22 -8 2 2.45 3.33
-22 8 -2 1.07 3.22
2 22 8 1 2.94
8 2 22 -5.54 4.3
-10 2 22 -0.28 3.56
-10 -2 -22 -0.85 3.36
2 -22 10 -5.17 3.01
-10 2 22 -3.86 4.76
-22 10 2 -2.28 3.47
-22 10 2 1.06 2.72
-22 10 2 -1.58 3.7
2 -22 10 -4.19 4.89
-22 -10 -2 -3.36 3.21
-22 -10 -2 -2.61 3.61
10 -2 22 -0.38 2.38
2 -22 10 -8.12 3.78
22 -10 2 -5.18 4.55
-2 -22 -10 -0.64 3.63
-2 -22 -10 -10.52 4.29
-22 10 2 -0.46 2.55
-2 22 10 -2.89 3.47
-10 -2 -22 -2.57 3.11
10 -2 22 0.19 4.49
10 -2 22 -1.49 4.56
10 2 -22 -3.15 3.19
10 2 -22 0.07 3.52
10 2 -22 -1.72 2.87
-2 22 10 -3.78 2.95
2 -22 10 -6.42 2.92
2 22 -10 -1.01 2.94
22 10 -2 -4.01 3.81
22 -10 2 -2.4 4.1
2 22 -10 0.33 1.92
22 10 -2 -3.33 3.47
2 22 -10 -2.65 3.42
22 -10 -2 -5.01 4.37
-10 -2 22 -3.59 3.7
10 -2 -22 -1.1 3.28
10 2 22 -2.91 2.85
2 -22 -10 -0.02 4.19
-22 10 -2 -0.37 2.49
10 2 22 -7.63 4.29
-22 10 -2 2.28 2.17
-2 22 -10 -3.34 3.4
-2 22 -10 -0.54 2.96
-10 2 -22 -5.28 3.1
-10 2 -22 -2.81 3.38
-10 2 -22 -3.23 3.94
-10 2 -22 -3.6 3.04
2 22 10 -6.31 3.44
2 22 10 2.59 3.33
-22 10 -2 -1.59 3.27
-22 10 -2 -2.26 3.76
-2 -22 10 -6.3 3.3
10 2 22 -5.98 3.69
-22 -10 2 -2.56 3.26
22 10 2 -3.07 4.07
-10 -2 22 -1.74 4.75
-2 -22 10 -0.89 4.54
-2 22 -10 -2.49 2.97
2 -22 -10 -3.45 3.73
10 -2 -22 -2.75 3.48
-22 0 4 7.21 3.23
-4 -22 0 -1.97 3.47
22 0 4 -2.67 3.74
-22 0 -4 2.29 2.59
-22 0 -4 -0.01 3.31
-22 0 4 0.18 3
-22 0 4 6.44 3.17
-22 0 4 -3.62 3.49
0 -4 -22 -7.17 2.92
0 -4 -22 -7.83 3.09
4 -22 0 -3.44 3.14
4 -22 0 -2.12 4.25
4 22 0 1.13 3.03
4 22 0 1.59 2.34
22 0 -4 -4.57 3.65
22 0 -4 -1.09 3.07
0 4 -22 1.39 2.96
22 0 4 -6.09 3.66
0 4 22 -7.42 4.04
-4 -22 0 -5.85 4.27
-4 22 0 -0.28 2.04
-4 22 0 -1.23 2.58
-4 22 0 -1.95 2.71
0 4 22 -6.95 3.41
0 4 -22 1.04 2.98
0 -4 22 -4.18 4.11
0 -4 22 -2.03 4.66
-4 -22 -2 -2.98 3.48
4 22 -2 1.37 2.53
-22 2 4 3.21 3.05
-2 4 22 -7.88 4.31
22 -2 4 -3.83 3.76
22 2 -4 -1.22 3.4
22 2 -4 -7.71 3.68
-22 -2 -4 5.81 2.65
-22 -2 -4 2.41 3.24
2 4 -22 1.13 3.06
-4 22 2 -3.26 2.7
2 -4 22 -1.18 4.09
4 22 -2 2.17 3.05
-22 2 4 0.56 2.81
-22 2 4 7.1 2.98
-22 2 4 0.14 3.68
2 4 -22 2.06 3.01
2 -4 22 -7.55 4.46
-4 -22 -2 -2.45 4.28
-2 -4 -22 -1.59 3.14
-2 -4 -22 -7.06 3.32
4 -22 2 -4.47 3.09
22 2 -4 0.63 2.88
4 22 -2 -1.44 2.31
4 22 -2 -2.19 2.3
-4 22 2 -0.05 2.12
-2 4 22 -4.64 3.53
-4 22 2 -0.6 2.69
22 -2 4 1.11 3.9
-2 -4 -22 -4.81 3.04
2 -4 22 3.63 2.32
4 -22 2 0.98 4.53
22 2 4 -5.33 3.6
2 -4 -22 -2.46 3.2
-2 -4 22 -4.04 4.57
-2 -4 22 -6.28 4.08
22 2 4 -8.65 3.79
-22 2 -4 0.34 2.42
4 22 2 1.8 2.49
22 -2 -4 -4.05 3.67
-22 -2 4 -0.17 3.75
-4 -22 2 -7.05 3.52
-4 -22 2 -0.65 2.45
-22 2 -4 3.47 3.26
-22 2 -4 5.46 2.62
2 -4 -22 -4.92 3.19
2 4 22 3.02 3.87
2 4 22 -3.95 4.08
4 -22 -2 -3.04 3.33
4 -22 -2 -0.89 4.01
-4 22 -2 -3.59 2.52
-2 4 -22 -0.8 2.91
-2 4 -22 0.67 2.89
-22 -2 4 3.48 3.1
-4 22 -2 -3.64 3
-4 -22 2 -10.7 4.37
-4 22 -2 1.37 1.98
4 22 2 -0.18 3.06
-22 -2 4 -1.7 3.03
-22 -4 -4 4.59 2.83
4 -22 4 -3.47 2.99
4 -4 22 -6.35 4.56
4 4 -22 2.4 3.16
4 22 -4 -2.39 3.01
-4 -22 -4 1.05 3.43
-4 -22 -4 -7.27 2.71
-4 22 4 -3.9 2.94
-4 22 4 -1.02 2.73
-4 4 22 -2.77 4.45
-22 -4 -4 1.17 3.42
-4 -4 -22 -6.58 3.25
-4 -4 -22 -1.31 3.4
-4 4 22 -9.71 3.7
4 22 -4 -2.53 2.4
-4 -22 -4 -0.08 4.22
4 22 -4 1.17 2.71
-4 -4 -22 -2.18 3.04
22 4 -4 -8.13 3.73
4 -4 22 3.21 2.23
4 -4 22 -2.81 4.27
-22 4 4 -3.03 2.7
4 -22 4 -0.88 4.62
4 4 -22 0.93 3.05
22 4 -4 -3.35 3.21
-22 4 4 -3.05 3.9
22 -4 4 0.49 3.87
4 -22 -4 -0.36 3.8
-4 -22 4 -7.76 4.53
-4 -22 4 2.15 2.65
4 -4 -22 -2.38 3.22
-4 -4 22 -7.05 4.55
-4 -22 4 -4.72 3.44
-22 4 -4 4.32 3.31
-4 4 -22 -3.23 2.91
4 22 4 0.74 3.17
4 4 22 -1.56 4.04
4 4 22 -5.39 4.03
-22 4 -4 -0.18 2.53
-22 4 -4 2.95 2.48
-4 22 -4 3.44 1.98
-4 22 -4 -2.26 3.02
-4 22 -4 0.03 2.72
4 22 4 1.07 2.67
-4 4 -22 -0.52 3.01
-4 -4 22 -1.97 4.05
22 4 4 -6.49 3.59
-22 -4 4 -2.68 3.71
-22 -4 4 5.5 3.18
4 -4 -22 1.08 3.31
-22 -4 4 -1.19 3.2
4 -22 -4 2.03 3.47
6 4 -22 -2.62 2.95
6 -4 22 0.04 4.21
6 -4 22 -2.76 2.26
6 4 -22 -0.14 3.12
6 4 -22 2.12 3.3
-22 6 4 0.68 3.29
22 -6 4 2.17 4.12
4 22 -6 1.72 3.14
-4 -22 -6 1.35 3.75
-6 -4 -22 3.12 3.1
4 22 -6 -2.67 2.88
22 -6 4 -7.01 4.11
22 6 -4 -3.57 3.34
4 -22 6 -5.72 2.92
6 -4 22 -3.22 4.52
-22 -6 -4 4.45 3.11
-6 4 22 -6.61 3.53
-6 4 22 -7.52 4.68
-22 6 4 -8.54 3.32
-4 -22 -6 -0.97 3.97
-6 -4 -22 -5.38 3.41
22 6 -4 -6.62 3.99
4 -22 6 0.74 4.6
-4 22 6 -2.71 3.28
-4 22 6 -1.11 2.73
-22 -6 -4 -0.15 3.39
-6 -4 -22 -1.68 3.26
-6 -4 22 -3.33 4.41
-6 4 -22 -1.67 2.99
-4 -22 6 0.78 2.79
-22 6 -4 3.26 2.32
22 6 4 -7.76 3.82
6 4 22 -0.78 4.1
-22 6 -4 3.57 2.54
4 22 6 0.48 3.27
-4 22 -6 3.63 1.99
-4 22 -6 -3.85 3.2
6 -4 -22 0.71 3.41
-22 -6 4 1.06 3.09
-22 -6 4 1.54 3.35
-22 6 -4 5.28 3.34
22 6 4 -6.68 3.87
-22 6 -4 -2.61 3.85
-22 6 -4 -7.66 2.7
-4 -22 6 -9.77 4.53
-6 -4 22 -2.97 4.07
6 4 22 -5.04 3.94
4 22 6 2.54 2.8
6 -4 -22 -1.69 3.29
4 -22 -6 2.49 3.59
4 -22 -6 -0.56 3.92
-6 4 -22 -1.56 2.96
-6 4 -22 1.69 3.29
-6 4 -22 -1.92 3.02
-4 22 -6 1.15 2.65
-4 -22 6 -9.37 3.48
-22 -6 4 -0.75 3.93
-8 -4 -22 3.2 3.6
-22 -8 -4 0.74 3.7
4 22 -8 1.86 2.82
-4 -22 -8 -2.04 4.07
8 -4 22 0.8 2.42
22 8 -4 -1.86 4
-22 8 4 -5.78 3.56
-8 4 22 -6.53 4.65
-4 -22 -8 2.59 3.78
-22 -8 -4 0.43 3.21
-22 8 4 -0.11 2.86
8 4 -22 4.16 3.3
-8 -4 -22 0.6 3.29
-4 22 8 -3.93 3.31
-8 -4 -22 -1.22 3.08
4 22 -8 0.56 3.24
4 -22 8 -6.02 4.97
22 -8 4 4.69 4.22
22 -8 4 3.69 4.55
8 -4 22 0.51 4.8
8 -4 22 -0.52 4.56
-22 8 4 3.39 3.47
22 8 -4 -3.69 3.28
-4 22 8 -1.47 2.75
8 4 -22 0.78 2.73
4 -22 8 -6.19 2.96
-8 4 22 -1.77 3.54
8 4 -22 2.08 3.42
-22 8 -4 3.32 2.25
-8 4 -22 0.21 3.22
-8 4 -22 4.17 3.72
22 8 4 -7.24 3.78
-4 22 -8 0.05 3.29
-22 8 -4 9.57 3.47
-22 8 -4 6.14 2.51
4 -22 -8 0.6 4.15
4 22 8 -0.92 3.43
-22 -8 4 2.55 3.44
-4 -22 8 2.61 3.6
-4 -22 8 1.58 4.5
8 4 22 -8.22 4.09
-8 -4 22 0.87 4.17
-8 -4 22 6.24 5.08
-8 4 -22 -3.1 2.99
-8 4 -22 -0.51 3.35
8 -4 -22 3.76 3.48
-8 4 -22 1.52 3.16
22 8 4 -5.61 4.09
-22 8 -4 -2.78 2.92
22 -8 -4 2.74 3.68
22 -8 -4 1.11 4.52
4 22 8 2.25 3.37
-22 8 -4 0.45 3.8
8 4 22 -4.79 3.64
8 4 22 0.54 4.48
8 -4 -22 2.21 3.45
4 22 -10 -1.25 2.93
22 -10 4 0.39 4.53
22 -10 -4 0.8 4.82
4 -22 -10 -5.87 4.01
-22 0 -6 7.49 3.3
0 6 22 0.19 3.56
0 6 22 -0.98 4.38
6 -22 0 2.26 3.27
-22 0 6 6.59 3.31
6 -22 0 2.09 4.16
-6 -22 0 1.31 4.41
22 0 6 -1.78 3.77
22 0 6 -0.77 4.01
-6 22 0 3.37 2.08
-6 22 0 -3.77 3.01
-6 22 0 -3.53 2.71
0 -6 -22 -3.77 3.4
0 -6 -22 -2.15 3.27
-6 -22 0 -3.2 3.65
6 22 0 4.17 2.73
6 22 0 1.38 3.05
22 0 -6 -6.87 3.65
-6 -22 0 3.47 2.46
-22 0 -6 4.79 2.49
6 22 0 0.48 2.38
-22 0 6 2.18 3.17
-22 0 6 3.07 2.78
-22 0 6 8.49 3.05
-22 0 6 2.91 3.82
0 6 -22 1.61 3.07
0 6 -22 1.77 3.07
0 -6 22 -1.9 4.26
22 0 -6 -0.39 3.35
0 -6 22 1.61 4.83
22 0 6 -5.23 2.52
0 -6 22 4.46 2.53
2 -6 22 -0.42 4.87
6 -22 2 4.34 3.25
-22 -2 -6 6.9 2.78
6 22 -2 0.06 3
-22 2 6 -7.62 3.92
22 -2 6 -0.47 3.93
22 -2 6 3.57 3.96
-6 22 2 2.59 2.8
-2 -6 -22 -4.8 3.36
-22 2 6 1.54 2.89
-22 2 6 5.93 3.04
22 2 -6 -3.61 3.29
22 2 -6 -7.08 3.73
2 -6 22 1.07 2.4
-2 6 22 -10.54 3.62
-2 6 22 -4.56 4.38
-6 22 2 -5.09 2.98
-6 -22 -2 -0.89 4.32
-6 -22 -2 -2.41 2.72
-2 -6 -22 -4.89 3.26
2 -6 22 -0.18 4.25
-6 22 2 2.13 2.02
-22 -2 -6 1.39 3.33
-6 -22 -2 0.17 3.56
6 -22 2 -5.79 4.36
2 6 -22 -0.59 3
-22 2 6 0.47 3.16
6 22 -2 -1.07 2.67
2 6 -22 1.28 3.01
-2 -6 22 -7.14 4.87
-22 -2 6 3.55 3.12
-6 22 -2 -1.36 1.9
-6 22 -2 -1.14 2.89
22 2 6 -5.13 3.71
22 2 6 -6.9 3.97
2 6 22 -1.21 3.69
2 6 22 -7.6 4.19
6 -22 -2 0.02 3.38
6 -22 -2 -1.14 3.89
2 -6 -22 0.81 3.11
2 -6 -22 -1.18 3.26
-22 -2 6 0.99 3.23
-6 22 -2 -0.77 2.78
-22 -2 6 2.33 3.94
-22 2 -6 2.8 2.58
-22 2 -6 -0.88 3.15
-6 -22 2 -9.22 4.52
-22 -2 6 -2.49 3.16
-2 -6 22 -2.85 4.16
-6 -22 2 -7.54 3.53
-2 6 -22 3.59 3.04
-2 6 -22 -0.76 2.88
-22 2 -6 -1.33 2.37
6 22 2 1.14 3.03
6 22 2 0.23 2.55
22 -2 -6 -4.76 3.72
-6 -22 2 -1.37 2.52
22 -2 -6 -3.32 3.39
-6 22 4 -0.91 2.85
-6 -22 -4 1.14 4.26
22 -4 6 6.87 4.12
22 4 -6 -1.66 3.32
22 4 -6 -10.58 3.74
4 -6 22 -1.45 4.79
-4 6 22 -10.79 3.5
-4 6 22 -6.47 4.61
4 -6 22 1.44 4.4
6 22 -4 0.14 2.76
6 -22 4 -1.12 2.98
6 -22 4 -0.49 4.66
-6 22 4 -1.93 2.8
-22 -4 -6 5.96 3.04
-4 -6 -22 -5.42 3.33
4 6 -22 3.92 3.17
4 6 -22 -0.45 3.06
-4 -6 -22 -2.95 3.45
6 22 -4 -2.05 3.18
-22 -4 -6 1.36 3.47
-22 4 6 -2.01 3.01
-22 4 6 -3.73 4.04
-6 -22 -4 1.33 3.63
-6 -22 -4 3.55 2.66
4 -6 22 3.02 2.16
4 -6 -22 -2.89 3.34
-4 6 -22 0.96 2.79
4 6 22 -5.33 4.07
-4 -6 22 -1.21 4.95
-4 -6 22 -1.93 4.31
-6 22 -4 2.04 1.99
-6 22 -4 -4.49 2.93
-6 22 -4 1.99 3.04
-6 -22 4 -12.51 4.62
4 6 22 0.77 3.9
6 -22 -4 -3.53 3.52
-22 -4 6 2.86 3.37
-22 -4 6 5.81 4.06
-22 -4 6 1.57 3.23
-22 4 -6 -0.16 2.38
-22 4 -6 0.64 2.52
-22 4 -6 0.87 3.43
6 -22 -4 -0.65 3.85
-4 6 -22 -0.81 2.87
-4 6 -22 -1.35 3.1
-4 6 -22 -0.17 2.97
6 22 4 4.78 3.13
-6 -22 4 -11.93 3.64
-6 -22 4 3.33 2.8
6 22 4 0.72 3.33
22 4 6 -6.48 3.7
4 -6 -22 5.05 3.42
-6 -22 -6 -0.78 3.59
-22 6 6 -3.47 3.04
6 6 -22 1.79 2.75
6 -22 6 -2.47 4.84
6 -6 22 -2.21 2.26
-22 -6 -6 3.27 2.99
-22 -6 -6 1.84 3.52
6 -6 22 -7.35 4.56
6 -6 22 -0.01 5.06
6 6 -22 -0.67 3.32
-22 6 6 -4.14 3.61
22 6 -6 -10.58 4.01
6 22 -6 2.79 2.94
6 22 -6 2.1 3.39
22 6 -6 -4.37 3.22
-6 -6 -22 -4.58 3.27
-6 -6 -22 -3.87 3.57
22 -6 6 4.45 4.34
22 -6 6 -2.24 4.22
-6 6 22 -6 4.66
-6 6 22 -6.05 3.54
-6 22 6 -3.2 3.01
-6 22 6 1.17 3
6 6 -22 -0.31 3.29
-6 -22 -6 0.22 4.16
-6 6 -22 0.09 3.05
6 22 6 -1.05 3.4
-22 -6 6 1.78 4.3
-6 -22 6 -1.69 3.68
-6 -22 6 -10.18 4.59
-22 -6 6 -0.6 3.37
-6 6 -22 -2.13 2.86
-6 22 -6 -2.11 3.01
6 6 22 -3.24 4.06
-22 6 -6 -0.53 2.41
-22 6 -6 1.17 3.6
-22 6 -6 -1.03 4.03
6 6 22 2.69 4.36
6 -6 -22 -0.84 3.41
6 -6 -22 1.62 3.37
6 -22 -6 2.51 4.12
22 6 6 -7.69 3.9
22 6 6 -9.34 4.11
-6 6 -22 -3.8 3.03
6 22 6 -2.54 3.34
22 -6 -6 -5.23 3.79
-6 -6 22 0.51 4.39
-6 -6 22 2.05 5.02
6 -22 -6 -2.33 3.75
-6 6 -22 0.23 3.41
-22 6 -6 -0.25 2.5
-6 -22 -8 6.24 3.89
-22 8 6 -5.17 3.21
6 22 -8 4.32 3.25
-6 22 8 2.46 3.05
6 -22 8 -5.36 4.97
6 -22 8 0.68 4.07
-22 -8 -6 -1.61 3.62
8 -6 22 1.62 2.42
22 -8 6 9.19 4.5
22 8 -6 -2.19 3.19
22 8 -6 -2.05 4.12
22 8 -6 3.87 3.34
-8 -6 -22 -0.32 3.3
-8 -6 -22 0.42 3.61
-6 -22 -8 1.24 4.12
8 6 -22 -3.18 3.34
8 6 -22 3.4 2.82
6 -22 8 -6.69 2.97
-8 6 22 -1.52 4.75
-6 22 8 3.01 3.58
-22 8 6 1.64 3.51
22 -8 6 7.38 4.45
6 22 -8 -0.61 3.43
8 -6 22 0.27 4.69
-8 -6 -22 3.12 3.21
-8 6 22 2.11 3.72
-22 -8 -6 0.95 3.21
-22 -8 -6 1.26 3.74
8 6 -22 -2.87 3.41
8 -6 22 1.39 4.81
-22 8 -6 7.24 3.61
22 -8 -6 -5.6 3.9
6 -22 -8 -2.29 4.24
-6 22 -8 -3.68 3.21
-8 6 -22 0.29 3.49
22 -8 -6 7.4 4.85
-22 8 -6 -0.5 3
6 22 8 -2.91 3.63
22 8 6 -0.68 4.25
8 -6 -22 4.72 3.65
6 -22 -8 -6.33 3.9
-8 -6 22 2.43 4.25
-6 -22 8 -5.39 3.56
-6 -22 8 1.17 4.76
8 6 22 2.97 4.34
8 6 22 0.35 3.75
6 22 8 -2.64 3.51
6 22 8 6.7 3.6
22 8 6 -1.64 4.24
8 -6 -22 3.51 3.54
-22 -8 6 6.8 3.69
-22 -8 6 7.67 4.88
-22 8 -6 0.79 3.89
-8 6 -22 3.66 3.65
-8 -6 22 1.06 5.13
0 8 -22 3.4 2.99
0 -8 -22 7.31 3.5
0 8 -22 11.61 3.36
22 0 -8 -0.38 3.38
0 -8 -22 6.54 3.59
-22 0 -8 5.24 3.49
-22 0 8 7.05 3.59
-22 0 8 -1.58 3.08
-22 0 8 -0.25 2.73
-22 0 8 8.16 3.04
-22 0 8 8.01 4.45
-8 -22 0 8.65 3.85
22 0 8 6.87 2.65
22 0 8 1.59 3.96
22 0 8 2.88 4.29
8 -22 0 4.52 4.4
8 22 0 5.65 2.95
-8 -22 0 7.4 4.56
0 -8 22 6.47 2.61
0 -8 22 0.52 4.56
0 -8 22 -3.61 5.17
-8 22 0 7 3.19
22 0 -8 -2.17 3.78
8 -22 0 5.57 3.37
-8 22 0 7.38 2.15
-8 22 0 3.3 3.17
-8 -22 0 5.84 2.72
-22 0 -8 9.98 2.8
8 22 0 1.88 3.45
0 8 22 2.98 4.56
0 8 22 7.58 3.94
2 -8 22 5.86 5.02
-2 8 22 -2.67 3.49
-2 8 22 2.57 4.44
-22 -2 -8 2.11 3.41
22 -2 8 7.1 4.27
22 2 -8 -1.47 3.35
-8 -22 -2 -0.55 2.57
-8 22 2 0.89 2.16
-22 2 8 9.42 3.06
-8 -22 -2 0.11 4.42
8 22 -2 -0.19 3.43
-8 22 2 1.6 2.93
-2 -8 -22 -2.15 3.36
8 -22 2 -5.22 4.44
8 22 -2 4.02 2.89
2 8 -22 3.77 3.16
8 -22 2 0.15 3.11
2 -8 22 4.95 2.5
2 -8 22 0.72 4.66
22 -2 8 2 4.11
-22 -2 -8 9.11 2.9
-2 -8 -22 0.09 3.42
-22 2 8 -0.52 3.15
-22 2 8 3.1 2.91
2 8 -22 3.72 3.19
-8 22 2 -0.85 3.09
22 2 -8 -4.08 3.77
-8 -22 -2 3.37 3.77
-22 2 8 6.33 4.2
-2 -8 22 0.05 4.35
-22 2 -8 2.76 2.52
-8 -22 2 4.59 4.63
8 22 2 2.4 3.06
-2 8 -22 1.2 3.07
-22 -2 8 1.42 4.45
-22 -2 8 2.62 3.37
-2 8 -22 4.91 2.99
-2 -8 22 -6.54 4.94
8 22 2 4.74 3.1
22 -2 -8 -3.36 3.46
22 -2 -8 -3.06 3.75
-22 2 -8 3.61 3.34
-8 -22 2 -2.73 3.76
-8 -22 2 1.5 2.77
2 -8 -22 2.14 3.45
-8 22 -2 3.46 1.99
-8 22 -2 -2.49 2.93
-8 22 -2 2.19 3.06
2 -8 -22 6.13 3.43
8 22 2 1.43 3.39
2 8 22 3.53 3.57
2 8 22 -2.25 4.26
8 -22 -2 2.44 3.55
8 -22 -2 0.52 4.07
22 2 8 6.24 2.88
22 2 8 -1.53 4.48
22 2 8 -2.02 3.9
-4 8 22 -2.81 4.53
22 4 -8 -2.78 3.29
22 4 -8 -8.65 3.77
4 8 -22 3.14 3.1
22 -4 8 6.25 4.35
-22 -4 -8 -0.76 3.28
-4 -8 -22 -4.56 3.51
8 -22 4 -3.31 5
8 22 -4 3.18 2.95
8 22 -4 1.41 3.4
4 -8 22 2.59 4.64
-4 8 22 3.96 2.62
-4 8 22 -8.57 3.37
-8 -22 -4 0.54 2.39
-8 -22 -4 -1.31 2.61
-8 -22 -4 2.7 4.29
4 -8 22 3.53 2.24
-22 4 8 4.61 4.49
4 -8 22 -2.05 5.21
4 8 -22 0.84 3.23
-8 22 4 2.76 2.29
-8 22 4 -2.72 3.17
-8 22 4 3.05 2.95
-4 -8 -22 -4.98 3.31
-22 -4 -8 2.26 2.96
-22 4 8 4.72 3.27
-8 -22 -4 0.1 3.68
-22 4 8 -4.47 2.85
4 8 -22 -1.98 3.21
-22 -4 8 5.6 4.43
-22 4 -8 -2.28 3.49
-4 8 -22 -3.05 3.22
-22 4 -8 4.67 2.52
4 8 22 4.1 3.9
-4 8 -22 -0.69 2.85
-4 8 -22 1.05 2.88
-4 8 -22 -4.16 3.11
8 -22 -4 1.92 3.77
-22 -4 8 2.04 3.52
4 -8 -22 4.82 3.38
-8 -22 4 -3.18 3.71
-8 -22 4 -4.69 4.73
-8 22 -4 -1.11 2.9
-8 22 -4 1 2.93
4 8 22 1.58 4.21
4 8 22 1.63 3.03
-4 -8 22 -0.37 4.45
-4 -8 22 -4.74 5.07
8 -22 -4 -3.59 4.05
4 -8 -22 2.09 3.23
8 22 4 2.19 3.43
8 22 4 2.06 3.28
8 22 4 7.02 3.16
22 4 8 0.84 3.84
22 4 8 -5.06 4.39
-22 4 -8 -1.15 2.37
22 -4 -8 -1.25 3.45
-8 22 6 4.13 3.05
-6 8 22 -1.53 3.68
8 22 -6 1.07 3.18
-8 -22 -6 -4.07 2.42
-22 -6 -8 2.12 3.25
-22 -6 -8 -1.67 3.53
-6 -8 -22 -2.55 3.35
6 8 -22 1.5 3.25
6 8 -22 0.37 3
-8 22 6 1.32 3.25
6 -8 22 0.57 2.08
22 -6 8 13.32 4.62
22 6 -8 -1.05 3.36
22 6 -8 -6.25 4.11
8 -22 6 1.46 5.22
-6 -8 -22 -2.2 3.73
-6 8 22 -4.92 4.69
-22 6 8 -2.84 3.87
-22 6 8 -5.73 2.99
-22 6 8 1.4 4.64
-8 -22 -6 3.24 3.78
-8 -22 -6 5.78 4.24
8 22 -6 2 3.65
6 -8 22 -2.26 4.92
6 8 -22 -3.98 3.42
-8 -22 -6 -3.68 2.8
6 -8 22 -5.33 4.82
22 -6 -8 1.17 3.57
-8 -22 6 3.72 4.79
-6 -8 22 0.06 4.44
22 6 8 -2.02 3.62
-22 6 -8 3.1 4.22
6 8 22 -1.46 3.55
8 -22 -6 -6.4 4
8 -22 -6 -0.98 4.12
6 -8 -22 0.14 3.58
22 -6 -8 -0.85 4.14
22 6 8 -8.12 4.38
-22 -6 8 8.26 4.8
-22 6 -8 1.89 3.58
-6 -8 22 0.58 5.5
-8 -22 6 -2.18 3.81
8 22 6 -0.5 3.65
8 22 6 -2.19 3.56
6 -8 -22 6.49 3.52
8 22 6 10.39 3.3
6 8 22 2.16 2.95
-6 8 -22 -4.2 3.1
-6 8 -22 2.77 3.51
-6 8 -22 1.56 3.25
6 8 22 0.93 4.09
-22 -6 8 8.38 3.85
6 8 22 6.72 4.35
-8 22 -6 0.51 2.95
0 10 -22 2.67 3.17
-22 0 10 -3.82 3.53
22 0 10 5.98 4.57
-22 0 10 3.59 3.01
0 10 22 6.67 4.59
-10 22 0 1.74 3.17
10 22 0 -0.37 3.57
22 0 -10 -5.29 3.51
-10 22 0 4.21 3.13
22 0 -10 2.12 3.73
22 0 10 4.1 2.66
22 0 10 0.41 4.17
-22 0 10 5.7 2.68
-10 22 0 4.49 2.15
0 -10 22 -3.88 5.23
0 10 -22 -0.07 3.2
0 -10 -22 4.25 3.47
0 -10 -22 8.08 3.46
-22 0 10 3.05 3.03
10 -22 0 0.58 3.42
10 -22 0 -1.23 4.35
10 22 0 0.66 3.06
-22 0 10 -2.58 4.62
-10 -22 0 6.1 3.89
-10 -22 0 2.65 4.77
-22 0 -10 11.12 2.82
-22 0 -10 1.41 3.52
0 -10 22 -2.18 2.58
0 -10 22 -6.75 4.61
0 10 22 6.95 3.77
22 -2 10 -0.78 2.42
22 -2 10 1.18 4.15
22 -2 10 1.85 4.44
22 2 -10 -4.34 3.52
22 2 -10 -4.66 3.69
-10 -22 -2 -0.03 3.75
10 22 -2 -4.18 3.57
-2 -10 -22 -2.54 3.29
-2 -10 -22 0.3 3.55
-10 -22 -2 -6.5 2.55
10 -22 2 -3.79 4.68
2 10 -22 2.24 3.21
2 10 -22 -2.68 2.94
2 10 -22 -6.71 3.1
-10 -22 -2 3.34 4.36
-22 2 10 -0.64 4.46
-22 2 10 3.25 2.95
-22 2 10 -1.19 2.8
10 -22 2 -10.18 3.15
-10 22 2 -0.8 2.94
10 22 -2 -2.26 3.01
-22 -2 -10 6.92 2.9
-22 -2 -10 -0.42 3.43
-10 22 2 1.73 2.12
-10 22 2 -5.44 3.09
2 -10 22 0.88 4.71
-22 2 10 -3.31 2.84
-2 10 22 0.28 2.54
2 -10 22 -5.17 2.4
-2 10 22 -5.52 4.43
2 -10 22 -2.3 5.24
-2 10 22 -2.61 3.39
22 -2 -10 -7.81 3.36
22 2 10 -7.66 3.97
22 2 10 5.36 2.58
2 10 22 -3.12 4.24
-10 -22 2 0.99 4.57
-10 22 -2 -0.25 2.88
-10 22 -2 -2.43 3.21
-22 -2 10 -1.96 3.58
10 22 2 4.95 3.32
22 2 10 -0.67 4.51
10 22 2 -2.61 3.23
10 22 2 0.33 3.53
-2 -10 22 1.76 2.65
-2 -10 22 -8.62 4.59
-2 -10 22 -13.68 5.25
-2 10 -22 -3.52 3.03
-2 10 -22 -3.06 3.09
2 -10 -22 0.04 3.33
2 10 22 -0.03 3.91
-10 -22 2 -3.33 3.83
2 -10 -22 1.05 3.58
22 -2 -10 -0.77 3.61
10 -22 -2 2.48 3.57
10 -22 -2 -4.67 4.09
-22 2 -10 -2.3 2.5
-22 2 -10 1.36 3.44
-22 -2 10 -8.77 2.78
-22 -2 10 -3.27 4.72
-10 -22 -4 -3.71 2.59
10 -22 -4 -0.76 4.3
-4 10 -22 -3.12 2.96
4 -10 -22 1.82 3.33
4 10 22 0.9 3.08
-23 -1 -1 1.37 2.62
-23 -1 -1 -0.39 3.34
-23 -1 -1 -5.41 3.38
23 1 -1 -0.66 3.2
1 -23 1 -1.92 3.46
1 23 -1 -2.05 2.69
1 23 -1 0.54 2.49
1 23 -1 -0.97 2.53
1 -1 23 -5.01 4.16
-23 1 1 0.17 2.76
-23 1 1 -0.13 3.46
-23 1 1 -2.47 3.32
-23 1 1 2.22 3.8
-23 1 1 0.18 2.98
-1 -23 -1 -4.95 3.44
-1 -23 -1 -5.85 4.45
1 -1 23 -2.67 4.6
1 1 -23 -3.91 3.19
-1 -1 -23 -5.99 3.23
-1 -1 -23 -1.71 3.2
1 1 -23 -0.5 3.16
23 -1 1 -0.86 3.79
23 -1 1 -2.42 3.64
23 1 -1 1.33 3.94
-1 1 23 -7.14 3.98
-1 1 23 -3.17 4.36
1 -23 1 -2.22 4.42
-1 23 1 0.49 2.61
-1 23 1 0.76 3.08
-1 -1 23 -3.57 4.07
-1 23 -1 -1.33 3.06
1 -23 -1 -3.58 3.45
1 -23 -1 -6.02 4.33
-23 -1 1 0.93 3.36
-1 23 -1 -2.13 2.04
1 -1 -23 -5.27 3.28
1 -1 -23 0.42 3.22
-23 1 -1 -1.09 3.44
-1 -23 1 -4.36 3.41
-1 -23 1 -9.59 4.48
-1 23 -1 0.57 2.61
1 1 23 -11.07 4
1 1 23 -5.34 4.36
-23 -1 1 2.1 3.33
-23 1 -1 0.34 2.43
-23 1 -1 -3.71 2.46
1 23 1 -1.32 2.96
1 23 1 0.8 2.55
23 -1 -1 1.21 3.81
23 -1 -1 -3.71 3.35
-1 -1 23 -5.05 4.3
-1 1 -23 -4.15 3.2
-1 1 -23 -0.51 3.04
-23 -1 1 3.44 2.84
23 1 1 -3.01 3.81
23 1 1 -4.9 3.52
-3 1 23 -8.02 3.83
-3 1 23 -2.14 4.57
-1 -23 -3 0.48 3.62
-1 -23 -3 -1.09 4.27
23 3 -1 -4.83 3.78
23 3 -1 0.81 3.28
-23 3 1 -0.3 2.63
-23 3 1 -0.56 3.53
-23 3 1 2.22 2.97
-1 23 3 -1.09 3.18
-1 23 3 -0.42 2.6
-23 -3 -1 6.78 3.15
-23 -3 -1 -4.03 3.45
1 -23 3 3.06 3.26
1 -23 3 -2.15 4.54
1 23 -3 -0.9 2.23
1 23 -3 -0.29 3.12
1 23 -3 4.43 2.58
1 23 -3 -1.63 2.55
23 -3 1 -1.77 3.83
23 -3 1 -2.22 3.62
-3 -1 -23 -0.65 3.14
-3 -1 -23 -4.51 3.1
3 -1 23 -7.13 4.26
3 -1 23 -6.68 4.56
3 1 -23 0.15 3.16
3 1 -23 -1.15 3.21
3 -1 -23 -0.73 3.41
1 -23 -3 -2.81 4.13
23 -3 -1 0.51 3.87
23 -3 -1 -2.63 3.57
1 23 3 2.58 3.15
1 23 3 0.59 2.69
-1 -23 3 -4.2 3.35
-1 -23 3 -5.04 4.41
-1 23 -3 2.49 2.09
-1 23 -3 -2.05 3.12
-1 23 -3 -1.12 2.6
3 -1 -23 0.16 3.26
1 -23 -3 -6.08 3.59
-3 -1 23 -3.93 4.11
-3 -1 23 -4.41 4.5
-3 1 -23 -3.23 3.18
-3 1 -23 -0.92 3.14
-23 3 -1 4.15 2.61
-23 3 -1 -0.09 3.51
-23 3 -1 -0.24 2.82
23 3 1 -2.09 3.82
23 3 1 -5.47 3.48
-23 3 -1 0.87 2.46
3 1 23 -2.22 4.36
-23 -3 1 2.77 3.02
-23 -3 1 3.79 3.42
3 1 23 -4.76 4.07
1 23 -5 -2.74 2.59
-23 5 1 0.24 2.6
23 -5 1 -4.96 3.68
5 -1 23 -5.75 4.69
5 1 -23 -0.8 3.28
5 -1 23 0.14 2.44
5 -1 23 -3.73 4.31
1 23 -5 1.85 2.57
1 23 -5 2.48 2.24
1 23 -5 0.33 2.64
1 23 -5 -1.92 3.21
1 -23 5 3.66 4.71
-1 23 5 -1.4 3.24
-1 23 5 1.64 2.89
-23 -5 -1 0.35 3.51
-23 5 1 -2.42 2.5
1 -23 5 -2.5 3.27
5 1 -23 6.02 3.44
-5 1 23 -7.79 4.49
-23 -5 -1 2.32 3.06
23 -5 1 -7.34 4.04
23 5 -1 5.34 4.1
-5 1 23 -4.29 3.69
-1 -23 -5 -0.63 3.75
-23 5 1 -1.09 3.48
-23 5 1 -0.17 2.87
-5 -1 -23 -2 3.18
-5 -1 -23 4.34 3.59
-5 -1 -23 6.18 3.26
-1 -23 -5 -2.56 4.11
-5 -1 23 -4.6 3.97
-5 1 -23 2.21 3.24
-5 1 -23 0.15 3.19
1 -23 -5 0.7 3.98
-23 5 -1 -0.23 2.53
1 23 5 -0.99 3.31
-5 -1 23 -4.17 4.69
-1 -23 5 3.39 3.33
-1 -23 5 -2.64 4.82
-1 23 -5 7.01 2.22
1 23 5 3.47 2.83
-23 5 -1 8.09 2.72
1 -23 -5 -1.14 3.72
23 -5 -1 -0.7 4.27
-1 23 -5 -2.71 3.01
-1 23 -5 5.68 2.74
-1 23 -5 0.88 2.85
23 -5 -1 0.72 3.59
5 1 23 -7.81 4.19
-23 5 -1 -0.98 3.47
-23 5 -1 1.23 2.92
23 5 1 -3.75 3.95
23 5 1 -0.9 3.5
5 -1 -23 1.29 3.35
5 -1 -23 -0.93 3.29
-23 -5 1 4.13 3.28
5 1 23 -6.82 4.45
1 -23 7 3.78 3.32
7 1 -23 -1.05 3.52
7 -1 23 2.65 2.64
7 -1 23 -2.85 4.41
7 -1 23 -10.19 4.65
7 1 -23 0.9 3.36
1 23 -7 5.81 2.69
-23 7 1 3.1 2.58
-23 7 1 3.93 2.64
-23 7 1 -5.39 3.57
-23 7 1 -2.72 3.75
-7 -1 -23 5.67 3.46
-7 -1 -23 2.8 3.45
-7 -1 -23 1.15 2.86
-7 -1 -23 0.15 3.19
-23 -7 -1 -4.09 3.6
1 -23 7 -2.06 2.8
-7 1 23 1.85 3.8
-7 1 23 -4.15 4.69
1 23 -7 2.04 2.86
23 -7 1 -3.45 4.42
-1 -23 -7 3.79 4.02
1 -23 7 1.14 4.88
1 23 -7 5.02 2.19
-1 23 7 -0.47 2.91
23 7 -1 2.31 4.25
-23 -7 -1 -0.77 3.11
1 23 -7 1.29 2.72
-1 23 7 -1.36 3.54
23 -7 1 -1.76 4.03
-1 -23 -7 -0.7 4.21
1 23 -7 -0.06 3.36
7 -1 -23 2.57 3.55
23 -7 -1 3.95 3.85
7 -1 -23 0.57 3.31
-23 7 -1 3.65 2.64
7 1 23 -2.29 4.6
-7 1 -23 0.47 3.45
23 7 1 -2.21 4.29
-23 7 -1 2.31 2.51
-23 7 -1 -0.44 3.83
-23 7 -1 -2.24 3.05
-7 1 -23 3.43 3.24
1 23 7 -0.28 3.48
1 23 7 1.14 2.85
-1 -23 7 2.65 2.82
-1 -23 7 1.26 4.79
-1 23 -7 3.44 2.02
7 1 23 -12.99 4.6
-1 23 -7 -2.84 3.16
-1 23 -7 1.64 2.79
-1 -23 7 5.97 3.4
1 -23 -7 -2.05 3.76
1 -23 -7 -0.7 4.14
-7 -1 23 1.35 3.94
-23 -7 1 -0.95 3.36
23 -7 -1 -1.82 4.5
-1 23 -7 1.42 2.86
-7 1 -23 -3.92 3.77
-7 -1 23 -3.12 4.79
-7 1 -23 3.62 3.23
-1 23 -7 -4.81 2.76
-23 7 -1 2.2 3.45
3 23 -1 0.58 2.48
3 23 -1 -0.86 3.16
3 -23 1 -1.84 4.58
-1 -3 -23 -2.72 3.19
3 23 -1 1.36 2.5
-1 3 23 -4.67 4.29
23 -1 3 0.52 3.98
1 -3 23 -2.48 4.44
23 1 -3 -8.84 3.79
3 -23 1 -3.52 3.29
1 3 -23 0.51 3.15
-23 1 3 1.08 2.84
-3 23 1 -3.49 2.94
-3 23 1 1.52 2.79
-1 -3 -23 -4.75 3.26
1 -3 23 -2.65 4.77
1 3 -23 -4.03 3.02
-3 -23 -1 -1.7 4.4
-3 23 1 2.61 2.2
-23 -1 -3 1.74 3.55
23 -1 3 -3.11 3.86
-3 -23 -1 -5.15 3.55
23 1 -3 -1.69 3.15
-23 -1 -3 4.99 2.77
-23 1 3 10.38 3.3
-23 1 3 3.14 4.04
-23 1 3 2.75 3.26
-1 3 23 -8.65 3.74
-1 -3 23 -2.79 4.63
23 -1 -3 -0.22 3.86
-1 3 -23 -0.01 3.09
-1 -3 23 -3.33 4.42
-3 -23 1 -5.55 3.45
-3 -23 1 -7.95 4.46
1 3 23 -4.12 3.98
1 3 23 -7.89 4.3
-23 -1 3 2.48 3.14
-23 -1 3 3.03 3.35
-23 -1 3 1.19 3.97
-23 -1 3 4.57 3.36
-23 1 -3 2.88 2.62
-23 1 -3 4.53 2.59
-23 1 -3 1.22 3.48
23 1 3 -2.32 3.93
23 1 3 -9.13 3.77
-3 23 -1 -1.02 2.87
-3 23 -1 0.38 2.73
23 -1 -3 3.68 3.28
1 -3 -23 -2.68 3.36
1 -3 -23 1.48 3.36
3 -23 -1 -3.64 4.32
-1 3 -23 0.37 3.12
3 23 1 3.51 2.5
-3 23 -1 2.71 2.17
3 -23 -1 -1.75 3.5
3 23 1 0.22 3.13
3 -23 3 7.08 3.48
-3 -3 -23 9.94 3.7
-23 -3 -3 13.64 3.19
-23 -3 -3 8.15 3.84
3 23 -3 5.2 2.74
-23 3 3 8.84 3.04
-23 3 3 7.26 3.61
-23 3 3 10.26 4.28
-23 3 3 15.43 3.57
-3 -23 -3 10.22 3.89
-3 -23 -3 8.52 3.22
-3 -23 -3 8.85 4.65
3 -3 23 6.49 4.66
3 -3 23 5.55 4.99
3 23 -3 5.2 3.33
23 3 -3 6.09 4.19
-3 3 23 -0.15 3.69
3 -3 23 8.16 2.66
23 -3 3 7.55 4.17
23 -3 3 7.6 4.15
-3 3 23 3.35 4.71
3 -23 3 6.91 4.91
3 23 -3 8.29 2.76
3 3 -23 10.4 3.56
-3 23 3 9.75 3.57
-3 23 3 9.84 3.1
3 3 -23 10.15 3.51
-3 -3 -23 5.3 3.61
3 -23 -3 9.52 3.84
-3 23 -3 8.82 2.39
-3 23 -3 5.55 3.13
3 -23 -3 8.41 4.41
23 3 3 0.03 3.86
-3 -23 3 6.05 3.84
-3 -23 3 0.16 4.92
-3 23 -3 8.34 2.91
-23 -3 3 5.01 4.17
3 3 23 2.66 4.37
-23 -3 3 14.69 3.52
-23 3 -3 5.18 2.6
3 3 23 4.59 4.55
-23 3 -3 15.3 3.02
-23 3 -3 9.52 3.73
3 -3 -23 15.07 3.94
3 23 3 7.23 3.49
3 23 3 10.37 2.92
23 -3 -3 11.82 4.19
3 -3 -23 9.58 3.61
-23 -3 3 10.64 3.46
-3 -3 23 3.38 4.38
-3 -3 23 8.72 5.02
-3 3 -23 6.71 3.52
-3 3 -23 9.71 3.51
23 3 3 2.92 4.1
23 -3 -3 10.88 3.73
-23 5 3 21.39 4.16
-5 -3 -23 21.54 4.08
23 5 -3 13.83 3.95
23 -5 3 12.07 4.56
3 -23 5 12.9 3.69
3 -23 5 22.06 5.43
3 23 -5 19.83 3.38
-23 -5 -3 17.54 3.58
-23 -5 -3 12.7 4.1
-23 -5 -3 0.49 4.04
5 3 -23 21.74 4.11
-3 23 5 19.26 4.09
-5 -3 -23 17.87 4.16
-5 -3 -23 17.57 3.88
5 -3 23 16.71 3.09
5 -3 23 13.82 5.1
5 -3 23 19.25 5.47
-3 23 5 18.11 3.59
-5 3 23 12.26 4.5
3 23 -5 17.82 3.85
3 23 -5 17.81 3.13
-23 5 3 18.91 3.34
23 -5 3 16.02 4.72
-5 3 23 13.38 5.46
-3 -23 -5 16.26 4.41
-3 -23 -5 13.55 4.89
5 3 -23 17.87 4.03
3 23 -5 15.08 3.14
23 5 -3 20.75 4.64
-23 5 -3 13.33 3.05
-3 -23 5 15.21 5.24
-23 -5 3 14.16 4.56
-23 -5 3 16.42 3.82
-5 3 -23 13.66 3.69
-23 5 -3 17.48 3.28
-3 23 -5 17.17 2.78
-3 23 -5 11.35 3.56
-3 23 -5 12.56 3.44
-3 -23 5 19.82 4.11
-3 -23 5 18.71 3.31
5 -3 -23 18.4 4.19
5 -3 -23 20.65 4.17
5 3 23 14.06 4.75
3 -23 -5 21.78 4.56
-23 -5 3 24.27 3.92
3 23 5 13.69 3.39
-23 5 -3 14.05 3.44
5 3 23 10.44 4.9
23 -5 -3 16.7 4.18
3 -23 -5 14.19 4.67
-5 -3 23 15.9 4.86
-5 -3 23 17.28 5.17
-5 3 -23 23.79 3.92
23 5 3 12.24 4.32
23 5 3 14.5 4.34
-23 5 -3 17.89 4.06
3 23 5 20.88 4.1
-23 7 3 18.41 4.4
7 3 -23 17.95 4.1
7 3 -23 24.06 4.29
-23 7 3 18.99 4.51
7 -3 23 20.05 5.41
-7 -3 -23 20.15 4.11
-7 3 23 19.21 4.54
-7 3 23 17.74 5.69
7 -3 23 18.56 3.44
7 -3 23 12.26 5.1
23 -7 3 20.83 5.03
23 7 -3 19.6 4.47
23 7 -3 21.68 4.93
-3 -23 -7 22.05 4.68
-3 -23 -7 23.19 4.99
-7 -3 -23 29.03 4.33
-7 -3 -23 23.61 4.41
-7 -3 -23 17.84 3.69
-23 -7 -3 13.93 4.47
-23 -7 -3 8.85 4.24
-3 23 7 20.96 4.32
-3 23 7 13.64 3.72
-23 7 3 22.9 3.49
-23 -7 -3 22.47 4.04
3 -23 7 26.91 3.84
3 -23 7 24.13 5.83
3 23 -7 23.21 3.63
3 23 -7 19.32 4.05
23 -7 3 9.04 4.79
-3 23 -7 21.24 2.93
3 23 7 27.45 4.46
-7 -3 23 25.51 5.01
-7 -3 23 22.4 5.76
3 -23 -7 27.61 4.75
3 -23 -7 15.71 4.9
-7 3 -23 25.5 4.59
-7 3 -23 23.22 3.91
-3 -23 7 26.05 5.71
-23 -7 3 13.97 3.99
-23 7 -3 19.29 3.22
-23 7 -3 20.36 3.38
23 7 3 15.66 4.99
23 7 3 24.31 4.45
-3 -23 7 21.14 3.69
7 3 23 16.38 5.3
7 3 23 8.43 5.16
-7 3 -23 20.56 4.35
-3 23 -7 17.19 4.13
-3 23 -7 14.96 3.62
7 -3 -23 22.5 4.3
7 -3 -23 22.13 4.3
-23 7 -3 25.22 4.25
-3 -23 7 25.95 4.36
-23 7 -3 15.26 4.52
-23 7 -3 12.44 3.67
-7 3 -23 30.41 4.12
3 23 7 21.18 3.87
23 -7 -3 27.79 5.31
-1 5 23 -0.75 4.58
-1 5 23 -1.69 3.61
-1 -5 -23 -4.16 3.32
-1 -5 -23 -5.39 3.34
5 -23 1 -8.79 4.48
1 -5 23 -1.19 2.5
1 5 -23 6.26 3.24
5 23 -1 -4.07 2.49
-5 23 1 0.88 2.74
5 23 -1 0.64 2.39
5 23 -1 -0.44 3.19
1 -5 23 -3.83 4.47
1 -5 23 -7.31 4.81
23 1 -5 -2.27 3.53
1 5 -23 -1.92 3.07
-5 23 1 3.74 2.27
-5 23 1 1.19 2.85
-23 -1 -5 9.12 2.77
-23 -1 -5 0.77 3.49
23 -1 5 -0.68 4.13
5 -23 1 -0.27 3.38
23 1 -5 -8.2 3.91
-23 1 5 -0.72 3
-23 1 5 4.41 3.24
-23 1 5 -1.64 3.92
-23 1 5 -0.81 3.49
-5 -23 -1 -1.02 3.68
-5 -23 -1 -0.89 4.6
23 -1 5 -2.38 4
-23 1 -5 2.97 3.51
5 23 1 2.6 3.27
-1 5 -23 1.24 3.2
23 1 5 -6.3 4
23 1 5 -8.53 4.08
1 -5 -23 -3.73 3.2
5 -23 -1 -1.9 3.6
5 -23 -1 0.63 4.3
1 -5 -23 -0.85 3.34
5 23 1 3.41 2.59
23 -1 -5 -5.29 3.96
-23 1 -5 2.9 2.72
-23 -1 5 4.39 3.35
-1 5 -23 -1.23 3.12
-1 -5 23 -4.49 5.01
-23 -1 5 10.98 3.41
-23 -1 5 -5.87 3.96
-23 -1 5 7.87 3.34
-23 1 -5 0.53 2.59
-5 -23 1 -1.42 3.68
-5 -23 1 -3.93 2.49
-5 -23 1 -2.98 4.5
-5 23 -1 -0.25 2.13
-5 23 -1 0.33 3.12
-5 23 -1 -1.6 2.77
1 5 23 -4.62 3.75
-1 -5 23 -2.34 4.43
1 5 23 0.64 4.39
23 3 -5 7.89 4.53
3 -5 23 10.11 5.51
-5 23 3 16.39 3.72
-5 23 3 18.84 3.68
5 -23 3 15.68 5.49
23 -3 5 17.48 4.75
3 5 -23 20.56 3.99
5 23 -3 16.53 4
-23 -3 -5 13.22 4.2
-3 -5 -23 16.14 4.14
23 3 -5 16.27 4.06
3 -5 23 15.56 3.01
3 -5 23 15.4 5.08
5 23 -3 21.27 3.38
-23 -3 -5 24.43 3.67
-3 5 23 23.32 5.37
23 -3 5 14.56 4.63
-23 3 5 14.76 3.64
-23 3 5 19.47 4.85
-5 -23 -3 22.51 4.49
-5 -23 -3 17.2 3.61
-5 -23 -3 18.02 5.02
3 5 -23 20.83 3.94
5 -23 3 14.62 4
-3 -5 -23 17.4 4.15
-3 5 23 8.73 4.47
-5 -23 3 14.82 5.45
-23 3 -5 16.87 4.08
-5 23 -3 14.89 3.6
5 23 3 18.81 3.51
-5 -23 3 21.59 4.4
5 23 3 17.62 4.02
-3 -5 23 15.4 5.13
-3 -5 23 14.18 5.61
-3 5 -23 16.68 3.8
-3 5 -23 16.83 3.91
-5 -23 3 15.59 3.28
-23 3 -5 19.85 3.43
3 -5 -23 20.51 4.22
3 -5 -23 21.71 4.16
-23 -3 5 19.17 4.07
-23 -3 5 14.38 4.82
-23 -3 5 19.68 4.08
-23 3 -5 16.24 3.34
-5 23 -3 16.06 2.82
23 -3 -5 19.22 4.59
-5 23 -3 12.97 3.74
3 5 23 18.22 4.77
3 5 23 25.63 4.99
5 -23 -3 19.96 4.25
23 3 5 9.03 4.42
23 3 5 10.62 4.59
5 -23 -3 16.19 4.68
-23 5 5 34.29 4.66
-23 5 5 22.09 4.73
-23 5 5 38.44 6.38
5 23 -5 32.6 5.29
-5 -23 -5 40.38 6.22
-23 -5 -5 31.9 5.36
-5 23 5 34.55 5.09
5 -5 23 41.87 5.23
-5 -5 -23 39.4 5.27
-5 -5 -23 44.98 5.42
23 5 -5 31.06 5.01
5 5 -23 42.2 5.26
23 5 -5 33.79 5.81
5 -23 5 34.15 4.88
5 -23 5 33.17 6.65
5 23 -5 47.32 5.71
-5 5 23 31.43 5.5
-5 5 23 37.72 6.6
-5 -23 -5 44.33 5.53
5 5 -23 37.92 5.07
5 -5 23 42.96 6.69
-5 23 5 33.46 5.23
5 -5 23 36.03 6.23
23 -5 5 36.31 5.83
-23 -5 -5 56.65 6.17
-5 5 -23 42.11 4.91
-5 23 -5 49.87 6.47
-5 -23 5 45.12 5.44
5 -5 -23 46 5.32
-5 -23 5 33.12 6.51
-5 -23 5 34.32 4.54
-5 5 -23 41.79 5.2
-5 23 -5 42.14 4.71
-5 -5 23 30.97 6.73
5 5 23 31.18 6.03
5 5 23 46.34 6.09
5 -23 -5 30.73 5.79
-23 5 -5 34.58 5.22
5 23 5 37.08 5.37
5 23 5 51.1 6.06
-23 -5 5 33.27 5.2
-23 5 -5 39.17 5.19
-23 5 -5 45.78 5.37
-5 5 -23 33.69 5.02
-23 -5 5 35.97 5.95
5 -5 -23 41.97 5.48
-23 -5 5 30.55 5.18
-5 23 -5 33.26 5.16
-5 -5 23 39 6.23
5 -23 -5 38.97 5.46
23 5 5 24.92 5.6
23 5 5 38.99 5.76
-5 5 -23 45.81 6.24
-7 -23 -1 -0.17 3.8
-7 -23 -1 1.46 2.61
-1 -7 -23 -1.08 3.41
-7 23 1 6.78 2.19
-7 23 1 -0.27 3.14
-7 23 1 1.71 3
-1 -7 -23 -1 3.49
-23 -1 -7 5.72 2.84
-23 -1 -7 4.73 3.51
7 -23 1 0.69 3.4
7 -23 1 -1.61 4.8
7 23 -1 -2.16 2.98
7 23 -1 0.58 3.43
-23 1 7 -7.86 4.16
23 1 -7 0.18 3.57
-23 1 7 1.28 2.97
-1 7 23 1.97 3.9
-1 7 23 -0.79 4.52
23 -1 7 -5.03 4.03
23 -1 7 -1.68 4.27
1 -7 23 2.92 2.61
1 -7 23 1.91 4.58
1 -7 23 -3.21 5.23
1 7 -23 7.23 3.32
1 7 -23 0.81 3.16
23 1 -7 -6.44 4.02
-23 1 7 0.54 3.35
-7 -23 -1 4.43 4.68
-23 1 7 5.67 3.23
7 23 1 4.58 2.72
-1 -7 23 -2.66 4.58
-1 -7 23 -6.09 4.99
7 23 1 0.28 2.98
-7 -23 1 -2.63 3.84
-7 -23 1 -7.57 2.7
-7 -23 1 3.69 4.69
7 23 1 2.67 3.4
-7 23 -1 2.96 3.11
-7 23 -1 0.03 3.05
23 1 7 -2.49 4.25
1 7 23 -0.41 3.56
-1 7 -23 3.67 3.21
-1 7 -23 -2.13 3.29
23 -1 -7 2.58 3.59
23 -1 -7 0.96 4.04
1 -7 -23 0.6 3.31
1 -7 -23 2.97 3.5
-23 -1 7 -1.23 3.31
-23 -1 7 1.21 2.82
23 1 7 2.86 2.76
23 1 7 -6.42 4
7 -23 -1 -1.27 4.36
-7 23 -1 3.06 2.1
-23 1 -7 3.22 3.53
-23 -1 7 7.32 3.18
-23 -1 7 2.5 4.19
-23 1 -7 0.94 2.62
7 -23 -1 5.09 3.65
1 7 23 -0.27 4.44
7 -23 3 12.26 4.01
-23 3 7 19.05 4
7 23 -3 18.18 4.46
-23 3 7 14.17 5.36
-7 -23 -3 25.85 4.72
-7 -23 -3 23.72 3.75
23 -3 7 20.11 5.04
23 -3 7 21.91 4.93
23 3 -7 19.68 4.25
23 3 -7 10.41 4.76
-7 23 3 19.59 3.31
-23 3 7 15.2 3.79
7 -23 3 14.65 5.73
7 23 -3 21.11 3.76
3 -7 23 22.85 5.88
3 7 -23 29.48 4.29
3 7 -23 21.44 4.07
-3 7 23 19.2 4.6
-3 7 23 25.21 5.66
-7 23 3 18.21 3.89
-23 -3 -7 26.48 3.84
-23 -3 -7 24.25 4.39
-3 -7 -23 21.09 4.37
-7 23 3 22.79 4.21
-7 -23 -3 27.15 5.43
-3 -7 -23 28.11 4.64
3 -7 23 21.87 5.51
3 -7 23 22.48 3.44
7 -23 -3 22.62 4.92
7 -23 -3 26.02 4.43
23 3 7 15.75 4.78
3 7 23 29.14 5.26
3 7 23 12.49 4.73
-3 -7 23 13.68 6.04
-23 -3 7 19.78 4.34
-23 -3 7 21.5 5.29
-23 3 -7 15.66 3.46
-23 3 -7 22.87 3.59
-23 3 -7 18.57 4.3
3 -7 -23 28.65 4.45
23 3 7 17.65 5.18
7 23 3 25.27 4.5
7 23 3 23.64 4.12
23 -3 -7 27.37 4.45
-3 -7 23 12.64 5.33
-7 -23 3 25.55 4.77
-7 -23 3 18.17 3.64
-7 -23 3 28.25 5.68
-7 23 -3 19.63 3.02
-7 23 -3 22.81 4.08
-7 23 -3 16.71 3.91
-3 7 -23 20.71 4.03
-3 7 -23 14.53 3.99
3 -7 -23 24.98 4.3
-24 0 0 9.25 3.04
-24 0 0 5.69 3.95
-24 0 0 13.53 4.26
0 -24 0 1.63 3.98
0 -24 0 9.12 5.09
0 0 -24 8.87 3.82
0 0 -24 8.15 3.66
0 0 24 -1.22 4.44
0 0 24 4.9 4.74
0 24 0 10.6 3.63
0 24 0 6.42 2.98
24 0 0 6.03 4.27
24 0 0 3.25 3.85
-2 0 24 -4.12 4.53
-2 0 24 4.45 4.96
0 -24 -2 0.94 3.92
0 -24 -2 1.54 4.84
0 -24 2 2.72 3.68
0 -24 2 1.57 5.06
0 24 -2 8.15 3.46
0 24 -2 3.63 2.82
0 24 2 4.94 3.33
0 24 2 3.24 2.9
2 0 -24 2.22 3.68
2 0 -24 9.15 3.69
2 0 24 3.65 4.61
2 0 24 4.13 4.92
24 -2 0 2.44 4.25
24 -2 0 4.02 3.76
24 2 0 5.83 4.26
24 2 0 1.05 3.78
-24 -2 0 2.65 3.05
-24 -2 0 8.44 3.86
-24 -2 0 4.67 3.74
-24 2 0 4.82 2.91
-24 2 0 6.8 3.95
-24 2 0 13.48 4.3
-24 2 0 8.22 3.27
-2 0 -24 5.87 3.66
-2 0 -24 5.26 3.6
24 4 0 3.59 4.2
24 4 0 5.24 3.66
0 24 -4 0.84 3.44
0 24 4 2.91 2.84
-24 -4 0 8.84 3.43
-24 -4 0 4.04 3.58
-24 -4 0 -5.63 3.6
-24 4 0 1.54 2.75
-24 4 0 3.54 3.82
-24 4 0 0.92 3.13
-4 0 -24 2.54 3.55
-4 0 -24 8.39 3.49
-4 0 24 2.83 4.28
-4 0 24 -3.52 4.91
0 -24 -4 1.88 4.04
0 -24 -4 2.51 4.5
0 -24 4 2.92 3.63
0 24 -4 10.69 2.47
4 0 -24 6.44 3.67
4 0 24 1.65 4.71
4 0 24 1.09 4.89
24 -4 0 2.85 3.94
0 -24 4 0.13 4.69
0 24 4 3.01 3.33
0 24 -4 6.02 2.84
4 0 -24 3.41 3.47
0 24 -4 3.31 2.81
-2 24 0 7.74 3.1
0 -2 -24 6.59 3.84
-2 24 0 5.75 3.49
-2 -24 0 8.78 3.98
-24 0 2 4.93 3.51
0 2 -24 5.68 3.5
-2 -24 0 5.2 4.99
-24 0 -2 1.97 3.82
-24 0 2 3.2 3.33
-24 0 2 4.07 3.87
-24 0 2 8.93 3.76
-24 0 2 5.44 4.17
-24 0 -2 8.74 3.06
0 -2 24 -1.69 5.07
0 2 24 7.41 4.89
2 -24 0 6.11 3.87
2 -24 0 2.49 4.83
2 24 0 5.6 3.38
2 24 0 5.06 2.81
2 24 0 9.86 2.83
24 0 -2 1.23 4.14
24 0 -2 5.84 3.75
24 0 2 7.4 4.23
24 0 2 4.67 4.03
0 -2 -24 6.11 3.65
0 -2 24 1.44 4.85
0 2 24 -1.74 4.46
0 2 -24 6.35 3.54
2 -24 2 5.14 4.91
-24 -2 -2 10.1 3.15
-24 -2 -2 2.85 3.72
2 -2 24 4.17 5.14
2 24 -2 2.04 3.36
2 24 -2 4.37 2.79
2 24 -2 5.78 2.72
2 -2 24 -1.9 4.73
-24 2 2 9.14 4.25
2 -24 2 5.02 3.72
-24 2 2 6.03 3.87
24 -2 2 -0.48 4.18
-24 2 2 4.45 3.28
-2 -24 -2 -0.82 3.93
-2 -24 -2 0.43 4.77
-2 2 24 -2.8 4.21
2 2 -24 3.58 3.53
-2 -2 -24 2.15 3.57
-2 -2 -24 -1.22 3.52
-24 2 2 3 2.98
-2 24 2 6.67 3.49
24 -2 2 1.71 3.94
24 2 -2 -0.8 4.13
-2 24 2 3.73 3.02
-2 2 24 -1.31 4.72
2 2 -24 5.81 3.49
24 2 -2 2.44 3.49
-2 24 -2 5.48 2.31
-2 -2 24 0.13 4.96
-24 -2 2 8.63 3.4
-2 24 -2 3.42 3.33
-24 2 -2 3.58 3.9
24 2 2 -2.83 3.96
2 -2 -24 3.83 3.61
2 -2 -24 0.06 3.63
-2 -2 24 -0.38 4.48
-24 2 -2 4.76 2.91
-2 -24 2 -1.21 3.79
-2 -24 2 -5.9 4.78
-2 24 -2 1.12 2.91
2 2 24 -3.07 4.38
2 2 24 5.9 4.71
-24 -2 2 5.15 3.73
-24 -2 2 6.1 3.48
-24 2 -2 1.7 2.64
2 24 2 3.58 3.33
2 24 2 3.51 2.78
24 -2 -2 0.41 4.27
24 -2 -2 0.09 3.67
2 -24 -2 -3.18 4.49
-2 2 -24 4.73 3.53
-2 2 -24 6.92 3.45
2 -24 -2 4.61 4.03
24 2 2 0.25 4.09
4 2 -24 -0.54 3.41
-4 2 24 -7.07 3.83
-24 -4 -2 5.53 3.36
-24 -4 -2 1.77 3.61
24 -4 2 -8.23 4.07
2 -24 4 0.91 3.38
4 -2 24 -2.61 4.65
24 -4 2 3.3 4.01
4 2 -24 2.37 3.43
-2 24 4 -0.63 2.89
-24 4 2 -2.49 2.72
-24 4 2 -0.93 3.66
-24 4 2 -1.86 3.31
-4 -2 -24 -0.31 3.4
-4 -2 -24 0.52 3.52
-2 -24 -4 -3.5 4.44
2 -24 4 3.35 4.86
2 24 -4 3.23 2.8
-2 -24 -4 1.98 3.95
-24 -4 2 5.71 3.39
4 -2 -24 2.43 3.57
-24 -4 2 3.62 3.55
4 -2 -24 -3.78 3.53
-4 2 -24 2.69 3.35
-24 4 -2 1.69 3.68
24 4 2 -2.08 3.89
2 -24 -4 2.36 3.9
-4 -2 24 0.88 4.44
4 2 24 -1.12 4.35
24 -4 -2 2.27 3.74
-4 2 -24 1.98 3.5
2 24 4 0.61 2.81
-2 -24 4 -4.88 4.88
2 -24 -4 -0.82 4.18
-2 24 -4 0.18 3.16
-24 4 -2 -1.18 2.98
-2 -24 4 0.02 3.8
-2 24 -4 5.87 2.34
-24 4 -2 3.52 2.81
-2 -24 4 2.86 2.73
-24 4 -2 1.58 2.47
-4 -24 0 2.65 3.94
0 4 -24 4.27 3.46
-4 -24 0 -1.8 5.01
-24 0 -4 -0.12 3.7
-24 0 4 13.57 3.69
-24 0 4 10.74 3.62
-24 0 4 4.04 4.29
0 4 -24 5.35 3.51
-24 0 4 3.24 3.31
0 4 24 1.17 4.2
0 4 24 0.57 4.52
4 -24 0 7.47 3.78
-24 0 -4 8.57 3.03
4 -24 0 6.48 4.78
4 24 0 6.21 3.6
4 24 0 2.73 2.71
4 24 0 5.14 2.67
24 0 -4 3.28 4.21
24 0 -4 1.44 3.51
24 0 4 2 4.16
0 -4 -24 2.88 3.62
0 -4 24 2.46 4.78
0 -4 24 -6.53 5.19
24 0 4 -0.38 4.19
-4 24 0 2.6 3
0 -4 -24 1.61 3.55
-4 24 0 6.43 3.12
-4 24 0 4.43 2.4
-2 -4 -24 -1.76 3.54
24 2 -4 1.05 3.29
-24 -2 -4 8.96 3.04
24 -2 4 -0.77 4.21
-2 4 24 -4.25 3.77
-2 -4 -24 -2.17 3.48
-24 -2 -4 3.76 3.75
2 -4 24 -5.28 4.5
2 4 -24 1.21 3.33
2 4 -24 4.54 3.38
-24 2 4 -1.2 3.08
-4 -24 -2 1.63 3.96
-4 -24 -2 5.47 4.94
4 -24 2 -0.71 3.55
4 -24 2 1.12 4.89
4 24 -2 2.23 2.64
4 24 -2 0.42 2.58
-4 24 2 -2.04 3.12
2 -4 -24 0 3.64
-24 -2 4 2.63 3.4
-24 -2 4 10.58 3.71
-24 -2 4 5.12 3.5
-24 2 -4 2.8 2.79
-24 2 -4 4.08 2.8
-24 2 -4 4.39 3.66
2 4 24 -4.73 4.21
4 -24 -2 2.61 3.83
4 -24 -2 1.25 4.4
-4 -24 2 -6.64 3.85
-4 -24 2 6.52 2.65
-4 -24 2 -7.62 4.75
-4 24 -2 2.73 2.2
-4 24 -2 1.74 2.93
4 24 2 4.6 2.78
2 -4 -24 2.06 3.69
24 2 4 -1.19 4.08
-2 -4 24 -0.65 4.76
-2 4 -24 4.67 3.34
-2 4 -24 2.14 3.32
