#------------------------------------------------------------------------------
#$Date: 2016-03-26 13:42:56 +0200 (Sat, 26 Mar 2016) $
#$Revision: 180233 $
#$URL: svn://www.crystallography.net/cod/cif/7/11/19/7111932.cif $
#------------------------------------------------------------------------------
#
# This file is available in the Crystallography Open Database (COD),
# http://www.crystallography.net/
#
# All data on this site have been placed in the public domain by the
# contributors.
#
data_7111932
loop_
_publ_author_name
'Dinesh G. (Dan) Patel'
'Ian M. Walton'
'Jordan M. Cox'
'Cody J. Gleason'
'David R. Butzer'
'Jason B. Benedict'
_publ_section_title
;
 Photoresponsive porous materials: the design and synthesis of
 photochromic diarylethene-based linkers and a metal-organic framework
;
_journal_name_full               Chem.Commun.
_journal_page_first              2653
_journal_paper_doi               10.1039/c3cc49666j
_journal_volume                  50
_journal_year                    2014
_chemical_formula_moiety         'C26 H20 Br2 O S2'
_chemical_formula_sum            'C26 H20 Br2 O S2'
_chemical_formula_weight         572.36
_chemical_name_systematic
;
 ?
;
_space_group_crystal_system      triclinic
_space_group_IT_number           2
_space_group_name_Hall           '-P 1'
_space_group_name_H-M_alt        'P -1'
_symmetry_space_group_name_Hall  '-P 1'
_symmetry_space_group_name_H-M   'P -1'
_atom_sites_solution_hydrogens   geom
_atom_sites_solution_primary     direct
_audit_creation_date             2013-11-16
_audit_creation_method
;
Olex2 1.2
(compiled 2013.11.15 svn.r2834 for OlexSys, GUI svn.r4707)
;
_cell_angle_alpha                89.5730(11)
_cell_angle_beta                 85.9664(11)
_cell_angle_gamma                76.2250(12)
_cell_formula_units_Z            2
_cell_length_a                   9.9642(4)
_cell_length_b                   11.4661(4)
_cell_length_c                   11.6872(4)
_cell_measurement_reflns_used    7441
_cell_measurement_temperature    90
_cell_measurement_theta_max      26.346
_cell_measurement_theta_min      2.441
_cell_volume                     1293.59(8)
_computing_molecular_graphics    'Olex2 (Dolomanov et al., 2009)'
_computing_publication_material  'Olex2 (Dolomanov et al., 2009)'
_computing_structure_refinement  'XL (Sheldrick, 2008)'
_computing_structure_solution    'XS (Sheldrick, 2008)'
_diffrn_ambient_temperature      90
_diffrn_detector                 'Bruker APEX2 area detector'
_diffrn_detector_area_resol_mean 7.9
_diffrn_detector_type            'CCD area detector'
_diffrn_measured_fraction_theta_full 1.000
_diffrn_measured_fraction_theta_max 0.999
_diffrn_measurement_device       'three-circle diffractometer'
_diffrn_measurement_device_type  'Bruker SMART APEX2 area detector'
_diffrn_measurement_method       '\w and \f scans'
_diffrn_radiation_monochromator  'mirror optics'
_diffrn_radiation_probe          x-ray
_diffrn_radiation_type           MoK\a
_diffrn_radiation_wavelength     0.71073
_diffrn_reflns_av_R_equivalents  0.0622
_diffrn_reflns_av_unetI/netI     0.0609
_diffrn_reflns_Laue_measured_fraction_full 1.000
_diffrn_reflns_Laue_measured_fraction_max 0.999
_diffrn_reflns_limit_h_max       12
_diffrn_reflns_limit_h_min       -12
_diffrn_reflns_limit_k_max       14
_diffrn_reflns_limit_k_min       -14
_diffrn_reflns_limit_l_max       14
_diffrn_reflns_limit_l_min       -14
_diffrn_reflns_number            23952
_diffrn_reflns_point_group_measured_fraction_full 1.000
_diffrn_reflns_point_group_measured_fraction_max 0.999
_diffrn_reflns_theta_full        26.000
_diffrn_reflns_theta_max         26.408
_diffrn_reflns_theta_min         1.747
_diffrn_source                   'microfocus rotating anode'
_diffrn_source_type              'Incoatec I\ms'
_exptl_absorpt_coefficient_mu    3.310
_exptl_absorpt_correction_T_max  0.7454
_exptl_absorpt_correction_T_min  0.6692
_exptl_absorpt_correction_type   multi-scan
_exptl_absorpt_process_details
;
SADABS-2012/1 (Bruker,2012) was used for absorption correction.
wR2(int) was 0.0590 before and 0.0483 after correction.
The Ratio of minimum to maximum transmission is 0.8978.
The \l/2 correction factor is 0.0015.
;
_exptl_crystal_colour            'clear yellowish colourless'
_exptl_crystal_colour_lustre     clear
_exptl_crystal_colour_modifier   yellowish
_exptl_crystal_colour_primary    colourless
_exptl_crystal_density_diffrn    1.469
_exptl_crystal_description       plate
_exptl_crystal_F_000             572
_exptl_crystal_recrystallization_method 'Crystallized from toluene'
_exptl_crystal_size_max          0.1
_exptl_crystal_size_mid          0.05
_exptl_crystal_size_min          0.02
_refine_diff_density_max         0.692
_refine_diff_density_min         -0.439
_refine_diff_density_rms         0.105
_refine_ls_extinction_method     none
_refine_ls_goodness_of_fit_ref   1.027
_refine_ls_hydrogen_treatment    riding
_refine_ls_matrix_type           full
_refine_ls_number_parameters     284
_refine_ls_number_reflns         5329
_refine_ls_number_restraints     6
_refine_ls_restrained_S_all      1.028
_refine_ls_R_factor_all          0.0753
_refine_ls_R_factor_gt           0.0455
_refine_ls_shift/su_max          0.001
_refine_ls_shift/su_mean         0.000
_refine_ls_structure_factor_coef Fsqd
_refine_ls_weighting_details
'w=1/[\s^2^(Fo^2^)+(0.0474P)^2^+0.8756P] where P=(Fo^2^+2Fc^2^)/3'
_refine_ls_weighting_scheme      calc
_refine_ls_wR_factor_gt          0.0967
_refine_ls_wR_factor_ref         0.1057
_reflns_Friedel_coverage         0.000
_reflns_number_gt                3800
_reflns_number_total             5329
_reflns_threshold_expression     'I > 2\s(I)'
_iucr_refine_instructions_details
;
TITL CJG_111302_0m in P-1 #2
CELL 0.71073 9.9642 11.4661 11.6872 89.573 85.9664 76.225
ZERR 2 0.0004 0.0004 0.0004 0.0011 0.0011 0.0012
LATT 1
 
SFAC C H Br O S
UNIT 52 40 4 2 4
ISOR 0.002 0.02 C13
 
L.S. 10
PLAN  20
TEMP -183
BOND
MORE -1
fmap 2
acta 52
CONF
REM <HKL>C:/Users/Jason%20Benedict/Dropbox/Org%20Lett%20(or%20JACS)%20-%20Phen
REM anthrene%20DAE/X-ray%20data/Ketone/CJG_111302_0m-mask.hkl</HKL>
 
WGHT    0.047400    0.875600
FVAR       0.13843
BR1   3    0.313971    0.669416    1.183336    11.00000    0.04127    0.02807 =
         0.01378    0.00662   -0.00191    0.00021
BR2   3    0.920293    0.784488    0.401753    11.00000    0.02163    0.04977 =
         0.02967    0.01933   -0.00392   -0.01059
S2    5    0.279015    0.621125    0.495759    11.00000    0.02096    0.02364 =
         0.01223   -0.00341   -0.00183   -0.00394
S1    5    0.044132    1.086877    0.874212    11.00000    0.03819    0.01559 =
         0.01978   -0.00215   -0.00290    0.00072
O1    4    0.432642    0.985754    0.641044    11.00000    0.03013    0.01937 =
         0.02250    0.01174   -0.01007   -0.00768
C3    1    0.422340    0.685966    1.046232    11.00000    0.03300    0.01557 =
         0.01128    0.00165   -0.00620   -0.00604
C13   1    0.467439    0.886878    0.682625    11.00000    0.01831    0.01794 =
         0.01027    0.00206   -0.00664   -0.00403
C10   1    0.819835    0.761720    0.541548    11.00000    0.02126    0.03634 =
         0.02297    0.01458   -0.00808   -0.01693
C7    1    0.664621    0.721997    0.739755    11.00000    0.02386    0.02328 =
         0.01758    0.00750   -0.01102   -0.01366
C1    1    0.438146    0.761325    0.854936    11.00000    0.02830    0.01013 =
         0.00955    0.00459   -0.00908   -0.00717
C17   1   -0.013625    0.973473    0.812914    11.00000    0.02682    0.01953 =
         0.01061    0.00271   -0.00117    0.00162
C2    1    0.359310    0.749887    0.955436    11.00000    0.03012    0.01206 =
         0.01341    0.00000   -0.00913   -0.00514
AFIX  43
H2    2    0.262726    0.785692    0.961871    11.00000   -1.20000
AFIX   0
C8    1    0.798598    0.651481    0.712951    11.00000    0.02226    0.03301 =
         0.02539    0.01643   -0.00889   -0.00445
AFIX  43
H8    2    0.837080    0.589113    0.763505    11.00000   -1.20000
AFIX   0
C21   1    0.346929    0.727276    0.666249    11.00000    0.01272    0.01831 =
         0.01226    0.00151   -0.00056   -0.00216
C24   1    0.291349    0.752004    0.561206    11.00000    0.01559    0.02251 =
         0.01391    0.00024   -0.00124   -0.00381
C16   1    0.096740    0.887373    0.770522    11.00000    0.02856    0.01224 =
         0.01163    0.00250   -0.00553   -0.00337
AFIX  43
H16   2    0.086930    0.816805    0.733291    11.00000   -1.20000
AFIX   0
C11   1    0.689028    0.832735    0.563976    11.00000    0.02295    0.02312 =
         0.02157    0.00852   -0.00984   -0.00802
AFIX  43
H11   2    0.652284    0.895266    0.512991    11.00000   -1.20000
AFIX   0
C4    1    0.561387    0.634369    1.039796    11.00000    0.03602    0.02057 =
         0.01497    0.00794   -0.01420   -0.00634
AFIX  43
H4    2    0.602911    0.590870    1.102870    11.00000   -1.20000
AFIX   0
C18   1    0.216333    1.017969    0.843053    11.00000    0.03465    0.01470 =
         0.01419    0.00370   -0.00550   -0.00497
C23   1    0.353529    0.532071    0.604697    11.00000    0.01528    0.02094 =
         0.01473   -0.00134    0.00047   -0.00012
C9    1    0.875829    0.670323    0.615213    11.00000    0.01652    0.04126 =
         0.03668    0.01287   -0.00430   -0.00240
AFIX  43
H9    2    0.966327    0.621370    0.598399    11.00000   -1.20000
AFIX   0
C12   1    0.610390    0.812362    0.662296    11.00000    0.02233    0.01926 =
         0.01755    0.00554   -0.01065   -0.00949
C22   1    0.384008    0.601064    0.687736    11.00000    0.01628    0.02274 =
         0.00996    0.00296   -0.00156   -0.00459
AFIX  43
H22   2    0.426569    0.568415    0.754874    11.00000   -1.20000
AFIX   0
C6    1    0.581224    0.709172    0.846515    11.00000    0.02553    0.01411 =
         0.01766    0.00582   -0.00872   -0.00808
C5    1    0.640848    0.646205    0.940504    11.00000    0.02372    0.02300 =
         0.02554    0.00967   -0.01331   -0.00310
AFIX  43
H5    2    0.737568    0.610981    0.936037    11.00000   -1.20000
AFIX   0
C26   1    0.246563    0.869493    0.500629    11.00000    0.02699    0.02881 =
         0.01414    0.00812   -0.00961   -0.00634
AFIX 137
H26A  2    0.327459    0.889946    0.460446    11.00000   -1.50000
H26B  2    0.203429    0.932664    0.556863    11.00000   -1.50000
H26C  2    0.179602    0.862475    0.445081    11.00000   -1.50000
AFIX   0
C15   1    0.228729    0.910963    0.786160    11.00000    0.02602    0.01357 =
         0.00785    0.00406   -0.00593   -0.00405
C14   1    0.366081    0.824517    0.750360    11.00000    0.02049    0.01319 =
         0.01356    0.00404   -0.00653   -0.00396
C20   1    0.325386    1.077782    0.878318    11.00000    0.05520    0.02285 =
         0.02601   -0.00204   -0.00971   -0.01554
AFIX 137
H20A  2    0.351531    1.125925    0.814707    11.00000   -1.50000
H20B  2    0.406914    1.016551    0.898356    11.00000   -1.50000
H20C  2    0.289069    1.130009    0.944967    11.00000   -1.50000
AFIX   0
C25   1    0.374773    0.397575    0.600645    11.00000    0.02617    0.02229 =
         0.02377   -0.00426   -0.00340   -0.00370
AFIX 137
H25A  2    0.285120    0.376715    0.613628    11.00000   -1.50000
H25B  2    0.435431    0.361406    0.660382    11.00000   -1.50000
H25C  2    0.417589    0.367112    0.525290    11.00000   -1.50000
AFIX   0
C19   1   -0.163499    0.977566    0.811356    11.00000    0.03102    0.03070 =
         0.01902   -0.00111    0.00131   -0.00152
AFIX 137
H19A  2   -0.208121    0.995524    0.888729    11.00000   -1.50000
H19B  2   -0.175135    0.899652    0.785602    11.00000   -1.50000
H19C  2   -0.206193    1.040223    0.758710    11.00000   -1.50000
AFIX   0
HKLF 4
 
REM  CJG_111302_0m in P-1 #2
REM R1 =  0.0455 for    3800 Fo > 4sig(Fo)  and  0.0753 for all    5329 data
REM    284 parameters refined using      6 restraints
 
END  
     
WGHT      0.0474      0.8758 

REM Highest difference peak  0.692,  deepest hole -0.439,  1-sigma level  0.105
Q1    1   0.9581  0.8255  0.4554  11.00000  0.05    0.69
Q2    1   0.4062  0.6760  1.1776  11.00000  0.05    0.65
Q3    1  -0.0049  1.3151  0.9341  11.00000  0.05    0.54
Q4    1   0.8872  0.7007  0.3607  11.00000  0.05    0.52
Q5    1   1.0236  0.7835  0.3770  11.00000  0.05    0.51
Q6    1   0.9775  0.7167  0.3864  11.00000  0.05    0.50
Q7    1   0.4053  0.8539  0.7177  11.00000  0.05    0.48
Q8    1   0.0090  1.0242  0.8437  11.00000  0.05    0.46
Q9    1   0.2662  0.6938  0.5212  11.00000  0.05    0.44
Q10   1   0.1397  1.0808  0.8695  11.00000  0.05    0.43
Q11   1   0.9277  0.8790  0.4058  11.00000  0.05    0.43
Q12   1   0.3075  0.8658  0.7793  11.00000  0.05    0.42
Q13   1   0.3595  0.7342  1.2208  11.00000  0.05    0.41
Q14   1   0.2543  0.5470  0.4637  11.00000  0.05    0.41
Q15   1   0.3462  0.7809  0.7224  11.00000  0.05    0.41
Q16   1   0.9753  0.4817  0.8355  11.00000  0.05    0.40
Q17   1   0.3627  0.6428  1.0899  11.00000  0.05    0.40
Q18   1   0.7360  0.7170  0.7401  11.00000  0.05    0.40
Q19   1   0.9302  0.5666  0.9869  11.00000  0.05    0.39
Q20   1   0.4154  0.8088  0.7919  11.00000  0.05    0.38

REM The information below was added by Olex2.
REM
REM R1 = 0.0455 for 3800 Fo > 4sig(Fo) and 0.0753 for all 5329 data
REM n/a parameters refined using n/a restraints
REM Highest difference peak 0.69, deepest hole -0.44
REM Mean Shift 0, Max Shift 0.

REM +++ Tabular Listing of Refinement Information +++
REM R1_all = 0.0753
REM R1_gt = 0.0455
REM wR_ref = 0.1057
REM GOOF = 1.027
REM Shift_max = 0
REM Shift_mean = 0
REM Reflections_all = 5329
REM Reflections_gt = 3800
REM Parameters = n/a
REM Hole = -0.44
REM Peak = 0.69
REM Flack = n/a

;
_cod_data_source_file            c3cc49666j.txt
_cod_data_source_block           4a
_cod_database_code               7111932
#BEGIN Tags that were not found in dictionaries:
_shelxl_version_number           2013-3
_shelx_space_group_comment
;
The symmetry employed for this shelxl refinement is uniquely defined
by the following loop, which should always be used as a source of
symmetry information in preference to the above space-group names.
They are only intended as comments.
;
_olex2_refinement_description
;
1. Fixed Uiso
 At 1.2 times of:
  All C(H) groups
 At 1.5 times of:
  All C(H,H,H) groups
2. Uiso/Uaniso restraints and constraints
Uanis(C13) \\sim Ueq: with sigma of 0.002 and sigma for terminal atoms of 0.02
3.a Aromatic/amide H refined with riding coordinates:
 C2(H2), C8(H8), C16(H16), C11(H11), C4(H4), C9(H9), C22(H22), C5(H5)
3.b Idealised Me refined as rotating group:
 C26(H26A,H26B,H26C), C20(H20A,H20B,H20C), C25(H25A,H25B,H25C), C19(H19A,H19B,
 H19C)
;
#END Tags that were not found in dictionaries
loop_
_space_group_symop_operation_xyz
'x, y, z'
'-x, -y, -z'
loop_
_atom_site_label
_atom_site_type_symbol
_atom_site_fract_x
_atom_site_fract_y
_atom_site_fract_z
_atom_site_U_iso_or_equiv
_atom_site_adp_type
_atom_site_occupancy
_atom_site_site_symmetry_order
_atom_site_calc_flag
_atom_site_refinement_flags_posn
_atom_site_refinement_flags_adp
Br1 Br 0.31397(5) 0.66942(4) 1.18334(3) 0.02917(14) Uani 1 1 d . .
Br2 Br 0.92029(5) 0.78449(5) 0.40175(4) 0.03333(15) Uani 1 1 d . .
S2 S 0.27902(11) 0.62112(9) 0.49576(8) 0.0191(2) Uani 1 1 d . .
S1 S 0.04413(12) 1.08688(9) 0.87421(9) 0.0257(3) Uani 1 1 d . .
O1 O 0.4326(3) 0.9858(2) 0.6410(2) 0.0234(7) Uani 1 1 d . .
C3 C 0.4223(4) 0.6860(3) 1.0462(3) 0.0197(9) Uani 1 1 d . .
C13 C 0.4674(4) 0.8869(3) 0.6826(3) 0.0153(8) Uani 1 1 d . U
C10 C 0.8198(4) 0.7617(4) 0.5415(4) 0.0249(10) Uani 1 1 d . .
C7 C 0.6646(4) 0.7220(4) 0.7398(3) 0.0198(9) Uani 1 1 d . .
C1 C 0.4381(4) 0.7613(3) 0.8549(3) 0.0152(8) Uani 1 1 d . .
C17 C -0.0136(4) 0.9735(4) 0.8129(3) 0.0202(9) Uani 1 1 d . .
C2 C 0.3593(4) 0.7499(3) 0.9554(3) 0.0181(9) Uani 1 1 d . .
H2 H 0.2627 0.7857 0.9619 0.022 Uiso 1 1 calc R .
C8 C 0.7986(4) 0.6515(4) 0.7130(4) 0.0270(10) Uani 1 1 d . .
H8 H 0.8371 0.5891 0.7635 0.032 Uiso 1 1 calc R .
C21 C 0.3469(4) 0.7273(3) 0.6662(3) 0.0147(8) Uani 1 1 d . .
C24 C 0.2913(4) 0.7520(4) 0.5612(3) 0.0174(8) Uani 1 1 d . .
C16 C 0.0967(4) 0.8874(3) 0.7705(3) 0.0175(9) Uani 1 1 d . .
H16 H 0.0869 0.8168 0.7333 0.021 Uiso 1 1 calc R .
C11 C 0.6890(4) 0.8327(4) 0.5640(3) 0.0218(9) Uani 1 1 d . .
H11 H 0.6523 0.8953 0.5130 0.026 Uiso 1 1 calc R .
C4 C 0.5614(4) 0.6344(4) 1.0398(3) 0.0234(10) Uani 1 1 d . .
H4 H 0.6029 0.5909 1.1029 0.028 Uiso 1 1 calc R .
C18 C 0.2163(4) 1.0180(3) 0.8431(3) 0.0212(9) Uani 1 1 d . .
C23 C 0.3535(4) 0.5321(4) 0.6047(3) 0.0178(9) Uani 1 1 d . .
C9 C 0.8758(4) 0.6703(4) 0.6152(4) 0.0322(11) Uani 1 1 d . .
H9 H 0.9663 0.6214 0.5984 0.039 Uiso 1 1 calc R .
C12 C 0.6104(4) 0.8124(3) 0.6623(3) 0.0185(9) Uani 1 1 d . .
C22 C 0.3840(4) 0.6011(3) 0.6877(3) 0.0163(8) Uani 1 1 d . .
H22 H 0.4266 0.5684 0.7549 0.020 Uiso 1 1 calc R .
C6 C 0.5812(4) 0.7092(3) 0.8465(3) 0.0182(9) Uani 1 1 d . .
C5 C 0.6408(4) 0.6462(4) 0.9405(3) 0.0240(10) Uani 1 1 d . .
H5 H 0.7376 0.6110 0.9360 0.029 Uiso 1 1 calc R .
C26 C 0.2466(4) 0.8695(4) 0.5006(3) 0.0230(9) Uani 1 1 d . .
H26A H 0.3275 0.8899 0.4604 0.035 Uiso 1 1 calc GR .
H26B H 0.2034 0.9327 0.5569 0.035 Uiso 1 1 calc GR .
H26C H 0.1796 0.8625 0.4451 0.035 Uiso 1 1 calc GR .
C15 C 0.2287(4) 0.9110(3) 0.7862(3) 0.0157(8) Uani 1 1 d . .
C14 C 0.3661(4) 0.8245(3) 0.7504(3) 0.0155(8) Uani 1 1 d . .
C20 C 0.3254(5) 1.0778(4) 0.8783(4) 0.0333(11) Uani 1 1 d . .
H20A H 0.3515 1.1259 0.8147 0.050 Uiso 1 1 calc GR .
H20B H 0.4069 1.0166 0.8984 0.050 Uiso 1 1 calc GR .
H20C H 0.2891 1.1300 0.9450 0.050 Uiso 1 1 calc GR .
C25 C 0.3748(4) 0.3976(4) 0.6006(4) 0.0243(10) Uani 1 1 d . .
H25A H 0.2851 0.3767 0.6136 0.036 Uiso 1 1 calc GR .
H25B H 0.4354 0.3614 0.6604 0.036 Uiso 1 1 calc GR .
H25C H 0.4176 0.3671 0.5253 0.036 Uiso 1 1 calc GR .
C19 C -0.1635(4) 0.9776(4) 0.8114(4) 0.0280(10) Uani 1 1 d . .
H19A H -0.2081 0.9955 0.8887 0.042 Uiso 1 1 calc GR .
H19B H -0.1751 0.8997 0.7856 0.042 Uiso 1 1 calc GR .
H19C H -0.2062 1.0402 0.7587 0.042 Uiso 1 1 calc GR .
loop_
_atom_site_aniso_label
_atom_site_aniso_U_11
_atom_site_aniso_U_22
_atom_site_aniso_U_33
_atom_site_aniso_U_23
_atom_site_aniso_U_13
_atom_site_aniso_U_12
Br1 0.0413(3) 0.0281(3) 0.0138(2) 0.00662(17) -0.00191(19) 0.0002(2)
Br2 0.0216(2) 0.0498(3) 0.0297(3) 0.0193(2) -0.00392(19) -0.0106(2)
S2 0.0210(5) 0.0236(6) 0.0122(5) -0.0034(4) -0.0018(4) -0.0039(4)
S1 0.0382(7) 0.0156(5) 0.0198(5) -0.0022(4) -0.0029(5) 0.0007(5)
O1 0.0301(17) 0.0194(15) 0.0225(15) 0.0117(12) -0.0101(13) -0.0077(13)
C3 0.033(2) 0.016(2) 0.0113(19) 0.0016(16) -0.0062(17) -0.0060(18)
C13 0.0183(15) 0.0179(15) 0.0103(14) 0.0021(12) -0.0066(12) -0.0040(13)
C10 0.021(2) 0.036(3) 0.023(2) 0.0146(19) -0.0081(18) -0.017(2)
C7 0.024(2) 0.023(2) 0.018(2) 0.0075(17) -0.0110(18) -0.0137(19)
C1 0.028(2) 0.0101(19) 0.0095(18) 0.0046(15) -0.0091(16) -0.0072(17)
C17 0.027(2) 0.020(2) 0.0106(19) 0.0027(16) -0.0012(17) 0.0016(18)
C2 0.030(2) 0.012(2) 0.0134(19) 0.0000(15) -0.0091(17) -0.0051(18)
C8 0.022(2) 0.033(3) 0.025(2) 0.016(2) -0.0089(19) -0.004(2)
C21 0.0127(19) 0.018(2) 0.0123(18) 0.0015(16) -0.0006(15) -0.0022(16)
C24 0.016(2) 0.023(2) 0.0139(19) 0.0002(16) -0.0012(16) -0.0038(17)
C16 0.029(2) 0.012(2) 0.0116(18) 0.0025(15) -0.0055(17) -0.0034(18)
C11 0.023(2) 0.023(2) 0.022(2) 0.0085(18) -0.0098(18) -0.0080(19)
C4 0.036(3) 0.021(2) 0.015(2) 0.0079(17) -0.0142(19) -0.006(2)
C18 0.035(3) 0.015(2) 0.014(2) 0.0037(16) -0.0055(18) -0.0050(19)
C23 0.015(2) 0.021(2) 0.0147(19) -0.0013(16) 0.0005(16) -0.0001(17)
C9 0.017(2) 0.041(3) 0.037(3) 0.013(2) -0.004(2) -0.002(2)
C12 0.022(2) 0.019(2) 0.018(2) 0.0055(16) -0.0106(17) -0.0095(18)
C22 0.016(2) 0.023(2) 0.0100(18) 0.0030(16) -0.0016(16) -0.0046(17)
C6 0.026(2) 0.014(2) 0.018(2) 0.0058(16) -0.0087(17) -0.0081(18)
C5 0.024(2) 0.023(2) 0.026(2) 0.0097(18) -0.0133(19) -0.0031(19)
C26 0.027(2) 0.029(2) 0.014(2) 0.0081(17) -0.0096(18) -0.006(2)
C15 0.026(2) 0.014(2) 0.0078(18) 0.0041(15) -0.0059(16) -0.0041(17)
C14 0.020(2) 0.013(2) 0.0136(19) 0.0040(15) -0.0065(16) -0.0040(17)
C20 0.055(3) 0.023(2) 0.026(2) -0.0020(19) -0.010(2) -0.016(2)
C25 0.026(2) 0.022(2) 0.024(2) -0.0043(18) -0.0034(19) -0.0037(19)
C19 0.031(3) 0.031(3) 0.019(2) -0.0011(19) 0.0013(19) -0.002(2)
loop_
_atom_type_symbol
_atom_type_description
_atom_type_scat_dispersion_real
_atom_type_scat_dispersion_imag
_atom_type_scat_source
C C 0.0033 0.0016 'International Tables Vol C Tables 4.2.6.8 and 6.1.1.4'
H H 0.0000 0.0000 'International Tables Vol C Tables 4.2.6.8 and 6.1.1.4'
Br Br -0.2901 2.4595 'International Tables Vol C Tables 4.2.6.8 and 6.1.1.4'
O O 0.0106 0.0060 'International Tables Vol C Tables 4.2.6.8 and 6.1.1.4'
S S 0.1246 0.1234 'International Tables Vol C Tables 4.2.6.8 and 6.1.1.4'
loop_
_geom_angle_atom_site_label_1
_geom_angle_atom_site_label_2
_geom_angle_atom_site_label_3
_geom_angle
C23 S2 C24 93.33(19)
C17 S1 C18 93.6(2)
C2 C3 Br1 119.6(3)
C4 C3 Br1 119.0(3)
C4 C3 C2 121.5(4)
O1 C13 C12 121.4(4)
O1 C13 C14 123.6(3)
C12 C13 C14 114.9(3)
C11 C10 Br2 118.6(3)
C11 C10 C9 121.2(4)
C9 C10 Br2 120.1(3)
C8 C7 C12 117.6(4)
C8 C7 C6 123.4(4)
C12 C7 C6 118.9(4)
C2 C1 C6 119.8(3)
C2 C1 C14 119.6(4)
C6 C1 C14 120.4(3)
C16 C17 S1 109.4(3)
C16 C17 C19 128.9(4)
C19 C17 S1 121.7(3)
C3 C2 C1 119.6(4)
C9 C8 C7 121.7(4)
C24 C21 C22 111.8(3)
C24 C21 C14 124.0(3)
C22 C21 C14 124.2(3)
C21 C24 S2 110.2(3)
C21 C24 C26 130.3(4)
C26 C24 S2 119.5(3)
C17 C16 C15 114.9(4)
C10 C11 C12 119.4(4)
C3 C4 C5 119.3(4)
C15 C18 S1 110.3(3)
C15 C18 C20 130.3(4)
C20 C18 S1 119.4(3)
C22 C23 S2 110.0(3)
C22 C23 C25 128.6(4)
C25 C23 S2 121.3(3)
C8 C9 C10 119.2(4)
C7 C12 C13 120.5(4)
C11 C12 C13 118.6(3)
C11 C12 C7 120.9(4)
C23 C22 C21 114.5(3)
C1 C6 C7 119.6(3)
C5 C6 C7 121.7(4)
C5 C6 C1 118.7(4)
C4 C5 C6 121.1(4)
C16 C15 C14 123.9(3)
C18 C15 C16 111.8(4)
C18 C15 C14 124.2(4)
C13 C14 C1 108.4(3)
C13 C14 C21 103.8(3)
C21 C14 C1 108.5(3)
C15 C14 C13 112.5(3)
C15 C14 C1 111.8(3)
C15 C14 C21 111.4(3)
loop_
_geom_bond_atom_site_label_1
_geom_bond_atom_site_label_2
_geom_bond_distance
Br1 C3 1.902(4)
Br2 C10 1.905(4)
S2 C24 1.723(4)
S2 C23 1.723(4)
S1 C17 1.721(4)
S1 C18 1.724(4)
O1 C13 1.212(4)
C3 C2 1.386(5)
C3 C4 1.368(6)
C13 C12 1.480(5)
C13 C14 1.543(5)
C10 C11 1.371(6)
C10 C9 1.388(6)
C7 C8 1.402(6)
C7 C12 1.405(5)
C7 C6 1.476(5)
C1 C2 1.390(5)
C1 C6 1.405(5)
C1 C14 1.548(5)
C17 C16 1.358(5)
C17 C19 1.484(6)
C8 C9 1.377(6)
C21 C24 1.382(5)
C21 C22 1.431(5)
C21 C14 1.546(5)
C24 C26 1.503(5)
C16 C15 1.428(5)
C11 C12 1.395(5)
C4 C5 1.383(6)
C18 C15 1.375(5)
C18 C20 1.498(6)
C23 C22 1.352(5)
C23 C25 1.506(5)
C6 C5 1.399(5)
C15 C14 1.520(5)
loop_
_geom_torsion_atom_site_label_1
_geom_torsion_atom_site_label_2
_geom_torsion_atom_site_label_3
_geom_torsion_atom_site_label_4
_geom_torsion
Br1 C3 C2 C1 -179.5(3)
Br1 C3 C4 C5 -179.9(3)
Br2 C10 C11 C12 175.9(3)
Br2 C10 C9 C8 -176.7(3)
S2 C23 C22 C21 0.6(4)
S1 C17 C16 C15 -0.2(4)
S1 C18 C15 C16 -0.6(4)
S1 C18 C15 C14 -177.2(3)
O1 C13 C12 C7 156.6(4)
O1 C13 C12 C11 -24.3(6)
O1 C13 C14 C1 -139.3(4)
O1 C13 C14 C21 105.5(4)
O1 C13 C14 C15 -15.1(5)
C3 C4 C5 C6 -0.5(6)
C10 C11 C12 C13 -177.6(4)
C10 C11 C12 C7 1.5(6)
C7 C8 C9 C10 0.2(7)
C7 C6 C5 C4 -179.7(4)
C1 C6 C5 C4 0.4(6)
C17 S1 C18 C15 0.5(3)
C17 S1 C18 C20 -179.7(3)
C17 C16 C15 C18 0.5(5)
C17 C16 C15 C14 177.2(3)
C2 C3 C4 C5 0.0(6)
C2 C1 C6 C7 -179.7(3)
C2 C1 C6 C5 0.2(6)
C2 C1 C14 C13 148.8(3)
C2 C1 C14 C21 -99.0(4)
C2 C1 C14 C15 24.3(5)
C8 C7 C12 C13 177.4(4)
C8 C7 C12 C11 -1.7(6)
C8 C7 C6 C1 -164.6(4)
C8 C7 C6 C5 15.5(6)
C24 S2 C23 C22 0.9(3)
C24 S2 C23 C25 179.9(3)
C24 C21 C22 C23 -2.2(5)
C24 C21 C14 C13 -61.9(5)
C24 C21 C14 C1 -177.1(4)
C24 C21 C14 C15 59.4(5)
C16 C15 C14 C13 132.2(3)
C16 C15 C14 C1 -105.6(4)
C16 C15 C14 C21 16.0(5)
C11 C10 C9 C8 -0.5(7)
C4 C3 C2 C1 0.6(6)
C18 S1 C17 C16 -0.2(3)
C18 S1 C17 C19 179.7(3)
C18 C15 C14 C13 -51.6(5)
C18 C15 C14 C1 70.7(5)
C18 C15 C14 C21 -167.7(3)
C23 S2 C24 C21 -2.1(3)
C23 S2 C24 C26 176.7(3)
C9 C10 C11 C12 -0.4(7)
C12 C13 C14 C1 46.1(4)
C12 C13 C14 C21 -69.1(4)
C12 C13 C14 C15 170.2(3)
C12 C7 C8 C9 0.8(6)
C12 C7 C6 C1 18.0(6)
C12 C7 C6 C5 -161.9(4)
C22 C21 C24 S2 2.8(4)
C22 C21 C24 C26 -175.9(4)
C22 C21 C14 C13 118.3(4)
C22 C21 C14 C1 3.2(5)
C22 C21 C14 C15 -120.3(4)
C6 C7 C8 C9 -176.6(4)
C6 C7 C12 C13 -5.0(6)
C6 C7 C12 C11 175.9(4)
C6 C1 C2 C3 -0.7(6)
C6 C1 C14 C13 -35.1(5)
C6 C1 C14 C21 77.1(4)
C6 C1 C14 C15 -159.6(3)
C14 C13 C12 C7 -28.6(5)
C14 C13 C12 C11 150.5(3)
C14 C1 C2 C3 175.5(3)
C14 C1 C6 C7 4.2(5)
C14 C1 C6 C5 -175.9(3)
C14 C21 C24 S2 -177.0(3)
C14 C21 C24 C26 4.3(7)
C14 C21 C22 C23 177.6(4)
C20 C18 C15 C16 179.6(4)
C20 C18 C15 C14 3.0(6)
C25 C23 C22 C21 -178.4(4)
C19 C17 C16 C15 -180.0(4)
loop_
_refln_index_h
_refln_index_k
_refln_index_l
_refln_F_squared_meas
_refln_F_squared_sigma
-1 0 0 0.51 0.32
-1 0 0 0.49 0.31
-1 0 0 1.27 0.36
-1 0 0 0.33 0.28
-1 0 0 0.69 0.28
1 0 0 0.21 0.25
1 0 0 0.16 0.32
1 0 0 0.39 0.29
1 0 0 0.57 0.32
1 0 0 0.29 0.29
-2 0 0 5.95 0.87
-2 0 0 6.55 0.97
-2 0 0 6.92 0.89
-2 0 0 6.62 0.9
-2 0 0 7.21 0.83
2 0 0 7.71 0.91
2 0 0 7.07 0.88
2 0 0 7.84 0.89
2 0 0 6.78 0.82
2 0 0 7.36 0.77
-3 0 0 312.08 4.94
-3 0 0 322.73 4.99
-3 0 0 313.01 4.81
-3 0 0 322.71 4.54
3 0 0 321.93 4.98
3 0 0 317.04 4.77
3 0 0 323.03 5.02
3 0 0 315.85 4.92
3 0 0 308.14 4.47
-4 0 0 34.6 1.95
-4 0 0 34.65 1.98
-4 0 0 36.76 1.72
-4 0 0 36.13 2.01
4 0 0 35.93 1.85
4 0 0 34.3 1.84
4 0 0 37.59 1.95
4 0 0 35.01 1.89
4 0 0 36.6 1.83
4 0 0 33.65 1.61
-5 0 0 40.07 2.33
-5 0 0 47.18 2.09
-5 0 0 44.63 2.37
-5 0 0 43.45 2.25
5 0 0 41.55 2.12
5 0 0 40.02 2.14
5 0 0 42.22 2.23
5 0 0 43.07 1.96
-6 0 0 8.48 1.54
-6 0 0 9.28 1.68
6 0 0 11.61 1.73
-7 0 0 5.97 1.59
-7 0 0 9.2 1.92
7 0 0 7.32 1.49
7 0 0 8.73 1.75
7 0 0 7.34 1.62
-8 0 0 42.67 3.27
-8 0 0 39.27 2.95
8 0 0 38.97 2.87
8 0 0 43.11 2.78
8 0 0 42.76 3.25
-9 0 0 -0.81 1.38
-9 0 0 -1.87 1.44
9 0 0 0.6 1.29
9 0 0 0.72 1.29
9 0 0 1.71 1.57
-10 0 0 5.1 2.05
-10 0 0 2.58 1.6
10 0 0 3.32 1.54
10 0 0 4.03 2.04
10 0 0 1.32 1.39
11 0 0 2.49 2.05
11 0 0 3.54 1.88
11 0 0 2.13 1.43
12 0 0 5.28 1.54
12 0 0 2.58 1.98
12 0 0 -0.69 1.59
12 0 0 3.1 1.93
11 -1 0 3.35 1.86
11 -1 0 5.13 1.91
11 -1 0 4.71 2.17
11 -1 0 10.78 2.66
-11 1 0 6.53 2.22
10 -1 0 13.54 2.68
10 -1 0 16.77 2.95
10 -1 0 14.7 2.48
10 -1 0 16.83 2.51
-10 1 0 18.55 2.84
9 -1 0 2.47 1.56
9 -1 0 2.22 1.74
9 -1 0 2.7 1.56
-9 1 0 2.35 1.8
8 -1 0 9.91 2.16
8 -1 0 10.24 1.89
-8 1 0 10.54 1.84
-8 1 0 11.2 2.22
-8 1 0 7.53 2.07
7 -1 0 25.54 2.25
7 -1 0 24.06 2.42
-7 1 0 22.02 2.53
-7 1 0 21.95 2.39
-7 1 0 22.98 2.19
6 -1 0 13.26 1.72
6 -1 0 14.31 1.9
-6 1 0 13.02 1.94
-6 1 0 14.57 1.98
-6 1 0 13.11 1.74
5 -1 0 40.17 1.98
5 -1 0 40.92 2.3
5 -1 0 39.91 2.12
5 -1 0 41.15 2.05
-5 1 0 40.24 2.17
-5 1 0 38.87 2.42
-5 1 0 41.62 2.44
4 -1 0 6.81 1.07
4 -1 0 6.05 1.13
4 -1 0 7.66 1.2
4 -1 0 6.02 1.15
4 -1 0 5.31 1.05
4 -1 0 6.06 1.04
-4 1 0 5.45 0.98
-4 1 0 6.63 1.25
-4 1 0 4.99 1.18
3 -1 0 37.05 1.72
3 -1 0 37.92 1.62
3 -1 0 38.55 1.63
3 -1 0 41.02 1.71
3 -1 0 42.98 1.89
3 -1 0 38.45 1.78
-3 1 0 38 1.92
-3 1 0 37.27 1.6
-3 1 0 39.44 1.99
-3 1 0 39.1 1.73
2 -1 0 407.73 5.52
2 -1 0 403.65 4.89
2 -1 0 399.39 5.04
2 -1 0 403.19 5.11
2 -1 0 419.12 5.57
2 -1 0 402.37 5.1
-2 1 0 398.76 5.5
-2 1 0 396.2 5.09
-2 1 0 400.43 4.84
1 -1 0 4.94 0.51
1 -1 0 5.7 0.7
1 -1 0 4.46 0.58
1 -1 0 4.54 0.68
1 -1 0 5.44 0.76
-1 1 0 5.7 0.71
-1 1 0 5.11 0.72
-1 1 0 3.58 0.61
-1 1 0 4.62 0.57
-1 1 0 4.98 0.53
0 -1 0 0.32 0.24
0 -1 0 0.29 0.23
0 -1 0 0.25 0.29
0 1 0 0.71 0.3
0 1 0 0.43 0.23
0 1 0 0.47 0.28
-1 -1 0 116.31 1.94
-1 -1 0 114.19 1.96
-1 -1 0 114.06 1.84
1 1 0 114.19 1.73
1 1 0 114.05 1.8
1 1 0 111.3 1.9
1 1 0 116.1 1.94
-2 -1 0 148.48 2.36
-2 -1 0 149.01 2.13
-2 -1 0 146.4 2.86
-2 -1 0 145.97 2.62
2 1 0 145.85 2.58
2 1 0 153.4 2.83
2 1 0 150.98 2.13
2 1 0 151.91 2.34
2 1 0 150.45 2.81
-3 -1 0 391.55 4.93
-3 -1 0 384.55 5.51
-3 -1 0 391.5 5.81
3 1 0 391.61 5.84
3 1 0 384.28 4.95
3 1 0 394.44 4.91
3 1 0 380.52 5.74
3 1 0 394.57 5.68
3 1 0 385.45 5.47
3 1 0 389.43 4.93
-4 -1 0 19.18 1.66
-4 -1 0 16.11 1.47
-4 -1 0 17.78 1.37
4 1 0 17.19 1.54
4 1 0 16.41 1.22
4 1 0 18.47 1.33
4 1 0 18.5 1.56
4 1 0 17.71 1.43
4 1 0 15.26 1.28
4 1 0 15.87 1.5
-5 -1 0 0.43 0.98
-5 -1 0 -0.01 0.81
-5 -1 0 0.07 0.73
5 1 0 -0.13 0.69
5 1 0 0.84 0.63
5 1 0 1.12 0.92
5 1 0 0.53 0.63
-6 -1 0 72.17 2.8
-6 -1 0 64.87 3.13
-6 -1 0 71.19 3.2
6 1 0 69.62 3.08
6 1 0 67.12 2.64
6 1 0 71.34 2.67
-7 -1 0 1.18 1.05
-7 -1 0 -1.62 0.93
-7 -1 0 -0.72 1.1
7 1 0 0.23 1.14
7 1 0 0.54 0.94
-8 -1 0 3.65 1.6
-8 -1 0 4.51 1.5
8 1 0 5.43 1.44
8 1 0 5.01 1.71
-9 -1 0 3.13 1.62
-9 -1 0 5.97 2
9 1 0 7.98 1.63
9 1 0 6.83 2.06
9 1 0 9.78 2.12
-10 -1 0 1.46 1.91
-10 -1 0 2.65 1.58
10 1 0 3.02 1.66
10 1 0 3.1 1.88
10 1 0 2.04 1.23
-11 -1 0 1.95 1.99
11 1 0 2.33 1.82
11 1 0 0.49 1.83
11 1 0 4.94 1.74
-12 -1 0 3.61 2.04
12 1 0 0.35 1.96
12 1 0 2.5 1.99
11 -2 0 -0.1 1.72
11 -2 0 1.78 1.53
11 -2 0 0.87 1.81
-11 2 0 1.36 1.73
10 -2 0 5.2 1.44
10 -2 0 7.84 2.24
10 -2 0 6.5 2.01
-10 2 0 7.57 2.36
9 -2 0 15 2.43
9 -2 0 10.51 1.97
9 -2 0 12.15 2.52
-9 2 0 12.82 2.79
-9 2 0 14.64 2.4
8 -2 0 45.02 2.87
8 -2 0 47.1 3.2
8 -2 0 47.96 3.46
-8 2 0 46.55 3.56
-8 2 0 40.79 2.98
7 -2 0 44.69 3
7 -2 0 44.32 2.58
7 -2 0 44.03 3.2
-7 2 0 45.32 2.89
-7 2 0 42.95 3.19
6 -2 0 0.25 0.85
6 -2 0 0.16 1.04
6 -2 0 -0.99 1.03
-6 2 0 -0.29 0.87
-6 2 0 0.71 1.17
5 -2 0 64.83 2.78
5 -2 0 64.67 2.55
5 -2 0 66.97 3.01
-5 2 0 66.95 3.17
-5 2 0 70.26 2.91
4 -2 0 381.81 6.22
4 -2 0 382.24 6.24
4 -2 0 406.72 6.94
4 -2 0 385.82 5.94
4 -2 0 391.22 6.29
-4 2 0 381.62 6.31
-4 2 0 382.46 6.98
-4 2 0 391.4 5.82
3 -2 0 36.35 2
3 -2 0 38.9 2.02
3 -2 0 36.24 1.51
3 -2 0 36.44 1.69
3 -2 0 37.7 1.98
3 -2 0 36.62 1.76
-3 2 0 38.01 2.11
-3 2 0 34.34 1.85
-3 2 0 38.14 1.53
2 -2 0 -0.29 0.66
2 -2 0 -0.19 0.56
2 -2 0 0.32 0.68
2 -2 0 -0.18 0.6
2 -2 0 -0.1 0.45
-2 2 0 0.17 0.68
-2 2 0 0.43 0.84
-2 2 0 -0.38 0.52
-2 2 0 -0.59 0.47
-2 2 0 0.22 0.64
1 -2 0 152.93 3.04
1 -2 0 160.82 2.92
1 -2 0 158.71 3.09
1 -2 0 157.18 2.14
1 -2 0 156.86 2.45
-1 2 0 155.59 2.16
-1 2 0 157.01 3.12
-1 2 0 162.52 2.98
-1 2 0 153.9 3.05
-1 2 0 157.26 2.45
0 -2 0 145.5 2.63
0 -2 0 139.43 2.49
0 -2 0 145.08 2.21
0 -2 0 138.69 2.05
0 2 0 144.59 2.59
0 2 0 142.57 2.5
0 2 0 143.99 2.12
0 2 0 139.58 2.2
0 2 0 144.28 2.45
-1 -2 0 14.63 0.97
-1 -2 0 13.36 0.92
-1 -2 0 13.14 0.95
-1 -2 0 13.52 0.61
-1 -2 0 13.44 1
1 2 0 12.95 0.96
1 2 0 14.67 0.89
1 2 0 13.73 0.92
1 2 0 12.01 0.96
-2 -2 0 45.98 1.74
-2 -2 0 44.16 1.68
-2 -2 0 43.48 1.56
2 2 0 44.08 1.68
2 2 0 42.57 1.54
2 2 0 47.04 1.57
2 2 0 42.5 1.66
-3 -2 0 25.9 1.29
-3 -2 0 26.2 1.49
-3 -2 0 24.61 1.67
-3 -2 0 25.64 0.97
3 2 0 25.48 0.96
3 2 0 25.67 1.58
3 2 0 24.92 1.33
3 2 0 24.15 1.38
3 2 0 27.87 1.72
-4 -2 0 66.8 1.85
-4 -2 0 63.35 2.37
-4 -2 0 65.7 2.65
-4 -2 0 69.78 2.17
4 2 0 67.89 2.61
4 2 0 74.45 2.71
4 2 0 69.7 1.84
4 2 0 67.74 2.62
4 2 0 66.63 2.35
4 2 0 67.04 2.08
-5 -2 0 59.37 2.83
-5 -2 0 59.61 2.6
-5 -2 0 61.87 2.09
5 2 0 56.77 2.67
5 2 0 60.34 2.2
5 2 0 58.59 1.99
5 2 0 57.82 2.16
-6 -2 0 20.47 1.61
-6 -2 0 22.58 2.16
-6 -2 0 23.48 2.06
6 2 0 23.94 2.15
6 2 0 20.19 1.48
6 2 0 21.84 1.65
6 2 0 23.45 1.72
-7 -2 0 -0.21 1.15
-7 -2 0 1.76 0.98
-7 -2 0 1.77 1.38
7 2 0 0.21 1.08
7 2 0 3.05 1.03
-8 -2 0 0.59 1.4
-8 -2 0 2.04 1.23
-8 -2 0 2.64 1.51
8 2 0 0.22 1.27
8 2 0 3.51 1.17
-9 -2 0 20.04 2.24
-9 -2 0 17.48 2.55
-9 -2 0 19.78 2.81
9 2 0 15.8 2.05
9 2 0 17.46 2.67
-10 -2 0 -0.28 1.75
-10 -2 0 1.9 1.35
10 2 0 -0.01 1.81
10 2 0 1.17 1.61
10 2 0 -1.29 0.97
-11 -2 0 3.16 2.09
11 2 0 -0.88 1.86
11 2 0 1.46 1.25
11 2 0 5.01 2.24
-12 -2 0 -1.54 1.67
12 2 0 0.4 1.95
12 2 0 -0.51 1.69
11 -3 0 1.29 1.51
11 -3 0 0.14 2.04
-11 3 0 -0.78 1.66
10 -3 0 16.63 2.5
10 -3 0 16.39 3.03
-10 3 0 14.99 2.36
-10 3 0 18.25 3.25
9 -3 0 18.94 3.07
9 -3 0 19.49 2.67
9 -3 0 18.52 2.26
-9 3 0 16.52 2.6
-9 3 0 22.97 3.3
8 -3 0 1.72 1.21
8 -3 0 1.38 1.58
8 -3 0 0.28 1.15
-8 3 0 -0.48 1.45
-8 3 0 -1.23 1.13
7 -3 0 91.16 3.91
7 -3 0 98.82 3.45
7 -3 0 93.69 4.47
-7 3 0 97.6 4.64
-7 3 0 93.78 4.05
6 -3 0 54.96 2.84
6 -3 0 53.59 3.28
6 -3 0 55.84 2.42
-6 3 0 56.25 3.38
-6 3 0 53.4 3.02
5 -3 0 5.84 1.05
5 -3 0 3.18 1.3
5 -3 0 6.3 1.3
-5 3 0 7.76 1.68
-5 3 0 6.42 1.37
-5 3 0 6.79 1.13
4 -3 0 1.15 0.6
4 -3 0 1.06 1.08
4 -3 0 0.92 0.72
4 -3 0 0.3 0.75
-4 3 0 0.6 1.03
-4 3 0 1 0.66
-4 3 0 0.9 0.94
3 -3 0 10.61 0.95
3 -3 0 10.98 1.3
3 -3 0 10.07 1.19
3 -3 0 12.01 1.54
-3 3 0 10.23 1.37
-3 3 0 8.33 1.01
-3 3 0 8.13 1.39
-3 3 0 10.66 1.13
2 -3 0 191.79 3.4
2 -3 0 186.74 2.79
2 -3 0 189.38 3.9
2 -3 0 183.85 4.17
2 -3 0 188.26 4.2
-2 3 0 189.63 4.25
-2 3 0 184.07 2.93
-2 3 0 191.32 4.02
-2 3 0 188.18 3.36
-2 3 0 191.24 4.24
1 -3 0 139.16 3.11
1 -3 0 137.51 2.21
1 -3 0 140.38 3.24
1 -3 0 136.54 3.26
1 -3 0 138.47 2.63
-1 3 0 140.44 2.26
-1 3 0 138.76 3.13
-1 3 0 134.11 3.23
-1 3 0 139.49 2.6
-1 3 0 134.81 3.24
0 -3 0 134.69 3.02
0 -3 0 133.3 2.35
0 -3 0 136.11 2.54
0 -3 0 138.76 2.96
0 3 0 128.57 2.96
0 3 0 134.19 2.77
0 3 0 135.04 2.51
0 3 0 134.76 2.38
-1 -3 0 33.35 1.18
-1 -3 0 35.25 1.48
-1 -3 0 36.38 1.57
-1 -3 0 35.34 1.63
-1 -3 0 33.77 1.42
1 3 0 34.55 1.51
1 3 0 34.84 1.26
1 3 0 34.08 1.49
1 3 0 36.93 1.59
-2 -3 0 -0.04 0.6
-2 -3 0 0.11 0.6
-2 -3 0 0.05 0.74
-2 -3 0 0.22 0.72
2 3 0 0.41 0.67
2 3 0 0.71 0.66
2 3 0 -0.38 0.56
2 3 0 0.93 0.77
-3 -3 0 36.57 1.94
-3 -3 0 36.51 1.84
-3 -3 0 32.33 1.77
3 3 0 33.01 1.87
3 3 0 35.35 1.7
3 3 0 34.89 1.74
3 3 0 37.27 1.85
-4 -3 0 17.54 1.33
-4 -3 0 16.04 1.7
-4 -3 0 16.88 1.52
-4 -3 0 15.84 0.8
4 3 0 16.48 1.46
4 3 0 15.58 1.59
4 3 0 18.25 1.44
-5 -3 0 22.54 1.55
-5 -3 0 18.71 1.96
-5 -3 0 23.3 1.86
-5 -3 0 22.4 1.17
5 3 0 23.79 2.03
5 3 0 21.13 1.15
5 3 0 19.86 1.62
-6 -3 0 12 1.81
-6 -3 0 13.5 1.25
-6 -3 0 11.88 1.89
6 3 0 13.67 1.91
6 3 0 13.29 1.59
6 3 0 14.81 1.14
-7 -3 0 5.31 1.66
-7 -3 0 5.48 1.14
-7 -3 0 7.02 1.62
7 3 0 4.78 1.53
7 3 0 6.28 1.3
7 3 0 5 0.89
-8 -3 0 28.3 1.97
-8 -3 0 35.58 3.06
-8 -3 0 24.78 2.67
8 3 0 26.4 2.21
8 3 0 26.68 2.85
-9 -3 0 2.85 1.7
-9 -3 0 5.8 1.9
9 3 0 4.56 1.46
9 3 0 4.32 1.85
-10 -3 0 11.97 2.73
-10 -3 0 11.25 2.53
10 3 0 6.32 1.71
10 3 0 5.07 2.01
-11 -3 0 13.44 2.83
11 3 0 12.5 2.11
11 3 0 14.35 3
11 3 0 10.66 2.73
-12 -3 0 4.31 2.06
12 3 0 5.27 2.26
12 3 0 3.32 2.33
10 -4 0 -2.7 1.53
10 -4 0 -1.46 1.06
-10 4 0 -0.02 1.47
-10 4 0 -0.04 1.85
9 -4 0 40.31 3.14
9 -4 0 35 3.82
-9 4 0 30.58 3.78
-9 4 0 36.44 3.53
8 -4 0 2.18 1.4
8 -4 0 2.31 1.17
8 -4 0 1.4 1.71
-8 4 0 2.65 1.59
-8 4 0 5.56 2.23
7 -4 0 10.78 1.61
7 -4 0 13.23 2.49
7 -4 0 15.19 2.05
-7 4 0 12.97 2.47
-7 4 0 11.21 2.05
6 -4 0 4.67 1.35
6 -4 0 2.54 1.52
6 -4 0 3.16 0.82
-6 4 0 6.05 1.81
-6 4 0 4.57 1.5
5 -4 0 1 0.61
5 -4 0 0.58 1.16
5 -4 0 4.15 1.16
-5 4 0 2.37 0.85
-5 4 0 1.03 1.06
-5 4 0 0.88 1.18
4 -4 0 93.79 3.74
4 -4 0 94.16 2.41
4 -4 0 96.91 3.03
-4 4 0 93.01 3.56
-4 4 0 96.37 2.5
-4 4 0 93.39 3.79
3 -4 0 20.09 1.08
3 -4 0 21.35 1.52
3 -4 0 20.32 1.97
-3 4 0 23.25 1.95
-3 4 0 19.07 1.93
-3 4 0 18.78 1.36
-3 4 0 20.53 1.22
2 -4 0 38.14 1.71
2 -4 0 36.62 2.17
2 -4 0 38.86 1.3
-2 4 0 36.45 2.08
-2 4 0 36.73 2.19
-2 4 0 38.25 1.38
-2 4 0 40.06 1.64
1 -4 0 4.37 1.06
1 -4 0 5.5 1.05
1 -4 0 5.11 0.76
1 -4 0 4.49 1.01
1 -4 0 4.32 0.84
-1 4 0 6.64 1.23
-1 4 0 4.6 1.08
-1 4 0 4.21 0.68
-1 4 0 3.22 0.98
-1 4 0 4.35 0.79
0 -4 0 14.52 1.56
0 -4 0 20.48 1.29
0 -4 0 18.95 1.45
0 -4 0 19.03 1.13
0 4 0 18.04 1.22
0 4 0 17.92 1.52
0 4 0 18.37 1.5
0 4 0 16.71 1.4
0 4 0 18.26 1.19
-1 -4 0 71.69 2.13
-1 -4 0 70.63 2.2
-1 -4 0 70 2.35
-1 -4 0 69.69 1.96
-1 -4 0 67.02 2.42
1 4 0 69.65 2.4
1 4 0 69.17 2.17
1 4 0 64.77 1.96
1 4 0 68.61 2.36
-2 -4 0 16.14 1.46
-2 -4 0 16.06 1.43
-2 -4 0 16.66 1.44
-2 -4 0 14.55 1.31
-2 -4 0 15.37 0.86
-2 -4 0 16.09 0.88
2 4 0 13.84 1.31
2 4 0 16 1.39
2 4 0 16.79 1.51
2 4 0 14.44 1.47
-3 -4 0 18.2 1.54
-3 -4 0 16.37 1.42
-3 -4 0 17.82 1.64
-3 -4 0 15.34 1.45
3 4 0 17.31 1.61
3 4 0 17.23 1.47
3 4 0 16.28 1.53
3 4 0 17.95 1.42
-4 -4 0 4.73 1.23
-4 -4 0 4.98 1.17
4 4 0 3.88 1.12
4 4 0 4.38 1.08
-5 -4 0 8.09 1.43
-5 -4 0 7.09 1.51
-5 -4 0 8.89 1.21
5 4 0 8 1.47
5 4 0 7.18 1.28
-6 -4 0 34.3 2.72
-6 -4 0 30.49 2.4
6 4 0 32.6 1.26
6 4 0 34.45 2.18
6 4 0 33.4 2.58
-7 -4 0 10.97 1.89
-7 -4 0 9.62 2.01
7 4 0 9.5 1.6
7 4 0 9.1 1.9
7 4 0 8.2 0.98
-8 -4 0 23.74 2.56
-8 -4 0 22.07 2.86
8 4 0 24.05 2.21
8 4 0 25.41 2.91
8 4 0 21.43 1.43
-9 -4 0 24.04 2.93
-9 -4 0 20.71 2.97
9 4 0 22.02 3.08
9 4 0 24.7 1.86
9 4 0 25.77 2.43
-10 -4 0 3.66 1.92
-10 -4 0 5.35 2.31
10 4 0 0.45 1.97
10 4 0 2.57 1.35
-11 -4 0 1.73 2.14
-11 -4 0 1.61 1.98
11 4 0 -0.42 2.01
11 4 0 -0.5 1.1
-12 -4 0 4.6 2.06
12 4 0 4.47 2.32
12 4 0 5.87 2.49
10 -5 0 -1.46 0.97
10 -5 0 -1.66 1.45
-10 5 0 0.32 1.56
-10 5 0 0.55 1.84
9 -5 0 26.6 2.6
9 -5 0 22.28 3.45
-9 5 0 20.4 3.53
-9 5 0 28.29 3.21
8 -5 0 1.74 1.34
8 -5 0 3.83 2
-8 5 0 4.34 2.2
-8 5 0 0.43 1.41
7 -5 0 2.55 1.2
7 -5 0 -0.88 1.54
7 -5 0 4.03 1.01
-7 5 0 -1.38 1.32
-7 5 0 1.39 1.75
6 -5 0 40.7 3.47
6 -5 0 40.21 2.6
-6 5 0 42.7 3.51
-6 5 0 40.47 3.07
5 -5 0 4.98 1.66
5 -5 0 5.15 1.29
5 -5 0 7.15 0.89
-5 5 0 3.31 1.53
-5 5 0 4.7 0.9
-5 5 0 3.6 1.64
4 -5 0 31.53 2.55
4 -5 0 31.02 2.01
4 -5 0 32.03 1.42
-4 5 0 34.44 2.57
-4 5 0 32.58 1.53
-4 5 0 34.42 2.72
3 -5 0 9.99 1.33
3 -5 0 8.25 1.59
3 -5 0 9.73 0.88
-3 5 0 9.91 1
-3 5 0 12.29 1.95
-3 5 0 9 1.57
-3 5 0 8.65 1.08
2 -5 0 29 1.64
2 -5 0 26.37 1.19
2 -5 0 26.89 2.14
-2 5 0 26.87 2.17
-2 5 0 27.55 1.5
-2 5 0 27.68 1.3
-2 5 0 27.01 2.06
1 -5 0 68.75 2.89
1 -5 0 71.02 1.9
1 -5 0 72.58 2.34
-1 5 0 70.1 2.85
-1 5 0 69.52 2.02
-1 5 0 68.82 2.22
-1 5 0 70.92 2.91
0 -5 0 9.8 1.2
0 -5 0 10.41 1.04
0 -5 0 10.46 1.51
0 5 0 11.86 1.52
0 5 0 10.85 1.18
0 5 0 9.74 1.52
0 5 0 9.11 1.14
-1 -5 0 3.72 0.8
-1 -5 0 2.18 0.98
-1 -5 0 4.03 0.99
-1 -5 0 3.36 0.79
1 5 0 3.3 0.92
1 5 0 4.46 1.09
1 5 0 3.48 0.85
1 5 0 5.06 0.98
-2 -5 0 0.86 0.49
-2 -5 0 0.67 0.68
-2 -5 0 0.04 0.83
-2 -5 0 0.46 0.85
-2 -5 0 0.01 0.52
2 5 0 -0.31 0.61
2 5 0 -0.9 0.78
2 5 0 -0.12 0.8
-3 -5 0 0.71 0.99
-3 -5 0 1.76 1.01
3 5 0 1.3 0.96
3 5 0 1.27 0.9
-4 -5 0 92.88 3.37
-4 -5 0 95.34 3.44
4 5 0 94.74 3.16
4 5 0 91.44 3.44
-5 -5 0 0.76 1.01
-5 -5 0 1.36 1.18
5 5 0 -0.04 1.02
5 5 0 0.39 1.02
-6 -5 0 30.65 2.67
-6 -5 0 27.35 2.39
6 5 0 24.81 2.52
6 5 0 25.51 2.19
-7 -5 0 14.31 2.31
-7 -5 0 16.71 2.33
7 5 0 10.79 2.15
7 5 0 17.66 2.07
-8 -5 0 1.14 1.42
-8 -5 0 2.51 1.61
8 5 0 -0.42 1.11
8 5 0 1.23 1.61
-9 -5 0 -0.8 1.6
-9 -5 0 0.29 1.68
9 5 0 0.63 1.22
9 5 0 2.08 1.68
-10 -5 0 7.83 2.21
-10 -5 0 10.66 2.64
10 5 0 5.19 1.72
10 5 0 11.5 2.79
-11 -5 0 25.02 3.81
-11 -5 0 22.99 3.25
11 5 0 26.55 3.78
11 5 0 25.71 2.85
-12 -5 0 6.72 2.58
12 5 0 1.23 2.21
9 -6 0 -0.16 1.72
-9 6 0 2.25 1.77
-9 6 0 2.48 1.83
8 -6 0 28.51 2.5
8 -6 0 31.01 3.67
-8 6 0 22.69 3.66
-8 6 0 28.4 3.38
7 -6 0 4.01 1.47
7 -6 0 4.55 2.1
-7 6 0 5.04 1.9
-7 6 0 5.73 2.25
6 -6 0 25.39 1.54
6 -6 0 18.18 2.83
6 -6 0 25.73 2.3
-6 6 0 26.82 3.18
-6 6 0 26.82 2.86
5 -6 0 1.66 1.47
5 -6 0 5.68 1.3
5 -6 0 2.58 0.64
-5 6 0 5.43 1.71
-5 6 0 2.48 0.69
-5 6 0 5.48 1.88
4 -6 0 1.35 0.96
4 -6 0 -0.23 1.11
4 -6 0 0.31 0.44
-4 6 0 -0.65 1.16
-4 6 0 -0.45 1.28
-4 6 0 1.19 0.57
3 -6 0 46.1 1.57
3 -6 0 46.69 3.06
3 -6 0 45.22 2.27
-3 6 0 46.57 3.12
-3 6 0 45.67 2.08
-3 6 0 48 1.73
-3 6 0 49.8 2.98
2 -6 0 1.91 1.19
2 -6 0 1.91 0.58
2 -6 0 2.06 0.93
-2 6 0 1.53 1.16
-2 6 0 2.2 0.72
-2 6 0 1.8 1.23
-2 6 0 2.78 0.67
1 -6 0 3.13 0.92
1 -6 0 2.45 1.2
1 -6 0 1.65 0.64
-1 6 0 3.25 1.21
-1 6 0 2.11 1.08
-1 6 0 2.61 0.77
-1 6 0 3.61 0.84
0 -6 0 3.45 0.93
0 -6 0 1.84 0.69
0 -6 0 1.5 1.11
0 6 0 1 0.73
0 6 0 1.99 0.99
0 6 0 2.67 1.17
0 6 0 1.46 0.71
-1 -6 0 100.53 3.06
-1 -6 0 99.06 2.88
-1 -6 0 101.08 3.55
-1 -6 0 97.91 2.88
1 6 0 96.29 3.38
1 6 0 98.72 2.98
1 6 0 102.21 3.04
1 6 0 97.74 2.98
-2 -6 0 94.44 3.17
-2 -6 0 99.43 3.52
-2 -6 0 99.95 2.53
-2 -6 0 99.32 2.58
2 6 0 100.31 3.44
2 6 0 103.73 3.25
-3 -6 0 26.29 2.19
-3 -6 0 24.29 1.12
-3 -6 0 25.26 1.07
-3 -6 0 27.11 2
3 6 0 27.21 2.03
3 6 0 26.24 2.13
-4 -6 0 14.45 1.8
-4 -6 0 10.68 1.69
4 6 0 12.24 1.77
4 6 0 13.26 2.01
-5 -6 0 6.7 1.51
-5 -6 0 4.57 1.55
5 6 0 4.14 1.45
5 6 0 7.08 1.46
-6 -6 0 -0.67 1.07
-6 -6 0 0.03 1.17
6 6 0 -0.42 1.31
6 6 0 1.16 1.15
-7 -6 0 15.5 2.58
-7 -6 0 15.42 2.28
7 6 0 14.23 2.12
7 6 0 20.37 2.67
-8 -6 0 15.74 2.8
-8 -6 0 17.82 2.69
8 6 0 13.86 2.52
8 6 0 15.17 2.41
-9 -6 0 25.23 3.03
-9 -6 0 19.48 3.08
9 6 0 22.97 2.61
9 6 0 23.11 3.32
-10 -6 0 18.71 3.11
-10 -6 0 14.18 3.04
10 6 0 21.58 3.54
10 6 0 15.56 2.5
-11 -6 0 -0.3 2.03
-11 -6 0 1.56 1.7
11 6 0 4.79 2.6
11 6 0 2.34 1.51
-12 -6 0 1.47 1.9
-12 -6 0 0.73 2.14
12 6 0 1.22 2.43
9 -7 0 7.07 2.6
-9 7 0 4.04 2
-9 7 0 6.69 2.52
8 -7 0 8.43 2.64
-8 7 0 7.64 2.43
-8 7 0 8.81 2.69
7 -7 0 4.16 1.28
7 -7 0 1.58 1.87
-7 7 0 1.07 1.94
-7 7 0 2.09 1.81
6 -7 0 2.46 1.93
6 -7 0 3.71 1.16
-6 7 0 4.25 1.91
-6 7 0 -0.5 1.73
5 -7 0 32.83 2.39
5 -7 0 29.89 3.15
-5 7 0 36.53 3.3
-5 7 0 39.26 3.57
4 -7 0 12.99 2.36
4 -7 0 12.37 1.66
-4 7 0 11.43 2.14
-4 7 0 11.43 0.99
-4 7 0 8.85 2.18
3 -7 0 12.56 0.99
3 -7 0 14.31 1.66
3 -7 0 9.67 1.97
-3 7 0 14.19 2.39
-3 7 0 15.36 2.25
-3 7 0 14.65 1.15
2 -7 0 7.41 1.28
2 -7 0 4.93 1.43
2 -7 0 6.89 0.91
-2 7 0 6.04 0.98
-2 7 0 4.68 1.51
-2 7 0 5.37 0.89
-2 7 0 6.3 1.59
1 -7 0 29.74 2.49
1 -7 0 25.94 1.47
1 -7 0 28.12 1.86
-1 7 0 31.94 2.63
-1 7 0 25.43 2.38
-1 7 0 22.82 1.6
-1 7 0 31.44 1.69
0 -7 0 51.88 2.38
0 -7 0 53.97 2.97
0 -7 0 52.48 2.08
0 7 0 55.19 2.38
0 7 0 58.41 2.35
0 7 0 58.59 2.88
0 7 0 54.69 3
-1 -7 0 19.3 1.54
-1 -7 0 18.61 1.72
-1 -7 0 17.88 2.04
1 7 0 19.18 1.74
1 7 0 23.02 1.89
1 7 0 16.92 2.01
-2 -7 0 15.35 1.39
-2 -7 0 12.8 1.65
-2 -7 0 12.04 1.94
-2 -7 0 11.92 1.17
2 7 0 13.88 1.89
2 7 0 13.84 1.84
-3 -7 0 2.43 0.58
-3 -7 0 1.98 0.68
-3 -7 0 1.95 1.14
-3 -7 0 1.12 1.12
3 7 0 2.43 1.25
3 7 0 2.67 1.24
-4 -7 0 12.13 1.92
-4 -7 0 13.57 1.93
4 7 0 14.51 1.91
4 7 0 15.2 2.13
-5 -7 0 10.53 1.94
-5 -7 0 10.31 1.92
5 7 0 11.47 1.89
5 7 0 11.09 2.03
-6 -7 0 15.33 2.32
-6 -7 0 12.27 2.22
6 7 0 13.92 2.38
6 7 0 13.15 2.06
-7 -7 0 48.53 3.39
-7 -7 0 50.4 3.71
7 7 0 46.85 3.14
7 7 0 47.68 3.67
-8 -7 0 5.23 2.02
-8 -7 0 9.28 2.43
8 7 0 7.33 2.25
8 7 0 9.53 1.95
-9 -7 0 -1.56 1.53
-9 -7 0 -0.79 1.6
9 7 0 1.1 1.91
9 7 0 1.06 1.52
-10 -7 0 3.27 2.17
-10 -7 0 1.38 1.72
10 7 0 -1.38 1.9
10 7 0 -2.45 1.34
-11 -7 0 14.7 3.1
-11 -7 0 8.75 3.01
11 7 0 10.22 3.07
8 -8 0 -1.37 1.72
-8 8 0 3.74 2.22
-8 8 0 2.48 1.93
7 -8 0 5.57 2.32
-7 8 0 10.07 2.57
-7 8 0 6.6 2.51
6 -8 0 19.85 2.13
6 -8 0 16.93 3.04
-6 8 0 16.02 3.23
-6 8 0 17.58 3.16
5 -8 0 6.95 2.25
5 -8 0 6.36 1.4
-5 8 0 5.73 2.03
-5 8 0 1.11 1.75
4 -8 0 1.28 1.56
4 -8 0 1.65 1.01
-4 8 0 0.51 1.6
-4 8 0 1.41 1.55
3 -8 0 56.38 2.76
3 -8 0 58.68 3.77
-3 8 0 58.66 3.74
-3 8 0 60.3 4.02
-3 8 0 56.75 1.94
2 -8 0 38.59 3.13
2 -8 0 37.56 2.22
2 -8 0 38.13 1.67
-2 8 0 37.43 1.77
-2 8 0 40.25 3.23
-2 8 0 42.59 3.21
1 -8 0 0.39 0.76
1 -8 0 -0.41 1.11
1 -8 0 0.61 0.58
-1 8 0 -0.68 1.2
-1 8 0 1 1.19
-1 8 0 -0.07 0.62
0 -8 0 1.66 1.24
0 -8 0 1.32 0.95
0 -8 0 0.94 0.64
0 8 0 1.78 1.27
0 8 0 0.11 1.09
0 8 0 1.27 0.91
-1 -8 0 7.45 1.47
-1 -8 0 5.14 1.53
1 8 0 5.8 1.35
1 8 0 6.89 1.48
1 8 0 4.61 1.53
-2 -8 0 29.28 2.23
-2 -8 0 31 2.68
-2 -8 0 27.44 1.64
-2 -8 0 30.58 1.98
2 8 0 34.13 2.62
2 8 0 31.97 2.41
-3 -8 0 14.58 1.15
-3 -8 0 13.2 1.26
-3 -8 0 14.58 1.98
-3 -8 0 16.68 2.22
3 8 0 17.4 2.31
3 8 0 13.05 2.14
-4 -8 0 16.87 1.02
-4 -8 0 19.24 2.15
-4 -8 0 17.59 2.39
4 8 0 14.36 2.17
4 8 0 17.94 2.38
-5 -8 0 29.68 2.69
-5 -8 0 29.72 2.7
5 8 0 36.09 3.06
5 8 0 30.44 2.7
-6 -8 0 4.91 1.78
-6 -8 0 5.59 1.73
6 8 0 5.81 1.88
6 8 0 3.26 1.52
-7 -8 0 -0.08 1.53
-7 -8 0 1.88 1.54
7 8 0 1.89 1.87
7 8 0 1.87 1.54
-8 -8 0 2.57 1.73
-8 -8 0 2.19 1.92
8 8 0 0.11 1.87
8 8 0 0.62 1.4
-9 -8 0 3.82 1.96
-9 -8 0 1.18 2.02
9 8 0 4.75 2.37
9 8 0 5.86 1.9
-10 -8 0 26.91 3.56
-10 -8 0 32.51 3.73
10 8 0 33.05 3.2
10 8 0 25.81 3.86
-11 -8 0 -0.42 1.55
-11 -8 0 0.87 2.25
11 8 0 3.35 2.35
7 -9 0 -0.24 1.9
-7 9 0 -0.41 1.63
-7 9 0 0.83 1.91
6 -9 0 -1.97 1.58
-6 9 0 2.67 2.03
-6 9 0 1.7 1.83
5 -9 0 31.4 3.58
-5 9 0 24.51 3.6
-5 9 0 31.06 3.52
4 -9 0 18.94 1.95
4 -9 0 18.44 2.97
-4 9 0 22.45 3.28
-4 9 0 21.86 3.32
3 -9 0 7.94 2.24
3 -9 0 6.31 1.49
-3 9 0 5.51 2.14
-3 9 0 5.39 1.85
2 -9 0 0.45 0.93
2 -9 0 1.65 1.53
-2 9 0 0.25 0.61
-2 9 0 -0.66 1.48
-2 9 0 0.66 1.38
1 -9 0 0.92 0.64
1 -9 0 1.08 1.4
1 -9 0 0.38 0.87
-1 9 0 1.27 0.79
-1 9 0 -0.24 1.44
-1 9 0 1.54 1.48
0 -9 0 34.62 3.08
0 -9 0 38.39 2.39
0 9 0 36.66 2.28
0 9 0 32.64 2.92
0 9 0 40.92 2.91
-1 -9 0 18.27 2.39
-1 -9 0 18.82 1.96
1 9 0 18.07 2.63
1 9 0 18.58 2.04
-2 -9 0 -0.12 0.88
-2 -9 0 -0.92 0.97
-2 -9 0 -1 1.17
2 9 0 0.6 1.14
2 9 0 -0.47 1.23
-3 -9 0 5.54 0.9
-3 -9 0 6.8 1.16
-3 -9 0 5.85 1.81
-3 -9 0 3.85 1.39
3 9 0 6.79 1.76
3 9 0 7.11 1.81
-4 -9 0 6.26 1
-4 -9 0 11.88 2.24
-4 -9 0 8.44 0.84
-4 -9 0 9.29 1.93
4 9 0 7.72 2
4 9 0 8.61 2.07
-5 -9 0 2.71 1.61
-5 -9 0 2.86 1.53
5 9 0 3.63 1.76
5 9 0 2.16 1.57
-6 -9 0 0.98 1.55
-6 -9 0 3.98 1.92
6 9 0 3.87 1.72
6 9 0 1.32 1.75
-7 -9 0 5.57 2.09
-7 -9 0 7.68 2.2
7 9 0 5.83 1.93
7 9 0 5.19 2.28
-8 -9 0 13.42 2.58
-8 -9 0 17.04 3.05
8 9 0 14.56 2.58
8 9 0 10.76 2.68
-9 -9 0 3.1 2.04
-9 -9 0 0.54 1.92
9 9 0 4.4 2.36
9 9 0 2.78 1.77
-10 -9 0 1.07 1.98
-10 -9 0 -0.13 2
10 9 0 -0.98 1.95
10 9 0 2.65 1.62
-11 -9 0 3.24 2.49
-11 -9 0 1.02 1.94
11 9 0 1.57 2.16
6 -10 0 0.28 2.03
-6 10 0 -1.51 1.71
-6 10 0 1.24 2.16
5 -10 0 2.33 2.03
-5 10 0 1.23 1.97
-5 10 0 4.32 2.21
4 -10 0 2.45 2.09
-4 10 0 2.16 1.93
-4 10 0 2.16 1.94
3 -10 0 0.22 0.99
3 -10 0 0.82 1.62
-3 10 0 2.62 1.76
-3 10 0 3.78 2.07
2 -10 0 56.51 2.83
2 -10 0 58.45 4.12
-2 10 0 50.78 3.91
-2 10 0 57.62 4.02
1 -10 0 0.85 1.52
1 -10 0 0.25 0.93
-1 10 0 3.12 0.86
-1 10 0 2.11 1.77
-1 10 0 0.81 1.41
0 -10 0 5.97 1.44
0 -10 0 2.6 1.6
0 10 0 4.16 1.84
0 10 0 5.66 1.33
-1 -10 0 14.21 2.09
-1 -10 0 14.56 2.5
-1 -10 0 12.43 1.88
1 10 0 18.03 2.05
1 10 0 11.8 2.41
-2 -10 0 3.46 1.65
-2 -10 0 1.61 1.01
-2 -10 0 2.69 1.32
2 10 0 1.71 1.52
2 10 0 2.27 1.27
-3 -10 0 2.27 1.61
-3 -10 0 -0.03 0.79
-3 -10 0 -0.78 1.01
3 10 0 -0.28 1.41
3 10 0 0.52 1.35
-4 -10 0 -0.91 1.26
-4 -10 0 0.78 1.2
-4 -10 0 -0.28 0.58
4 10 0 1.65 1.44
4 10 0 -1.35 1.38
-5 -10 0 0.13 1.42
-5 -10 0 -0.44 1.25
5 10 0 1.37 1.74
5 10 0 0.68 1.6
-6 -10 0 35.61 3.36
-6 -10 0 35.79 3.52
6 10 0 34.02 3.34
6 10 0 45.18 3.86
-7 -10 0 7.14 2.15
-7 -10 0 3.57 2.1
7 10 0 4.62 2.29
7 10 0 7.62 2.23
-8 -10 0 1.68 1.75
-8 -10 0 0.57 1.95
8 10 0 2.98 1.78
8 10 0 1.88 2.2
-9 -10 0 3.18 2.21
-9 -10 0 0.13 2.02
9 10 0 1.84 1.84
9 10 0 1.67 2.29
-10 -10 0 18.3 3.6
-10 -10 0 19.97 3.31
10 10 0 19.71 2.92
10 10 0 23.58 4.2
5 -11 0 -0.36 1.82
-5 11 0 -0.78 1.69
4 -11 0 7.15 2.54
-4 11 0 5.62 2.35
-4 11 0 3.23 2.17
3 -11 0 2.42 1.99
-3 11 0 1.87 1.99
-3 11 0 -0.21 1.74
2 -11 0 -0.49 1.36
-2 11 0 -0.87 1.52
1 -11 0 3.35 1.84
1 -11 0 1.57 1.05
-1 11 0 0.45 1.93
0 -11 0 0.98 1.72
0 -11 0 -0.48 0.94
0 -11 0 1.57 1.39
0 11 0 1.32 1.75
0 11 0 0.83 0.87
-1 -11 0 7.53 1.82
-1 -11 0 3.96 1.77
-1 -11 0 3.42 1.28
1 11 0 6.74 1.62
1 11 0 3.68 1.93
-2 -11 0 -0.82 0.99
-2 -11 0 0.22 1.53
-2 -11 0 1.15 1.06
2 11 0 2.14 1.83
2 11 0 2.26 1.42
-3 -11 0 1.31 1.23
-3 -11 0 -0.31 0.74
-3 -11 0 1.76 1.66
3 11 0 0.04 1.47
3 11 0 3.23 1.49
-4 -11 0 3.54 1.56
-4 -11 0 1.7 1.8
4 11 0 -1.57 1.63
4 11 0 1.05 1.75
-5 -11 0 7.48 2.02
-5 -11 0 7.13 2.23
5 11 0 4.44 2.06
5 11 0 8.5 2.38
-6 -11 0 -2.87 1.39
-6 -11 0 -0.61 1.49
6 11 0 0.06 1.73
6 11 0 0.29 1.81
-7 -11 0 2.34 1.6
-7 -11 0 0.14 1.87
7 11 0 -1.44 1.71
7 11 0 -1.72 1.61
-8 -11 0 6.83 2.51
-8 -11 0 7.99 2.46
8 11 0 5.85 2.12
8 11 0 5.99 2.65
-9 -11 0 2.68 2.26
-9 -11 0 7.05 2.68
9 11 0 6.13 2.04
9 11 0 4.95 2.47
-10 -11 0 6.31 2.3
-10 -11 0 5.82 2.6
10 11 0 7.16 2.02
10 11 0 4.88 2.74
4 -12 0 -1.37 1.79
-4 12 0 -1.35 1.78
3 -12 0 3.63 2.21
-3 12 0 6.74 2.61
2 -12 0 6.84 2.29
2 -12 0 7.86 2.6
-2 12 0 9.39 2.72
1 -12 0 -2.04 1.28
1 -12 0 2.62 1.9
-1 12 0 1.81 1.77
0 -12 0 3.44 1.98
0 -12 0 8.15 1.62
0 -12 0 6.67 2.04
0 12 0 2.34 1.99
-1 -12 0 5.77 1.68
-1 -12 0 6.05 1.47
-1 -12 0 4.53 2.06
1 12 0 6.51 1.61
1 12 0 5.77 2.25
-2 -12 0 0.03 0.89
-2 -12 0 0.9 1.68
-2 -12 0 0.82 1.03
2 12 0 1.26 1.34
2 12 0 -0.04 1.72
-3 -12 0 13.88 2.42
-3 -12 0 20.31 3.4
3 12 0 14.62 2.46
3 12 0 17.47 3.15
-4 -12 0 -0.41 1.8
-4 -12 0 -1.58 1.17
4 12 0 -1.29 1.65
4 12 0 1 1.58
-5 -12 0 -1.03 1.65
-5 -12 0 1.61 1.56
5 12 0 0.45 1.79
5 12 0 2.81 1.89
-6 -12 0 10.21 2.47
-6 -12 0 9.41 2.64
6 12 0 12.67 2.86
6 12 0 11.44 2.73
-7 -12 0 3.85 2.25
-7 -12 0 -0.63 1.51
7 12 0 3.84 2.13
7 12 0 1.46 2.04
-8 -12 0 12.28 2.9
-8 -12 0 13.08 3.04
8 12 0 10.11 2.69
8 12 0 10.3 3.05
-9 -12 0 -1.34 1.78
-9 -12 0 4.09 2.38
9 12 0 3.71 2.48
9 12 0 -2.22 1.61
2 -13 0 8.09 2.69
2 -13 0 5.99 2.17
-2 13 0 10.11 2.89
1 -13 0 1.27 1.97
1 -13 0 2.69 1.77
-1 13 0 1.87 2.14
0 -13 0 -2.05 1.5
0 -13 0 0.83 1.52
0 13 0 -0.12 2.06
-1 -13 0 9.93 2.63
-1 -13 0 9.32 2.04
1 13 0 9.35 2.84
-2 -13 0 5.27 1.46
-2 -13 0 3.57 1.92
2 13 0 6.08 2.31
-3 -13 0 5.89 2.44
-3 -13 0 5.52 1.63
3 13 0 10.96 2.81
3 13 0 2.48 1.64
-4 -13 0 9.13 2.76
-4 -13 0 5.56 1.93
4 13 0 10.34 2.93
4 13 0 5.81 1.95
-5 -13 0 -0.35 1.79
-5 -13 0 1.27 1.43
5 13 0 0.85 1.62
5 13 0 -0.54 1.91
-6 -13 0 8.16 2.68
-6 -13 0 10.19 2.41
6 13 0 6.15 2.5
6 13 0 11.21 2.72
-7 -13 0 2.6 1.81
-7 -13 0 -0.39 1.91
7 13 0 1.71 1.95
7 13 0 3.19 2.44
-1 -14 0 1.84 2
1 14 0 -1.21 2
-2 -14 0 -0.65 1.71
2 14 0 1.28 1.79
-3 -14 0 3.28 2.19
3 14 0 10.18 2.84
-4 -14 0 3.54 2.16
-4 -14 0 5.87 1.88
4 14 0 1.23 1.77
4 14 0 4.13 2.22
-5 -14 0 -4.62 1.34
-5 -14 0 1.39 1.41
5 14 0 -0.65 1.41
5 14 0 1.94 2.11
5 14 -1 0.38 2.21
5 14 -1 3.52 1.9
-5 -14 1 2.99 1.22
-5 -14 1 -0.8 2
4 14 -1 10.62 2.78
4 14 -1 6.6 2.16
-4 -14 1 6.49 2.63
3 14 -1 -0.84 1.64
-3 -14 1 3.75 2.01
2 14 -1 0.84 1.97
-2 -14 1 4.64 2.74
1 14 -1 16.39 3.38
-1 -14 1 10.64 2.81
7 13 -1 3.67 2.37
7 13 -1 3.7 1.92
-7 -13 1 2.03 2.17
-7 -13 1 -0.95 1.38
6 13 -1 15.86 3.11
6 13 -1 12.46 2.71
-6 -13 1 13.47 3.09
-6 -13 1 19.48 2.9
5 13 -1 1.65 1.88
5 13 -1 0.1 1.46
-5 -13 1 2.13 1.48
-5 -13 1 0.15 1.9
4 13 -1 2.88 2.26
4 13 -1 5.28 2.11
-4 -13 1 9.26 2.02
-4 -13 1 7.68 2.51
3 13 -1 15.1 3.14
3 13 -1 20.79 2.86
-3 -13 1 25.66 3.64
-3 -13 1 16.87 2.25
2 13 -1 2.05 1.46
2 13 -1 0.17 1.89
-2 -13 1 0.13 1.91
1 13 -1 0.59 1.97
-1 -13 1 -2.38 1.31
-1 -13 1 -0.13 1.42
0 13 -1 1.08 2.06
0 -13 1 6.37 1.86
0 -13 1 0.2 1.85
-1 13 -1 1.94 2.15
1 -13 1 -2.19 1.74
1 -13 1 1.87 1.46
-2 13 -1 25.83 4
2 -13 1 23.45 3.56
2 -13 1 31.71 3.58
8 12 -1 3.4 2.3
8 12 -1 3.28 1.85
-8 -12 1 0.15 1.79
-8 -12 1 3 2.17
7 12 -1 3.7 2.49
7 12 -1 2.89 1.93
-7 -12 1 2.4 1.8
-7 -12 1 4.34 2.2
6 12 -1 10.57 2.8
6 12 -1 12.48 2.63
-6 -12 1 11.08 2.34
-6 -12 1 13.83 2.83
5 12 -1 24.76 3.49
5 12 -1 20.77 3.27
-5 -12 1 25.06 2.94
-5 -12 1 22.9 3.28
4 12 -1 5.82 1.95
4 12 -1 5.73 2.25
-4 -12 1 4.77 1.58
-4 -12 1 7.22 2.46
3 12 -1 1.75 1.57
3 12 -1 5.44 2.09
-3 -12 1 1.04 1.93
-3 -12 1 1.74 1.34
2 12 -1 0.9 1.29
2 12 -1 2.07 1.83
-2 -12 1 -0.27 1.61
-2 -12 1 1.16 0.9
-2 -12 1 0.56 1.11
1 12 -1 4.35 2.1
1 12 -1 1.17 1.27
-1 -12 1 2.68 1.14
-1 -12 1 4.51 1.57
-1 -12 1 3.16 1.87
0 12 -1 45.1 4.09
0 -12 1 49.02 3.63
0 -12 1 46.95 4.19
-1 12 -1 -0.12 1.6
1 -12 1 1.64 1.6
1 -12 1 1.8 1.9
-2 12 -1 -1.96 1.53
2 -12 1 0.03 1.65
2 -12 1 -2.53 1.54
-3 12 -1 29.17 3.98
3 -12 1 31.44 3.78
3 -12 1 23.15 3.41
-4 12 -1 6.52 2.52
4 -12 1 5.51 2.35
4 -12 1 3.86 2.26
9 11 -1 3.65 2.47
9 11 -1 3.08 1.75
-9 -11 1 -0.63 1.89
-9 -11 1 0.54 1.95
8 11 -1 6.06 2.59
8 11 -1 6.99 2.17
-8 -11 1 8.61 2.66
-8 -11 1 8.45 2.55
7 11 -1 16.13 3.17
7 11 -1 17.37 2.75
-7 -11 1 13.11 2.74
-7 -11 1 8.31 2.49
6 11 -1 5.71 2.04
6 11 -1 4.27 2.26
-6 -11 1 4.11 1.95
-6 -11 1 5.55 1.93
5 11 -1 1.45 1.76
5 11 -1 1.15 1.64
-5 -11 1 0.71 1.41
-5 -11 1 1.6 1.83
4 11 -1 -0.61 1.38
4 11 -1 -1.13 1.37
-4 -11 1 0.42 1.25
-4 -11 1 1.87 1.68
3 11 -1 23.73 2.87
3 11 -1 19.13 2.92
-3 -11 1 21.29 2.33
-3 -11 1 17.7 2.89
-3 -11 1 18.78 1.88
2 11 -1 23.72 3.18
2 11 -1 24.01 2.64
-2 -11 1 21.26 2.97
-2 -11 1 22.43 2.19
-2 -11 1 16.32 2.11
1 11 -1 7.98 2.27
1 11 -1 10.22 2
-1 -11 1 12.21 2.18
-1 -11 1 8.37 1.6
-1 -11 1 10.21 2.4
0 11 -1 10.89 1.86
0 11 -1 7.83 2.26
0 -11 1 2.88 1.89
0 -11 1 7.28 1.94
0 -11 1 8.91 1.49
-1 11 -1 26.45 3.25
1 -11 1 19.04 2.91
1 -11 1 21.4 3.03
-2 11 -1 3.99 1.87
2 -11 1 -0.33 1.71
2 -11 1 6.27 2.21
-3 11 -1 2.67 2.19
3 -11 1 -0.99 1.73
3 -11 1 0.38 1.84
-4 11 -1 -0.54 1.75
4 -11 1 -1.89 1.63
4 -11 1 1.11 1.8
-5 11 -1 2.42 2.12
5 -11 1 -1.19 1.7
5 -11 1 -0.5 2.04
10 10 -1 0.09 2.08
-10 -10 1 4.34 2.36
-10 -10 1 -0.41 2.04
9 10 -1 -0.39 2.12
9 10 -1 5.37 1.9
-9 -10 1 4.96 2.37
-9 -10 1 3.57 2.15
8 10 -1 2.22 2.19
8 10 -1 5.62 2.01
-8 -10 1 5.72 2.17
-8 -10 1 2.93 1.94
7 10 -1 12.75 2.86
7 10 -1 9.26 2.24
-7 -10 1 15.34 2.82
-7 -10 1 11.48 2.59
6 10 -1 2.18 1.6
6 10 -1 0.25 1.77
-6 -10 1 3.58 1.79
-6 -10 1 2.95 1.91
5 10 -1 18.27 2.69
5 10 -1 20.16 3.01
-5 -10 1 19.33 2.63
-5 -10 1 16.64 2.69
4 10 -1 30.28 3.25
4 10 -1 34.92 3.12
-4 -10 1 35.9 1.86
-4 -10 1 34.02 2.85
-4 -10 1 34.6 3.41
3 10 -1 11.71 2.15
3 10 -1 7.8 2.15
-3 -10 1 13.67 2.53
-3 -10 1 6.77 1.31
-3 -10 1 11.33 1.95
2 10 -1 3.27 1.71
2 10 -1 7.08 1.72
-2 -10 1 4.99 1.87
-2 -10 1 4.51 1.35
-2 -10 1 3.66 1.3
1 10 -1 22.47 2.38
1 10 -1 15.65 2.54
-1 -10 1 17.68 1.88
-1 -10 1 19.67 2.24
-1 -10 1 16.21 2.59
0 10 -1 19.47 3.04
0 10 -1 22.6 2.25
0 -10 1 20.54 1.82
0 -10 1 20.59 2.58
0 -10 1 20.46 2.75
-1 10 -1 2.87 1.04
-1 10 -1 5.14 1.82
1 -10 1 2.57 1.01
1 -10 1 1.75 1.43
1 -10 1 6.18 1.93
-2 10 -1 18.5 2.97
-2 10 -1 19.9 1.68
2 -10 1 17.23 2.83
2 -10 1 16.1 1.61
2 -10 1 19.88 2.86
-3 10 -1 19.52 3.17
3 -10 1 23.62 3.25
3 -10 1 19.01 3.04
-4 10 -1 0.04 1.63
4 -10 1 2.04 1.8
-5 10 -1 10.84 2.89
5 -10 1 9.28 2.72
5 -10 1 10.13 2.68
-6 10 -1 0.85 2.12
6 -10 1 2.84 2.08
6 -10 1 2.83 2.1
11 9 -1 1.9 2.49
-11 -9 1 -1.02 1.96
-11 -9 1 1.89 2.12
10 9 -1 2.14 2.3
10 9 -1 1.69 1.57
-10 -9 1 5.62 2.52
-10 -9 1 0.45 2.05
9 9 -1 -2.04 1.85
9 9 -1 1.52 1.41
-9 -9 1 1.49 1.97
-9 -9 1 0.12 2.01
8 9 -1 -2.07 1.84
8 9 -1 -0.69 1.32
-8 -9 1 0.02 1.79
-8 -9 1 -0.21 1.72
7 9 -1 38.41 3.88
7 9 -1 39.46 3.25
-7 -9 1 43.34 3.73
-7 -9 1 48.24 3.85
6 9 -1 21.05 2.7
6 9 -1 17.79 2.83
-6 -9 1 18.98 2.73
-6 -9 1 23.89 2.9
5 9 -1 50.27 3.64
5 9 -1 45.58 3.26
-5 -9 1 41.54 3.4
-5 -9 1 38.54 3.07
4 9 -1 4.95 1.69
4 9 -1 7.48 2
-4 -9 1 7.56 1.73
-4 -9 1 7.82 0.84
-4 -9 1 6.13 1
-4 -9 1 6.97 1.94
3 9 -1 3.95 1.62
3 9 -1 2.78 1.54
-3 -9 1 1.29 1.37
-3 -9 1 1.58 1.17
-3 -9 1 3.01 0.75
-3 -9 1 2.41 0.96
2 9 -1 31.79 2.68
2 9 -1 31.64 2.85
-2 -9 1 26.65 2.67
-2 -9 1 32.09 2.28
-2 -9 1 25.91 2.04
1 9 -1 4.58 1.44
1 9 -1 2.91 1.54
-1 -9 1 5.24 1.39
-1 -9 1 5.21 1.58
-1 -9 1 4.7 1.21
0 9 -1 19.39 1.99
0 9 -1 20.56 2.72
0 -9 1 15.24 2.18
0 -9 1 15.16 2.35
0 -9 1 18.93 1.68
-1 9 -1 2.1 0.96
-1 9 -1 2.63 1.58
1 -9 1 3.4 1.54
1 -9 1 3.9 1.08
1 -9 1 -1.43 1.19
-2 9 -1 0.94 0.77
-2 9 -1 1.62 1.43
2 -9 1 0.47 1.37
2 -9 1 0.81 0.84
-3 9 -1 42.92 3.7
-3 9 -1 50.33 2.3
3 -9 1 50.24 3.86
3 -9 1 46.3 2.28
-4 9 -1 0.35 1.49
4 -9 1 -3.99 1.29
-5 9 -1 6.72 2.22
5 -9 1 7.57 2.33
-6 9 -1 3.67 2.01
6 -9 1 3.15 2.11
-7 9 -1 2.06 2.07
7 -9 1 4.91 2.37
7 -9 1 2.17 2
11 8 -1 -4.63 1.77
-11 -8 1 -3.99 1.7
-11 -8 1 3.33 2.1
10 8 -1 0.57 2.19
10 8 -1 3.75 1.53
-10 -8 1 -1.92 1.96
-10 -8 1 0.82 1.99
9 8 -1 36.77 3.09
9 8 -1 33.41 3.95
-9 -8 1 37.61 3.79
-9 -8 1 39.17 3.86
8 8 -1 2.42 1.43
8 8 -1 1.35 1.95
-8 -8 1 0.19 1.8
-8 -8 1 1.66 1.84
7 8 -1 3.26 1.53
7 8 -1 6.46 2.22
-7 -8 1 1.71 1.74
-7 -8 1 4.95 1.94
6 8 -1 19.62 2.38
6 8 -1 23.2 2.99
-6 -8 1 17.03 2.44
-6 -8 1 21.46 2.76
5 8 -1 10.94 1.91
5 8 -1 11.5 2.21
-5 -8 1 12.19 2.2
-5 -8 1 13.16 2.25
4 8 -1 31.36 2.81
4 8 -1 36.61 2.77
-4 -8 1 35.56 2.59
-4 -8 1 30.59 1.32
-4 -8 1 33 1.45
-4 -8 1 30.37 2.69
3 8 -1 7.2 1.71
3 8 -1 5.67 1.61
-3 -8 1 6.26 1.51
-3 -8 1 6.38 1.11
-3 -8 1 6.74 0.91
-3 -8 1 4.98 1.62
2 8 -1 29.88 2.41
2 8 -1 32.74 2.57
-2 -8 1 31.26 2.62
-2 -8 1 30.01 2.15
-2 -8 1 29.43 1.98
1 8 -1 20.68 2.28
1 8 -1 17.95 2.01
-1 -8 1 17.88 1.91
-1 -8 1 17.92 1.66
-1 -8 1 20.11 2.3
0 8 -1 15.02 1.75
0 8 -1 15.22 1.32
0 8 -1 14.67 2.12
0 -8 1 14.27 1.54
0 -8 1 15.27 2.16
0 -8 1 14.6 1.96
-1 8 -1 52.25 2.45
-1 8 -1 54.62 3.32
-1 8 -1 51.58 2.15
1 -8 1 53.44 3.26
1 -8 1 52.98 2.28
-2 8 -1 3.38 0.79
-2 8 -1 3.14 1.46
-2 8 -1 2.08 0.86
-2 8 -1 4.74 1.67
2 -8 1 2.59 0.88
2 -8 1 3.85 0.97
2 -8 1 4.95 1.67
-3 8 -1 19.8 2.79
-3 8 -1 24.32 2.94
-3 8 -1 21.3 1.69
3 -8 1 26.21 2.86
3 -8 1 22.61 1.72
-4 8 -1 2.88 1.71
-4 8 -1 2.51 0.86
-4 8 -1 1.94 1.58
4 -8 1 6.23 2.04
4 -8 1 4.1 1.13
-5 8 -1 1.82 1.74
-5 8 -1 0.09 1.61
5 -8 1 1.28 1.65
5 -8 1 1.98 0.97
-6 8 -1 5.01 2.13
-6 8 -1 8.03 2.5
6 -8 1 5.93 2.32
-7 8 -1 1.01 1.72
7 -8 1 1.66 1.96
-8 8 -1 5.63 2.38
8 -8 1 10.06 2.72
11 7 -1 6.89 2.81
-11 -7 1 4.94 2.32
-11 -7 1 5.85 2.54
10 7 -1 1.38 2.05
10 7 -1 0.58 1.3
-10 -7 1 2.63 2.33
-10 -7 1 1.71 1.85
9 7 -1 24.73 2.57
9 7 -1 22.48 3.49
-9 -7 1 29.8 3.47
-9 -7 1 26.33 3.47
8 7 -1 16.17 2.21
8 7 -1 12.09 2.6
-8 -7 1 12 2.45
-8 -7 1 14 2.81
7 7 -1 4.95 1.54
7 7 -1 2.71 1.77
-7 -7 1 2.06 1.67
-7 -7 1 2.3 1.54
6 7 -1 63.31 3.18
6 7 -1 61.83 3.79
-6 -7 1 55.52 3.44
-6 -7 1 61.17 3.64
5 7 -1 38.1 2.55
5 7 -1 37.01 2.92
-5 -7 1 35.85 2.78
-5 -7 1 35.65 2.77
4 7 -1 20.17 2.34
4 7 -1 17.61 2.07
-4 -7 1 19.71 2.12
-4 -7 1 19.16 2.25
-4 -7 1 19.9 1.06
3 7 -1 8.3 1.56
3 7 -1 6.74 1.61
-3 -7 1 6.04 1.01
-3 -7 1 4.16 1.37
-3 -7 1 5.93 0.92
-3 -7 1 6.23 1.38
2 7 -1 49.66 2.67
2 7 -1 48.04 2.68
-2 -7 1 47.44 2.41
-2 -7 1 49.13 2.87
-2 -7 1 48.17 2.07
-2 -7 1 49.93 2.17
1 7 -1 114.84 3.65
1 7 -1 110.49 3.19
1 7 -1 106.9 3.91
-1 -7 1 117.25 3.3
-1 -7 1 114.38 4.15
-1 -7 1 116.19 3.53
0 7 -1 2.27 0.73
0 7 -1 2.91 1.26
0 7 -1 0.58 0.88
0 -7 1 2.35 1.19
0 -7 1 0.88 0.97
0 -7 1 1.67 0.74
0 -7 1 1.94 0.85
-1 7 -1 13 1.15
-1 7 -1 16.43 2.08
-1 7 -1 14.14 1.98
-1 7 -1 14.48 1.5
1 -7 1 12.58 1.32
1 -7 1 13.48 1.93
1 -7 1 12.84 1.29
-2 7 -1 7.49 0.94
-2 7 -1 9.46 1.91
-2 7 -1 6.42 1.64
-2 7 -1 7.36 1.23
2 -7 1 7.39 1.16
2 -7 1 8.3 1.11
2 -7 1 9.05 1.76
-3 7 -1 19.38 1.59
-3 7 -1 19.65 2.59
-3 7 -1 18.13 1.28
-3 7 -1 17.9 2.48
3 -7 1 17.19 1.32
3 -7 1 20.18 1.55
3 -7 1 16.61 2.34
-4 7 -1 38.11 3.24
-4 7 -1 34.46 1.96
-4 7 -1 38.63 3.21
4 -7 1 37.54 3.24
4 -7 1 38.28 2.08
4 -7 1 37.09 1.79
-5 7 -1 4.02 0.97
-5 7 -1 5.74 1.92
-5 7 -1 5.27 2.04
5 -7 1 4.9 1.94
5 -7 1 5.12 1.2
-6 7 -1 8.12 2.33
-6 7 -1 5.04 2.03
6 -7 1 6.77 2.12
6 -7 1 9.07 1.48
-7 7 -1 4.85 2.07
-7 7 -1 2.64 1.98
7 -7 1 2.59 1.85
-8 7 -1 2.58 2
8 -7 1 -1.39 1.43
-9 7 -1 0.57 1.68
9 -7 1 -0.39 1.66
9 -7 1 7 2.42
12 6 -1 11.08 3
-12 -6 1 7.01 2.37
11 6 -1 -0.14 2.21
-11 -6 1 0.18 1.76
-11 -6 1 1.11 2.03
10 6 -1 -0.85 1.34
10 6 -1 1.1 1.82
-10 -6 1 0.13 1.83
-10 -6 1 1.46 2.13
9 6 -1 25.42 2.55
9 6 -1 27.91 3.51
-9 -6 1 24.2 3.19
-9 -6 1 22.84 3.16
8 6 -1 13 1.92
8 6 -1 11.56 2.51
-8 -6 1 16.59 2.7
-8 -6 1 14.34 2.46
7 6 -1 27.68 2.35
7 6 -1 26.89 3.02
-7 -6 1 24.22 2.65
-7 -6 1 26.32 2.93
6 6 -1 27.34 2.79
6 6 -1 26.67 2.2
-6 -6 1 26.9 2.73
-6 -6 1 28.49 2.59
5 6 -1 8.43 1.8
5 6 -1 7.51 1.41
-5 -6 1 5.81 1.58
-5 -6 1 8.83 1.67
4 6 -1 104.22 3.44
4 6 -1 107.66 3.98
-4 -6 1 102.77 3.78
-4 -6 1 99.15 3.8
3 6 -1 48.4 2.44
3 6 -1 49.83 2.64
-3 -6 1 49.23 2.77
-3 -6 1 49.01 1.66
-3 -6 1 46.6 1.59
-3 -6 1 49.2 2.49
2 6 -1 7.09 1.12
2 6 -1 7.65 1.4
2 6 -1 9.91 1.59
-2 -6 1 9.89 1.43
-2 -6 1 7.52 1.14
-2 -6 1 8.29 1.51
-2 -6 1 8.15 1.04
1 6 -1 31.63 1.65
1 6 -1 36.33 2.1
1 6 -1 36.72 2.35
-1 -6 1 33.63 1.94
-1 -6 1 32.96 1.78
-1 -6 1 34.52 1.9
-1 -6 1 35.49 2.28
-1 -6 1 33.37 1.83
0 6 -1 5.65 0.92
0 6 -1 4.71 1.08
0 6 -1 3.21 1.24
0 -6 1 1.91 1.07
0 -6 1 3.99 0.88
0 -6 1 3.52 0.89
-1 6 -1 137.73 4.32
-1 6 -1 134.04 3.01
-1 6 -1 146.52 3.52
-1 6 -1 141.18 4.24
1 -6 1 131.75 4.28
1 -6 1 136.73 3.06
1 -6 1 136.56 3.28
-2 6 -1 36.27 2.58
-2 6 -1 36.01 2.55
-2 6 -1 35.59 1.83
-2 6 -1 34.03 1.51
2 -6 1 35.29 1.7
2 -6 1 34.42 2.52
2 -6 1 35.24 1.69
-3 6 -1 17.68 1.26
-3 6 -1 18.53 2.25
-3 6 -1 20.5 2.38
-3 6 -1 21.95 1.61
3 -6 1 19.09 2.19
3 -6 1 19.71 1.46
3 -6 1 21.48 1.38
-4 6 -1 53.34 3.47
-4 6 -1 56.99 2.34
-4 6 -1 48.68 3.25
4 -6 1 52.67 2.26
4 -6 1 52.65 2.06
4 -6 1 56.78 3.4
-5 6 -1 -0.07 0.7
-5 6 -1 -2.06 1.2
-5 6 -1 1.85 1.58
5 -6 1 -0.08 0.7
5 -6 1 -0.96 0.43
5 -6 1 -2.58 0.97
-6 6 -1 1.99 0.81
-6 6 -1 -0.93 1.49
-6 6 -1 1.71 1.5
6 -6 1 -0.17 1.29
6 -6 1 2.83 1.15
-7 6 -1 -1.51 1.4
-7 6 -1 1.14 1.53
7 -6 1 1.2 1.66
7 -6 1 -0.45 0.82
-8 6 -1 2.82 1.89
-8 6 -1 3.85 2.29
8 -6 1 7.24 2.37
8 -6 1 5.56 1.31
-9 6 -1 0.99 1.8
9 -6 1 2.46 2.12
12 5 -1 6.34 2.56
12 5 -1 2.84 2.18
-12 -5 1 -1.73 1.89
11 5 -1 2.03 2.23
-11 -5 1 8.2 2.52
10 5 -1 17.02 3.06
10 5 -1 17.98 2.19
-10 -5 1 17.78 3.22
-10 -5 1 15.47 2.83
9 5 -1 63.25 4.29
9 5 -1 60.79 3.11
-9 -5 1 67.41 4.39
-9 -5 1 58.3 3.98
8 5 -1 3.88 1.93
8 5 -1 5.69 1.48
-8 -5 1 4.75 1.8
-8 -5 1 7.67 1
-8 -5 1 4.3 1.9
7 5 -1 9.15 1.61
7 5 -1 7.97 0.79
7 5 -1 5.76 1.83
-7 -5 1 6.54 1.78
-7 -5 1 7.23 1.9
-7 -5 1 7.33 0.83
6 5 -1 116.86 3.59
6 5 -1 110.98 4.33
-6 -5 1 115.05 4.3
-6 -5 1 114.39 4.5
5 5 -1 33.02 2.08
5 5 -1 32.11 2.49
-5 -5 1 29.86 2.39
-5 -5 1 31.09 2.36
4 5 -1 3.46 1.04
4 5 -1 1.8 1.21
-4 -5 1 3.84 1.25
-4 -5 1 3.6 1.17
-4 -5 1 2.96 0.89
3 5 -1 2.42 1.13
3 5 -1 2 0.94
-3 -5 1 2.89 0.6
-3 -5 1 2.09 1.03
-3 -5 1 2.15 0.52
-3 -5 1 4.14 1.15
2 5 -1 3.61 1.09
2 5 -1 1.9 0.91
-2 -5 1 3.66 0.73
-2 -5 1 3 0.99
-2 -5 1 3.76 0.95
-2 -5 1 4.11 0.79
-2 -5 1 2.36 0.88
-2 -5 1 2.59 1.01
1 5 -1 139.46 3.68
1 5 -1 137.4 3.45
1 5 -1 129.36 3.03
-1 -5 1 136.67 3.38
-1 -5 1 139.53 3.81
-1 -5 1 135.37 3.18
-1 -5 1 139.17 3.22
-1 -5 1 136.09 3.06
0 5 -1 37.46 1.52
0 5 -1 39.46 2.24
0 5 -1 38.31 1.86
0 -5 1 37.9 2.18
0 -5 1 36.1 1.74
0 -5 1 37.03 1.56
-1 5 -1 5.75 1.3
-1 5 -1 7.39 1.17
-1 5 -1 5.93 0.81
-1 5 -1 8.42 1.47
1 -5 1 6.8 0.92
1 -5 1 7.04 1.32
1 -5 1 5.76 0.98
-2 5 -1 101.58 2.38
-2 5 -1 103.23 2.78
-2 5 -1 103.65 3.76
-2 5 -1 105.13 3.64
2 -5 1 105.32 2.49
2 -5 1 102.04 2.58
2 -5 1 103.95 3.63
-3 5 -1 2.27 0.6
-3 5 -1 2.13 1.11
-3 5 -1 2.91 0.83
-3 5 -1 2.61 1.32
3 -5 1 2.76 1.21
3 -5 1 3.23 0.78
3 -5 1 2.47 0.81
-4 5 -1 24.85 2.45
-4 5 -1 26.34 2.66
-4 5 -1 22.88 1.65
4 -5 1 26.41 1.69
4 -5 1 27.7 1.59
4 -5 1 21.21 2.25
4 -5 1 20.66 1.38
-5 5 -1 1.7 1.42
-5 5 -1 0.82 0.82
-5 5 -1 0.97 1.23
5 -5 1 2.42 1.32
5 -5 1 0.65 0.52
5 -5 1 2.03 0.9
-6 5 -1 22.63 2.71
-6 5 -1 24.66 1.94
-6 5 -1 21.29 2.89
6 -5 1 23.98 2.83
6 -5 1 23.14 1.98
-7 5 -1 24.91 3.05
-7 5 -1 26.11 3.13
-7 5 -1 24.33 2.03
7 -5 1 26.04 2.22
7 -5 1 28.38 3.24
-8 5 -1 1.87 1.67
-8 5 -1 1.98 1.96
8 -5 1 0.27 1.03
8 -5 1 -0.86 0.88
8 -5 1 2.21 1.69
-9 5 -1 0.86 1.64
9 -5 1 -1.41 0.97
9 -5 1 0.8 1.97
-10 5 -1 -2.52 1.41
10 -5 1 0.16 1.6
12 4 -1 -1.01 2.07
12 4 -1 -2.29 1.55
-12 -4 1 2.55 1.98
11 4 -1 20.99 3.47
11 4 -1 22.45 3.45
-11 -4 1 19.83 3.34
10 4 -1 2.17 2.04
10 4 -1 -0.09 1.05
-10 -4 1 6.31 2.4
-10 -4 1 2.75 1.98
9 4 -1 10.84 1.71
9 4 -1 15.73 2.77
-9 -4 1 17.18 2.63
-9 -4 1 16.08 2.88
-9 -4 1 14.74 1.65
8 4 -1 63.79 2.4
8 4 -1 64.14 3.92
8 4 -1 69.4 3.03
-8 -4 1 69.67 4.13
-8 -4 1 65.28 2.5
-8 -4 1 74.5 4.05
7 4 -1 4.04 1.53
7 4 -1 1.6 0.63
7 4 -1 1.11 0.96
-7 -4 1 2.2 1.46
-7 -4 1 1.32 0.7
-7 -4 1 -0.24 1.2
6 4 -1 22.75 1.22
6 4 -1 23.09 1.85
6 4 -1 26.27 2.49
-6 -4 1 23.8 1.29
-6 -4 1 24.11 2.51
-6 -4 1 24.59 1.64
-6 -4 1 25.69 2.36
5 4 -1 1.09 0.86
5 4 -1 0.13 0.39
5 4 -1 0.4 0.95
-5 -4 1 -0.08 0.91
-5 -4 1 0.79 0.45
-5 -4 1 0.13 0.58
-5 -4 1 -0.09 1.08
4 4 -1 8.76 1.23
4 4 -1 6.61 1.36
-4 -4 1 7.41 1.41
-4 -4 1 7.99 1.35
-4 -4 1 6.91 0.66
-4 -4 1 7.16 1.12
3 4 -1 222.79 4.09
3 4 -1 226.14 2.95
3 4 -1 220.24 4.57
3 4 -1 208.64 4.56
3 4 -1 214.14 4.72
-3 -4 1 224.29 3
-3 -4 1 228.63 4.77
-3 -4 1 214.09 4.1
-3 -4 1 219.54 4.7
2 4 -1 19.81 1.66
2 4 -1 20.75 1.51
2 4 -1 22.85 1.57
-2 -4 1 19.77 1.64
-2 -4 1 23.07 1.58
-2 -4 1 21.09 1.44
-2 -4 1 20.34 1.11
-2 -4 1 19.23 1.5
1 4 -1 13.56 1.29
1 4 -1 14.11 1.35
1 4 -1 14.09 1.13
1 4 -1 13.28 1.35
-1 -4 1 15.32 1.19
-1 -4 1 13.14 1.16
-1 -4 1 13.48 1.27
-1 -4 1 15 1.52
-1 -4 1 13.95 1.14
-1 -4 1 15.11 1.35
0 4 -1 43.05 2.04
0 4 -1 41.83 1.78
0 4 -1 42.93 1.45
0 4 -1 45.87 2.09
0 -4 1 40.81 1.89
0 -4 1 42.96 1.45
0 -4 1 41.55 1.9
0 -4 1 46.48 1.76
0 -4 1 44.56 2.07
-1 4 -1 44.92 2.23
-1 4 -1 43.6 2.19
-1 4 -1 45.61 2.17
-1 4 -1 43.94 1.37
-1 4 -1 46.41 1.75
1 -4 1 42.69 2.16
1 -4 1 41.62 2.06
1 -4 1 46.13 1.69
1 -4 1 42.13 2.16
1 -4 1 45.34 1.42
-2 4 -1 4.62 0.74
-2 4 -1 6.79 1.26
-2 4 -1 5.8 1.26
-2 4 -1 5.44 0.93
2 -4 1 5.33 0.86
2 -4 1 6.53 0.91
2 -4 1 7 1.39
-3 4 -1 6.95 1.18
-3 4 -1 6.26 1.48
-3 4 -1 9.96 1.56
3 -4 1 9.62 1.08
3 -4 1 8.86 1.02
3 -4 1 8.98 1.49
-4 4 -1 48.25 3.03
-4 4 -1 51.6 2.25
-4 4 -1 53.85 2.93
4 -4 1 50.86 2.05
4 -4 1 52.38 2.1
4 -4 1 53.78 2.89
4 -4 1 50.17 2.05
-5 4 -1 36.08 2.64
-5 4 -1 32.78 2.88
-5 4 -1 34.2 2.05
5 -4 1 36.03 2.75
5 -4 1 34.33 2.03
5 -4 1 32.39 1.82
-6 4 -1 6.32 1.92
-6 4 -1 7.52 1.37
-6 4 -1 8.43 1.88
6 -4 1 8.19 1.56
6 -4 1 9.24 2.05
-7 4 -1 0.41 0.94
-7 4 -1 3.27 1.74
-7 4 -1 -1.9 1.08
7 -4 1 1.02 1.38
7 -4 1 1.45 1.15
-8 4 -1 2.93 1.62
-8 4 -1 2.87 1.95
8 -4 1 7.52 1.57
8 -4 1 10.13 2.39
8 -4 1 5.22 1.53
-9 4 -1 14.84 2.67
-9 4 -1 12.69 2.81
9 -4 1 10.85 2.04
9 -4 1 16.73 2.18
9 -4 1 16.16 3.03
-10 4 -1 0.35 1.61
10 -4 1 2.67 1.41
10 -4 1 3.54 1.87
12 3 -1 6.94 2.3
12 3 -1 5.88 2.4
-12 -3 1 6.92 2.52
11 3 -1 9.41 2.65
11 3 -1 4.68 2.35
-11 -3 1 6.07 2.27
10 3 -1 30.42 3.61
10 3 -1 28.81 3.43
10 3 -1 23.12 2.24
-10 -3 1 19.63 3.28
-10 -3 1 24.94 2.37
9 3 -1 -0.18 0.95
9 3 -1 1.97 1.63
-9 -3 1 1.62 1.04
-9 -3 1 -0.31 1.51
8 3 -1 20.18 2.7
8 3 -1 15.41 1.78
-8 -3 1 16.62 2.35
-8 -3 1 16.37 2.52
-8 -3 1 16.16 1.73
7 3 -1 4.15 1.57
7 3 -1 6.91 1.23
7 3 -1 3.82 0.89
-7 -3 1 5.45 1.75
-7 -3 1 5.88 1.19
-7 -3 1 3.49 1.5
6 3 -1 40.34 1.84
6 3 -1 40.47 2
6 3 -1 42.6 1.89
6 3 -1 38.47 2.67
-6 -3 1 45.37 2.76
-6 -3 1 35.19 2.58
-6 -3 1 44.22 1.93
5 3 -1 107.71 2.55
5 3 -1 111.03 3.71
5 3 -1 115 2.93
-5 -3 1 104.72 3.77
-5 -3 1 107.14 2.76
-5 -3 1 106.33 2.5
-5 -3 1 108.79 3.66
4 3 -1 1.91 0.98
4 3 -1 1.32 0.76
4 3 -1 2.51 0.57
-4 -3 1 1.88 1.03
-4 -3 1 1.28 0.92
-4 -3 1 1.51 0.65
-4 -3 1 2.45 0.58
3 3 -1 21.52 0.89
3 3 -1 20.62 1.31
3 3 -1 22.01 1.54
3 3 -1 22.7 1.56
3 3 -1 18.03 1.69
-3 -3 1 20.03 0.97
-3 -3 1 21.34 1.61
-3 -3 1 20.1 1.7
-3 -3 1 20.4 1.27
-3 -3 1 19.74 1.5
2 3 -1 1.07 0.76
2 3 -1 1.46 0.69
2 3 -1 0.99 0.68
2 3 -1 1.16 0.7
2 3 -1 0.47 0.44
-2 -3 1 1.96 0.77
-2 -3 1 0.85 0.77
-2 -3 1 1.33 0.48
-2 -3 1 1.01 0.73
1 3 -1 29.1 1.52
1 3 -1 30.48 1.28
1 3 -1 30.23 1.52
1 3 -1 28.7 1.26
1 3 -1 28.99 1.4
-1 -3 1 29.04 1.42
-1 -3 1 27.13 1.41
-1 -3 1 27.09 1.55
-1 -3 1 29.64 1.27
-1 -3 1 27.07 1.31
0 3 -1 114.48 2.79
0 3 -1 115.24 1.98
0 3 -1 119.89 2.8
0 3 -1 119.84 2.59
0 -3 1 118.42 2.69
0 -3 1 118.23 2.52
0 -3 1 121.01 2.85
0 -3 1 115.39 2
0 -3 1 115.53 2.71
-1 3 -1 2.84 0.95
-1 3 -1 3.76 0.91
-1 3 -1 3.31 0.56
-1 3 -1 3.91 0.73
-1 3 -1 2.74 0.89
1 -3 1 3.75 0.92
1 -3 1 4.07 0.75
1 -3 1 4.83 1.02
1 -3 1 3.84 0.56
1 -3 1 3.54 0.87
-2 3 -1 8.72 1.28
-2 3 -1 10.73 1.32
-2 3 -1 8.49 1.07
-2 3 -1 9.88 0.81
-2 3 -1 9.44 1.55
2 -3 1 8.34 1.3
2 -3 1 8.78 0.83
2 -3 1 9.37 0.98
2 -3 1 9.65 1.37
2 -3 1 8.73 1.23
-3 3 -1 6.57 1.42
-3 3 -1 6.97 1.06
-3 3 -1 5.42 1.17
3 -3 1 5.1 1.28
3 -3 1 5.43 0.88
3 -3 1 6.65 0.99
3 -3 1 6.36 0.92
-4 3 -1 40.51 2.03
-4 3 -1 39.81 2.31
-4 3 -1 38.25 2.56
4 -3 1 39.88 1.84
4 -3 1 44.12 1.96
4 -3 1 40.45 2.36
4 -3 1 40.64 1.9
-5 3 -1 6.22 1.37
-5 3 -1 7.93 1.71
-5 3 -1 7.12 1.31
5 -3 1 8.77 1.4
5 -3 1 7.54 1.16
5 -3 1 4.96 1.39
-6 3 -1 0.25 1.02
-6 3 -1 0.32 0.88
-6 3 -1 -0.25 1.25
6 -3 1 0.42 0.96
6 -3 1 -0.11 1.12
-7 3 -1 45.73 3.47
-7 3 -1 45.61 3.08
7 -3 1 44.36 3.28
7 -3 1 49.85 2.89
-8 3 -1 3.83 1.58
-8 3 -1 1.36 1.69
8 -3 1 5.4 1.47
8 -3 1 -0.25 1.35
8 -3 1 1.6 1.34
-9 3 -1 6.82 2.26
-9 3 -1 6.91 2.08
9 -3 1 3.75 1.73
9 -3 1 5.92 2.17
9 -3 1 5.48 1.64
-10 3 -1 1.18 1.47
10 -3 1 -1.57 1.2
10 -3 1 0.52 1.22
10 -3 1 1.49 1.66
11 -3 1 3.32 1.6
11 -3 1 0.53 1.51
11 -3 1 -0.92 1.48
12 2 -1 7.96 2.14
12 2 -1 6.56 2.76
-12 -2 1 5.88 2.66
11 2 -1 2.53 2.01
11 2 -1 0.1 1.72
-11 -2 1 3.38 1.94
-11 -2 1 3.38 1.5
10 2 -1 12.33 2.62
10 2 -1 17.58 3.05
10 2 -1 21.55 2.09
-10 -2 1 16.06 2.35
-10 -2 1 19.46 3.11
9 2 -1 6.91 1.99
9 2 -1 3.88 1.89
9 2 -1 3.87 1.14
-9 -2 1 2.65 1.78
-9 -2 1 4.72 1.45
8 2 -1 19.39 2.57
8 2 -1 20.2 1.78
-8 -2 1 21.2 2.12
-8 -2 1 17.79 2.61
7 2 -1 39.29 2.06
7 2 -1 38.52 2.03
7 2 -1 38.68 2.79
-7 -2 1 43.38 2.47
-7 -2 1 42.58 3.1
-7 -2 1 36.96 2.83
6 2 -1 0.39 0.55
6 2 -1 -1.3 0.91
6 2 -1 0.44 0.65
6 2 -1 -0.63 0.5
-6 -2 1 -0.27 0.97
-6 -2 1 0.08 0.77
-6 -2 1 -0.21 1.01
5 2 -1 19.33 1.37
5 2 -1 19.09 1.28
5 2 -1 18.92 1.31
5 2 -1 18.67 1.84
-5 -2 1 15.61 1.86
-5 -2 1 20.06 1.48
-5 -2 1 16.35 1.83
4 2 -1 5.8 0.95
4 2 -1 6.2 1.21
4 2 -1 4.93 1.05
4 2 -1 5.39 0.8
-4 -2 1 6.91 1.31
-4 -2 1 5.13 1.03
-4 -2 1 5.03 0.82
-4 -2 1 7.84 1.28
-4 -2 1 5.33 0.85
3 2 -1 21.4 1.52
3 2 -1 22.44 1.59
3 2 -1 23.01 1.2
3 2 -1 22.92 1.12
3 2 -1 22.41 1.49
-3 -2 1 22.81 1.06
-3 -2 1 22.86 1.49
-3 -2 1 20.3 1.59
-3 -2 1 22.08 1.12
-3 -2 1 22.24 1.56
2 2 -1 18 1.23
2 2 -1 15.38 0.8
2 2 -1 13.85 1.27
2 2 -1 16.87 0.98
2 2 -1 14.39 1.15
-2 -2 1 15.07 0.92
-2 -2 1 15.81 1.22
-2 -2 1 15.94 0.87
-2 -2 1 16.87 1.34
-2 -2 1 16.82 1.27
1 2 -1 5.42 0.9
1 2 -1 7.3 0.88
1 2 -1 6.85 0.74
1 2 -1 6.31 0.8
-1 -2 1 6.11 0.95
-1 -2 1 6.65 0.89
-1 -2 1 7.12 0.89
-1 -2 1 7.04 0.75
0 2 -1 196.01 3.15
0 2 -1 190.51 2.33
0 2 -1 197 3.09
0 2 -1 198.52 3.15
0 2 -1 201.87 3.14
0 -2 1 202.39 3.09
0 -2 1 196.2 3.14
0 -2 1 197.86 2.35
0 -2 1 202.01 3.14
0 -2 1 198.62 3.21
-1 2 -1 190.98 3.4
-1 2 -1 194.86 3.37
-1 2 -1 193.71 2.22
-1 2 -1 191.36 3.08
-1 2 -1 189.27 3.5
1 -2 1 195.18 3.56
1 -2 1 188.37 2.2
1 -2 1 194.48 3.42
1 -2 1 195.46 3.05
1 -2 1 193.31 3.42
-2 2 -1 64.95 1.99
-2 2 -1 65.13 2.26
-2 2 -1 68.47 2.4
-2 2 -1 68.31 2.22
2 -2 1 66.06 2.26
2 -2 1 66.88 1.58
2 -2 1 69.53 2.35
2 -2 1 64.02 1.57
2 -2 1 65.89 2.24
2 -2 1 66.22 1.92
-3 2 -1 1.07 0.8
-3 2 -1 0.24 0.89
-3 2 -1 0.11 0.7
3 -2 1 -0.09 0.56
3 -2 1 0.78 0.64
3 -2 1 1.08 0.81
3 -2 1 0.17 0.55
3 -2 1 0.89 0.62
3 -2 1 0.53 0.76
3 -2 1 0.7 0.69
-4 2 -1 0.49 0.76
-4 2 -1 -0.11 0.75
-4 2 -1 -0.94 0.93
4 -2 1 -0.35 0.6
4 -2 1 -0.03 0.72
4 -2 1 -0.35 0.58
4 -2 1 0 0.84
-5 2 -1 75.11 2.89
-5 2 -1 79.84 3.46
-5 2 -1 77.25 3.08
5 -2 1 75.65 3.23
5 -2 1 77.02 2.88
5 -2 1 73.53 2.84
-6 2 -1 1.23 1.02
-6 2 -1 0.42 1.28
-6 2 -1 0.73 0.98
6 -2 1 0.15 1.09
6 -2 1 -0.14 0.97
-7 2 -1 15.97 2.51
-7 2 -1 16.47 2.21
7 -2 1 14.08 1.94
7 -2 1 15.06 2.36
-8 2 -1 2.39 1.43
-8 2 -1 5.25 1.84
8 -2 1 3.35 1.46
8 -2 1 2.39 1.31
8 -2 1 2.94 1.63
-9 2 -1 0.21 1.3
-9 2 -1 -1 1.57
9 -2 1 2.57 1.42
9 -2 1 4.79 1.73
9 -2 1 0.69 1.63
10 -2 1 61.38 4.41
10 -2 1 67.37 3.85
10 -2 1 71.22 4.25
11 -2 1 14.09 2.3
11 -2 1 9.9 2.42
11 -2 1 2.93 1.93
11 -2 1 8.44 2.34
11 -2 1 14.13 2.34
12 1 -1 10.52 2.47
12 1 -1 9.76 2.78
-12 -1 1 21.83 3.49
11 1 -1 -2.02 1.57
11 1 -1 2.12 2.07
-11 -1 1 0.7 1.67
-11 -1 1 1.81 2.11
10 1 -1 16.61 2.1
10 1 -1 18.84 3.06
10 1 -1 17.29 2.79
-10 -1 1 20.17 2.68
-10 -1 1 21.23 3.2
9 1 -1 15.97 1.91
9 1 -1 18.77 2.84
9 1 -1 16.74 2.6
-9 -1 1 14.88 2.29
-9 -1 1 18.3 2.86
8 1 -1 16.29 1.76
8 1 -1 14.3 2.21
8 1 -1 16.24 2.6
-8 -1 1 11.38 2.17
-8 -1 1 13.82 2.08
7 1 -1 0.93 1.2
7 1 -1 0.47 0.88
7 1 -1 0.87 1.18
-7 -1 1 2.64 1.23
-7 -1 1 0.71 1.23
6 1 -1 14.68 1.28
6 1 -1 13.73 1.39
6 1 -1 16.12 1.86
-6 -1 1 16.58 1.98
-6 -1 1 13.64 1.71
5 1 -1 19.95 1.52
5 1 -1 24.42 1.42
5 1 -1 22.35 1.38
5 1 -1 21.21 1.8
-5 -1 1 19.88 1.91
-5 -1 1 20.6 1.67
-5 -1 1 24.45 1.95
4 1 -1 0.61 0.54
4 1 -1 0.64 0.79
4 1 -1 0.46 0.64
4 1 -1 0.45 0.68
4 1 -1 0.95 0.8
4 1 -1 0.28 0.5
-4 -1 1 0.62 0.66
-4 -1 1 0.23 0.74
-4 -1 1 -0.03 0.66
-4 -1 1 1.31 0.91
3 1 -1 28.99 1.08
3 1 -1 28.54 1.62
3 1 -1 29.11 1.57
3 1 -1 28.97 1.7
3 1 -1 30.1 1.13
3 1 -1 33.5 1.44
-3 -1 1 27.06 1.64
-3 -1 1 28.99 1.76
-3 -1 1 29.75 1.41
-3 -1 1 29.59 1.55
2 1 -1 4.65 0.82
2 1 -1 4.84 0.79
2 1 -1 4.82 0.56
2 1 -1 4.7 0.82
2 1 -1 4.79 0.84
-2 -1 1 4.81 0.8
-2 -1 1 4.8 0.54
-2 -1 1 5.59 0.91
-2 -1 1 3.15 0.74
-2 -1 1 4.23 0.81
1 1 -1 77.89 1.17
1 1 -1 79.01 1.47
1 1 -1 79.79 1.77
1 1 -1 77.77 1.76
1 1 -1 78.45 1.72
-1 -1 1 77.6 1.71
-1 -1 1 78.74 1.18
-1 -1 1 79.02 1.75
-1 -1 1 80.54 1.51
-1 -1 1 81.27 1.69
0 1 -1 2.14 0.32
0 1 -1 2.47 0.43
0 1 -1 2.5 0.28
0 1 -1 2.13 0.47
0 1 -1 2.61 0.46
0 -1 1 2.54 0.48
0 -1 1 2.08 0.48
0 -1 1 2.28 0.42
-1 1 -1 16.96 1
-1 1 -1 17.01 0.57
-1 1 -1 17.8 0.98
1 -1 1 16.96 0.57
1 -1 1 17.16 1.1
1 -1 1 17.33 1.01
1 -1 1 16.58 0.9
1 -1 1 16.44 1.08
1 -1 1 18.38 0.97
-2 1 -1 146.84 2.9
-2 1 -1 142.88 2.95
-2 1 -1 140.45 2.39
-2 1 -1 142.44 3.02
2 -1 1 143.1 2.92
2 -1 1 143.7 2.82
2 -1 1 144.54 2.87
2 -1 1 143.76 3
2 -1 1 143.16 2.45
2 -1 1 145.96 2.8
-3 1 -1 180.56 3.69
-3 1 -1 187.03 3.71
-3 1 -1 180.37 3.9
-3 1 -1 174.95 3.32
3 -1 1 182.05 3.41
3 -1 1 180.88 3.72
3 -1 1 186.41 3.97
3 -1 1 187.99 3.66
3 -1 1 184.64 3.65
3 -1 1 180.13 3.72
-4 1 -1 2.82 0.94
-4 1 -1 4.18 1.01
-4 1 -1 3.82 1.11
-4 1 -1 4.07 0.98
4 -1 1 4.13 0.95
4 -1 1 2.72 0.89
4 -1 1 2.16 0.83
4 -1 1 3.49 0.91
4 -1 1 3.34 0.96
-5 1 -1 136.95 4.13
-5 1 -1 148.35 4.01
-5 1 -1 141.58 3.98
-6 1 -1 -0.12 1
-6 1 -1 -0.6 0.88
-6 1 -1 0.08 1.1
6 -1 1 0.08 0.92
-7 1 -1 12.59 2.17
-7 1 -1 8.43 1.6
7 -1 1 12.42 1.94
-8 1 -1 77.58 3.84
-8 1 -1 72.64 3.95
8 -1 1 66.92 3.78
8 -1 1 80 3.76
8 -1 1 77.87 3.88
-9 1 -1 1.34 1.64
9 -1 1 -1.45 1.3
9 -1 1 3.98 1.65
9 -1 1 2.18 1.53
9 -1 1 -0.29 1.28
10 -1 1 -3.32 1.11
10 -1 1 -1.79 1.49
10 -1 1 0.5 1.46
10 -1 1 3.1 1.65
11 -1 1 6.58 1.95
11 -1 1 3.75 1.78
11 -1 1 5.46 2.07
11 -1 1 10.19 2.5
11 -1 1 4.6 1.98
11 0 -1 7.32 2.21
11 0 -1 3.74 2.39
-11 0 1 1.16 1.75
-11 0 1 5.69 2.2
10 0 -1 5.31 2.09
10 0 -1 1.25 1.28
10 0 -1 3.63 1.69
-10 0 1 2.81 2.1
-10 0 1 7.01 2.14
9 0 -1 1.74 1.8
9 0 -1 1.99 1.22
9 0 -1 3 1.67
-9 0 1 2.84 1.93
-9 0 1 -0.06 1.49
8 0 -1 10.72 1.93
8 0 -1 9.1 1.56
8 0 -1 5.93 1.94
-8 0 1 8.14 2.07
-8 0 1 8.38 1.94
7 0 -1 44.96 2.44
7 0 -1 42.79 2.96
7 0 -1 47.15 2.73
-7 0 1 42.32 3.01
-7 0 1 48.71 3.04
6 0 -1 1 0.66
6 0 -1 0.91 0.91
6 0 -1 1.31 1.04
-6 0 1 -0.24 1.04
-6 0 1 0.57 1.02
5 0 -1 5.22 1.36
5 0 -1 2.69 0.79
5 0 -1 4.69 1.03
5 0 -1 4.86 1.1
-5 0 1 3.65 1.16
-5 0 1 4.52 1.14
-5 0 1 5.49 0.94
4 0 -1 1.64 0.73
4 0 -1 2.25 0.85
4 0 -1 1.51 0.61
4 0 -1 0.2 0.89
4 0 -1 1.88 0.78
4 0 -1 1.56 0.73
4 0 -1 1.57 0.8
-4 0 1 1.09 0.84
-4 0 1 1.84 0.68
-4 0 1 1.95 1
3 0 -1 103.57 2.1
3 0 -1 94.34 2.73
3 0 -1 103.21 2.84
3 0 -1 103.79 2.82
3 0 -1 103 2.64
3 0 -1 102.57 2.48
-3 0 1 100.16 2.83
-3 0 1 103.08 2.13
-3 0 1 105.58 2.67
2 0 -1 1.67 0.42
2 0 -1 1.73 0.73
2 0 -1 2.15 0.68
2 0 -1 2.65 0.72
2 0 -1 2.29 0.62
2 0 -1 2.05 0.71
-2 0 1 2.46 0.44
-2 0 1 2.42 0.71
-2 0 1 2.04 0.74
1 0 -1 4.97 0.59
1 0 -1 5.24 0.68
1 0 -1 5.59 0.29
1 0 -1 6.41 0.7
1 0 -1 5.87 0.71
-1 0 1 6.25 0.73
-1 0 1 5.81 0.31
-1 0 1 5.79 0.72
-1 0 1 5.78 0.72
0 0 -1 11.21 0.5
0 0 -1 11.51 0.55
0 0 1 11.1 0.56
0 0 1 10.76 0.47
0 0 1 11.13 0.42
-1 0 -1 1.25 0.38
-1 0 -1 0.97 0.41
-1 0 -1 0.55 0.44
1 0 1 1.09 0.41
1 0 1 1.1 0.37
1 0 1 0.92 0.28
1 0 1 0.54 0.41
1 0 1 1.28 0.3
1 0 1 1.27 0.48
-2 0 -1 169.12 2.87
-2 0 -1 176.27 3.02
-2 0 -1 171.65 2.74
-2 0 -1 174.17 3.2
2 0 1 169.18 3.16
2 0 1 172.97 2.93
2 0 1 173.35 2.69
2 0 1 173.66 2.97
2 0 1 177.76 3.06
2 0 1 173.55 2.87
-3 0 -1 287.21 4.57
-3 0 -1 277.52 4.47
-3 0 -1 284.38 4.44
-3 0 -1 284.08 4.82
-3 0 -1 287.57 4.57
3 0 1 282.03 4.32
3 0 1 284.05 4.5
3 0 1 279.42 4.84
3 0 1 289.21 4.58
3 0 1 291.53 4.61
-4 0 -1 7.2 1.24
-4 0 -1 6.62 1.18
-4 0 -1 8.96 1.24
-4 0 -1 8.45 1.24
-4 0 -1 7.36 1.21
4 0 1 8.02 1.16
4 0 1 7.15 1.19
4 0 1 7.89 1.11
4 0 1 6.14 1.06
4 0 1 6.39 1.03
-5 0 -1 207.99 4.65
-5 0 -1 201.22 4.64
-5 0 -1 192.81 4.44
-5 0 -1 195.07 4.73
-5 0 -1 202.74 4.66
5 0 1 199.34 4.52
-6 0 -1 89.01 3.43
-6 0 -1 98.56 3.63
-6 0 -1 103.94 3.7
-7 0 -1 7.08 1.66
-7 0 -1 5.42 1.59
-7 0 -1 5.04 1.5
7 0 1 5.64 1.54
7 0 1 7.07 1.59
-8 0 -1 12.87 2.24
-8 0 -1 14.88 2.27
8 0 1 12.73 2.17
8 0 1 11.9 1.99
-9 0 -1 15.76 2.65
9 0 1 19.38 2.71
9 0 1 16.1 2.77
9 0 1 16.98 2.48
10 0 1 24.23 2.75
10 0 1 20.17 2.9
10 0 1 21.58 3.06
11 0 1 28.16 3.08
11 0 1 36.46 3.77
11 0 1 26.07 3
11 0 1 30.63 3.23
11 0 1 31.14 3.35
12 0 1 -0.06 1.72
12 0 1 1.09 1.31
12 0 1 0.18 1.39
12 0 1 2.42 1.45
11 -1 -1 2.99 1.53
11 -1 -1 -1.56 1.58
11 -1 -1 -0.4 1.58
-11 1 1 -2.35 1.59
10 -1 -1 -2.68 1.49
10 -1 -1 2.4 1.35
10 -1 -1 -1.33 1.19
-10 1 1 0.65 1.73
9 -1 -1 13.36 2.52
9 -1 -1 14.31 2.29
9 -1 -1 11.7 2.21
-9 1 1 9.61 2.44
-9 1 1 10.85 2.36
8 -1 -1 4.76 1.41
8 -1 -1 5.66 1.85
-8 1 1 3.82 1.69
-8 1 1 4.39 1.9
-8 1 1 2.4 1.19
7 -1 -1 6.53 1.46
7 -1 -1 5.84 1.65
-7 1 1 9.44 1.93
-7 1 1 5.84 1.25
-7 1 1 4.99 1.63
6 -1 -1 1.83 1.16
6 -1 -1 0.73 0.93
-6 1 1 1.37 1.13
-6 1 1 -0.07 0.81
-6 1 1 0.1 1.07
5 -1 -1 66.83 2.54
5 -1 -1 65.8 2.88
5 -1 -1 68.52 2.46
5 -1 -1 62.56 2.29
-5 1 1 65.94 2.42
-5 1 1 64.6 2.91
-5 1 1 70.07 3.13
4 -1 -1 11.39 1.12
4 -1 -1 12 1.38
4 -1 -1 11.15 1.17
4 -1 -1 13.21 1.24
4 -1 -1 14.64 1.48
4 -1 -1 12.35 1.33
-4 1 1 12.91 1.26
-4 1 1 12.5 1.6
-4 1 1 13.52 1.66
3 -1 -1 2.06 0.77
3 -1 -1 1.85 0.76
3 -1 -1 1.67 0.62
3 -1 -1 2.04 0.85
3 -1 -1 1.84 0.65
3 -1 -1 1.9 0.6
-3 1 1 1.12 0.79
-3 1 1 1.87 0.66
-3 1 1 0.83 0.87
2 -1 -1 62.82 1.44
2 -1 -1 64.21 2.05
2 -1 -1 64.26 2.03
2 -1 -1 62.81 2
2 -1 -1 63.72 1.61
-2 1 1 65.12 2.14
-2 1 1 63.26 1.64
-2 1 1 65.08 2.02
-2 1 1 68 2.17
1 -1 -1 5.07 0.64
1 -1 -1 5.21 0.43
1 -1 -1 5.55 0.86
1 -1 -1 5.63 0.81
1 -1 -1 5.33 0.73
-1 1 1 5.2 0.71
-1 1 1 5.18 0.85
-1 1 1 5.6 0.68
-1 1 1 6.6 0.88
-1 1 1 5.22 0.42
0 -1 -1 4.43 0.56
0 -1 -1 4.57 0.47
0 -1 -1 5.23 0.65
0 -1 -1 4.95 0.55
0 1 1 4.9 0.63
0 1 1 4.56 0.61
0 1 1 4.96 0.63
0 1 1 3.96 0.55
0 1 1 5.19 0.47
-1 -1 -1 372.52 3.88
-1 -1 -1 375.67 4.49
-1 -1 -1 363.65 3.72
-1 -1 -1 371.13 4.27
-1 -1 -1 379.82 4.55
1 1 1 385.04 4.47
1 1 1 372.9 3.73
1 1 1 378.01 4.55
1 1 1 376.48 4.37
1 1 1 368.78 3.85
-2 -1 -1 -0.45 0.42
-2 -1 -1 -0.26 0.56
-2 -1 -1 0.16 0.63
-2 -1 -1 0.05 0.58
2 1 1 -0.42 0.54
2 1 1 0.23 0.59
2 1 1 -0.6 0.4
2 1 1 -0.34 0.38
2 1 1 0.13 0.55
-3 -1 -1 223.81 4.13
-3 -1 -1 222.24 3.62
-3 -1 -1 225.32 4.32
3 1 1 228.03 3.83
3 1 1 229.41 3.5
3 1 1 229.29 3.48
3 1 1 223.94 4.08
3 1 1 223.63 3.89
3 1 1 223.92 4.3
3 1 1 224.51 3.62
-4 -1 -1 104.65 2.81
-4 -1 -1 110.46 3.23
-4 -1 -1 102.97 2.63
-4 -1 -1 106.85 3.28
4 1 1 108.47 2.81
4 1 1 108.85 2.68
4 1 1 109.69 2.93
4 1 1 109.36 2.9
4 1 1 107.46 3.27
4 1 1 107.21 3.11
-5 -1 -1 23.23 1.97
-5 -1 -1 22.21 1.64
-5 -1 -1 22.1 1.83
5 1 1 21.73 1.58
5 1 1 20.96 1.76
5 1 1 22.97 1.54
5 1 1 22.63 1.63
-6 -1 -1 -0.72 0.83
-6 -1 -1 0.68 0.9
-6 -1 -1 -1.18 0.97
6 1 1 0.9 0.91
6 1 1 -0.48 0.96
-7 -1 -1 3.42 1.21
-7 -1 -1 3.67 1.5
-7 -1 -1 2.66 1.28
7 1 1 4.28 1.45
7 1 1 4.42 1.24
-8 -1 -1 65.91 3.79
-8 -1 -1 69.62 3.72
8 1 1 73.52 3.37
8 1 1 72.95 3.82
-9 -1 -1 72.35 4.09
9 1 1 75.23 3.67
9 1 1 71.13 4.08
-10 -1 -1 0.95 1.65
10 1 1 -0.49 1.48
10 1 1 1.34 1.35
10 1 1 4.33 2.07
10 1 1 3.68 1.64
-11 -1 -1 1.32 1.72
11 1 1 4.14 1.48
11 1 1 0.45 1.33
11 1 1 7.19 2.22
11 1 1 1.51 1.77
12 1 1 8.59 2.26
12 1 1 6.56 2.19
11 -2 -1 1.47 1.73
11 -2 -1 1.73 1.68
-11 2 1 -0.34 1.85
10 -2 -1 1.39 1.32
10 -2 -1 0.88 1.64
10 -2 -1 -1.58 1.42
-10 2 1 -2.11 1.4
9 -2 -1 3.01 1.88
9 -2 -1 6.98 2.09
9 -2 -1 0.62 1.38
-9 2 1 3.17 1.79
-9 2 1 2.31 1.35
8 -2 -1 1.19 1.45
8 -2 -1 0.33 1.44
8 -2 -1 1.76 1.1
-8 2 1 0.98 1.52
-8 2 1 -0.88 1.05
7 -2 -1 20.24 2
7 -2 -1 20.45 2.37
-7 2 1 21.97 2.2
-7 2 1 22.36 2.6
6 -2 -1 11 1.83
6 -2 -1 12.26 1.38
6 -2 -1 13.17 1.6
-6 2 1 8.81 1.84
-6 2 1 12.08 1.65
5 -2 -1 -0.1 0.87
5 -2 -1 1.39 0.77
5 -2 -1 -0.4 0.48
-5 2 1 -0.83 0.7
-5 2 1 -0.09 1.01
4 -2 -1 1.37 0.92
4 -2 -1 0.31 0.64
4 -2 -1 0.38 0.62
4 -2 -1 0.27 0.59
-4 2 1 0.42 0.92
-4 2 1 0.56 0.77
3 -2 -1 3.04 0.9
3 -2 -1 3.02 0.61
3 -2 -1 4.12 0.99
3 -2 -1 4.22 1.09
3 -2 -1 3.48 0.79
3 -2 -1 2.12 0.82
3 -2 -1 3.73 0.66
-3 2 1 3.55 0.87
-3 2 1 3.68 0.89
-3 2 1 3.09 1.01
2 -2 -1 204.73 4.05
2 -2 -1 197.29 2.39
2 -2 -1 199.26 3.64
2 -2 -1 189.27 3.92
2 -2 -1 194.43 4
2 -2 -1 198.83 3.51
-2 2 1 192.91 3.46
-2 2 1 193.85 3.68
-2 2 1 190.76 3.98
1 -2 -1 220.88 3.78
1 -2 -1 220.56 3.42
1 -2 -1 213.41 3.71
1 -2 -1 222.6 3.51
-1 2 1 210.36 3.41
-1 2 1 212.13 3.71
-1 2 1 220.42 3.56
0 -2 -1 10.59 1
0 -2 -1 11.4 0.96
0 -2 -1 12.31 1.04
0 2 1 11.39 0.67
0 2 1 11.98 0.97
0 2 1 10.3 0.65
0 2 1 12.26 1.02
0 2 1 9.84 0.98
0 2 1 11.36 0.98
-1 -2 -1 849.48 8.95
-1 -2 -1 866.24 8.62
-1 -2 -1 864.63 8.17
-1 -2 -1 882.77 9.19
1 2 1 877.13 9.23
1 2 1 861.59 8.14
1 2 1 892.64 8.57
1 2 1 847.3 8.96
-2 -2 -1 9.37 0.89
-2 -2 -1 9.17 0.58
-2 -2 -1 9.2 1.17
-2 -2 -1 10.87 1.07
2 2 1 10.26 1.07
2 2 1 9.4 1.16
2 2 1 9.33 0.56
2 2 1 9.24 0.88
2 2 1 10 1.17
-3 -2 -1 37.16 1.93
-3 -2 -1 37.51 1.65
-3 -2 -1 36.84 1.56
3 2 1 36.28 1.1
3 2 1 37.29 1.54
3 2 1 38.23 1.89
3 2 1 36.85 1.12
3 2 1 35.95 1.73
3 2 1 36.92 1.8
-4 -2 -1 -0.33 0.64
-4 -2 -1 -0.36 0.87
-4 -2 -1 -1.04 0.61
4 2 1 0.78 0.54
4 2 1 0.83 0.77
4 2 1 -0.27 0.64
4 2 1 0.75 0.62
4 2 1 0.72 0.56
4 2 1 1.92 0.92
4 2 1 0.27 0.7
-5 -2 -1 1.27 0.85
-5 -2 -1 1.62 1.09
5 2 1 2.04 0.89
5 2 1 1.46 1.04
5 2 1 1.94 0.78
5 2 1 2.15 0.67
5 2 1 0.69 0.64
-6 -2 -1 66.49 3.26
-6 -2 -1 62.27 2.8
6 2 1 64.02 3.11
6 2 1 62.97 2.65
6 2 1 60.23 2.29
-7 -2 -1 56.85 3.04
-7 -2 -1 52.64 3.19
7 2 1 54.87 3.27
7 2 1 55.04 2.75
-8 -2 -1 -0.67 1.26
-8 -2 -1 -1.15 1.11
8 2 1 0.78 1.08
8 2 1 -1.2 0.84
8 2 1 1.34 1.42
-9 -2 -1 19.69 2.67
-9 -2 -1 22.87 3
9 2 1 13.9 2.15
9 2 1 18.42 2.97
9 2 1 15.47 2.06
-10 -2 -1 -0.75 1.38
-10 -2 -1 2.11 2
10 2 1 1.42 1.43
10 2 1 2.82 1.71
10 2 1 0.67 1.29
-11 -2 -1 9.52 2.57
11 2 1 9.97 2.65
11 2 1 6.68 1.74
11 2 1 10.76 2.59
11 2 1 7.3 1.9
-12 -2 -1 3.85 2.18
12 2 1 6.54 2.11
12 2 1 1.59 2.2
11 -3 -1 8.08 2.56
11 -3 -1 7.18 2.15
-11 3 1 3.1 2.27
10 -3 -1 3.98 2.12
10 -3 -1 3.41 1.84
-10 3 1 3.36 2.18
-10 3 1 6.35 1.66
9 -3 -1 6.35 1.92
9 -3 -1 6.35 1.58
9 -3 -1 5.9 2.21
-9 3 1 5.89 1.73
-9 3 1 8.56 2.38
8 -3 -1 23.06 2.11
8 -3 -1 19.63 3.04
8 -3 -1 22.24 2.73
-8 3 1 17.44 2.78
-8 3 1 18.92 2.46
7 -3 -1 2.28 1.45
7 -3 -1 4.03 1.16
7 -3 -1 5.14 1.81
-7 3 1 3.41 1.33
-7 3 1 3.05 1.66
6 -3 -1 2.38 0.75
6 -3 -1 1.33 0.83
6 -3 -1 1.02 1.12
6 -3 -1 0.28 1.16
-6 3 1 0.19 1.01
-6 3 1 1.01 1.31
5 -3 -1 6.42 1.02
5 -3 -1 6.94 0.99
5 -3 -1 7.86 1.47
5 -3 -1 4.53 1.37
-5 3 1 7.72 1.76
-5 3 1 3.91 1.12
4 -3 -1 97.79 2.25
4 -3 -1 97.44 3.69
4 -3 -1 89.56 3.13
4 -3 -1 95.13 2.34
-4 3 1 98.53 3.7
-4 3 1 96.5 3.18
3 -3 -1 178.12 3.92
3 -3 -1 175.05 4.49
3 -3 -1 175.11 2.66
3 -3 -1 176.7 3.94
3 -3 -1 177.45 2.58
-3 3 1 172.74 4.48
-3 3 1 169.24 3.96
2 -3 -1 3.41 0.95
2 -3 -1 2.97 1
2 -3 -1 4.34 0.92
2 -3 -1 3.61 0.86
-2 3 1 4.37 0.99
-2 3 1 4.09 1.1
1 -3 -1 226.24 4.04
1 -3 -1 239.72 4.04
1 -3 -1 218.1 4.19
-1 3 1 235.44 4.15
-1 3 1 231.32 4.35
-1 3 1 225.86 4.39
0 -3 -1 101.48 2.54
0 -3 -1 107.67 2.69
0 -3 -1 104.54 2.58
0 3 1 105.11 2.7
0 3 1 100.68 1.83
0 3 1 102.34 2.56
0 3 1 106.24 2.65
0 3 1 106.44 2.54
-1 -3 -1 666.33 7.99
-1 -3 -1 660.92 7.69
-1 -3 -1 669.17 7.03
-1 -3 -1 667.58 7.92
1 3 1 658.64 7.92
1 3 1 678.84 7.9
1 3 1 652.21 7.41
1 3 1 662.68 7.01
1 3 1 663.6 7.69
1 3 1 653.22 7.86
-2 -3 -1 7.73 0.59
-2 -3 -1 7.41 1.18
-2 -3 -1 7.8 1.12
-2 -3 -1 9.74 1.08
2 3 1 8.73 1.38
2 3 1 7.28 0.61
2 3 1 7.82 1.15
2 3 1 7.78 0.97
2 3 1 9.07 1.26
2 3 1 8.42 1.18
-3 -3 -1 1.61 0.93
-3 -3 -1 3.2 0.87
-3 -3 -1 1.54 0.75
3 3 1 3.99 1
3 3 1 4.38 1.11
3 3 1 2.97 0.75
3 3 1 2.16 0.87
3 3 1 2.79 0.89
-4 -3 -1 224.14 4.93
-4 -3 -1 224.41 4.43
-4 -3 -1 219.13 4.24
4 3 1 219.24 4.91
4 3 1 229.17 4.45
4 3 1 223.99 4.21
4 3 1 217.9 2.83
-5 -3 -1 1.43 1.15
-5 -3 -1 1.96 0.95
5 3 1 2.7 0.97
5 3 1 2.39 0.63
5 3 1 0.77 0.97
5 3 1 1.93 0.58
5 3 1 2.07 0.8
-6 -3 -1 18.76 2.23
-6 -3 -1 20.37 1.92
6 3 1 17.11 1.79
6 3 1 17.74 2.04
6 3 1 18.82 1.24
6 3 1 18.18 1.28
-7 -3 -1 18.8 2.11
-7 -3 -1 21.85 2.46
7 3 1 19.07 1.38
7 3 1 19.41 2.46
7 3 1 22.95 2.03
7 3 1 21.28 1.6
-8 -3 -1 1.09 1.49
-8 -3 -1 1 1.32
8 3 1 -1.2 1.36
8 3 1 -0.88 0.73
8 3 1 -0.05 0.99
-9 -3 -1 29.91 3.31
-9 -3 -1 30.08 2.97
9 3 1 29.14 2.19
9 3 1 30.81 3.18
9 3 1 22.87 2.41
-10 -3 -1 -0.28 1.52
-10 -3 -1 5.14 2.2
10 3 1 2.72 1.2
10 3 1 1.9 1.4
10 3 1 3.66 1.87
-11 -3 -1 -0.41 1.91
-11 -3 -1 -1.66 1.34
11 3 1 0.5 1.86
11 3 1 -0.55 1.17
-12 -3 -1 2.54 1.93
12 3 1 1.59 2.11
12 3 1 2.65 2.23
10 -4 -1 1.74 2.14
10 -4 -1 4.77 1.81
-10 4 1 -2.17 1.81
-10 4 1 4.25 1.67
9 -4 -1 0.08 1.44
9 -4 -1 2.18 1.98
-9 4 1 2.25 1.51
-9 4 1 3.26 1.92
8 -4 -1 3.62 1.96
8 -4 -1 4.06 1.25
8 -4 -1 3.92 1.77
-8 4 1 2.33 1.98
-8 4 1 4.08 1.58
7 -4 -1 12.22 2.4
7 -4 -1 11.05 1.46
7 -4 -1 13.63 2.2
-7 4 1 10.79 2.33
-7 4 1 11.7 2.14
6 -4 -1 66.32 3.25
6 -4 -1 61.24 2.23
6 -4 -1 69.82 3.88
6 -4 -1 67.32 2.33
-6 4 1 63.41 3.84
-6 4 1 67.29 3.4
5 -4 -1 8.2 1.81
5 -4 -1 8.94 0.97
5 -4 -1 7.37 1.5
5 -4 -1 9.07 1.07
-5 4 1 11.62 1.88
-5 4 1 8.5 1.9
4 -4 -1 5.29 0.71
4 -4 -1 3.03 1.27
4 -4 -1 4.55 1.17
4 -4 -1 4.82 0.79
-4 4 1 4.07 1.2
-4 4 1 6.72 1.57
3 -4 -1 133.82 3.56
-3 4 1 132.7 4.21
-3 4 1 130.3 3.5
-3 4 1 131.74 3.81
2 -4 -1 12.69 1.37
2 -4 -1 13.52 1.66
-2 4 1 12.1 1.23
-2 4 1 10.67 1.56
-2 4 1 11.01 1.66
1 -4 -1 122.8 3.11
1 -4 -1 123.92 3.36
1 -4 -1 122.73 3.5
1 -4 -1 125.83 3.27
-1 4 1 126.27 3.48
-1 4 1 121.4 3.46
-1 4 1 127.73 3.43
0 -4 -1 0.88 0.48
0 -4 -1 1.82 0.86
0 -4 -1 0.47 0.74
0 -4 -1 0.94 0.75
0 4 1 2.35 0.82
0 4 1 0.37 0.51
0 4 1 0.03 0.84
0 4 1 1.27 0.76
-1 -4 -1 76.1 2.06
-1 -4 -1 78.93 2.49
-1 -4 -1 76.28 2.05
-1 -4 -1 76.32 2.49
-1 -4 -1 75.4 2.48
1 4 1 81.6 2.59
1 4 1 78.99 2.47
1 4 1 79.29 2.16
1 4 1 78.93 2.22
1 4 1 74.02 2.43
-2 -4 -1 228.11 4.49
-2 -4 -1 236.73 4.36
-2 -4 -1 221.54 3.08
-2 -4 -1 228.88 4.49
2 4 1 228.96 4.19
2 4 1 223.05 4.45
2 4 1 223.76 4.46
2 4 1 230.58 3.15
2 4 1 230.51 4.3
-3 -4 -1 1.8 0.85
-3 -4 -1 1.35 0.78
-3 -4 -1 1.51 0.92
3 4 1 1.66 0.97
3 4 1 1.26 0.85
3 4 1 0.02 0.71
3 4 1 1.39 0.9
3 4 1 1.82 0.76
-4 -4 -1 6.75 1.47
-4 -4 -1 8.42 1.34
4 4 1 9.06 1.47
4 4 1 8.3 1.16
4 4 1 9.09 1.41
-5 -4 -1 10.92 1.8
-5 -4 -1 10.03 1.52
5 4 1 9.35 1.68
5 4 1 11.76 1.7
-6 -4 -1 0.34 1.15
-6 -4 -1 -0.77 0.88
6 4 1 -0.05 0.92
6 4 1 0.27 1.16
-7 -4 -1 41.56 2.74
-7 -4 -1 37.83 2.98
7 4 1 36.79 1.56
7 4 1 35.74 1.53
7 4 1 38.83 2.97
7 4 1 42.39 2.57
-8 -4 -1 5.16 1.6
-8 -4 -1 3.85 1.77
8 4 1 2.88 0.8
8 4 1 4.73 1.46
8 4 1 3.2 0.72
8 4 1 1.05 1.52
-9 -4 -1 5.72 1.76
-9 -4 -1 9.28 2.45
9 4 1 5.7 1.97
9 4 1 6.97 1.74
9 4 1 5.18 1.16
-10 -4 -1 8.52 2.66
-10 -4 -1 7.12 2.2
10 4 1 5.18 1.7
10 4 1 8.26 2.39
-11 -4 -1 5.13 2.32
-11 -4 -1 1.8 1.91
11 4 1 5.02 2.24
11 4 1 1.45 1.51
-12 -4 -1 13.43 2.71
-12 -4 -1 10.43 2.78
12 4 1 8.73 3.21
10 -5 -1 4.1 2.36
10 -5 -1 6.26 1.91
-10 5 1 3 1.74
-10 5 1 0.89 2
9 -5 -1 13.38 2.97
9 -5 -1 13.13 2.29
-9 5 1 16.48 2.71
-9 5 1 9.41 2.81
8 -5 -1 26.67 3.5
8 -5 -1 34 3.01
-8 5 1 30.47 3.12
-8 5 1 27.39 3.51
7 -5 -1 3.14 1.69
7 -5 -1 -0.76 1.06
-7 5 1 0.55 1.36
-7 5 1 0.91 1.66
6 -5 -1 0.4 1.06
6 -5 -1 1.19 0.64
6 -5 -1 2.01 1.52
-6 5 1 1.25 1.54
-6 5 1 -0.61 1.22
5 -5 -1 14.93 1.04
5 -5 -1 13.67 2.26
5 -5 -1 13.42 1.87
-5 5 1 14.6 2.2
-5 5 1 16.66 2.4
4 -5 -1 -0.66 0.81
4 -5 -1 0.35 1.15
-4 5 1 1.1 1.05
-4 5 1 0.1 1.12
3 -5 -1 112.62 3.4
3 -5 -1 112.84 4.09
-3 5 1 107.61 4.19
-3 5 1 109.67 3.8
2 -5 -1 14.03 1.53
2 -5 -1 14.02 1.77
-2 5 1 14.39 1.86
-2 5 1 16.6 1.91
-2 5 1 13.49 1.34
1 -5 -1 1 0.98
1 -5 -1 0.55 0.8
1 -5 -1 0.76 0.41
-1 5 1 -0.11 0.83
-1 5 1 0.77 0.88
-1 5 1 0.02 0.71
-1 5 1 0.11 0.4
0 -5 -1 188.33 4.04
0 -5 -1 176.54 4.39
0 -5 -1 181.5 3.16
0 5 1 186.92 4.37
0 5 1 182.45 3.22
0 5 1 188.94 4.2
-1 -5 -1 66.21 2.65
-1 -5 -1 64.73 2.08
-1 -5 -1 65.48 2.53
-1 -5 -1 65.2 2.13
1 5 1 63.79 2.65
1 5 1 64.36 2.43
1 5 1 65.76 2.24
1 5 1 62.1 2.45
1 5 1 60.94 2.14
-2 -5 -1 4.12 1.11
-2 -5 -1 3.1 0.83
-2 -5 -1 1.73 0.92
-2 -5 -1 3.19 0.64
2 5 1 1.78 0.94
2 5 1 2.15 0.82
2 5 1 4 0.78
2 5 1 3.38 1.03
2 5 1 3.14 0.9
-3 -5 -1 22.35 1.87
-3 -5 -1 19.63 1.68
3 5 1 20.65 1.82
3 5 1 23.02 1.62
3 5 1 22.27 1.97
-4 -5 -1 4.01 1.25
-4 -5 -1 7.4 1.34
4 5 1 4.18 1.22
4 5 1 5.82 1.31
-5 -5 -1 60.27 3.08
-5 -5 -1 58.5 2.75
5 5 1 58.21 3.07
5 5 1 62.4 2.94
-6 -5 -1 -0.28 0.98
-6 -5 -1 1.87 1.22
6 5 1 0.68 1.17
6 5 1 0.62 1.12
-7 -5 -1 30.87 2.89
-7 -5 -1 36.69 2.74
7 5 1 32.53 2.91
7 5 1 39.83 2.75
-8 -5 -1 11.54 2.12
-8 -5 -1 5.19 1.87
8 5 1 11.56 1.97
8 5 1 10.04 2.25
-9 -5 -1 9.82 2.19
-9 -5 -1 8.62 2.35
9 5 1 8.28 2.26
9 5 1 11.73 2.05
-10 -5 -1 26.38 3.04
-10 -5 -1 28.86 3.64
10 5 1 28.99 3.42
10 5 1 25.98 2.8
-11 -5 -1 6.4 2.65
-11 -5 -1 6.64 2.17
11 5 1 8.83 2.85
11 5 1 7.05 1.9
-12 -5 -1 -1.31 1.82
-12 -5 -1 -1.05 1.67
12 5 1 -2.55 2.13
9 -6 -1 3.91 2.22
9 -6 -1 3.23 1.54
-9 6 1 1.82 1.53
-9 6 1 0.65 1.9
8 -6 -1 5.16 1.66
8 -6 -1 4.28 2.2
-8 6 1 -0.05 1.63
-8 6 1 1.47 1.94
7 -6 -1 5.71 1.71
7 -6 -1 6.62 2.37
-7 6 1 0.52 1.42
-7 6 1 5.02 2.19
6 -6 -1 20.17 2.3
6 -6 -1 25.92 3.13
-6 6 1 15.27 2.7
-6 6 1 22.91 2.83
5 -6 -1 28.16 2.29
5 -6 -1 22.08 2.7
-5 6 1 24.72 2.7
-5 6 1 23.99 2.81
4 -6 -1 2.25 1.12
4 -6 -1 6.09 1.65
-4 6 1 5.49 1.75
-4 6 1 7.1 1.75
3 -6 -1 13.12 2.09
3 -6 -1 10.2 1.62
-3 6 1 14.06 2.05
-3 6 1 9.52 1.93
2 -6 -1 61.91 2.71
2 -6 -1 59.99 3.18
-2 6 1 60.17 3.22
-2 6 1 65.87 3.17
1 -6 -1 51.84 1.53
1 -6 -1 52.23 2.82
1 -6 -1 51.89 2.43
-1 6 1 52.06 1.61
-1 6 1 50.97 2.84
-1 6 1 53.22 2.37
-1 6 1 55.08 2.92
0 -6 -1 16 1.64
0 -6 -1 17.13 1.96
0 -6 -1 18.36 1.2
0 6 1 16.99 1.43
0 6 1 19.67 1.91
0 6 1 15.69 1.92
0 6 1 19.48 1.29
-1 -6 -1 72.86 2.48
-1 -6 -1 75.63 2.39
-1 -6 -1 71.01 2.8
-1 -6 -1 73.7 3.06
1 6 1 72.24 2.48
1 6 1 78.64 3.21
1 6 1 74.24 2.66
-2 -6 -1 17.46 1.78
-2 -6 -1 16.17 1.17
-2 -6 -1 18.67 1.45
-2 -6 -1 20.85 1.93
2 6 1 16.5 1.68
2 6 1 18.22 1.37
2 6 1 16.74 1.83
-3 -6 -1 17.15 1.83
-3 -6 -1 17.79 1.94
-3 -6 -1 17.87 0.96
3 6 1 17.18 1.89
3 6 1 19.15 2
3 6 1 17.81 1.04
-4 -6 -1 35.42 2.47
-4 -6 -1 33.56 2.29
4 6 1 29.76 2.37
4 6 1 33.84 2.46
-5 -6 -1 18.26 2.19
-5 -6 -1 20.85 2.08
5 6 1 19.13 2.08
5 6 1 16.02 2.08
-6 -6 -1 1.34 1.28
-6 -6 -1 3.4 1.35
6 6 1 3.25 1.52
6 6 1 3.77 1.48
-7 -6 -1 46.39 3.07
-7 -6 -1 45.69 3.37
7 6 1 46.76 3.46
7 6 1 45.26 3.18
-8 -6 -1 37.87 3.07
-8 -6 -1 35.41 3.47
8 6 1 35.63 3.29
8 6 1 36.35 2.93
-9 -6 -1 0.95 1.47
-9 -6 -1 -2.07 1.64
9 6 1 -0.4 1.55
9 6 1 -0.45 1.4
-10 -6 -1 1.92 1.99
-10 -6 -1 3.55 1.83
10 6 1 4.84 1.74
10 6 1 0.47 1.87
-11 -6 -1 1.76 1.85
-11 -6 -1 -4.66 1.59
11 6 1 0.55 2.23
11 6 1 2.58 1.61
-12 -6 -1 5.85 2.16
-12 -6 -1 5.24 2.65
12 6 1 9.96 3.03
9 -7 -1 1.02 2.03
-9 7 1 3.41 2.23
8 -7 -1 17.25 2.27
8 -7 -1 14.1 2.91
-8 7 1 9.8 3.03
-8 7 1 12.29 2.73
7 -7 -1 1.4 2.01
7 -7 -1 0.82 1.14
-7 7 1 1.81 2.06
-7 7 1 2.14 1.74
6 -7 -1 4.74 1.46
6 -7 -1 5.54 2.15
-6 7 1 2.24 1.79
-6 7 1 3.28 1.96
5 -7 -1 14.33 2.02
5 -7 -1 16.42 2.66
-5 7 1 19.32 3.03
-5 7 1 18.24 2.73
4 -7 -1 5.27 1.38
4 -7 -1 8.43 2.11
-4 7 1 5.86 1.85
-4 7 1 5.95 1.89
3 -7 -1 25.19 2.13
3 -7 -1 20.85 2.5
-3 7 1 25.99 2.62
-3 7 1 21.47 2.58
2 -7 -1 2.41 1.11
2 -7 -1 2.86 1.33
-2 7 1 4.21 1.55
-2 7 1 2.45 1.38
1 -7 -1 10.89 1.63
1 -7 -1 8.44 0.88
1 -7 -1 8.82 1.77
-1 7 1 9.72 1.78
-1 7 1 9.89 1.78
-1 7 1 8.5 1.01
0 -7 -1 19.25 1.28
0 -7 -1 17.46 2.02
0 -7 -1 18.56 1.87
0 7 1 18.82 1.45
0 7 1 19.86 2.07
0 7 1 17.37 2.09
-1 -7 -1 22.92 1.54
-1 -7 -1 29.6 2.16
-1 -7 -1 23.27 2.15
1 7 1 26.21 1.94
1 7 1 24.52 1.8
1 7 1 20.16 2.14
-2 -7 -1 77.2 3.22
-2 -7 -1 78.37 3.36
-2 -7 -1 77.38 2.48
2 7 1 76.67 2.64
2 7 1 78.44 3.04
2 7 1 76.59 3.44
-3 -7 -1 36.97 2.57
-3 -7 -1 34.42 2.48
-3 -7 -1 33.41 1.4
3 7 1 36.09 2.51
3 7 1 32.59 2.44
-4 -7 -1 0.69 1.09
-4 -7 -1 2.61 1.28
4 7 1 2.04 1.29
4 7 1 5.25 1.44
-5 -7 -1 48.39 3.02
-5 -7 -1 55.54 3.36
5 7 1 55.95 3.28
5 7 1 61.28 3.49
-6 -7 -1 47.86 3.24
-6 -7 -1 52.07 3.18
6 7 1 48.2 3.17
6 7 1 50.33 3.52
-7 -7 -1 -0.12 1.33
-7 -7 -1 -0.92 1.16
7 7 1 0.08 1.4
7 7 1 -1.17 1.41
-8 -7 -1 2.62 1.89
-8 -7 -1 0.58 1.5
8 7 1 -1.54 1.6
8 7 1 0.54 1.5
-9 -7 -1 -0.43 1.56
-9 -7 -1 0.14 1.78
9 7 1 -0.94 1.61
9 7 1 0.56 1.89
-10 -7 -1 20.59 3.69
-10 -7 -1 20.1 3.22
10 7 1 21.08 3.47
10 7 1 28.62 3.25
-11 -7 -1 24.38 3.19
-11 -7 -1 26.54 3.98
11 7 1 18.06 3.48
11 7 1 32.37 3.19
-12 -7 -1 7.74 2.11
-12 -7 -1 -1.39 1.99
12 7 1 2.76 2.2
8 -8 -1 4.71 2.34
-8 8 1 6.35 2.08
-8 8 1 2.65 2.28
7 -8 -1 7.07 2.39
7 -8 -1 15.5 2.44
-7 8 1 8.51 2.63
-7 8 1 13.4 2.7
6 -8 -1 3.72 2.12
6 -8 -1 1.85 1.31
-6 8 1 -1.95 1.56
-6 8 1 1.31 1.7
5 -8 -1 29.7 3.36
5 -8 -1 25.87 2.38
-5 8 1 29.89 3.64
-5 8 1 26.14 3.08
4 -8 -1 0.09 0.89
4 -8 -1 -1.28 1.36
-4 8 1 1.67 1.73
-4 8 1 -0.21 1.39
3 -8 -1 38.06 2.53
3 -8 -1 32.25 3.09
-3 8 1 31.65 3.02
-3 8 1 35.43 3.31
2 -8 -1 45.74 2.68
2 -8 -1 40.01 3.25
-2 8 1 42.24 3.26
-2 8 1 42.52 3.35
1 -8 -1 -0.07 1.18
1 -8 -1 -0.51 0.89
1 -8 -1 0.31 0.48
-1 8 1 0.97 1.27
-1 8 1 -0.88 1.06
-1 8 1 -0.29 0.5
0 -8 -1 102.71 2.83
0 -8 -1 98.44 3.62
0 -8 -1 100.81 4.26
0 8 1 108.43 4.04
0 8 1 108.75 3.06
0 8 1 103.55 4.33
-1 -8 -1 0.55 1
-1 -8 -1 0.1 1.17
1 8 1 -0.29 0.76
1 8 1 1.97 1.03
1 8 1 0.49 1.16
-2 -8 -1 13.94 1.27
-2 -8 -1 13.03 1.99
-2 -8 -1 14.68 1.97
2 8 1 13.89 1.89
2 8 1 14.99 1.7
2 8 1 13.92 2.15
-3 -8 -1 62.78 2.11
-3 -8 -1 68.84 3.52
-3 -8 -1 65.72 3.34
3 8 1 65.57 3.25
3 8 1 67.72 3.62
-4 -8 -1 2.46 1.38
-4 -8 -1 1.46 1.3
4 8 1 2.08 1.46
4 8 1 2.53 1.38
-5 -8 -1 11.14 2.11
-5 -8 -1 13.86 2.18
5 8 1 14.64 2.46
5 8 1 15.91 2.37
-6 -8 -1 0.59 1.38
-6 -8 -1 1.49 1.4
6 8 1 1.8 1.45
6 8 1 2.56 1.6
-7 -8 -1 2.93 1.76
-7 -8 -1 0.78 1.41
7 8 1 0.79 1.64
7 8 1 1.03 1.7
-8 -8 -1 41.39 3.46
-8 -8 -1 26.87 3.39
8 8 1 36.59 3.66
8 8 1 35.7 3.29
-9 -8 -1 22.86 3.34
-9 -8 -1 14.95 2.62
9 8 1 17.67 3.22
9 8 1 17.16 2.81
-10 -8 -1 -0.8 2.12
-10 -8 -1 0.64 1.95
10 8 1 4.47 1.84
10 8 1 -0.34 1.78
-11 -8 -1 4.96 2.17
-11 -8 -1 4.54 2.54
11 8 1 1.93 2.49
11 8 1 0.23 1.55
7 -9 -1 2.01 2.18
-7 9 1 1.78 2.28
-7 9 1 2.08 1.97
6 -9 -1 5.06 2.2
-6 9 1 1.11 1.95
-6 9 1 -2.09 1.56
5 -9 -1 11.35 2.78
5 -9 -1 8.21 1.74
-5 9 1 3.34 2.04
-5 9 1 2.97 2.15
4 -9 -1 9.16 2.49
4 -9 -1 8.88 1.74
-4 9 1 7.81 2.4
-4 9 1 6.31 2.22
3 -9 -1 5.4 2.02
3 -9 -1 5.79 1.55
-3 9 1 4.04 2.08
-3 9 1 9.82 2.32
2 -9 -1 94.93 3.75
2 -9 -1 94.05 4.87
-2 9 1 94.15 4.74
-2 9 1 93.59 4.76
1 -9 -1 1.23 1.02
1 -9 -1 0.52 1.25
-1 9 1 -1.24 0.48
-1 9 1 0.52 1.5
-1 9 1 1.22 1.35
0 -9 -1 5.43 1.75
0 -9 -1 8.65 1.68
0 9 1 3.96 1.71
0 9 1 6.46 1.18
0 9 1 4.68 1.56
-1 -9 -1 91.11 4.27
-1 -9 -1 91.35 3.79
1 9 1 92.47 4.34
1 9 1 90.57 3.25
1 9 1 90.79 3.8
-2 -9 -1 1.74 1.48
-2 -9 -1 2.11 1.39
2 9 1 0.82 1.33
2 9 1 1.22 0.97
2 9 1 -2.44 0.84
-3 -9 -1 22.79 1.7
-3 -9 -1 26.59 2.52
-3 -9 -1 27.15 2.79
-3 -9 -1 23.95 1.49
3 9 1 27.63 2.79
3 9 1 24.55 2.55
-4 -9 -1 0.68 0.45
-4 -9 -1 1.77 1.51
-4 -9 -1 0.83 0.6
-4 -9 -1 -0.15 1.25
4 9 1 0.79 1.44
4 9 1 -0.32 1.33
-5 -9 -1 14.09 2.42
-5 -9 -1 12.66 2.23
5 9 1 17.83 2.69
5 9 1 17.79 2.69
-6 -9 -1 10.12 2.19
-6 -9 -1 13.07 2.41
6 9 1 12.94 2.6
6 9 1 13.55 2.36
-7 -9 -1 4.77 2.04
-7 -9 -1 5.13 1.9
7 9 1 3.58 2.09
7 9 1 8.44 2.26
-8 -9 -1 2.35 1.81
-8 -9 -1 1.4 1.87
8 9 1 3.8 1.85
8 9 1 -1.27 1.7
-9 -9 -1 1.37 1.66
-9 -9 -1 -0.35 1.86
9 9 1 -0.28 1.91
9 9 1 -0.82 1.67
-10 -9 -1 3.6 2.25
-10 -9 -1 -1.57 1.77
10 9 1 3.42 1.83
10 9 1 4.71 2.6
-11 -9 -1 10.85 2.49
-11 -9 -1 5.19 2.96
11 9 1 8.95 3.02
11 9 1 7.88 2.17
6 -10 -1 4.92 2.41
-6 10 1 3.21 2.36
-6 10 1 2.54 2.14
5 -10 -1 6.54 2.39
-5 10 1 3.47 2.31
-5 10 1 6.1 2.55
4 -10 -1 21.83 2.3
4 -10 -1 21.03 3.25
-4 10 1 26.5 3.88
-4 10 1 21.59 3.42
3 -10 -1 -0.23 1.04
3 -10 -1 1.5 1.73
-3 10 1 -1.44 1.54
-3 10 1 1.77 1.76
2 -10 -1 14.81 2.02
2 -10 -1 16.47 2.93
-2 10 1 17.43 2.93
-2 10 1 14.37 2.82
1 -10 -1 37.4 3.38
1 -10 -1 34.57 2.58
-1 10 1 34.45 3.51
-1 10 1 35.88 3.34
0 -10 -1 4.79 1.87
0 -10 -1 5.59 1.51
0 10 1 5.21 1.93
0 10 1 5.02 1.13
0 10 1 7.05 1.96
-1 -10 -1 26.27 2.44
-1 -10 -1 29.18 3.04
1 10 1 28.42 2.59
1 10 1 31.85 2.33
1 10 1 31.11 3.32
-2 -10 -1 7.09 1.73
-2 -10 -1 10.11 2.27
2 10 1 5.44 1.89
2 10 1 6.92 1.67
-3 -10 -1 29.69 2.03
-3 -10 -1 35.06 3.3
-3 -10 -1 31.46 2.76
3 10 1 30.24 2.81
3 10 1 29.88 3.2
-4 -10 -1 39.9 3.13
-4 -10 -1 37.64 1.78
-4 -10 -1 42.49 3.47
4 10 1 34.85 3.35
4 10 1 39.13 3.28
-5 -10 -1 2.3 1.61
-5 -10 -1 -0.15 1.56
5 10 1 1.4 1.62
5 10 1 2.06 1.75
-6 -10 -1 2.79 1.67
-6 -10 -1 -0.16 1.54
6 10 1 1.68 1.84
6 10 1 0.94 1.84
-7 -10 -1 -0.68 1.54
-7 -10 -1 0.02 1.66
7 10 1 0.43 1.89
7 10 1 2.22 1.79
-8 -10 -1 8.65 2.42
-8 -10 -1 6.62 2.19
8 10 1 6.99 2.55
8 10 1 8.74 2.49
-9 -10 -1 0.23 1.76
-9 -10 -1 3.14 2.36
9 10 1 2.6 1.94
9 10 1 0.53 2.11
-10 -10 -1 3.41 2.52
-10 -10 -1 3.22 1.79
10 10 1 1.94 2.23
10 10 1 1.07 2.05
5 -11 -1 -1.88 1.95
-5 11 1 0.46 1.87
-5 11 1 -0.28 1.84
4 -11 -1 5.58 2.44
-4 11 1 5.99 2.45
-4 11 1 9.01 2.75
3 -11 -1 13.87 2.98
-3 11 1 11.82 2.82
-3 11 1 14.5 2.95
2 -11 -1 1.17 1.79
2 -11 -1 0.9 1.12
-2 11 1 2.23 1.95
-2 11 1 -1.95 1.44
1 -11 -1 7.24 2.23
1 -11 -1 12.17 2.06
-1 11 1 14.52 2.96
-1 11 1 19.42 2.86
0 -11 -1 3.15 1.73
0 -11 -1 2.23 1.25
0 11 1 1.04 1.7
0 11 1 2.7 1.51
-1 -11 -1 17.24 2.91
-1 -11 -1 14.81 2.39
1 11 1 12.94 2.63
1 11 1 15.44 2.38
1 11 1 11.35 1.77
-2 -11 -1 12.89 2.2
-2 -11 -1 12.52 1.99
-2 -11 -1 13.34 2.64
2 11 1 11.02 2.46
2 11 1 11.57 1.98
-3 -11 -1 0.38 1.22
-3 -11 -1 3.39 1.06
-3 -11 -1 1.09 1.59
3 11 1 3.49 1.65
3 11 1 2.41 1.72
-4 -11 -1 1.42 1.73
-4 -11 -1 1.76 1.59
4 11 1 3.66 1.86
4 11 1 5.04 2.05
-5 -11 -1 2.66 1.88
-5 -11 -1 1.37 1.53
5 11 1 3.6 1.9
5 11 1 0.35 1.78
-6 -11 -1 2.5 1.82
-6 -11 -1 1.54 1.64
6 11 1 4.84 2.34
6 11 1 0.59 1.85
-7 -11 -1 13.36 2.83
-7 -11 -1 8.73 2.44
7 11 1 7.49 2.7
7 11 1 7.62 2.43
-8 -11 -1 -1.09 1.63
-8 -11 -1 2.07 1.79
8 11 1 -2.18 1.55
8 11 1 0.23 2.07
-9 -11 -1 -2.84 1.57
-9 -11 -1 0.56 1.97
9 11 1 2.13 1.79
9 11 1 -1.01 2.16
-10 -11 -1 4.14 1.99
-10 -11 -1 0.46 2.1
10 11 1 -3.11 1.86
10 11 1 0.38 1.78
4 -12 -1 11.19 2.85
-4 12 1 9.67 2.85
-4 12 1 8 2.42
3 -12 -1 5.99 2.47
-3 12 1 9.33 2.59
-3 12 1 1.21 1.99
2 -12 -1 5.16 2.13
-2 12 1 2.41 1.74
-2 12 1 1.88 2.02
1 -12 -1 8.65 2.55
1 -12 -1 15.71 2.01
-1 12 1 11.92 3.01
-1 12 1 11.3 2.46
0 -12 -1 1.94 2
0 -12 -1 -0.94 1.07
0 12 1 1.94 2.02
-1 -12 -1 0.98 1.27
-1 -12 -1 1.54 1.94
1 12 1 2 1.98
-2 -12 -1 3.07 1.41
-2 -12 -1 -0.5 1.01
-2 -12 -1 1.64 1.76
2 12 1 0.58 1.8
2 12 1 1.07 1.25
-3 -12 -1 0.75 1.74
-3 -12 -1 -0.59 1.29
3 12 1 0.85 1.88
3 12 1 0.16 1.15
-4 -12 -1 2.66 1.82
-4 -12 -1 -0.62 1.22
4 12 1 0.23 1.64
4 12 1 -1.56 1.51
-5 -12 -1 -1.24 1.66
-5 -12 -1 0.8 1.43
5 12 1 0.94 1.67
5 12 1 0 1.96
-6 -12 -1 1.07 1.71
-6 -12 -1 2.13 2
6 12 1 -1.94 1.58
6 12 1 4.16 2.21
-7 -12 -1 2.24 2.01
-7 -12 -1 6.79 2.5
7 12 1 2.5 2.04
7 12 1 -0.76 1.85
-8 -12 -1 5.79 2.36
-8 -12 -1 3.92 2.17
8 12 1 3.45 2.22
8 12 1 1.59 2.31
-9 -12 -1 3 2.08
-9 -12 -1 2.75 2.1
9 12 1 0.2 1.66
9 12 1 1.31 2.6
2 -13 -1 10.86 2.94
-2 13 1 14.27 3.18
1 -13 -1 14.25 3
-1 13 1 4.51 2.58
0 -13 -1 -2.22 1.37
0 -13 -1 -2.21 1.17
0 13 1 1.03 2.02
-1 -13 -1 1.34 2.07
-1 -13 -1 6.48 1.53
-1 -13 -1 2.45 1.71
1 13 1 6.57 2.45
-2 -13 -1 5.9 2.37
-2 -13 -1 7.13 1.86
2 13 1 8.12 2.66
-3 -13 -1 1 1.39
-3 -13 -1 1.02 1.83
3 13 1 1 2.01
3 13 1 -0.24 1.09
-4 -13 -1 4.12 1.81
-4 -13 -1 5.8 2.25
4 13 1 1.03 2.15
4 13 1 0.81 1.36
-5 -13 -1 1.82 1.44
-5 -13 -1 0.81 1.82
5 13 1 -2.1 1.77
5 13 1 0.02 1.75
-6 -13 -1 0.57 1.74
-6 -13 -1 5.85 2.41
6 13 1 2.28 1.92
6 13 1 -0.01 1.78
-7 -13 -1 5.16 2.04
-7 -13 -1 3.89 2.12
7 13 1 0.26 1.9
7 13 1 -2.87 1.86
-1 -14 -1 -0.85 1.76
1 14 1 2.01 2.01
-2 -14 -1 3.2 1.98
2 14 1 1.02 2
-3 -14 -1 0.36 1.65
-3 -14 -1 0.78 1.11
3 14 1 2.87 2.5
-4 -14 -1 0.54 1.58
-4 -14 -1 2.72 1.35
4 14 1 -1.98 2.07
-5 -14 -1 3.58 2.22
-5 -14 -1 1.68 1.61
5 14 1 1.58 1.96
5 14 1 2.84 1.8
4 14 -2 1.35 1.85
4 14 -2 2.3 2.07
-4 -14 2 1.36 2.1
3 14 -2 5.14 1.89
3 14 -2 1.73 2.13
-3 -14 2 3.96 2.32
2 14 -2 2.25 1.96
-2 -14 2 -1.08 1.47
1 14 -2 6.65 2.2
-1 -14 2 0.18 1.73
7 13 -2 2.76 2.08
7 13 -2 2.49 1.79
-7 -13 2 5.55 1.89
-7 -13 2 2.35 2.25
6 13 -2 8.29 2.7
6 13 -2 7.35 2.29
-6 -13 2 1.27 1.76
-6 -13 2 5.08 2.44
5 13 -2 1.37 1.73
5 13 -2 2.38 1.98
-5 -13 2 0.8 1.8
-5 -13 2 2.42 1.41
4 13 -2 4.08 1.96
4 13 -2 1.02 1.59
-4 -13 2 3.54 1.53
-4 -13 2 0.76 1.86
3 13 -2 1.95 1.7
3 13 -2 6.79 2.35
-3 -13 2 -0.42 1.65
2 13 -2 1.2 1.64
2 13 -2 2.58 2.06
-2 -13 2 -0.83 1.82
1 13 -2 16.66 3.26
-1 -13 2 11.29 2.2
-1 -13 2 15.68 3.05
0 13 -2 0.43 1.89
0 -13 2 5.88 2.34
0 -13 2 3.65 1.81
-1 13 -2 3.97 2.27
1 -13 2 0.56 1.86
1 -13 2 5.54 2.13
-2 13 -2 7.98 2.57
2 -13 2 6.24 1.99
2 -13 2 1.23 1.92
8 12 -2 5.72 2.51
8 12 -2 8.32 2.01
-8 -12 2 3.55 2.17
-8 -12 2 8.71 2.35
7 12 -2 -0.33 1.62
7 12 -2 4.36 2.37
-7 -12 2 2 2.13
-7 -12 2 5.95 2.12
6 12 -2 4.31 2.33
6 12 -2 -0.37 1.57
-6 -12 2 4.34 2.1
-6 -12 2 3.47 1.93
5 12 -2 2.41 1.97
5 12 -2 0.63 1.8
-5 -12 2 -1.07 1.54
-5 -12 2 4.43 1.71
4 12 -2 0.12 1.74
4 12 -2 0.59 1.75
-4 -12 2 5.09 2.2
-4 -12 2 2.85 1.32
3 12 -2 16.81 2.8
3 12 -2 24.98 3.27
-3 -12 2 19.06 2.17
-3 -12 2 20.87 3.23
2 12 -2 6.45 2.24
2 12 -2 5.98 1.84
-2 -12 2 -1.27 1.54
-2 -12 2 0.89 1.06
-2 -12 2 2.14 1.18
1 12 -2 0.37 1.27
1 12 -2 -2.88 1.41
-1 -12 2 1.82 1.51
-1 -12 2 1.91 1.79
0 12 -2 18.2 3.2
0 12 -2 15.95 2.09
0 -12 2 16.01 3.08
0 -12 2 17.24 2.86
-1 12 -2 3.75 2.12
1 -12 2 0.93 1.95
1 -12 2 2.97 1.74
-2 12 -2 6.54 2.37
2 -12 2 11.78 2.67
2 -12 2 9.07 2.64
-3 12 -2 2.8 2.07
3 -12 2 5.74 2.07
3 -12 2 3.24 2.24
-4 12 -2 -1.61 1.64
4 -12 2 1.51 1.71
4 -12 2 0.87 1.88
9 11 -2 0.97 2.08
-9 -11 2 1.69 1.91
-9 -11 2 -0.26 1.94
8 11 -2 -0.98 2.03
8 11 -2 0.79 1.5
-8 -11 2 -1.27 1.64
-8 -11 2 2.46 2.05
7 11 -2 2.5 2.13
7 11 -2 5.03 1.93
-7 -11 2 8.06 2.51
-7 -11 2 2.84 1.99
6 11 -2 0.27 1.84
6 11 -2 3.04 1.69
-6 -11 2 1.49 1.87
-6 -11 2 3.96 1.87
5 11 -2 47.08 3.75
5 11 -2 56.38 4.19
-5 -11 2 43.47 3.94
-5 -11 2 43.79 3.36
4 11 -2 9.85 2.31
4 11 -2 6.43 2
-4 -11 2 8.36 2.3
-4 -11 2 10 2
3 11 -2 -1.72 1.3
3 11 -2 -0.09 1.24
-3 -11 2 0.34 0.98
-3 -11 2 0.01 0.89
-3 -11 2 1.91 1.77
2 11 -2 19.66 2.86
2 11 -2 17.52 2.71
-2 -11 2 22.84 2.39
-2 -11 2 20.84 2.03
-2 -11 2 19.78 3.12
1 11 -2 -0.14 1.28
1 11 -2 1.02 1.6
-1 -11 2 1.66 1.36
-1 -11 2 0.94 0.96
-1 -11 2 -0.81 1.51
0 11 -2 16.37 2.18
0 11 -2 10.36 2.46
0 -11 2 13.48 2.64
0 -11 2 8.54 2.14
-1 11 -2 1.86 1.71
-1 11 -2 0.58 1.02
1 -11 2 1.13 1.5
1 -11 2 -0.51 1.7
-2 11 -2 1.66 1.96
2 -11 2 2.56 1.76
2 -11 2 1.23 1.61
-3 11 -2 36.97 3.95
3 -11 2 34.74 3.89
3 -11 2 36.98 3.83
-4 11 -2 2.78 1.96
4 -11 2 2.5 2.05
4 -11 2 1.39 1.92
-5 11 -2 6.89 2.54
5 -11 2 3.05 2.38
5 -11 2 5.65 2.45
10 10 -2 2.29 2.16
-10 -10 2 2.63 2.08
-10 -10 2 -0.84 1.7
9 10 -2 -3.35 1.19
9 10 -2 2.14 2.13
-9 -10 2 -2.28 1.59
-9 -10 2 -1.52 1.72
8 10 -2 5.33 2.58
8 10 -2 4.72 1.64
-8 -10 2 9.35 2.51
-8 -10 2 10.82 2.76
7 10 -2 25.87 2.74
7 10 -2 24.17 3.58
-7 -10 2 25.15 3.46
-7 -10 2 31.62 3.46
6 10 -2 3.98 2.11
6 10 -2 0.63 1.43
-6 -10 2 -2.59 1.26
-6 -10 2 -0.38 1.59
5 10 -2 -0.06 1.63
5 10 -2 0.38 1.39
-5 -10 2 0.21 1.56
-5 -10 2 -0.14 1.39
4 10 -2 34.89 3.28
4 10 -2 31.42 3.09
-4 -10 2 38.46 2.9
-4 -10 2 35.16 3.35
-4 -10 2 35.72 1.99
3 10 -2 15.37 2.48
3 10 -2 19.07 2.71
-3 -10 2 18.57 2.92
-3 -10 2 19.07 2.13
-3 -10 2 20.45 1.94
2 10 -2 29.3 2.98
2 10 -2 27.13 2.84
-2 -10 2 29.4 3.07
-2 -10 2 23.88 2.08
-2 -10 2 30.4 2.37
1 10 -2 5.35 1.72
1 10 -2 6.29 1.97
-1 -10 2 6.09 1.69
-1 -10 2 8.47 1.47
-1 -10 2 4.43 1.83
0 10 -2 3.23 1.42
0 10 -2 1.2 1.47
0 -10 2 1.39 1.35
0 -10 2 1.92 0.89
0 -10 2 -0.32 1.37
-1 10 -2 54.79 4.04
-1 10 -2 53.62 2.98
1 -10 2 54.26 3.66
1 -10 2 60.41 4.09
1 -10 2 56.2 2.28
-2 10 -2 5.67 1.3
-2 10 -2 4.47 2
2 -10 2 3.72 1.94
2 -10 2 7.18 2.11
-3 10 -2 3.54 2.11
3 -10 2 4.99 2.11
3 -10 2 3.41 1.83
-4 10 -2 24.87 3.53
4 -10 2 23.06 3.27
4 -10 2 24.66 3.53
-5 10 -2 1.05 2
5 -10 2 1.09 1.99
5 -10 2 -2.02 1.59
-6 10 -2 8.27 2.69
6 -10 2 3.16 2.2
6 -10 2 6.92 2.49
10 9 -2 22.99 3.78
-10 -9 2 10.9 2.86
-10 -9 2 15.88 3.37
9 9 -2 15.75 2.41
9 9 -2 17.67 3.51
-9 -9 2 20.85 3.47
-9 -9 2 16.58 3.21
8 9 -2 -2.33 1.68
8 9 -2 -1.67 1.19
-8 -9 2 1.17 1.87
-8 -9 2 -2.4 1.5
7 9 -2 -1.12 1.11
7 9 -2 2.22 1.98
-7 -9 2 4.73 1.94
-7 -9 2 1.16 1.66
6 9 -2 0.77 1.62
6 9 -2 2.78 1.5
-6 -9 2 1.14 1.57
-6 -9 2 2.37 1.79
5 9 -2 22.48 2.49
5 9 -2 24.47 3.08
-5 -9 2 22.94 1.27
-5 -9 2 24.61 2.84
-5 -9 2 28.68 2.72
4 9 -2 26.1 2.89
4 9 -2 25.37 2.65
-4 -9 2 25.6 2.8
-4 -9 2 29.96 2.6
-4 -9 2 23.76 1.63
3 9 -2 0.62 1.26
3 9 -2 -0.73 1.15
-3 -9 2 -0.02 0.93
-3 -9 2 0.3 0.81
-3 -9 2 -1.23 1.17
2 9 -2 18.43 2.46
2 9 -2 20.14 2.48
-2 -9 2 17.95 1.93
-2 -9 2 17.73 1.77
-2 -9 2 17.15 2.44
1 9 -2 59.03 3.64
1 9 -2 51.31 3.13
-1 -9 2 55.29 2.52
-1 -9 2 52.32 3.5
-1 -9 2 61.21 3.18
0 9 -2 5.69 1.54
0 9 -2 2.76 0.69
0 9 -2 3.33 1.52
0 -9 2 5.36 1.75
0 -9 2 3.58 1.39
0 -9 2 5.04 0.99
-1 9 -2 15.87 1.94
-1 9 -2 16.67 2.53
1 -9 2 18.14 1.36
1 -9 2 15.63 2.38
1 -9 2 15.6 2.44
-2 9 -2 21.07 2.94
-2 9 -2 19.45 1.94
2 -9 2 16.99 2.62
2 -9 2 17.64 1.31
2 -9 2 16.35 2.65
-3 9 -2 4.51 1.85
-3 9 -2 4.03 1.12
3 -9 2 0.6 1.51
3 -9 2 0.33 1.64
-4 9 -2 50.96 3.99
4 -9 2 59.95 4.35
4 -9 2 57.72 4.36
-5 9 -2 8.01 2.52
5 -9 2 3.76 2.07
5 -9 2 1.28 2.01
-6 9 -2 0.67 1.73
6 -9 2 3.42 2.14
6 -9 2 3.34 2.15
-7 9 -2 4.68 2.33
7 -9 2 3.98 2.13
7 -9 2 7.41 2.78
11 8 -2 2.09 2.23
-11 -8 2 3.57 2.27
-11 -8 2 3.1 2.1
10 8 -2 3.21 2.21
-10 -8 2 0.5 1.84
-10 -8 2 -1.44 1.67
9 8 -2 2.34 1.37
9 8 -2 1.97 2.05
-9 -8 2 -1.41 1.84
-9 -8 2 0.22 1.86
8 8 -2 1.63 1.86
8 8 -2 1.13 1.28
-8 -8 2 -0.08 1.55
-8 -8 2 -0.22 1.56
7 8 -2 31.12 3.48
7 8 -2 28.01 2.53
-7 -8 2 26.11 3.16
-7 -8 2 30.07 3.1
6 8 -2 29.32 3.23
6 8 -2 27.79 2.57
-6 -8 2 23.94 2.79
-6 -8 2 29.19 3.04
5 8 -2 -0.98 1.23
5 8 -2 -1.25 1.04
-5 -8 2 0.24 1.31
-5 -8 2 0.08 1.21
4 8 -2 27.45 2.44
4 8 -2 26.26 2.76
-4 -8 2 26.44 1.57
-4 -8 2 24.26 1.37
-4 -8 2 22.04 2.49
-4 -8 2 24.46 2.32
3 8 -2 53.61 3.23
3 8 -2 54.25 3.16
-3 -8 2 56.37 2.38
-3 -8 2 55.4 2.84
-3 -8 2 52.44 2.22
-3 -8 2 56 3.35
2 8 -2 30.7 2.56
2 8 -2 25.79 2.38
-2 -8 2 30.77 2.04
-2 -8 2 32.84 2.15
-2 -8 2 25.58 2.62
1 8 -2 0.55 1.14
1 8 -2 0.66 1.11
1 8 -2 2.06 0.62
-1 -8 2 0.16 0.79
-1 -8 2 0.88 1.02
-1 -8 2 -0.09 1.05
0 8 -2 28.28 1.58
0 8 -2 31.67 2.38
0 8 -2 32.16 2.67
0 -8 2 32.93 2.58
0 -8 2 31.27 2.66
0 -8 2 29.81 1.67
-1 8 -2 31.98 1.49
-1 8 -2 31.13 2.81
-1 8 -2 34.01 2.33
1 -8 2 36.32 2.84
1 -8 2 36.64 2.9
1 -8 2 35.31 1.64
-2 8 -2 35.42 2.27
-2 8 -2 33.37 3.06
-2 8 -2 33.11 1.43
2 -8 2 42.1 3.13
2 -8 2 36.08 1.61
2 -8 2 34.9 3.04
-3 8 -2 21.87 1.97
-3 8 -2 27.52 2.92
3 -8 2 27.41 2.89
3 -8 2 25.69 2.86
3 -8 2 24.71 1.42
-4 8 -2 -0.72 1.32
-4 8 -2 -0.16 0.79
4 -8 2 -1.38 1.18
4 -8 2 3.33 1.74
4 -8 2 -0.17 0.63
-5 8 -2 2.92 1.06
-5 8 -2 4.15 2
5 -8 2 3.29 2
5 -8 2 4.02 1.9
-6 8 -2 26.41 3.53
6 -8 2 21.52 3.12
6 -8 2 22.29 3.37
-7 8 -2 8.36 2.4
7 -8 2 6.45 2.29
7 -8 2 8.86 2.57
-8 8 -2 -3.98 1.46
8 -8 2 0.71 1.79
8 -8 2 -1.35 1.82
11 7 -2 -1.35 1.98
-11 -7 2 0.4 2.06
-11 -7 2 1.98 2.1
10 7 -2 6.37 2.59
-10 -7 2 4.56 2.34
-10 -7 2 2.22 2.06
9 7 -2 7.66 1.56
9 7 -2 13.37 2.91
-9 -7 2 10.12 2.66
-9 -7 2 6.56 2.33
8 7 -2 20.82 2.15
8 7 -2 18.59 3
-8 -7 2 19.16 2.84
-8 -7 2 18.04 3.01
7 7 -2 2.39 1.17
7 7 -2 0.24 1.66
-7 -7 2 1.4 1.53
-7 -7 2 0.72 1.43
6 7 -2 27.1 3.01
6 7 -2 29.09 2.33
-6 -7 2 26.12 2.68
-6 -7 2 23.85 2.68
5 7 -2 21.09 2.09
5 7 -2 17.16 2.5
-5 -7 2 17.08 2.25
-5 -7 2 20.97 2.39
4 7 -2 62.79 2.91
4 7 -2 63.63 3.47
-4 -7 2 63.77 3.38
-4 -7 2 64.96 3.16
-4 -7 2 59.22 2
-4 -7 2 60.43 1.91
3 7 -2 -0.24 0.94
3 7 -2 0.65 1.06
-3 -7 2 -0.82 0.89
-3 -7 2 -0.48 0.58
-3 -7 2 -0.13 0.47
-3 -7 2 0.86 1.12
2 7 -2 8.07 1.6
2 7 -2 6.04 1.44
-2 -7 2 6.97 1.62
-2 -7 2 7.16 1.13
-2 -7 2 7.73 1.32
-2 -7 2 6.64 1.24
1 7 -2 4.93 1.39
1 7 -2 4.13 0.84
1 7 -2 3.93 1.23
-1 -7 2 4.94 1.19
-1 -7 2 2.07 1.17
-1 -7 2 5.18 1.07
0 7 -2 49.87 1.89
0 7 -2 52.82 3.03
0 7 -2 55.2 2.69
0 -7 2 53.85 2.82
0 -7 2 51.81 1.92
0 -7 2 55.15 3.13
-1 7 -2 69.29 2
-1 7 -2 72.37 2.91
-1 7 -2 74.17 3.57
1 -7 2 69.92 2.03
1 -7 2 77.6 3.63
1 -7 2 70.06 3.41
-2 7 -2 2.42 1.39
-2 7 -2 2.85 0.56
-2 7 -2 1.92 0.94
2 -7 2 3.31 1.37
2 -7 2 1.74 0.62
2 -7 2 3.52 1.46
-3 7 -2 18.79 2.46
-3 7 -2 25.66 1.96
3 -7 2 25.7 2.76
3 -7 2 28.94 2.82
3 -7 2 25.01 1.34
-4 7 -2 156.09 4.42
-4 7 -2 158.81 5.8
4 -7 2 154.77 5.85
4 -7 2 163.19 5.77
4 -7 2 153.09 3.38
-5 7 -2 3.69 1.78
-5 7 -2 3.29 1.13
5 -7 2 2.27 0.77
5 -7 2 2.62 1.72
5 -7 2 1.83 1.51
-6 7 -2 7.46 1.37
-6 7 -2 7.81 2.17
6 -7 2 7.21 2.19
6 -7 2 6.42 2.24
-7 7 -2 -0.22 1.67
7 -7 2 -0.79 1.59
7 -7 2 -2.98 1.53
-8 7 -2 -0.04 1.74
8 -7 2 1.77 1.8
8 -7 2 2.35 2.03
-9 7 -2 14.05 2.94
9 -7 2 8.16 2.62
9 -7 2 12.3 3.02
11 6 -2 17.49 3.55
-11 -6 2 11.59 2.89
10 6 -2 0.39 2.07
-10 -6 2 3.52 2.1
-10 -6 2 -0.99 1.74
9 6 -2 1.43 1.18
9 6 -2 -1.13 1.71
-9 -6 2 1.17 1.94
-9 -6 2 0.66 1.71
8 6 -2 9.61 2.41
8 6 -2 12.71 1.74
-8 -6 2 8.97 2.23
-8 -6 2 14.62 2.7
7 6 -2 0.61 0.99
7 6 -2 -0.16 1.47
-7 -6 2 0.12 1.31
-7 -6 2 0.97 1.42
6 6 -2 51.33 2.53
6 6 -2 54.09 3.54
-6 -6 2 56.81 3.46
-6 -6 2 55.37 3.44
5 6 -2 5.6 0.74
5 6 -2 7.44 1.41
5 6 -2 6.25 1.65
-5 -6 2 5.94 1.58
-5 -6 2 3.55 1.3
-5 -6 2 5.42 0.8
4 6 -2 4.09 1.12
4 6 -2 3.02 1.37
4 6 -2 4.1 0.75
-4 -6 2 4.45 0.77
-4 -6 2 4.48 1.33
-4 -6 2 4.05 1.47
3 6 -2 27.65 1.97
3 6 -2 24.88 2.14
-3 -6 2 25.17 1.36
-3 -6 2 25.33 1.45
-3 -6 2 26.06 2.19
-3 -6 2 27.03 2.01
2 6 -2 7.18 1.48
2 6 -2 7.32 1.4
2 6 -2 6.22 1.02
-2 -6 2 6.65 1.04
-2 -6 2 8.67 1.32
-2 -6 2 7.17 1.2
-2 -6 2 6.96 1.43
1 6 -2 71.66 2.9
1 6 -2 63.71 2.14
1 6 -2 67.81 2.93
-1 -6 2 66.65 2.56
-1 -6 2 66.99 2.24
-1 -6 2 67.04 2.61
-1 -6 2 62.57 2.98
0 6 -2 0.45 0.97
0 6 -2 1.21 0.86
0 6 -2 -0.24 0.43
0 -6 2 1.09 0.92
0 -6 2 0.86 0.6
0 -6 2 -0.5 0.82
-1 6 -2 0.09 0.76
-1 6 -2 -0.36 0.95
-1 6 -2 -0.12 0.37
1 -6 2 -0.07 0.65
1 -6 2 0.65 0.5
1 -6 2 -0.13 0.91
1 -6 2 0.09 0.91
-2 6 -2 57.71 1.58
-2 6 -2 60.05 3.21
-2 6 -2 62.93 2.59
2 -6 2 55.04 3.11
2 -6 2 61.67 3.16
2 -6 2 59.43 2.39
2 -6 2 59.92 1.68
-3 6 -2 3.04 1.28
-3 6 -2 3.24 1.01
3 -6 2 4.14 0.95
3 -6 2 2.2 1.35
3 -6 2 5.34 0.82
3 -6 2 4.71 1.5
-4 6 -2 33.39 2.22
-4 6 -2 29.91 2.76
4 -6 2 30.17 1.57
4 -6 2 25.13 2.55
4 -6 2 27.14 1.42
-5 6 -2 8.87 1.47
-5 6 -2 6.42 1.87
5 -6 2 8.49 1.2
5 -6 2 5.9 1.81
-6 6 -2 2.43 1.1
-6 6 -2 1.71 1.58
6 -6 2 2.69 1.06
6 -6 2 0 1.35
-7 6 -2 60.09 3.03
-7 6 -2 63.58 4.44
7 -6 2 70.2 4.42
7 -6 2 61.22 4.48
7 -6 2 65.6 2.9
-8 6 -2 5.62 2.14
8 -6 2 2.48 1.92
8 -6 2 2.42 1.84
-9 6 -2 -0.27 1.58
9 -6 2 -2.35 1.44
9 -6 2 -1.49 1.66
12 5 -2 -2.25 1.86
12 5 -2 -3.69 1.66
-12 -5 2 1.38 2.11
11 5 -2 2.96 2.16
11 5 -2 -0.27 2.05
-11 -5 2 -2.02 1.48
10 5 -2 6.62 2.44
-10 -5 2 2.71 1.99
9 5 -2 3.1 1.83
9 5 -2 0.49 1.03
-9 -5 2 -0.4 1.5
-9 -5 2 3.54 2.08
8 5 -2 49.63 2.52
8 5 -2 46.65 3.67
-8 -5 2 45.23 3.67
-8 -5 2 53.11 3.84
-8 -5 2 47.07 2.09
7 5 -2 1.69 1.51
7 5 -2 2 0.6
7 5 -2 2.25 1.1
-7 -5 2 2.33 0.8
-7 -5 2 0.59 1.49
-7 -5 2 3.14 1.5
6 5 -2 -0.61 0.39
6 5 -2 1.02 0.81
6 5 -2 -1.22 1.11
-6 -5 2 -0.38 0.5
-6 -5 2 0.25 0.53
-6 -5 2 0.95 1.24
-6 -5 2 0.74 1.2
5 5 -2 90 3.77
5 5 -2 87.68 2.14
5 5 -2 93.18 2.84
-5 -5 2 86.67 3.67
-5 -5 2 89.34 2.81
-5 -5 2 91.15 3.78
-5 -5 2 90.54 2.18
4 5 -2 73.35 1.95
4 5 -2 74.96 2.62
4 5 -2 75 3.33
-4 -5 2 73.95 3.21
-4 -5 2 73.13 2.54
-4 -5 2 75.2 2.05
-4 -5 2 73.39 3.14
3 5 -2 150.15 3.02
3 5 -2 156.17 3.61
3 5 -2 143.38 4.22
-3 -5 2 156.9 4.01
-3 -5 2 153.7 3.07
-3 -5 2 148.06 4.21
-3 -5 2 150.04 3.59
2 5 -2 0.51 0.81
2 5 -2 1.13 0.92
2 5 -2 1.21 0.64
2 5 -2 0.99 0.72
-2 -5 2 0.07 0.92
-2 -5 2 1.76 0.86
-2 -5 2 0.3 0.72
-2 -5 2 0.34 0.68
1 5 -2 26.72 1.85
1 5 -2 27.64 1.38
1 5 -2 27.65 1.91
-1 -5 2 24.48 1.92
-1 -5 2 28.27 1.49
-1 -5 2 29.71 1.69
-1 -5 2 26.22 1.72
-1 -5 2 27.15 1.72
0 5 -2 163.04 4.13
0 5 -2 156.59 2.82
0 5 -2 161.11 3.89
0 -5 2 160.45 4.24
0 -5 2 166.31 3.87
0 -5 2 160.81 2.83
0 -5 2 158.19 3.98
0 -5 2 159.25 4
-1 5 -2 3.48 1.08
-1 5 -2 2.68 0.48
-1 5 -2 3.66 0.97
1 -5 2 2.51 1.03
1 -5 2 2.44 1.07
1 -5 2 4.04 0.91
1 -5 2 2.7 0.52
-2 5 -2 26.54 1.8
-2 5 -2 28.03 1.01
-2 5 -2 29.38 2.24
2 -5 2 28.28 1.7
2 -5 2 28.99 1.08
2 -5 2 27.2 2.14
2 -5 2 27.09 2.23
-3 5 -2 16.53 1.66
-3 5 -2 11.69 1.81
3 -5 2 16.78 2.02
3 -5 2 12.45 1.87
3 -5 2 12.36 1.31
3 -5 2 15.17 0.98
3 -5 2 13.13 1.01
-4 5 -2 43.74 2.92
-4 5 -2 42.88 2.39
4 -5 2 39.04 2.81
4 -5 2 48.08 1.82
4 -5 2 40.89 2.29
4 -5 2 42.79 1.74
-5 5 -2 76.23 3.13
-5 5 -2 77.86 3.91
5 -5 2 77.66 3.82
5 -5 2 73 2.5
5 -5 2 74.79 2.57
-6 5 -2 6.56 1.35
-6 5 -2 4.5 1.7
6 -5 2 7.05 1.32
6 -5 2 8.08 1.95
-7 5 -2 -1.04 0.88
-7 5 -2 0.88 1.49
7 -5 2 -0.96 1.5
7 -5 2 -1.83 1.22
7 -5 2 -1.07 0.77
-8 5 -2 9.3 2.35
-8 5 -2 6.12 1.44
8 -5 2 8.01 2.38
8 -5 2 5.38 2.1
8 -5 2 7.24 1.54
-9 5 -2 0.75 1.86
9 -5 2 0.44 1.88
9 -5 2 4.96 2.04
-10 5 -2 6.33 2.45
10 -5 2 5.1 2.45
10 -5 2 8.28 2.32
12 4 -2 3.56 2.2
12 4 -2 0.77 1.69
-12 -4 2 -0.56 1.89
11 4 -2 12.8 2.95
11 4 -2 7.55 2.62
-11 -4 2 4.19 2.23
10 4 -2 4.58 2.25
10 4 -2 5.54 2
-10 -4 2 4.16 2.15
9 4 -2 5.65 1.25
9 4 -2 8.17 2.26
-9 -4 2 3.58 1.16
-9 -4 2 6.67 2.11
8 4 -2 6.04 1.3
8 4 -2 3.9 1.78
-8 -4 2 3.63 1.73
-8 -4 2 7.55 2.11
-8 -4 2 3.94 1.02
7 4 -2 8.96 1.98
7 4 -2 9.24 1.49
7 4 -2 7.6 1.09
7 4 -2 9.83 1.08
-7 -4 2 6.92 1.2
-7 -4 2 8.55 1.9
-7 -4 2 7.49 1.79
6 4 -2 34.76 1.61
6 4 -2 33.09 1.79
6 4 -2 34.35 2.72
-6 -4 2 33.07 2.6
-6 -4 2 31 1.64
-6 -4 2 33.16 1.67
-6 -4 2 33.84 2.71
5 4 -2 122.82 2.99
5 4 -2 122.6 2.69
5 4 -2 127.15 4.26
-5 -4 2 119.65 4.08
-5 -4 2 120.51 2.74
-5 -4 2 119.67 2.85
-5 -4 2 126.63 4.15
4 4 -2 1.45 1.09
4 4 -2 -0.03 0.66
4 4 -2 1.16 0.55
-4 -4 2 0.86 0.97
-4 -4 2 0.62 0.56
-4 -4 2 0.78 0.6
-4 -4 2 1.17 1.03
3 4 -2 20.14 1.56
3 4 -2 20.37 1.85
3 4 -2 22.19 1.48
3 4 -2 23.02 1.22
-3 -4 2 21.74 1.81
-3 -4 2 21.67 1.41
-3 -4 2 23.2 1.28
-3 -4 2 22.48 1.81
2 4 -2 78.48 2.36
2 4 -2 70.56 2.37
2 4 -2 76.59 2.73
2 4 -2 80.96 2.18
2 4 -2 76.81 2.76
-2 -4 2 77.81 2.18
-2 -4 2 79.72 2.47
-2 -4 2 75.72 2.27
-2 -4 2 81.01 2.76
-2 -4 2 81.53 2.86
1 4 -2 7.05 0.91
1 4 -2 8.4 1.34
1 4 -2 7.83 1.19
1 4 -2 10.15 1.26
1 4 -2 7.04 1.09
-1 -4 2 8.87 1.25
-1 -4 2 8.45 1.05
-1 -4 2 8.59 1.34
-1 -4 2 8.79 1.16
-1 -4 2 7.53 1.13
0 4 -2 166.63 3.79
0 4 -2 166.6 2.58
0 4 -2 156.58 3.81
0 4 -2 171.68 3.73
0 -4 2 167.54 3.74
0 -4 2 169.9 2.58
0 -4 2 168.14 3.9
0 -4 2 175.12 3.89
0 -4 2 162.37 3.61
0 -4 2 168.36 3.76
-1 4 -2 8.88 1.25
-1 4 -2 8.51 1.4
-1 4 -2 10.51 1.38
1 -4 2 8.67 1.45
1 -4 2 8.1 1.13
1 -4 2 8.38 1.32
1 -4 2 12 1.46
-2 4 -2 71.33 2.57
-2 4 -2 73.43 2.91
2 -4 2 68.98 2.37
2 -4 2 65.19 1.41
2 -4 2 76.5 2.88
2 -4 2 73.15 3.01
-3 4 -2 174.77 4.19
-3 4 -2 179.2 4.82
3 -4 2 173.22 3.88
3 -4 2 178.16 3.02
3 -4 2 173.58 4.82
3 -4 2 173.04 2.94
3 -4 2 175.26 4.57
-4 4 -2 6.57 1.47
-4 4 -2 7.37 1.36
4 -4 2 6.1 1.1
4 -4 2 6.94 1
4 -4 2 5.87 0.91
4 -4 2 5.7 1.41
-5 4 -2 0.55 1.1
-5 4 -2 0.08 0.89
5 -4 2 1.49 0.61
5 -4 2 1.13 0.79
5 -4 2 0.79 1.07
-6 4 -2 1.77 1.15
-6 4 -2 0.96 1.4
6 -4 2 2.6 1.42
6 -4 2 1.6 0.96
-7 4 -2 1.41 1.47
-7 4 -2 0.36 1.04
7 -4 2 2.76 1.2
7 -4 2 0.28 1.38
-8 4 -2 11.87 2.47
-8 4 -2 13.01 2.13
8 -4 2 7.76 1.64
8 -4 2 9.84 2.24
8 -4 2 7.01 2.28
-9 4 -2 1.78 1.67
9 -4 2 1.13 1.78
9 -4 2 2.07 1.31
9 -4 2 2.62 2
-10 4 -2 9.97 2.59
10 -4 2 9.56 2.7
10 -4 2 6.73 2.22
12 3 -2 2.86 2.06
12 3 -2 3.01 2.32
-12 -3 2 9.27 2.81
11 3 -2 2.77 2.24
11 3 -2 7.14 2.26
-11 -3 2 4.58 2.19
10 3 -2 0.05 1.86
10 3 -2 2.78 1.82
-10 -3 2 0.93 1.01
-10 -3 2 -2.66 1.68
9 3 -2 7.35 2.19
9 3 -2 4.19 1.98
9 3 -2 5.26 1.22
-9 -3 2 5.97 2
-9 -3 2 6.87 1.59
8 3 -2 111.69 4.8
8 3 -2 121.19 5.05
8 3 -2 109.31 3.23
8 3 -2 114.45 3.31
-8 -3 2 116.04 3.83
-8 -3 2 118.49 4.97
7 3 -2 74.01 2.41
7 3 -2 69.37 2.48
7 3 -2 66.36 3.62
-7 -3 2 68.85 3.74
-7 -3 2 67.81 2.79
-7 -3 2 70 3.76
6 3 -2 1.69 0.61
6 3 -2 2.89 0.78
6 3 -2 2.06 1.23
6 3 -2 1.97 0.79
-6 -3 2 1.02 1.1
-6 -3 2 0.63 1.12
-6 -3 2 1.73 0.83
5 3 -2 8.06 1.06
5 3 -2 10.82 1.15
5 3 -2 10.53 1.71
-5 -3 2 12.38 1.87
-5 -3 2 10.85 0.98
-5 -3 2 9.24 1.62
-5 -3 2 11.48 1.23
4 3 -2 5.95 0.91
4 3 -2 7 1.38
4 3 -2 6.88 0.97
-4 -3 2 8.02 1.06
-4 -3 2 7.06 1.38
-4 -3 2 6.22 1.34
-4 -3 2 6.55 0.81
3 3 -2 83.21 2.05
3 3 -2 81.91 2.91
3 3 -2 79.18 2.67
3 3 -2 81.39 2.69
3 3 -2 84.39 2.01
-3 -3 2 74.7 1.97
-3 -3 2 84.92 2.79
-3 -3 2 81.49 2.87
-3 -3 2 81.71 2.18
-3 -3 2 81.04 2.77
2 3 -2 108.27 3.05
2 3 -2 107.27 2.36
2 3 -2 104.25 2.95
2 3 -2 105.99 2.39
-2 -3 2 110.51 3.05
-2 -3 2 110.71 2.35
-2 -3 2 103.68 2.95
-2 -3 2 108.45 2.79
-2 -3 2 107.15 2.41
1 3 -2 0.55 0.57
1 3 -2 -0.31 0.57
1 3 -2 0.07 0.62
1 3 -2 0.79 0.72
1 3 -2 -0.55 0.46
-1 -3 2 -0.04 0.69
-1 -3 2 -0.12 0.65
-1 -3 2 0.65 0.66
-1 -3 2 -0.33 0.57
0 3 -2 251.77 4.37
0 3 -2 252.24 4.31
0 3 -2 249.21 3.02
0 3 -2 251.5 4.34
0 3 -2 245.98 4.33
0 -3 2 251.93 4.36
0 -3 2 251.08 4.36
0 -3 2 249.72 4.25
0 -3 2 250.13 4.34
0 -3 2 254.01 3.07
-1 3 -2 212.71 4.15
-1 3 -2 211.46 4.17
-1 3 -2 207.55 3.96
1 -3 2 211.4 4.14
1 -3 2 202.01 3.84
1 -3 2 213.35 4.05
1 -3 2 201.66 4.2
1 -3 2 209.13 4.26
-2 3 -2 1.39 0.79
-2 3 -2 3.21 1.04
-2 3 -2 3.8 0.94
2 -3 2 3.24 0.52
2 -3 2 2.98 0.75
2 -3 2 1.96 0.91
2 -3 2 2.84 0.45
2 -3 2 1.8 0.92
2 -3 2 3.79 0.96
2 -3 2 3.67 1
-3 3 -2 1.46 0.88
-3 3 -2 1.46 0.86
-3 3 -2 0.72 0.87
3 -3 2 0.8 0.54
3 -3 2 0.55 0.63
3 -3 2 0.93 0.52
3 -3 2 0.84 0.86
3 -3 2 0.56 0.95
-4 3 -2 12.11 1.59
-4 3 -2 11.1 1.76
4 -3 2 12.89 1.33
4 -3 2 11.07 1.16
4 -3 2 11.79 1.68
4 -3 2 11.3 1.1
-5 3 -2 24.53 2.21
-5 3 -2 29.67 2.21
5 -3 2 31.26 2.37
5 -3 2 29.28 1.7
5 -3 2 30.1 1.87
-6 3 -2 16.31 1.95
-6 3 -2 12.34 2.02
6 -3 2 14.19 2.18
6 -3 2 14.86 1.76
-7 3 -2 -0.4 1.08
-7 3 -2 -0.62 1.15
7 -3 2 0.26 0.99
7 -3 2 0.09 1.25
-8 3 -2 5.24 1.9
-8 3 -2 7.89 1.79
8 -3 2 6.94 1.92
8 -3 2 5.53 2.02
8 -3 2 7.61 1.7
-9 3 -2 1.16 1.67
9 -3 2 1.27 1.4
9 -3 2 0.03 1.42
9 -3 2 3.36 1.39
9 -3 2 -1.79 1.29
-10 3 -2 0 1.63
10 -3 2 2.46 1.38
10 -3 2 3.73 1.99
10 -3 2 5.59 1.61
10 -3 2 5.33 1.91
11 -3 2 -1.12 1.13
11 -3 2 3.76 1.66
12 2 -2 0.9 1.7
12 2 -2 1.52 2.14
-12 -2 2 2.48 2.22
11 2 -2 1.71 1.64
11 2 -2 -0.25 2.1
-11 -2 2 1.48 1.93
-11 -2 2 1.56 1.14
10 2 -2 23.57 3.45
10 2 -2 30.48 3.29
-10 -2 2 25.28 2.64
-10 -2 2 23.66 3.39
9 2 -2 48.94 2.45
9 2 -2 48.18 3.75
9 2 -2 45.15 3.47
-9 -2 2 44.77 3.69
-9 -2 2 45.7 3.07
8 2 -2 0.25 0.6
8 2 -2 1.12 0.83
8 2 -2 2.48 1.61
8 2 -2 -1.25 1.27
-8 -2 2 1.23 1.1
-8 -2 2 -0.05 1.31
7 2 -2 7.54 1.73
7 2 -2 4.72 1.54
7 2 -2 4.81 0.98
7 2 -2 5.2 0.89
-7 -2 2 4.32 1.54
-7 -2 2 5.7 1.38
6 2 -2 7.13 1.53
6 2 -2 7.68 0.98
6 2 -2 6.24 0.94
6 2 -2 6.66 1.5
-6 -2 2 8.59 1.41
-6 -2 2 5.21 1.46
5 2 -2 165.8 2.95
5 2 -2 160.63 3.78
5 2 -2 164.01 4.42
5 2 -2 168.43 3.05
-5 -2 2 163.44 4.59
-5 -2 2 163.1 3.78
4 2 -2 186.57 4.36
4 2 -2 182.58 3.71
4 2 -2 183.2 2.84
-4 -2 2 190.02 3.76
-4 -2 2 187.57 4.49
-4 -2 2 188.84 4.58
3 2 -2 1.65 0.48
3 2 -2 1.26 0.72
3 2 -2 3.16 0.93
3 2 -2 1.95 0.87
3 2 -2 1.74 0.69
-3 -2 2 2.38 0.98
-3 -2 2 1.32 0.79
-3 -2 2 1.65 0.92
-3 -2 2 2.07 0.45
-3 -2 2 1.73 0.73
2 2 -2 271.08 3.95
2 2 -2 262.4 4.56
2 2 -2 261.68 4.49
2 2 -2 262.87 3.25
2 2 -2 265.74 4.44
-2 -2 2 264.83 4.55
-2 -2 2 261.88 4.4
-2 -2 2 270.95 3.31
-2 -2 2 269.46 3.99
-2 -2 2 266.85 4.6
1 2 -2 99.21 2.17
1 2 -2 100.85 2.56
1 2 -2 104.97 2.03
1 2 -2 100.01 2.43
1 2 -2 103.16 2.33
-1 -2 2 103.57 2.47
-1 -2 2 101.03 2.28
-1 -2 2 104.02 2.57
-1 -2 2 100.83 2.01
0 2 -2 1.42 0.38
0 2 -2 1.04 0.62
0 2 -2 0.6 0.67
0 2 -2 0.79 0.63
0 2 -2 1.36 0.42
0 2 -2 0.97 0.61
0 -2 2 1.23 0.61
0 -2 2 1.19 0.66
0 -2 2 1.72 0.67
0 -2 2 1.28 0.69
-1 2 -2 19.62 1.4
-1 2 -2 21.91 1.44
-1 2 -2 23.52 1.45
1 -2 2 22.01 1.45
1 -2 2 24.28 1.32
1 -2 2 24.93 1.49
1 -2 2 20.61 1.29
-2 2 -2 44.09 1.94
2 -2 2 44.03 2.1
2 -2 2 44.99 2.07
2 -2 2 43.42 1.93
2 -2 2 43.25 1.11
2 -2 2 43.07 1.83
2 -2 2 42.67 1.83
-3 2 -2 88.22 2.91
-3 2 -2 90.35 3.04
3 -2 2 91.36 3.08
3 -2 2 91.3 2.11
3 -2 2 88.12 2.75
3 -2 2 93.56 2.97
3 -2 2 93.14 3.05
3 -2 2 89.41 2.77
-4 2 -2 80.37 2.97
-4 2 -2 76.74 2.96
4 -2 2 83.07 2.87
4 -2 2 76.38 2.32
4 -2 2 77.27 3.14
4 -2 2 77.4 2.78
4 -2 2 75.32 2.79
-5 2 -2 6.31 1.4
-5 2 -2 6.93 1.45
5 -2 2 5.32 1.3
5 -2 2 6.34 1.18
5 -2 2 5.95 1.07
-6 2 -2 7.03 1.64
-6 2 -2 11.02 1.86
6 -2 2 9.61 1.81
6 -2 2 10.57 1.66
-7 2 -2 1.45 1.3
-7 2 -2 0.06 1.12
7 -2 2 0.61 1.09
7 -2 2 2.16 1.34
-8 2 -2 22.3 2.69
-8 2 -2 20.27 2.54
8 -2 2 16.24 2.54
8 -2 2 21.09 2.39
8 -2 2 22.73 2.66
-9 2 -2 3.04 1.6
9 -2 2 4.44 1.8
9 -2 2 1.69 1.43
9 -2 2 4.24 1.67
9 -2 2 1.91 1.58
10 -2 2 4.95 1.58
10 -2 2 2.53 1.63
10 -2 2 0.94 1.63
10 -2 2 0.27 1.66
11 -2 2 -0.38 1.45
11 -2 2 2.67 1.78
11 -2 2 4 1.81
11 -2 2 7.14 2.29
11 -2 2 4.58 1.95
12 1 -2 33.66 4.1
12 1 -2 27.01 3.33
-12 -1 2 26.22 3.96
11 1 -2 -0.66 1.82
11 1 -2 3.94 1.61
-11 -1 2 2.44 1.61
-11 -1 2 2.75 2.19
10 1 -2 1.13 1.93
10 1 -2 3.19 1.65
-10 -1 2 -0.36 1.76
-10 -1 2 2.41 1.52
9 1 -2 2.74 1.85
9 1 -2 1.74 1.56
9 1 -2 1.43 0.97
-9 -1 2 4.72 1.86
-9 -1 2 0.46 1.28
8 1 -2 0.83 0.83
8 1 -2 1.51 1.57
8 1 -2 0.84 1.4
-8 -1 2 1.38 1.28
-8 -1 2 -0.68 1.36
7 1 -2 95.98 3.8
7 1 -2 88.68 4.16
7 1 -2 90.08 2.74
7 1 -2 89.07 2.67
-7 -1 2 96.43 4.23
-7 -1 2 97.12 3.78
6 1 -2 84.88 3.34
6 1 -2 85.83 3.74
6 1 -2 79.02 2.31
6 1 -2 85.82 2.37
-6 -1 2 88.63 3.69
-6 -1 2 84.2 3.27
5 1 -2 4.6 0.98
5 1 -2 4.78 0.74
5 1 -2 3.52 1.11
5 1 -2 5.25 0.84
5 1 -2 3.24 1.27
-5 -1 2 3.04 1.14
-5 -1 2 4.26 1.11
4 1 -2 162.69 3.88
4 1 -2 164.89 2.5
4 1 -2 166.45 2.56
4 1 -2 168.57 3.81
-4 -1 2 169.35 3.88
-4 -1 2 170.6 3.76
-4 -1 2 166.6 4.2
3 1 -2 49.81 2.04
3 1 -2 48.9 2.04
3 1 -2 48.81 2.11
3 1 -2 49.16 1.91
3 1 -2 45.94 2.12
3 1 -2 49.82 1.02
-3 -1 2 48.49 2.16
-3 -1 2 48.85 1.97
-3 -1 2 51.94 1.99
2 1 -2 203.11 3.64
2 1 -2 199.32 3.4
2 1 -2 200.65 3.74
2 1 -2 201.57 3.75
2 1 -2 199.88 3.66
-2 -1 2 199.44 3.52
-2 -1 2 202.67 3.76
-2 -1 2 202.13 3.62
1 1 -2 10.53 0.94
1 1 -2 11.31 0.99
1 1 -2 11.45 0.61
1 1 -2 11.3 0.94
1 1 -2 9.98 1.06
-1 -1 2 11.53 0.97
-1 -1 2 10.38 1
-1 -1 2 10.4 0.61
-1 -1 2 10.02 0.99
-1 -1 2 9.76 1
0 1 -2 132.73 2.27
0 1 -2 126.13 2.54
0 1 -2 127.78 2.57
0 1 -2 125.98 1.94
0 -1 2 125.5 2.22
0 -1 2 127.82 1.95
0 -1 2 124.78 2.48
0 -1 2 124.8 2.54
-1 1 -2 222.93 3.73
-1 1 -2 228.14 3.63
-1 1 -2 230.07 3.12
-1 1 -2 223.57 2.62
1 -1 2 223.35 3.04
1 -1 2 221.05 3.76
1 -1 2 223.97 2.64
1 -1 2 224.85 3.75
1 -1 2 223.74 3.58
-2 1 -2 20.62 1.43
-2 1 -2 19.86 1
-2 1 -2 21.16 1.5
-2 1 -2 17.6 1.35
-2 1 -2 20.58 1.17
2 -1 2 22.61 1.46
2 -1 2 21.31 1.16
2 -1 2 21.48 1.52
2 -1 2 19.04 0.94
2 -1 2 21.51 1.44
-3 1 -2 15.74 1.46
-3 1 -2 17.11 1.58
-3 1 -2 16.21 1.22
3 -1 2 14.63 1.45
3 -1 2 16.57 1.14
3 -1 2 17.14 1.48
3 -1 2 16.86 1.48
3 -1 2 15.6 1.44
3 -1 2 15.86 1.25
3 -1 2 18.33 1.34
-4 1 -2 11.1 1.29
-4 1 -2 16.48 1.69
-4 1 -2 13.45 1.61
4 -1 2 12.73 1.25
4 -1 2 12.99 1.41
4 -1 2 11.6 1.48
4 -1 2 11.76 1.41
4 -1 2 11.98 1.19
-5 1 -2 52.08 2.61
-5 1 -2 50.62 2.64
-5 1 -2 52.45 2.36
5 -1 2 50.86 2.64
5 -1 2 50.09 2.49
5 -1 2 50.95 2.24
-6 1 -2 28.83 2.3
-6 1 -2 28.37 2.15
-6 1 -2 24.65 2.22
6 -1 2 23.77 2.13
6 -1 2 27.75 2.39
-7 1 -2 4.86 1.46
-7 1 -2 4.96 1.53
7 -1 2 5.65 1.53
7 -1 2 4.13 1.52
8 -1 2 18.42 2.36
8 -1 2 8.94 2.01
8 -1 2 15.09 2.34
9 -1 2 1.69 1.6
9 -1 2 1.44 1.5
9 -1 2 1.32 1.48
9 -1 2 2.93 1.52
9 -1 2 1.85 1.59
10 -1 2 4.6 1.72
10 -1 2 3.8 1.62
10 -1 2 3.78 1.71
10 -1 2 5.05 1.88
10 -1 2 5.67 1.8
11 -1 2 3.12 1.78
11 -1 2 2.07 1.68
11 -1 2 5.72 1.84
11 -1 2 3.67 1.98
11 -1 2 9.53 2.41
11 0 -2 -0.7 1.68
11 0 -2 1.73 1.41
-11 0 2 -1.18 1.8
-11 0 2 -0.71 1.5
10 0 -2 11.3 2.81
10 0 -2 15.3 2.45
-10 0 2 20.79 3.45
-10 0 2 16.91 2.67
9 0 -2 59.76 4.11
9 0 -2 55.71 2.79
9 0 -2 62.56 3.61
-9 0 2 56.27 4.09
-9 0 2 62.63 3.94
8 0 -2 6.3 1.91
8 0 -2 9.23 1.72
8 0 -2 4.42 1.22
-8 0 2 5.97 1.72
-8 0 2 8.09 2.07
7 0 -2 1.64 1.16
7 0 -2 1.04 1.22
7 0 -2 0.37 0.8
7 0 -2 0.7 0.59
-7 0 2 1.39 1.31
-7 0 2 1.83 1.34
6 0 -2 58.51 2.73
6 0 -2 55.25 3.13
6 0 -2 57.25 2.04
-6 0 2 56.96 2.93
-6 0 2 57.25 3.19
5 0 -2 4.13 1.23
5 0 -2 5.58 1.18
5 0 -2 4.83 0.78
-5 0 2 5.38 1.38
-5 0 2 4.44 0.79
-5 0 2 5.12 1.23
4 0 -2 85.68 2.85
4 0 -2 84.89 1.92
4 0 -2 90.74 2.72
4 0 -2 87.55 3.08
-4 0 2 83.85 1.96
-4 0 2 89.57 2.97
-4 0 2 84.86 2.58
-4 0 2 85.85 3.16
3 0 -2 24.77 1.58
3 0 -2 26.72 1.64
3 0 -2 25.48 1.75
3 0 -2 25.33 1.46
3 0 -2 22.78 0.9
-3 0 2 23.03 1.66
-3 0 2 22.36 0.9
-3 0 2 24.46 1.37
-3 0 2 25.65 1.66
2 0 -2 37.97 1.73
2 0 -2 39.4 1.8
2 0 -2 37.13 1.47
2 0 -2 38.56 1.69
-2 0 2 37.1 0.79
-2 0 2 35.19 1.69
-2 0 2 36.48 1.68
-2 0 2 35.29 1.65
-2 0 2 37.75 1.52
1 0 -2 102.14 1.39
1 0 -2 106.23 2.21
1 0 -2 104.18 2.31
1 0 -2 103.96 2.3
1 0 -2 103.75 2.12
-1 0 2 102.02 2.28
-1 0 2 103.53 1.42
-1 0 2 106.02 2.25
-1 0 2 107.86 2.45
0 0 -2 0.32 0.48
0 0 -2 0.26 0.35
0 0 -2 0.07 0.42
0 0 -2 0.29 0.48
0 0 2 0.41 0.46
0 0 2 0.72 0.48
0 0 2 0.66 0.5
0 0 2 0.69 0.46
0 0 2 0.24 0.37
-1 0 -2 11.66 0.5
-1 0 -2 10.94 1.02
-1 0 -2 10.65 0.83
-1 0 -2 12.99 1.11
1 0 2 11.11 0.47
1 0 2 13.34 1.06
1 0 2 10.93 0.84
1 0 2 13.41 1.01
1 0 2 13.7 1.14
-2 0 -2 83.07 2.5
-2 0 -2 81.73 2.2
-2 0 -2 81.11 1.99
2 0 2 79.23 2.28
2 0 2 82.86 1.58
2 0 2 82.26 2.42
2 0 2 81.5 1.96
2 0 2 81.73 2.19
2 0 2 81.35 1.62
-3 0 -2 17.96 1.37
-3 0 -2 16.71 1.6
-3 0 -2 14.43 1.36
3 0 2 15.74 1.4
3 0 2 15.26 1.33
3 0 2 18.25 1.1
3 0 2 15.24 1.36
3 0 2 15.66 1.21
3 0 2 14.54 1.48
-4 0 -2 8.51 1.34
-4 0 -2 7.01 1.26
-4 0 -2 6.9 1.2
-4 0 -2 8.83 1.24
4 0 2 6.82 1.15
4 0 2 7.47 1.14
4 0 2 8.3 1.19
4 0 2 6.51 0.96
4 0 2 6.25 1.24
4 0 2 6.56 1.18
-5 0 -2 -1.09 0.76
-5 0 -2 0.1 0.88
-5 0 -2 0.16 0.82
-5 0 -2 0.29 0.93
5 0 2 0.98 0.9
5 0 2 1.21 0.7
-6 0 -2 2.67 1.19
-6 0 -2 6.51 1.44
-6 0 -2 4.54 1.38
6 0 2 5.59 1.3
-7 0 -2 0.71 1.19
-7 0 -2 0.26 1.1
-7 0 -2 4.09 1.37
7 0 2 3.05 1.31
7 0 2 2.83 1.29
-8 0 -2 14.47 2.35
8 0 2 17.78 2.37
8 0 2 17.6 2.41
9 0 2 2.77 1.71
9 0 2 2.17 1.57
9 0 2 1.45 1.31
10 0 2 2.61 1.74
10 0 2 5.44 1.94
10 0 2 3.14 1.67
10 0 2 3.56 1.81
10 0 2 6.98 1.95
11 0 2 21.12 2.93
11 0 2 21.78 3
11 0 2 19.25 3.11
11 0 2 20.59 3.03
11 0 2 25.47 2.8
12 0 2 3.42 1.99
12 0 2 0.87 1.41
12 0 2 5.07 1.9
12 0 2 2.86 1.27
12 0 2 2.83 1.62
11 -1 -2 28.72 3.76
-11 1 2 36.67 3.64
10 -1 -2 4.16 1.99
10 -1 -2 -0.69 1.08
-10 1 2 -0.08 1.88
-10 1 2 1.59 1.49
9 -1 -2 2.92 1.78
9 -1 -2 1.78 1.26
9 -1 -2 -0.08 1.14
-9 1 2 -0.02 1.72
-9 1 2 0.31 1.5
8 -1 -2 25.93 2.38
8 -1 -2 29.7 3
-8 1 2 19.52 2.85
-8 1 2 25.63 2.93
-8 1 2 26.16 2.15
7 -1 -2 8.89 2.03
7 -1 -2 11.86 1.81
-7 1 2 11.08 1.49
-7 1 2 11.14 2.01
-7 1 2 11.51 2.2
6 -1 -2 37.63 2.24
6 -1 -2 35.47 2.64
6 -1 -2 33.15 1.77
-6 1 2 36.85 2.76
-6 1 2 35.64 2.66
-6 1 2 34.07 1.94
5 -1 -2 1.14 0.84
5 -1 -2 0.76 0.95
5 -1 -2 1.57 0.72
5 -1 -2 0.47 0.64
-5 1 2 1.2 1.15
-5 1 2 1.51 1.05
-5 1 2 1.33 0.68
4 -1 -2 1.32 0.96
4 -1 -2 0.23 0.7
4 -1 -2 1.55 0.6
-4 1 2 1.05 0.91
-4 1 2 1.19 1.01
-4 1 2 0.66 0.6
3 -1 -2 185.37 3.04
3 -1 -2 191.4 4.2
3 -1 -2 189.27 3.24
3 -1 -2 191.69 4.24
3 -1 -2 194.83 4.22
-3 1 2 185.09 4.25
-3 1 2 195.1 4.31
-3 1 2 184.32 4.15
-3 1 2 190.98 3.26
-3 1 2 187.66 3.1
2 -1 -2 4.13 0.9
2 -1 -2 4.75 0.66
2 -1 -2 5.57 0.99
2 -1 -2 6.24 1.02
2 -1 -2 5 0.72
-2 1 2 5.63 0.97
-2 1 2 4.16 0.95
-2 1 2 4.81 1.03
-2 1 2 4.69 0.76
-2 1 2 4.65 0.73
1 -1 -2 128.69 2.15
1 -1 -2 125.84 2.81
1 -1 -2 129.83 2.1
1 -1 -2 128.76 2.65
1 -1 -2 128.96 2.77
-1 1 2 127.44 2.69
-1 1 2 125.1 2.84
-1 1 2 122.21 2.7
-1 1 2 127.3 2.07
-1 1 2 126.74 2.11
0 -1 -2 3.06 0.53
0 -1 -2 3.17 0.67
0 -1 -2 3.18 0.61
0 -1 -2 2.4 0.67
0 -1 -2 2.88 0.6
0 1 2 2.55 0.61
0 1 2 2.76 0.54
0 1 2 2.39 0.54
0 1 2 3.1 0.72
0 1 2 2.2 0.64
-1 -1 -2 28.6 1.27
-1 -1 -2 29.18 1.31
-1 -1 -2 29.62 0.64
-1 -1 -2 29.17 1.42
1 1 2 32.78 1.38
1 1 2 29.75 1.27
1 1 2 30.19 1.24
1 1 2 30.69 1.41
-2 -1 -2 402.79 4.17
-2 -1 -2 404.3 5.1
-2 -1 -2 409.37 5.55
-2 -1 -2 408.59 5.48
-2 -1 -2 406.84 5.92
2 1 2 404.03 5.48
2 1 2 411.88 5.1
2 1 2 407.31 5.95
2 1 2 413.66 4.15
2 1 2 414.11 5.5
-3 -1 -2 3.3 0.99
-3 -1 -2 3.65 0.77
-3 -1 -2 4.83 1.03
-3 -1 -2 4.05 0.72
3 1 2 3.33 0.89
3 1 2 2.98 0.82
3 1 2 4.44 0.68
3 1 2 2.5 0.71
3 1 2 3.73 0.94
3 1 2 3 0.83
-4 -1 -2 1.7 0.89
-4 -1 -2 2.29 0.74
-4 -1 -2 1.53 0.9
4 1 2 2.39 0.76
4 1 2 2.39 0.85
4 1 2 1.53 0.77
4 1 2 1.47 0.66
4 1 2 1.67 0.88
4 1 2 1.21 0.77
4 1 2 1.88 0.79
-5 -1 -2 5.15 1.31
-5 -1 -2 5.29 1.29
-5 -1 -2 7.39 1.19
5 1 2 5.79 1.25
5 1 2 5.82 1.11
5 1 2 5.77 1.04
5 1 2 5.64 1.06
-6 -1 -2 175.41 4.43
-6 -1 -2 174.49 4.88
-6 -1 -2 177.87 5.16
6 1 2 172.76 4.31
6 1 2 176.35 4.64
-7 -1 -2 12.32 2.09
-7 -1 -2 12.3 1.91
7 1 2 9.3 1.61
7 1 2 9.42 1.68
-8 -1 -2 2.44 1.44
-8 -1 -2 2.99 1.64
8 1 2 4.17 1.41
8 1 2 4.59 1.71
8 1 2 3.92 1.5
-9 -1 -2 21.07 2.64
-9 -1 -2 24.4 2.95
9 1 2 22.59 2.45
9 1 2 18.36 2.78
9 1 2 23.92 2.54
-10 -1 -2 5.35 1.79
10 1 2 1.39 1.67
10 1 2 4.28 1.76
10 1 2 6.38 1.65
11 1 2 18.4 2.56
11 1 2 17.33 2.29
11 1 2 17.77 3
11 1 2 13.43 2.82
12 1 2 6.63 2.17
12 1 2 2.6 1.7
12 1 2 3.27 1.69
12 1 2 -0.4 1.58
11 -2 -2 -1.37 1.56
11 -2 -2 2.24 1.76
-11 2 2 3.19 1.73
10 -2 -2 8.88 2.47
10 -2 -2 2.82 2.03
-10 2 2 7.08 2.32
9 -2 -2 5.24 2.26
9 -2 -2 8.8 1.7
9 -2 -2 11.06 2.53
-9 2 2 5.36 1.43
-9 2 2 7.48 2.28
8 -2 -2 20.26 2.76
8 -2 -2 17.24 2.01
-8 2 2 15.73 2.71
-8 2 2 17.21 2.1
7 -2 -2 1.38 1.04
7 -2 -2 1.57 1.34
-7 2 2 2.41 1.63
-7 2 2 1.29 1.5
-7 2 2 1.96 1.01
6 -2 -2 4.61 0.99
6 -2 -2 4.58 1.46
6 -2 -2 4.11 1.1
-6 2 2 6.07 1.73
-6 2 2 4.4 1.09
-6 2 2 3.57 1.5
5 -2 -2 8.45 1.15
5 -2 -2 9.66 1.15
5 -2 -2 9.12 1.61
5 -2 -2 9.92 1.29
-5 2 2 8.94 1.72
-5 2 2 10.92 1.82
-5 2 2 9.93 1.36
4 -2 -2 74.78 2.19
4 -2 -2 78.47 3.06
4 -2 -2 70.89 2.33
4 -2 -2 74.77 2.1
-4 2 2 75.36 3.16
-4 2 2 70.89 2.42
-4 2 2 72.54 3.14
3 -2 -2 0.94 0.87
3 -2 -2 0.55 0.59
3 -2 -2 0.68 0.48
3 -2 -2 -0.52 0.46
-3 2 2 0.27 0.71
-3 2 2 0.95 0.98
-3 2 2 1.23 0.7
-3 2 2 0.88 0.92
2 -2 -2 1.1 0.38
2 -2 -2 0.36 0.57
2 -2 -2 2.05 0.82
2 -2 -2 0.02 0.79
2 -2 -2 1.9 0.82
-2 2 2 0.77 0.88
-2 2 2 0.8 0.7
-2 2 2 1.1 0.64
-2 2 2 1.1 0.39
1 -2 -2 127.65 2.93
1 -2 -2 132.43 1.81
1 -2 -2 133.68 2.99
1 -2 -2 128.41 3.04
1 -2 -2 131.47 2.96
1 -2 -2 129.36 2.6
-1 2 2 131.03 2.68
-1 2 2 129.74 3
-1 2 2 126.44 1.77
-1 2 2 129.66 3.11
0 -2 -2 57.54 1.47
0 -2 -2 58.21 2.01
0 -2 -2 56.36 1.72
0 -2 -2 60.32 1.81
0 -2 -2 56.51 1.9
0 2 2 56.73 1.83
0 2 2 55.7 1.88
0 2 2 57.66 2.01
0 2 2 54.75 1.46
0 2 2 57.84 1.73
-1 -2 -2 10.49 1.06
-1 -2 -2 10.74 1.1
-1 -2 -2 9.01 1.11
-1 -2 -2 9.08 0.92
-1 -2 -2 8.08 0.8
1 2 2 10.18 1.2
1 2 2 9.16 0.99
1 2 2 10.66 1.1
1 2 2 9.67 0.8
-2 -2 -2 4.14 0.69
-2 -2 -2 4.01 0.65
-2 -2 -2 3.04 0.94
-2 -2 -2 2.9 0.76
-2 -2 -2 3.92 0.91
2 2 2 4.35 0.92
2 2 2 3.89 0.65
2 2 2 4.16 0.88
2 2 2 4.49 0.9
2 2 2 3.23 0.62
-3 -2 -2 62.21 2.25
-3 -2 -2 59.89 1.69
-3 -2 -2 63.92 2.43
-3 -2 -2 61.98 2.45
-3 -2 -2 61.87 1.7
3 2 2 61.7 1.66
3 2 2 60.96 1.68
3 2 2 58.42 2.37
3 2 2 66.91 2.37
3 2 2 61.64 2.22
-4 -2 -2 167.18 3.91
-4 -2 -2 166.81 4.17
-4 -2 -2 163.6 3.28
-4 -2 -2 169.4 4.41
4 2 2 168.59 3.16
4 2 2 171.74 4.11
4 2 2 173.65 3.88
4 2 2 165.12 3.17
4 2 2 164.83 3.21
-5 -2 -2 13.49 1.37
-5 -2 -2 13.2 1.7
-5 -2 -2 11.24 1.83
5 2 2 11.56 1.19
5 2 2 12.83 1.26
5 2 2 14.4 1.27
5 2 2 14.26 1.64
-6 -2 -2 13.66 2.02
-6 -2 -2 14.28 1.67
6 2 2 13.77 1.36
6 2 2 16.87 1.85
6 2 2 14.61 1.48
-7 -2 -2 6.85 1.75
-7 -2 -2 9.22 1.61
7 2 2 7.75 1.75
7 2 2 6.31 1.29
7 2 2 5.02 1.36
-8 -2 -2 -1.75 1
-8 -2 -2 -1.19 1.19
8 2 2 0.39 0.92
8 2 2 2.79 1.23
8 2 2 1.63 1.48
-9 -2 -2 23.77 2.69
-9 -2 -2 26.5 2.96
9 2 2 19.56 3
9 2 2 25.46 2.26
9 2 2 20.28 2.4
-10 -2 -2 -0.97 1.35
-10 -2 -2 3.29 1.91
10 2 2 1.6 1.37
10 2 2 2.23 1.89
10 2 2 3.13 1.37
-11 -2 -2 7.72 2.51
-11 -2 -2 14.27 2.86
11 2 2 7.42 2.56
11 2 2 14.13 2.27
11 2 2 12.07 2.34
-12 -2 -2 20.44 3.01
12 2 2 25.1 3.44
12 2 2 22.37 2.8
12 2 2 30.35 3.6
10 -3 -2 4.56 2.08
10 -3 -2 2.68 2.19
-10 3 2 5.79 2.19
9 -3 -2 3.43 1.99
9 -3 -2 4 2.13
-9 3 2 2.39 1.89
-9 3 2 2.93 1.35
8 -3 -2 1.78 1.03
8 -3 -2 1.97 1.67
8 -3 -2 2.86 1.68
-8 3 2 3.08 1.32
-8 3 2 0.33 1.45
7 -3 -2 -1.44 1.19
7 -3 -2 -0.27 0.82
7 -3 -2 -1.39 1.18
-7 3 2 1.03 1.02
-7 3 2 -0.65 1.37
6 -3 -2 65.5 3.4
6 -3 -2 66.29 2.4
6 -3 -2 64.71 3.61
6 -3 -2 64.91 2.42
-6 3 2 66.27 3.79
-6 3 2 67.89 3.01
5 -3 -2 13.72 1.97
5 -3 -2 15.13 1.24
5 -3 -2 11.3 1.11
5 -3 -2 11.5 1.83
-5 3 2 12.86 1.7
-5 3 2 13.39 2.07
4 -3 -2 2.59 1.15
4 -3 -2 4.17 0.69
4 -3 -2 4.39 1.24
4 -3 -2 5.43 0.83
4 -3 -2 2.9 0.85
-4 3 2 1.62 1.08
-4 3 2 6.88 1.19
3 -3 -2 1.55 1.02
3 -3 -2 2.86 0.86
3 -3 -2 1.33 0.92
-3 3 2 1.71 0.99
-3 3 2 1.79 0.83
2 -3 -2 7.81 1.29
2 -3 -2 7.93 1.09
2 -3 -2 8.16 1.33
2 -3 -2 5.06 1.13
-2 3 2 6.8 1.12
-2 3 2 6.85 1.21
-2 3 2 8.19 1.18
1 -3 -2 49.48 2.13
1 -3 -2 47.48 1.88
1 -3 -2 49.49 2.12
1 -3 -2 44.12 2.02
-1 3 2 47.03 2.2
-1 3 2 49.14 2.05
-1 3 2 45.75 2
-1 3 2 47.72 1.98
0 -3 -2 23.32 1.56
0 -3 -2 24.47 1.44
0 -3 -2 25.88 1.1
0 -3 -2 25.68 1.57
0 -3 -2 23.93 1.46
0 3 2 26.37 1.61
0 3 2 26.41 1.58
0 3 2 23.7 1.08
0 3 2 25.75 1.49
0 3 2 24.63 1.6
-1 -3 -2 6.31 0.88
-1 -3 -2 4.94 0.88
-1 -3 -2 5.26 0.95
-1 -3 -2 4.68 0.97
-1 -3 -2 5.67 0.87
1 3 2 6.26 0.96
1 3 2 5.16 0.93
1 3 2 5.64 0.9
1 3 2 6.91 1.12
1 3 2 4.95 0.82
-2 -3 -2 988.84 9.68
-2 -3 -2 965.97 11.12
-2 -3 -2 982.22 11.29
-2 -3 -2 1000 11.54
-2 -3 -2 968.23 10.13
2 3 2 955.71 11.39
2 3 2 985.24 9.76
2 3 2 976.15 11.26
2 3 2 958.99 9.99
2 3 2 996.77 11.17
-3 -3 -2 3.93 1.1
-3 -3 -2 3.46 0.89
-3 -3 -2 2.44 0.76
-3 -3 -2 4.04 0.61
-3 -3 -2 4.17 1.08
3 3 2 3.21 0.99
3 3 2 3.52 0.58
3 3 2 3.67 0.96
3 3 2 3.01 0.9
3 3 2 3.56 0.73
-4 -3 -2 -1.01 0.81
-4 -3 -2 0.26 0.96
-4 -3 -2 -0.29 0.65
4 3 2 -0.61 0.44
4 3 2 0.01 0.58
4 3 2 -0.05 0.78
-5 -3 -2 25.19 1.73
-5 -3 -2 24.39 2.07
5 3 2 24.97 1.29
5 3 2 23.06 1.29
5 3 2 27.01 1.59
5 3 2 25.23 1.94
-6 -3 -2 44.72 2.36
-6 -3 -2 40.59 2.73
6 3 2 43.94 2.5
6 3 2 41.27 2.72
6 3 2 46.07 1.85
6 3 2 41.08 1.79
-7 -3 -2 32.34 2.36
-7 -3 -2 26.21 2.59
7 3 2 28.7 1.78
7 3 2 26.19 1.62
7 3 2 26.02 2.25
7 3 2 27.07 2.58
-8 -3 -2 5.51 1.57
-8 -3 -2 5.88 1.86
8 3 2 4.14 1.09
8 3 2 5.54 1.5
8 3 2 4.74 1.96
-9 -3 -2 13.64 2.21
-9 -3 -2 11.4 2.38
9 3 2 9.32 2.28
9 3 2 8.94 1.82
9 3 2 9.81 1.6
-10 -3 -2 42.94 3.96
-10 -3 -2 45.48 3.47
10 3 2 36.92 2.6
10 3 2 38.85 3.84
10 3 2 40.35 3.1
-11 -3 -2 -0.11 1.52
-11 -3 -2 4.87 2.18
11 3 2 0.15 1.28
11 3 2 4.12 2.19
-12 -3 -2 3.75 2.11
-12 -3 -2 -1.37 1.49
12 3 2 2.33 2.01
12 3 2 2.58 1.63
10 -4 -2 3.11 2.32
10 -4 -2 5.17 2.11
-10 4 2 4.58 2.4
9 -4 -2 -0.05 1.65
9 -4 -2 -0.75 1.68
-9 4 2 0.2 1.34
-9 4 2 0.23 1.73
8 -4 -2 32.54 3.47
8 -4 -2 27.33 3.04
-8 4 2 23.16 3.34
-8 4 2 29.06 2.73
7 -4 -2 8.93 1.3
7 -4 -2 7.76 1.92
7 -4 -2 8.1 2.24
-7 4 2 6.83 1.72
-7 4 2 6.08 2.06
6 -4 -2 3.34 0.84
6 -4 -2 1.43 1.31
6 -4 -2 2.72 1.44
6 -4 -2 2.73 0.7
-6 4 2 1.42 1.12
-6 4 2 2.32 1.61
5 -4 -2 16.46 2.36
5 -4 -2 18.72 1.01
5 -4 -2 14.83 1.98
-5 4 2 17.49 1.98
-5 4 2 17.6 2.38
4 -4 -2 3.33 1.22
4 -4 -2 5.83 1.36
-4 4 2 4.58 1.43
-4 4 2 5.19 1.28
3 -4 -2 11.85 1.72
3 -4 -2 12.18 1.61
-3 4 2 11.81 1.61
-3 4 2 13.48 1.83
2 -4 -2 21.84 1.75
2 -4 -2 19.69 1.93
-2 4 2 20.63 1.59
-2 4 2 21.72 1.78
-2 4 2 21.51 1.9
1 -4 -2 73.68 2.57
1 -4 -2 69.06 2.67
1 -4 -2 72.1 2.66
1 -4 -2 70.57 2.66
-1 4 2 74.94 2.82
-1 4 2 72.66 2.8
-1 4 2 72.86 2.63
-1 4 2 71.75 2.6
0 -4 -2 107.1 3.13
0 -4 -2 113.12 3.06
0 -4 -2 106.03 3.09
0 -4 -2 105.65 2.94
0 4 2 105.95 2.1
0 4 2 106.88 2.16
0 4 2 107.71 3.09
0 4 2 108.93 3.04
0 4 2 111.59 3.11
0 4 2 111.02 3.17
-1 -4 -2 4.78 0.83
-1 -4 -2 4.51 0.99
-1 -4 -2 5.2 1.11
-1 -4 -2 3.95 0.95
1 4 2 6.83 0.98
1 4 2 5.38 1.08
1 4 2 3.56 0.96
1 4 2 4.32 0.94
1 4 2 5.64 0.95
1 4 2 4.97 0.83
-2 -4 -2 2.23 0.62
-2 -4 -2 1.4 0.96
-2 -4 -2 2.63 0.78
-2 -4 -2 0.97 0.79
2 4 2 2.34 0.68
2 4 2 1.49 0.78
2 4 2 1.92 1.01
2 4 2 1.9 0.71
2 4 2 1.42 0.89
-3 -4 -2 0.22 0.93
-3 -4 -2 -0.15 0.39
-3 -4 -2 0.24 0.72
3 4 2 0.36 0.45
3 4 2 1.27 0.9
3 4 2 -0.17 0.92
3 4 2 0.22 0.61
3 4 2 0.18 0.69
-4 -4 -2 118.41 3.14
-4 -4 -2 123.71 3.92
4 4 2 122.14 3.78
4 4 2 117.87 3.06
4 4 2 119.96 3.69
-5 -4 -2 120.51 3.35
-5 -4 -2 116.23 4.11
5 4 2 119.02 3.31
5 4 2 120.12 4.12
5 4 2 125.01 3.85
-6 -4 -2 -0.02 0.89
-6 -4 -2 1.35 1.19
6 4 2 -0.24 1.11
6 4 2 0.37 0.51
6 4 2 1.19 1.06
6 4 2 1.43 0.48
-7 -4 -2 44.11 3.25
-7 -4 -2 49.92 2.79
7 4 2 47.57 1.78
7 4 2 48.52 1.83
7 4 2 43.04 3.2
7 4 2 44.74 2.86
-8 -4 -2 40.45 2.72
-8 -4 -2 38.35 3.28
8 4 2 35.97 1.7
8 4 2 34.31 3.23
8 4 2 35.76 2.86
8 4 2 35.65 1.84
-9 -4 -2 10.94 2.6
-9 -4 -2 9.32 2.1
9 4 2 8.15 1.88
9 4 2 8.38 1.4
9 4 2 4.6 2.09
-10 -4 -2 -0.82 1.69
-10 -4 -2 3.14 1.6
10 4 2 -0.12 1.7
10 4 2 0.66 1.5
-11 -4 -2 -0.13 1.58
-11 -4 -2 -1.76 1.87
11 4 2 -2.45 1.14
11 4 2 3.63 2.08
-12 -4 -2 4.38 2.26
-12 -4 -2 2.22 1.54
12 4 2 2.93 2.25
12 4 2 4.01 1.92
10 -5 -2 6.41 2.79
10 -5 -2 14.59 2.77
-10 5 2 14.43 3.16
9 -5 -2 -1.12 1.3
9 -5 -2 0.15 1.79
-9 5 2 1.27 2.15
-9 5 2 -0.43 1.23
8 -5 -2 -0.06 1.42
8 -5 -2 -2.33 1.5
-8 5 2 2.69 1.96
-8 5 2 1.29 1.59
7 -5 -2 14.97 2.46
7 -5 -2 19.26 2.88
-7 5 2 13.77 2.76
-7 5 2 20.33 2.54
6 -5 -2 12.54 2.34
6 -5 -2 12.35 2.12
-6 5 2 9.82 1.95
-6 5 2 13.69 2.63
5 -5 -2 25.12 2.4
5 -5 -2 19.72 2.58
-5 5 2 18.08 2.29
-5 5 2 18.81 2.68
4 -5 -2 6.41 1.68
4 -5 -2 8.82 1.56
-4 5 2 4.28 1.59
-4 5 2 5.36 1.47
3 -5 -2 41.65 2.39
3 -5 -2 41.12 2.76
-3 5 2 44.52 2.93
-3 5 2 43.35 2.53
2 -5 -2 90.55 3.5
2 -5 -2 91.25 3.25
-2 5 2 88.33 3.63
-2 5 2 90.69 3.37
1 -5 -2 1.22 0.97
1 -5 -2 2.05 1.05
-1 5 2 1.3 0.97
-1 5 2 2.04 1.05
0 -5 -2 3.85 1.09
0 -5 -2 2.24 0.82
0 -5 -2 2.38 1.05
0 5 2 4.08 1.09
0 5 2 3.14 0.65
0 5 2 2.18 1.06
0 5 2 3.49 0.99
0 5 2 2.44 0.59
-1 -5 -2 6.54 1.27
-1 -5 -2 8.85 1.32
-1 -5 -2 7.39 1.07
1 5 2 6.96 1.32
1 5 2 7.07 1.15
1 5 2 7.02 1.12
1 5 2 6.74 1.03
1 5 2 7.91 1.16
-2 -5 -2 259.13 5.44
-2 -5 -2 256.87 4.95
-2 -5 -2 251.05 4.17
2 5 2 244.2 5.28
2 5 2 257.39 4.89
2 5 2 251.28 4.14
2 5 2 251.24 4.82
-3 -5 -2 12.31 1.48
-3 -5 -2 8.4 1.51
-3 -5 -2 7.84 0.78
3 5 2 10.42 1.18
3 5 2 8.22 1.47
3 5 2 7.86 0.88
3 5 2 8.53 1.46
-4 -5 -2 6.4 1.22
-4 -5 -2 5.63 1.43
4 5 2 3.96 0.97
4 5 2 5.5 1.39
4 5 2 5.26 1.37
-5 -5 -2 104.42 4.08
-5 -5 -2 100.06 3.37
5 5 2 92.53 3.78
5 5 2 100.62 3.78
-6 -5 -2 13.43 1.84
-6 -5 -2 12.48 2.02
6 5 2 14.23 2.29
6 5 2 10.3 1.85
-7 -5 -2 13.07 2.34
-7 -5 -2 15.72 2.11
7 5 2 16.76 2.32
7 5 2 15.29 2.58
-8 -5 -2 -1.64 1.06
-8 -5 -2 0.11 1.56
8 5 2 -1.16 1.35
8 5 2 -1.08 1.19
-9 -5 -2 -0.01 1.28
-9 -5 -2 -0.81 1.61
9 5 2 -1.04 1.47
9 5 2 1.25 1.37
-10 -5 -2 14.55 2.43
-10 -5 -2 12.6 3.11
10 5 2 14.65 2.45
10 5 2 9.92 2.69
-11 -5 -2 11.62 3.09
-11 -5 -2 6.51 2.17
11 5 2 6.09 1.99
11 5 2 16.19 3.27
-12 -5 -2 2.37 1.81
-12 -5 -2 5.61 2.55
12 5 2 4.61 2.18
12 5 2 -1.19 1.19
9 -6 -2 2.24 2.15
9 -6 -2 0.75 1.32
-9 6 2 4.3 2.14
-9 6 2 -0.01 1.35
8 -6 -2 2.53 2.02
8 -6 -2 5.92 1.91
-8 6 2 4.49 2.31
-8 6 2 3.52 1.74
7 -6 -2 21.14 2.76
7 -6 -2 28.02 3.4
-7 6 2 19.71 3.23
-7 6 2 26.82 3.04
6 -6 -2 0.01 1.2
6 -6 -2 -0.12 1.54
-6 6 2 0.9 1.69
-6 6 2 -0.38 1.29
5 -6 -2 24.27 3.04
5 -6 -2 23.01 2.37
-5 6 2 27.91 2.74
-5 6 2 24.29 2.95
4 -6 -2 14.5 2.43
4 -6 -2 12.61 1.91
-4 6 2 13.33 2.3
-4 6 2 13.1 2.06
3 -6 -2 2.57 1.19
3 -6 -2 1.69 1.24
-3 6 2 2.99 1.45
-3 6 2 3.45 1.33
2 -6 -2 6.25 1.4
2 -6 -2 8.07 1.69
-2 6 2 5.42 1.43
-2 6 2 6.22 1.61
1 -6 -2 0.98 0.93
1 -6 -2 0.86 1.08
-1 6 2 0.91 1.13
-1 6 2 0.17 1.01
0 -6 -2 101.65 3.62
0 -6 -2 99.57 3.44
0 6 2 105.65 2.45
0 6 2 100.68 2.4
0 6 2 100.29 3.5
0 6 2 105.28 3.77
-1 -6 -2 44.91 2.48
-1 -6 -2 45.73 2.06
-1 -6 -2 44.9 2.53
1 6 2 46.92 2.3
1 6 2 46.2 1.99
1 6 2 47.89 1.96
1 6 2 47.35 2.72
-2 -6 -2 19.04 1.84
-2 -6 -2 20.4 1.34
-2 -6 -2 21.32 1.94
2 6 2 18.94 2.03
2 6 2 21.33 1.61
2 6 2 19.63 1.78
2 6 2 16.87 1.52
-3 -6 -2 106.37 3.48
-3 -6 -2 107.96 2.4
-3 -6 -2 101.43 3.71
3 6 2 107.67 3.83
3 6 2 106.4 2.46
3 6 2 106.29 3.52
-4 -6 -2 0.03 0.89
-4 -6 -2 -1.05 0.96
4 6 2 -0.06 0.94
4 6 2 0.14 1.02
-5 -6 -2 34.35 2.64
-5 -6 -2 37.14 2.41
5 6 2 34.29 2.73
5 6 2 40.29 2.73
-6 -6 -2 5.12 1.69
-6 -6 -2 7.66 1.58
6 6 2 5.69 1.69
6 6 2 5.82 1.63
-7 -6 -2 0.48 1.16
-7 -6 -2 1.75 1.49
7 6 2 -1.39 1.17
7 6 2 0.74 1.45
-8 -6 -2 16.84 2.46
-8 -6 -2 17.8 2.87
8 6 2 18.78 2.74
8 6 2 17.88 2.71
-9 -6 -2 8.57 2.03
-9 -6 -2 2 1.89
9 6 2 6.51 2.12
9 6 2 1.17 1.86
-10 -6 -2 16.32 2.72
-10 -6 -2 15.08 3.06
10 6 2 19.03 3.25
10 6 2 19.62 2.87
-11 -6 -2 0.62 1.95
-11 -6 -2 -0.81 1.28
11 6 2 -0.55 1.88
11 6 2 -1.49 1.6
-12 -6 -2 1.8 1.65
-12 -6 -2 -1.16 2.05
12 6 2 -1.39 1.5
12 6 2 -3.38 1.91
8 -7 -2 10.57 2.77
8 -7 -2 4.97 1.66
-8 7 2 7.19 2.18
-8 7 2 3.1 2
7 -7 -2 8.59 2.45
7 -7 -2 8.72 1.9
-7 7 2 5.44 2.35
-7 7 2 10.55 2.37
6 -7 -2 1.24 1.28
6 -7 -2 -0.74 1.64
-6 7 2 0.9 1.68
-6 7 2 -1.03 1.3
5 -7 -2 2.16 1.38
5 -7 -2 1.55 1.55
-5 7 2 1.92 1.92
-5 7 2 1.42 1.39
4 -7 -2 0.61 1.41
4 -7 -2 -0.81 1
-4 7 2 -1.12 1.12
-4 7 2 -1.5 1.36
3 -7 -2 1.24 1.18
3 -7 -2 1.1 1.29
-3 7 2 3.91 1.75
-3 7 2 2.04 1.4
2 -7 -2 99.82 4.39
2 -7 -2 115.05 4.01
-2 7 2 105.97 4.48
-2 7 2 120.62 4.54
1 -7 -2 4.88 1.54
1 -7 -2 1.55 1.13
-1 7 2 2.65 1.3
-1 7 2 0.31 1.18
0 -7 -2 3.11 1.33
0 -7 -2 0.68 1.03
0 7 2 1.98 1.19
0 7 2 2.17 1.29
0 7 2 3.25 0.72
0 7 2 1.94 0.75
-1 -7 -2 48.22 2.71
-1 -7 -2 44.36 2.65
1 7 2 46.1 2.5
1 7 2 49.24 3.03
1 7 2 45.17 2.14
1 7 2 46.17 2.03
-2 -7 -2 2.75 1.2
-2 -7 -2 3.46 1.27
-2 -7 -2 2.2 0.72
2 7 2 2.86 1.25
2 7 2 2.22 0.97
2 7 2 3.34 1.11
-3 -7 -2 33.9 2.56
-3 -7 -2 32.52 1.54
-3 -7 -2 33.61 2.43
3 7 2 35.43 2.42
3 7 2 36.08 2.68
3 7 2 32.57 1.7
-4 -7 -2 2.78 1.41
-4 -7 -2 5.79 1.48
4 7 2 5.7 1.55
4 7 2 4.58 1.46
-5 -7 -2 -0.32 1
-5 -7 -2 1.18 1.35
5 7 2 -2 1.05
5 7 2 -1.47 1.13
-6 -7 -2 13.59 2.47
-6 -7 -2 10.13 1.85
6 7 2 12.26 2.15
6 7 2 8.77 1.96
-7 -7 -2 5.2 1.64
-7 -7 -2 6.29 2.01
7 7 2 5.08 1.94
7 7 2 6.1 1.92
-8 -7 -2 35.54 3.04
-8 -7 -2 34.2 3.39
8 7 2 32.93 3.49
8 7 2 36.64 3.37
-9 -7 -2 1.15 1.56
-9 -7 -2 0.96 1.9
9 7 2 -1.3 1.58
9 7 2 0.11 1.73
-10 -7 -2 2.97 1.82
-10 -7 -2 5.22 2.39
10 7 2 -0.21 1.99
10 7 2 -3.31 1.35
-11 -7 -2 12.82 3.19
-11 -7 -2 17.55 2.9
11 7 2 17.96 3.43
11 7 2 16.64 2.93
8 -8 -2 3.39 2.31
-8 8 2 2.68 1.78
-8 8 2 -0.9 1.75
7 -8 -2 4.7 2.34
7 -8 -2 7.28 1.99
-7 8 2 6.2 2.24
-7 8 2 7.72 2.52
6 -8 -2 0.98 1.31
6 -8 -2 -2.07 1.54
-6 8 2 1.55 1.75
-6 8 2 3.17 2.05
5 -8 -2 5.06 2.12
5 -8 -2 4.59 1.64
-5 8 2 5.09 2.07
-5 8 2 6.52 2.06
4 -8 -2 10.85 2.41
4 -8 -2 9.21 1.87
-4 8 2 10.89 2.28
-4 8 2 6.15 2.16
3 -8 -2 0.48 1.1
3 -8 -2 2.14 1.52
-3 8 2 -1.62 1.32
-3 8 2 1.51 1.65
2 -8 -2 3.43 1.42
2 -8 -2 2.46 1.52
-2 8 2 2.58 1.58
-2 8 2 3.02 1.62
1 -8 -2 22.4 2.61
1 -8 -2 25.21 2.39
-1 8 2 24.68 2.8
-1 8 2 25.01 2.74
0 -8 -2 8.69 1.86
0 -8 -2 9.89 1.79
0 8 2 7.19 1.74
0 8 2 6.73 0.92
0 8 2 7.45 1.16
0 8 2 10.59 1.9
-1 -8 -2 19.47 2.1
-1 -8 -2 18.34 2.26
1 8 2 17.67 1.7
1 8 2 20.29 1.5
1 8 2 17.66 2.31
1 8 2 18.94 2.18
-2 -8 -2 5.9 1.57
-2 -8 -2 5.62 1.51
2 8 2 6.42 1.34
2 8 2 8.73 1.49
2 8 2 4.48 1.66
-3 -8 -2 -0.5 1.03
-3 -8 -2 -1.26 1.02
-3 -8 -2 -1.23 0.41
3 8 2 -2.4 0.84
3 8 2 0.08 1.11
3 8 2 -0.61 0.66
-4 -8 -2 7.52 1.81
-4 -8 -2 10.6 1.93
-4 -8 -2 8.67 0.83
4 8 2 7.67 1.84
4 8 2 9.89 1
4 8 2 11.53 2
-5 -8 -2 0.6 1.27
-5 -8 -2 3.2 1.63
5 8 2 1.91 1.56
5 8 2 1.65 1.32
-6 -8 -2 47.56 3.16
-6 -8 -2 38.18 3.22
6 8 2 47.83 3.62
6 8 2 40.19 3.34
-7 -8 -2 -0.65 1.23
-7 -8 -2 -0.77 1.51
7 8 2 -0.55 1.6
7 8 2 -0.66 1.49
-8 -8 -2 1.38 1.6
-8 -8 -2 1.32 1.77
8 8 2 1.97 1.9
8 8 2 2.69 1.88
-9 -8 -2 18.91 2.89
-9 -8 -2 22.82 3.51
9 8 2 21.47 3.3
9 8 2 22.72 3.75
-10 -8 -2 0.17 1.9
-10 -8 -2 8.98 2.38
10 8 2 0.82 1.99
10 8 2 -0.23 2.12
-11 -8 -2 0.2 1.72
-11 -8 -2 -0.79 2.02
11 8 2 1.06 2.41
11 8 2 4.65 2.35
7 -9 -2 1.97 2.12
-7 9 2 -0.29 1.87
-7 9 2 5.02 2.32
6 -9 -2 15.11 2.21
6 -9 -2 16.47 3.35
-6 9 2 19.39 3.18
-6 9 2 12.48 3.09
5 -9 -2 4.72 1.61
5 -9 -2 3.96 2.19
-5 9 2 5.15 2.27
-5 9 2 8 2.31
4 -9 -2 -1.42 1.16
4 -9 -2 0.2 1.61
-4 9 2 0.73 1.62
-4 9 2 -1.32 1.49
3 -9 -2 2.58 1.42
3 -9 -2 0.83 1.61
-3 9 2 2.33 1.73
-3 9 2 2.9 1.91
2 -9 -2 1.21 1.59
2 -9 -2 -1.05 1.11
-2 9 2 2.07 1.67
-2 9 2 0.38 1.51
1 -9 -2 -0.11 1.07
1 -9 -2 3.37 1.67
-1 9 2 -0.36 1.34
-1 9 2 1.16 1.46
0 -9 -2 16.98 2.23
0 -9 -2 18.61 2.4
0 9 2 17.91 1.27
0 9 2 17.16 2.61
0 9 2 17.5 2.49
0 9 2 18.54 1.5
-1 -9 -2 0.99 1.32
-1 -9 -2 -0.1 1.1
1 9 2 1.17 1.38
1 9 2 0.12 0.9
1 9 2 1.74 1.32
-2 -9 -2 5.77 1.71
-2 -9 -2 4.4 1.62
2 9 2 3.2 1.68
2 9 2 2.89 1.26
2 9 2 3.68 1.25
-3 -9 -2 49.25 2.13
-3 -9 -2 45.96 3.2
-3 -9 -2 44.09 3.21
3 9 2 45.93 3.42
3 9 2 52.34 3.12
3 9 2 47.29 2.36
-4 -9 -2 34.21 2.94
-4 -9 -2 29.3 1.46
-4 -9 -2 26.86 2.7
4 9 2 26.04 2.79
4 9 2 33.65 2.92
-5 -9 -2 1.57 1.45
-5 -9 -2 2.46 1.49
5 9 2 3.08 1.59
5 9 2 3.68 1.76
-6 -9 -2 -0.57 1.34
-6 -9 -2 0.53 1.36
6 9 2 0.56 1.46
6 9 2 -0.52 1.51
-7 -9 -2 26.32 3.22
-7 -9 -2 27.09 2.96
7 9 2 31.38 3.59
7 9 2 31.07 3.46
-8 -9 -2 3.5 1.9
-8 -9 -2 5.56 2.29
8 9 2 8.61 2.32
8 9 2 6.57 2.47
-9 -9 -2 16.41 3.22
-9 -9 -2 15.54 2.75
9 9 2 17.21 3.36
9 9 2 24.18 3.35
-10 -9 -2 -0.51 1.6
-10 -9 -2 1.24 2.18
10 9 2 0.99 1.94
10 9 2 -2.73 2.03
-11 -9 -2 11.43 2.46
-11 -9 -2 8.57 3.32
11 9 2 5.77 2.38
11 9 2 6.7 2.8
6 -10 -2 0.91 1.93
-6 10 2 3.72 2.28
-6 10 2 4.51 2.09
5 -10 -2 -0.68 1.82
-5 10 2 -0.34 1.7
-5 10 2 1.57 1.92
4 -10 -2 7.39 1.68
4 -10 -2 5.48 2.3
-4 10 2 4.79 2.41
-4 10 2 7.45 2.39
3 -10 -2 0.87 1.34
3 -10 -2 1.3 1.78
-3 10 2 1.37 1.89
-3 10 2 0.76 1.69
2 -10 -2 12.58 2.13
2 -10 -2 15.63 2.91
-2 10 2 10.86 2.51
-2 10 2 20.33 3.17
1 -10 -2 1.74 1.55
1 -10 -2 1.76 1.24
-1 10 2 1.42 1.6
-1 10 2 0.46 1.53
0 -10 -2 0.26 1.45
0 -10 -2 2.34 1.54
0 10 2 3.04 1.5
0 10 2 2.39 0.79
0 10 2 3.37 1.88
-1 -10 -2 24.79 2.65
-1 -10 -2 29.66 2.96
1 10 2 27.32 2.61
1 10 2 23.38 1.91
1 10 2 24.99 3.14
-2 -10 -2 4.84 1.73
-2 -10 -2 7.59 2.06
2 10 2 6.6 1.52
2 10 2 6.89 1.94
2 10 2 5.33 1.49
-3 -10 -2 2.93 1.51
-3 -10 -2 0.79 1.46
3 10 2 -0.06 1.5
3 10 2 3.04 1.48
3 10 2 2.74 1.11
-4 -10 -2 0.51 0.62
-4 -10 -2 -2.72 1.13
-4 -10 -2 -2.05 1.14
4 10 2 0.95 1.53
4 10 2 0.58 1.54
-5 -10 -2 3.14 1.71
-5 -10 -2 4.07 1.84
5 10 2 1.69 1.81
5 10 2 3.9 1.95
-6 -10 -2 26.05 3.03
-6 -10 -2 25.3 3.09
6 10 2 24.83 3.41
6 10 2 23.85 3.27
-7 -10 -2 16.4 2.85
-7 -10 -2 13.44 2.75
7 10 2 16.02 2.92
7 10 2 15.79 2.98
-8 -10 -2 -0.71 1.66
-8 -10 -2 2.04 1.68
8 10 2 -2.34 1.65
8 10 2 -4.22 1.61
-9 -10 -2 17.14 3.48
-9 -10 -2 12.21 2.67
9 10 2 20.06 3.23
9 10 2 16.05 3.33
-10 -10 -2 15.04 3.41
-10 -10 -2 18.42 2.79
10 10 2 11.88 2.76
10 10 2 11.9 3.29
5 -11 -2 2.51 2.22
-5 11 2 -0.76 1.6
-5 11 2 1.17 2.01
4 -11 -2 10.24 2.93
-4 11 2 10.88 2.83
-4 11 2 9.86 3.1
3 -11 -2 2.47 1.36
3 -11 -2 1.26 1.93
-3 11 2 4.33 2.19
-3 11 2 1.52 2.03
2 -11 -2 0.97 1.82
2 -11 -2 0.54 1.11
-2 11 2 -0.06 1.6
-2 11 2 4.87 2.21
1 -11 -2 54.27 3.39
1 -11 -2 54.91 4.1
-1 11 2 49.67 4.26
-1 11 2 62.29 4.29
0 -11 -2 8.51 2.31
0 -11 -2 7.15 1.89
0 11 2 13.73 2.46
0 11 2 14.06 2.82
-1 -11 -2 3.23 1.89
-1 -11 -2 6.97 1.83
1 11 2 2.63 2.03
1 11 2 4.85 1.64
1 11 2 5.02 1.3
-2 -11 -2 2.67 1.61
-2 -11 -2 0.62 1.59
2 11 2 1.9 1.68
2 11 2 3.3 1.3
2 11 2 1.19 1.15
-3 -11 -2 5.62 1.99
-3 -11 -2 4.65 1.88
3 11 2 3.55 2.18
3 11 2 3.82 1.56
-4 -11 -2 33.09 3.24
-4 -11 -2 33.91 3.45
4 11 2 29.8 3.46
4 11 2 37.03 3.28
-5 -11 -2 6.38 2.08
-5 -11 -2 5.61 2.1
5 11 2 2.67 1.78
5 11 2 3.47 2.13
-6 -11 -2 2.17 1.83
-6 -11 -2 2.23 1.7
6 11 2 1.09 1.91
6 11 2 0.08 1.81
-7 -11 -2 10.44 2.43
-7 -11 -2 13.8 2.96
7 11 2 13.11 2.8
7 11 2 12.36 2.82
-8 -11 -2 9.87 2.49
-8 -11 -2 11.24 2.87
8 11 2 6.35 2.37
8 11 2 7.88 2.81
-9 -11 -2 2.06 2.04
-9 -11 -2 0.63 1.91
9 11 2 5.76 2.59
9 11 2 -0.51 1.98
3 -12 -2 14.13 3.23
-3 12 2 15.93 3.27
-3 12 2 19.11 3.64
2 -12 -2 -1.58 1.49
-2 12 2 -5.41 1.35
-2 12 2 0.13 1.88
1 -12 -2 0.06 1.76
1 -12 -2 -1.02 1.08
-1 12 2 0.15 1.78
-1 12 2 2.48 2.26
0 -12 -2 3.74 1.5
0 -12 -2 2.29 1.83
0 12 2 1.27 1.66
0 12 2 3.32 2.08
-1 -12 -2 0.26 1.41
-1 -12 -2 0.68 1.58
1 12 2 3.24 1.43
1 12 2 -2.39 1.68
-2 -12 -2 33.06 3.72
-2 -12 -2 37.59 3.36
2 12 2 32.3 3.71
2 12 2 37.16 2.87
-3 -12 -2 2.2 1.46
-3 -12 -2 1.64 1.9
3 12 2 -1.95 1.67
3 12 2 -1.09 1.25
-4 -12 -2 -1.88 1.42
-4 -12 -2 0.88 1.7
4 12 2 0.3 1.4
4 12 2 -0.65 1.87
-5 -12 -2 8.16 2.37
-5 -12 -2 4.75 2.03
5 12 2 8.09 2.54
5 12 2 8.07 2.25
-6 -12 -2 4.1 1.96
-6 -12 -2 8.11 2.42
6 12 2 5.7 2.41
6 12 2 3.33 2.19
-7 -12 -2 3.4 2.27
-7 -12 -2 0.59 1.61
7 12 2 0.93 1.93
7 12 2 4.63 2.4
-8 -12 -2 0.49 1.86
-8 -12 -2 0.66 1.76
8 12 2 0.31 1.87
8 12 2 0.07 2.42
-9 -12 -2 5.04 1.81
-9 -12 -2 3.32 1.99
9 12 2 -1.75 1.94
9 12 2 0.26 1.93
2 -13 -2 2.14 1.89
-2 13 2 5.35 2.07
-2 13 2 1.81 2.01
1 -13 -2 -1.13 1.57
-1 13 2 1.05 2.24
-1 13 2 1.77 1.76
0 -13 -2 38.14 4.16
0 -13 -2 40.17 3.17
0 13 2 43.83 4.41
0 13 2 48.15 3.85
-1 -13 -2 0.86 1.86
-1 -13 -2 0.11 1.18
1 13 2 -1.03 1.85
-2 -13 -2 0.41 1.66
-2 -13 -2 2.48 1.45
2 13 2 0.08 1.93
-3 -13 -2 17.93 2.95
-3 -13 -2 20.89 3.43
3 13 2 18.78 3.55
-4 -13 -2 -1.65 1.49
-4 -13 -2 -1.11 1.24
4 13 2 0.84 2.08
4 13 2 -1.02 1.49
-5 -13 -2 3.9 2
-5 -13 -2 4.84 2.29
5 13 2 -0.49 2.07
5 13 2 2.01 1.87
-6 -13 -2 -2.73 1.2
-6 -13 -2 1.37 1.67
6 13 2 -2.12 1.8
6 13 2 0.25 1.63
-7 -13 -2 3.72 1.91
-7 -13 -2 7.32 2.6
7 13 2 3.19 2.23
7 13 2 1.73 2.43
-1 -14 -2 6.15 2.18
1 14 2 14.74 3.1
-2 -14 -2 -0.77 1.52
-2 -14 -2 6.68 1.88
2 14 2 -1.59 1.88
-3 -14 -2 1.9 1.41
-3 -14 -2 3.16 2.27
3 14 2 4.61 2.56
-4 -14 -2 6.55 2.29
-4 -14 -2 2.18 1.55
4 14 2 3.5 2.32
-5 -14 -2 1.11 1.94
-5 -14 -2 3.04 1.77
5 14 2 4.26 2.43
3 14 -3 -0.14 1.78
3 14 -3 1.37 1.43
-3 -14 3 -1.31 1.64
6 13 -3 3.79 1.71
6 13 -3 0.71 1.99
-6 -13 3 1.66 1.28
-6 -13 3 3.95 1.98
5 13 -3 1.35 2.09
5 13 -3 3.19 2.01
-5 -13 3 1.11 1.89
-5 -13 3 3.76 1.42
4 13 -3 18.05 3.15
4 13 -3 16.3 3.17
-4 -13 3 10.04 2.93
3 13 -3 0.88 1.66
3 13 -3 -1.3 1.39
-3 -13 3 -0.13 1.76
2 13 -3 0.14 1.37
2 13 -3 2.96 2.22
-2 -13 3 0.15 1.92
1 13 -3 0.38 1.76
1 13 -3 0.99 1.15
-1 -13 3 1.22 1.29
-1 -13 3 -1.64 1.65
0 13 -3 0.41 1.85
0 -13 3 -0.83 1.65
0 -13 3 -1.97 1.03
-1 13 -3 0.56 2
1 -13 3 3.37 1.56
1 -13 3 -2.7 1.56
8 12 -3 2.53 1.51
8 12 -3 -1.73 1.75
-8 -12 3 1.87 2
-8 -12 3 -0.12 1.69
7 12 -3 1.47 1.53
7 12 -3 2 2.03
-7 -12 3 3.76 1.74
-7 -12 3 0.56 1.9
6 12 -3 13.54 2.83
6 12 -3 10.23 2.27
-6 -12 3 17.69 3.56
-6 -12 3 16.91 2.6
5 12 -3 7.53 2.15
5 12 -3 4.01 2.3
-5 -12 3 1.01 2.18
-5 -12 3 7.77 2.04
4 12 -3 -1.31 1.52
4 12 -3 1.36 1.77
-4 -12 3 -0.96 1.09
-4 -12 3 -2.27 1.55
3 12 -3 1.63 1.76
3 12 -3 -1.13 1.41
-3 -12 3 0.38 1.73
-3 -12 3 -1.43 0.81
2 12 -3 4.56 1.82
2 12 -3 5.93 2.23
-2 -12 3 8.65 2.59
-2 -12 3 7.35 1.76
1 12 -3 1.29 1.81
1 12 -3 0.9 1.41
-1 -12 3 2.96 2.09
-1 -12 3 0.95 1.33
0 12 -3 3.24 2.06
0 12 -3 7.12 1.76
0 -12 3 5.73 2.31
0 -12 3 8.44 2.32
-1 12 -3 2.29 2.05
1 -12 3 0.04 1.73
1 -12 3 -0.23 1.59
-2 12 -3 4.43 2.13
2 -12 3 -1.56 1.54
2 -12 3 2.62 2.01
-3 12 -3 3.47 2.17
3 -12 3 7.06 2.52
3 -12 3 7.98 2.71
9 11 -3 -2.98 2.08
-9 -11 3 0.32 1.87
-9 -11 3 -0.32 1.79
8 11 -3 1.72 1.58
8 11 -3 1.03 2.09
-8 -11 3 4.6 2.15
-8 -11 3 2.46 1.98
7 11 -3 4.36 1.74
7 11 -3 3.69 2.64
-7 -11 3 0.53 1.78
-7 -11 3 4.78 2.06
6 11 -3 3.62 1.71
6 11 -3 7.16 2.39
-6 -11 3 7.46 2.41
-6 -11 3 5.07 1.9
5 11 -3 1.84 1.52
5 11 -3 0.53 1.75
-5 -11 3 3.48 1.63
-5 -11 3 -1.92 1.42
4 11 -3 2.51 2.01
4 11 -3 3.37 1.74
-4 -11 3 -1.17 1.58
-4 -11 3 1.08 1.2
3 11 -3 -3.32 1.22
3 11 -3 0.93 1.7
-3 -11 3 1.31 0.92
-3 -11 3 -1.03 1.38
-3 -11 3 -0.15 0.96
2 11 -3 12.2 2.52
2 11 -3 11.76 2.44
-2 -11 3 11.74 2.09
-2 -11 3 10.42 2.53
-2 -11 3 12.79 1.71
1 11 -3 5.16 1.78
1 11 -3 3.37 1.82
-1 -11 3 4.54 2.08
-1 -11 3 1.56 1.35
0 11 -3 11.94 2.55
0 11 -3 8.34 1.91
0 -11 3 8.93 2.46
0 -11 3 10 2.24
-1 11 -3 31.84 3.56
-1 11 -3 35.9 2.87
1 -11 3 32.24 3.56
1 -11 3 37 3.49
-2 11 -3 -0.42 1.68
2 -11 3 0.92 1.58
2 -11 3 -1.91 1.16
-3 11 -3 0.73 1.83
3 -11 3 -0.2 1.59
3 -11 3 1.1 1.55
-4 11 -3 4.06 2.21
4 -11 3 -2.23 1.4
4 -11 3 -1.76 1.46
-5 11 -3 10.79 2.95
5 -11 3 0.95 1.92
5 -11 3 6.48 2.55
10 10 -3 1.3 2.52
-10 -10 3 -1.6 1.66
-10 -10 3 2.44 2.21
9 10 -3 6.85 2.9
-9 -10 3 4.47 2.4
-9 -10 3 4.54 2.3
8 10 -3 7.44 2.75
8 10 -3 3.27 1.46
-8 -10 3 3.7 2.33
-8 -10 3 0.53 1.77
7 10 -3 3.58 2.3
7 10 -3 -0.52 1.25
-7 -10 3 0.4 1.49
-7 -10 3 0 1.78
6 10 -3 4.68 1.71
6 10 -3 3.84 2.12
-6 -10 3 5.25 1.89
-6 -10 3 3.47 2.02
5 10 -3 4.77 1.62
5 10 -3 -0.96 1.59
-5 -10 3 1.43 1.52
-5 -10 3 -0.31 1.22
4 10 -3 43.15 3.27
4 10 -3 41.26 3.62
-4 -10 3 46.85 3.06
-4 -10 3 39.83 3.63
-4 -10 3 35.82 2.21
3 10 -3 6.23 1.97
3 10 -3 2.9 1.64
-3 -10 3 2.58 1.23
-3 -10 3 1.1 1.07
-3 -10 3 0.12 1.38
2 10 -3 7.7 1.99
2 10 -3 5.84 1.92
-2 -10 3 8.2 2.19
-2 -10 3 7.99 1.76
-2 -10 3 4.6 1.31
1 10 -3 25.11 2.87
1 10 -3 30.06 2.86
-1 -10 3 29.83 1.94
-1 -10 3 30.1 2.73
-1 -10 3 27.24 3.02
0 10 -3 4.14 1.54
0 10 -3 1.36 1.51
0 -10 3 2.21 0.78
0 -10 3 0.07 1.19
0 -10 3 -0.07 1.43
-1 10 -3 2.25 1.24
-1 10 -3 1.66 1.6
1 -10 3 1.16 1.49
1 -10 3 2.43 1.58
-2 10 -3 1.79 1.61
-2 10 -3 1.33 1.16
2 -10 3 -0.84 1.33
2 -10 3 1.2 1.46
-3 10 -3 16.19 2.11
-3 10 -3 21.26 3.16
3 -10 3 18.73 3.02
3 -10 3 20.06 3.15
-4 10 -3 34.81 3.88
4 -10 3 31.07 3.51
4 -10 3 30.55 3.66
-5 10 -3 -3.2 1.31
5 -10 3 3.47 1.99
5 -10 3 -0.47 1.52
-6 10 -3 6.82 2.49
6 -10 3 8.1 2.37
6 -10 3 5.68 2.46
10 9 -3 3.88 2.32
-10 -9 3 2.12 2.13
-10 -9 3 0.37 1.76
9 9 -3 3.07 2.26
-9 -9 3 3.11 2.06
-9 -9 3 3.04 2.01
8 9 -3 3.28 1.35
8 9 -3 0.17 1.82
-8 -9 3 -0.18 1.7
-8 -9 3 2.15 2.01
7 9 -3 3.8 1.42
7 9 -3 3.12 2.18
-7 -9 3 2.63 1.74
-7 -9 3 2.82 2
6 9 -3 10.41 2.5
6 9 -3 14.39 2.21
-6 -9 3 16.49 2.76
-6 -9 3 10.27 2.26
5 9 -3 18.21 2.39
5 9 -3 16.13 2.74
-5 -9 3 21.56 2.99
-5 -9 3 14.86 2.34
-5 -9 3 20.23 1.48
4 9 -3 26.42 2.95
4 9 -3 18.98 2.39
-4 -9 3 18.43 2.72
-4 -9 3 23.57 2.42
-4 -9 3 19.6 1.72
3 9 -3 14.27 2.28
3 9 -3 15.47 2.55
-3 -9 3 12.19 1.82
-3 -9 3 12.94 1.72
-3 -9 3 15.95 2.48
2 9 -3 8.47 1.9
2 9 -3 6.57 1.8
-2 -9 3 6.6 1.84
-2 -9 3 8.16 1.48
-2 -9 3 8.42 1.64
1 9 -3 0.28 0.44
1 9 -3 1.68 1.4
1 9 -3 0.07 1.2
-1 -9 3 0.64 1.11
-1 -9 3 1.58 1.39
-1 -9 3 1.1 0.77
0 9 -3 3.75 1.52
0 9 -3 4.53 1.77
0 -9 3 3.61 0.83
0 -9 3 4.22 1.61
0 -9 3 4.15 1.62
-1 9 -3 15.98 2.09
-1 9 -3 16.39 2.58
1 -9 3 18.61 2.61
1 -9 3 18 2.51
-2 9 -3 14.11 2.47
-2 9 -3 15.46 2.05
2 -9 3 16.67 2.66
2 -9 3 16.28 2.67
-3 9 -3 -0.25 1.29
-3 9 -3 1.92 1.17
3 -9 3 0.84 1.59
3 -9 3 -0.19 1.46
-4 9 -3 10.98 2.58
-4 9 -3 11.6 1.85
4 -9 3 12.8 2.63
4 -9 3 9.04 2.38
-5 9 -3 12.64 2.84
5 -9 3 13.6 2.83
5 -9 3 15.41 3.02
-6 9 -3 15.76 3.07
6 -9 3 14.74 3.05
6 -9 3 11.76 2.89
-7 9 -3 -0.54 1.97
7 -9 3 1.06 1.9
7 -9 3 0.96 1.8
11 8 -3 1.21 2.04
-11 -8 3 6.08 2.43
10 8 -3 -3.66 1.7
-10 -8 3 1.74 2.17
-10 -8 3 -0.95 2.01
9 8 -3 3.94 2.38
-9 -8 3 3.28 2.19
-9 -8 3 3.18 2.18
8 8 -3 47.52 4.19
8 8 -3 49.48 2.88
-8 -8 3 43.42 4.05
-8 -8 3 48.93 4.02
7 8 -3 7.49 1.69
7 8 -3 7.45 2.37
-7 -8 3 11 2.44
-7 -8 3 7.43 2.06
6 8 -3 13.27 2
6 8 -3 17.96 2.96
-6 -8 3 17.98 2.55
-6 -8 3 14.06 2.5
5 8 -3 22.53 2.31
5 8 -3 23.09 2.94
-5 -8 3 19.51 2.52
-5 -8 3 20.19 1.48
-5 -8 3 25.2 2.56
-5 -8 3 20.17 1.3
4 8 -3 9.51 1.76
4 8 -3 7.84 1.85
-4 -8 3 8.69 1.06
-4 -8 3 10.22 1.82
-4 -8 3 8.19 1.33
-4 -8 3 9.02 1.93
3 8 -3 1.29 1.42
3 8 -3 0.51 1.15
-3 -8 3 2.44 1.19
-3 -8 3 2.01 1.35
-3 -8 3 3.48 1.06
2 8 -3 20.32 2.37
2 8 -3 19.12 2.19
-2 -8 3 17.76 1.71
-2 -8 3 17 1.91
-2 -8 3 22.36 2.39
1 8 -3 71.71 3.56
1 8 -3 72.31 2.41
1 8 -3 72.23 3.59
-1 -8 3 73.81 2.57
-1 -8 3 70.24 3.73
-1 -8 3 77 3.38
0 8 -3 18.85 2.31
0 8 -3 13.31 1.05
0 8 -3 17.93 2.26
0 -8 3 17.02 2.14
0 -8 3 15.22 1.19
0 -8 3 18.66 2.42
-1 8 -3 1.29 1.12
-1 8 -3 6.18 1.71
1 -8 3 3.8 1.49
1 -8 3 1.38 1.28
-2 8 -3 17.93 2.1
-2 8 -3 20.9 2.55
2 -8 3 21.75 2.56
2 -8 3 14.72 2.33
-3 8 -3 0.82 1.12
-3 8 -3 0.45 1.34
3 -8 3 4.55 1.7
3 -8 3 0.91 1.27
-4 8 -3 15.95 2.03
-4 8 -3 14.91 2.69
4 -8 3 16.76 2.66
4 -8 3 11.72 2.4
-5 8 -3 4.61 1.94
-5 8 -3 1.93 1.15
5 -8 3 -0.35 1.56
5 -8 3 4.06 1.94
-6 8 -3 1.72 1.73
6 -8 3 -0.16 1.61
6 -8 3 1.62 1.89
-7 8 -3 16.04 3.26
7 -8 3 10.75 2.83
7 -8 3 18.3 3.27
-8 8 -3 3.79 2.31
8 -8 3 8.14 2.55
8 -8 3 3.8 2.14
11 7 -3 7.5 2.65
11 7 -3 14.35 3.12
-11 -7 3 9.96 2.94
10 7 -3 12.12 3
-10 -7 3 15.16 3.16
9 7 -3 9.05 2.53
-9 -7 3 8.14 2.45
-9 -7 3 7.19 2.54
8 7 -3 5.35 2.13
8 7 -3 5.49 1.32
-8 -7 3 6.92 2.22
-8 -7 3 2.05 1.81
7 7 -3 2.57 1.19
7 7 -3 1.95 1.73
-7 -7 3 4.11 1.72
-7 -7 3 3.24 0.64
-7 -7 3 3.04 1.71
6 7 -3 5.96 0.82
6 7 -3 6.38 1.39
6 7 -3 2.97 1.64
-6 -7 3 4.8 1.74
-6 -7 3 5.2 0.87
-6 -7 3 5.63 1.81
5 7 -3 11.79 1.77
5 7 -3 13.98 1.12
5 7 -3 17.5 2.47
-5 -7 3 12.41 2.18
-5 -7 3 16.17 2.25
-5 -7 3 13.2 1.29
4 7 -3 0.98 1.29
4 7 -3 0.08 1.05
4 7 -3 3.5 0.82
-4 -7 3 3.44 1.37
-4 -7 3 1.63 0.84
-4 -7 3 1.72 1.18
3 7 -3 89.84 3.41
3 7 -3 82.87 3.76
-3 -7 3 91.82 2.98
-3 -7 3 92.57 3.39
-3 -7 3 89.94 3.91
2 7 -3 22.48 2.29
2 7 -3 20.78 1.46
2 7 -3 22.83 2.18
-2 -7 3 22.56 1.76
-2 -7 3 26.5 1.93
-2 -7 3 23.51 2.31
1 7 -3 1.19 0.56
1 7 -3 1.31 1.11
1 7 -3 0.95 1.06
-1 -7 3 2.11 1.25
-1 -7 3 1.17 0.77
-1 -7 3 2.56 1.14
0 7 -3 33.2 2.48
0 7 -3 30.06 1.33
0 7 -3 30.75 2.54
0 -7 3 31.03 1.43
0 -7 3 32.11 2.41
0 -7 3 30.18 2.46
-1 7 -3 1.8 1.3
-1 7 -3 4.6 1.25
1 -7 3 3.39 1.34
1 -7 3 2.56 1.3
-2 7 -3 49.91 3.19
-2 7 -3 53.82 2.82
2 -7 3 49.46 3.26
2 -7 3 46.27 3.04
-3 7 -3 1.36 1.1
-3 7 -3 5.63 1.75
3 -7 3 4.33 1.51
3 -7 3 4.68 1.67
-4 7 -3 3.14 1.6
-4 7 -3 0.37 1.06
4 -7 3 0.36 1.33
4 -7 3 -0.33 1.3
-5 7 -3 78.62 3.63
-5 7 -3 82.04 4.65
5 -7 3 84.1 4.46
5 -7 3 76.05 4.55
-6 7 -3 4.27 1.92
-6 7 -3 0.89 1.08
6 -7 3 3.86 1.85
6 -7 3 6.64 2.38
-7 7 -3 8.76 2.62
7 -7 3 11.21 2.65
7 -7 3 19.33 3.14
-8 7 -3 1.83 1.94
8 -7 3 -0.77 1.72
8 -7 3 4.46 2.29
11 6 -3 -1.9 1.86
11 6 -3 2.69 2.31
-11 -6 3 4.17 2.28
10 6 -3 -0.19 1.98
10 6 -3 -0.67 1.92
-10 -6 3 1.66 2.06
9 6 -3 2.85 2.07
-9 -6 3 0.21 1.73
8 6 -3 7.34 2.21
8 6 -3 4.78 1.14
-8 -6 3 4.17 0.89
-8 -6 3 1.92 1.73
-8 -6 3 2.35 1.79
7 6 -3 17.95 2.83
7 6 -3 13.08 1.68
-7 -6 3 14.12 2.44
-7 -6 3 16.94 1.29
-7 -6 3 18.6 2.71
6 6 -3 6.47 0.9
6 6 -3 6.93 1.87
6 6 -3 4.58 1.19
-6 -6 3 3.37 0.86
-6 -6 3 5.99 1.74
-6 -6 3 6.99 1.81
5 6 -3 24.09 2.53
5 6 -3 27.82 1.91
5 6 -3 24.32 1.39
-5 -6 3 23.01 1.56
-5 -6 3 15.62 2.12
-5 -6 3 26.73 2.55
4 6 -3 25.87 1.91
4 6 -3 24.25 1.45
4 6 -3 25.42 2.46
-4 -6 3 25.69 1.62
-4 -6 3 25.95 2.32
-4 -6 3 24.51 2.14
3 6 -3 16.16 1.34
3 6 -3 17.36 2.09
3 6 -3 15.88 1.72
-3 -6 3 16.58 1.79
-3 -6 3 17.9 1.56
-3 -6 3 15.91 1.95
2 6 -3 18.07 1.82
2 6 -3 20.83 1.46
2 6 -3 18.21 2.01
2 6 -3 21.45 1.61
-2 -6 3 21.18 1.76
-2 -6 3 21.35 2.06
-2 -6 3 17.94 1.61
1 6 -3 6.62 1.45
1 6 -3 8.36 1.48
1 6 -3 5.7 0.85
-1 -6 3 11.01 1.72
-1 -6 3 7.51 1.07
-1 -6 3 7 1.34
0 6 -3 55.22 2.74
0 6 -3 53.97 1.58
0 6 -3 52.09 2.82
0 -6 3 56.63 2.77
0 -6 3 53.54 2.83
0 -6 3 53.88 1.62
-1 6 -3 1.59 1.12
-1 6 -3 3.14 1.1
1 -6 3 3.22 1.25
1 -6 3 1.58 1.11
-2 6 -3 -1.1 0.91
-2 6 -3 0.43 0.86
2 -6 3 -0.85 1.02
2 -6 3 -0.1 0.93
-3 6 -3 52.22 2.8
-3 6 -3 54.42 3.34
3 -6 3 56.7 3.27
3 -6 3 57.98 3.4
-4 6 -3 0.84 1.26
-4 6 -3 2.2 1.14
4 -6 3 -0.34 1.15
4 -6 3 0.37 1.29
-5 6 -3 49.69 3.62
-5 6 -3 45.93 2.9
5 -6 3 44.46 1.73
5 -6 3 45.06 3.47
5 -6 3 51.73 3.48
-6 6 -3 13.83 2.69
-6 6 -3 10.97 1.95
6 -6 3 9.32 1.22
6 -6 3 15.23 2.7
6 -6 3 11.83 2.51
-7 6 -3 5.94 2.08
-7 6 -3 5.66 1.54
7 -6 3 6.21 2.12
7 -6 3 6.85 2.17
-8 6 -3 5.35 2.05
8 -6 3 1.24 1.87
8 -6 3 8.79 2.42
-9 6 -3 2.08 2.06
9 -6 3 6.21 2.11
9 -6 3 1.72 1.77
11 5 -3 0.75 2.12
11 5 -3 1.47 2.08
-11 -5 3 4.42 2.46
10 5 -3 10.89 2.87
10 5 -3 15.42 3.22
-10 -5 3 11.05 2.65
9 5 -3 8.65 2.46
9 5 -3 7.36 2.38
-9 -5 3 7.98 1.43
-9 -5 3 8.45 2.56
8 5 -3 7.9 2.22
8 5 -3 10.49 1.38
-8 -5 3 11.95 1.44
-8 -5 3 12.54 2.43
7 5 -3 36.42 1.79
7 5 -3 37.3 3.3
7 5 -3 43.49 1.99
-7 -5 3 41 1.87
-7 -5 3 41.12 3.26
-7 -5 3 41.81 3.38
-7 -5 3 37.36 1.97
6 5 -3 1.2 0.67
6 5 -3 0.34 1.22
6 5 -3 1.4 0.82
-6 -5 3 0.17 0.67
-6 -5 3 -0.11 0.52
-6 -5 3 0.94 1.37
-6 -5 3 2.33 1.44
5 5 -3 6.57 1.1
5 5 -3 7.73 1.73
5 5 -3 6.28 0.94
-5 -5 3 7.13 1.11
-5 -5 3 7.15 1.6
-5 -5 3 9.25 1.75
-5 -5 3 6.2 0.96
4 5 -3 5.78 1.42
4 5 -3 7.59 1.03
4 5 -3 8.65 1.3
-4 -5 3 5.72 0.97
-4 -5 3 4.61 1.41
-4 -5 3 6.96 1.15
-4 -5 3 4.81 1.35
3 5 -3 49.46 2.7
3 5 -3 53.96 2.08
3 5 -3 56.29 2.25
-3 -5 3 51.13 2.81
-3 -5 3 52.95 2.48
-3 -5 3 54.09 2.15
-3 -5 3 49.55 2.08
2 5 -3 81.34 2.76
2 5 -3 86.09 2.71
2 5 -3 79.94 3.21
2 5 -3 83.87 2.63
-2 -5 3 87.1 2.71
-2 -5 3 85.04 3.26
-2 -5 3 83.39 2.69
1 5 -3 15.1 1.73
1 5 -3 22.31 1.67
1 5 -3 18.83 1.14
1 5 -3 17.34 1.6
-1 -5 3 20.66 1.89
-1 -5 3 20.83 1.71
-1 -5 3 17.32 1.26
0 5 -3 12.96 0.79
0 5 -3 13.93 1.64
0 5 -3 11.76 1.58
0 -5 3 12.19 1.58
0 -5 3 13.44 0.87
0 -5 3 15.28 1.66
-1 5 -3 141.12 4.16
-1 5 -3 139.26 3.91
1 -5 3 135.44 4.08
1 -5 3 136.49 4.04
-2 5 -3 111.66 3.95
-2 5 -3 108.82 3.54
2 -5 3 106.57 3.66
2 -5 3 106.66 3.91
-3 5 -3 81.5 3.66
-3 5 -3 79.88 3.24
3 -5 3 80.28 3.45
3 -5 3 76.04 3.54
-4 5 -3 35.04 2.48
-4 5 -3 34.9 2.71
4 -5 3 34.22 1.27
4 -5 3 32.34 2.79
4 -5 3 36.1 2.59
4 -5 3 36.42 1.32
-5 5 -3 46.49 2.88
-5 5 -3 49.32 3.29
5 -5 3 51.52 3.53
5 -5 3 52.18 3.3
5 -5 3 47.93 1.86
5 -5 3 47.58 1.82
-6 5 -3 2.61 1.65
-6 5 -3 -0.29 1.1
6 -5 3 -0.82 1.12
6 -5 3 0.06 0.71
6 -5 3 0.33 1.41
-7 5 -3 36.29 2.84
-7 5 -3 31.79 3.27
7 -5 3 32.04 3.38
7 -5 3 34.14 3.24
7 -5 3 36.63 2.13
-8 5 -3 22.62 3.22
-8 5 -3 13.77 2.21
8 -5 3 12.97 2.8
8 -5 3 17.56 2.75
-9 5 -3 -0.3 1.71
9 -5 3 -0.62 1.71
9 -5 3 1.85 1.61
-10 5 -3 4.07 2.09
10 -5 3 4.07 1.94
10 -5 3 9.84 2.59
11 4 -3 4.42 2.42
11 4 -3 3.5 2.44
-11 -4 3 3.04 2.27
10 4 -3 0.38 1.92
10 4 -3 1.19 1.93
-10 -4 3 -2.37 1.61
9 4 -3 0.26 1.76
9 4 -3 5.52 2.1
-9 -4 3 3.49 1.14
-9 -4 3 2.92 1.87
8 4 -3 3.25 1.86
8 4 -3 4 0.95
8 4 -3 3.61 1.69
-8 -4 3 4.49 1.18
-8 -4 3 4.08 1.77
7 4 -3 8.63 1.15
7 4 -3 7.19 0.91
7 4 -3 6.84 1.88
-7 -4 3 10.61 2.19
-7 -4 3 9.33 1.42
6 4 -3 0.18 0.61
6 4 -3 0.61 1.25
6 4 -3 0.21 0.61
-6 -4 3 0.6 1.14
-6 -4 3 0.69 0.51
-6 -4 3 0.09 0.72
-6 -4 3 -0.95 1.08
5 4 -3 43.79 1.69
5 4 -3 45.55 2.8
5 4 -3 40.31 1.81
-5 -4 3 42.3 2.75
-5 -4 3 45.08 2.8
-5 -4 3 43.35 2.03
-5 -4 3 42.66 1.56
4 4 -3 127.54 2.72
4 4 -3 122.39 3.02
4 4 -3 122.57 4.06
-4 -4 3 124.65 4.09
-4 -4 3 124.83 2.78
-4 -4 3 129.72 4
-4 -4 3 127.95 3.25
3 4 -3 80.56 2.45
3 4 -3 80.09 3.16
3 4 -3 82.1 2.3
-3 -4 3 82.31 2.29
-3 -4 3 81.13 2.51
-3 -4 3 82.79 3.15
-3 -4 3 83.56 2.92
2 4 -3 1.87 0.75
2 4 -3 1.47 0.7
2 4 -3 1.62 0.95
2 4 -3 0.41 0.72
-2 -4 3 0.91 0.66
-2 -4 3 1.25 0.76
-2 -4 3 1.08 0.9
-2 -4 3 0.99 0.76
1 4 -3 35.26 1.85
1 4 -3 35.33 1.47
1 4 -3 36.92 1.84
1 4 -3 32.72 2.07
-1 -4 3 35.46 1.53
-1 -4 3 35.6 1.96
-1 -4 3 35.38 2.05
0 4 -3 63.88 2.53
0 4 -3 62.02 1.42
0 4 -3 65.88 2.48
0 4 -3 66.02 2.65
0 4 -3 66.52 2.55
0 4 -3 60.45 1.4
0 -4 3 65.27 2.4
0 -4 3 63.1 2.56
0 -4 3 61.49 2.48
0 -4 3 63.38 2.55
-1 4 -3 96.05 3.09
-1 4 -3 95.43 3.19
1 -4 3 93.3 3.17
1 -4 3 88.67 2.92
1 -4 3 92.36 3.03
-2 4 -3 26.47 2.08
-2 4 -3 28.25 1.97
2 -4 3 24.61 1.73
2 -4 3 25.31 1.84
2 -4 3 27.18 2.08
-3 4 -3 29.86 2.13
-3 4 -3 33.88 2.32
3 -4 3 34.08 2.22
3 -4 3 32.13 2.36
-4 4 -3 23.3 2.12
-4 4 -3 26.13 2.35
4 -4 3 21.39 2.05
4 -4 3 25.25 2.41
4 -4 3 22.46 1.2
4 -4 3 21.68 1.14
-5 4 -3 136 4.46
-5 4 -3 136.57 4.89
5 -4 3 129.62 4.9
5 -4 3 127.91 4.43
5 -4 3 128.36 3.1
5 -4 3 123.79 3.04
-6 4 -3 41.83 2.92
-6 4 -3 39.44 3.14
6 -4 3 41.06 1.96
6 -4 3 41.48 2.13
6 -4 3 38.59 2.89
6 -4 3 39.01 3.26
-7 4 -3 2.86 1.49
-7 4 -3 2.96 1.45
7 -4 3 2.49 1.67
7 -4 3 2.32 1.1
7 -4 3 1.71 1.44
-8 4 -3 25.63 2.69
-8 4 -3 18.42 3.08
8 -4 3 23.16 2.12
8 -4 3 23.83 3.27
8 -4 3 24.92 2.87
-9 4 -3 17.49 2.51
-9 4 -3 14.98 2.95
9 -4 3 16.22 2.95
9 -4 3 10.47 2.37
9 -4 3 11.38 1.85
-10 4 -3 0.42 1.55
10 -4 3 5.15 1.71
10 -4 3 1.56 1.72
11 3 -3 -0.56 2
11 3 -3 2.94 2.09
-11 -3 3 0.01 1.86
10 3 -3 13.56 2.69
10 3 -3 15.83 3.16
-10 -3 3 13.25 3.14
-10 -3 3 11.21 2.04
9 3 -3 0.52 1.65
9 3 -3 -0.31 1.6
-9 -3 3 -0.81 1
-9 -3 3 0.58 1.55
8 3 -3 -0.12 1.51
8 3 -3 0.04 1.43
8 3 -3 0.26 0.66
-8 -3 3 -0.73 0.92
-8 -3 3 1.38 1.57
7 3 -3 30.52 1.44
7 3 -3 29.24 1.55
7 3 -3 29.92 2.73
7 3 -3 30.59 2.86
-7 -3 3 30.62 2.91
-7 -3 3 32.6 2.21
6 3 -3 13.29 2.03
6 3 -3 15.68 2.02
6 3 -3 11.31 1.03
6 3 -3 12.87 0.96
-6 -3 3 10.46 1.51
-6 -3 3 13.47 2.05
5 3 -3 24.36 1.1
5 3 -3 22.21 2.23
5 3 -3 24.46 2.21
5 3 -3 23.74 1.6
-5 -3 3 23.39 2.24
-5 -3 3 23.08 1.77
4 3 -3 0.7 0.47
4 3 -3 0.01 0.95
4 3 -3 0.21 0.56
-4 -3 3 0.8 0.41
-4 -3 3 0.09 0.76
-4 -3 3 0.78 0.99
3 3 -3 15.37 1.48
3 3 -3 11.89 1.55
3 3 -3 16.32 1.02
3 3 -3 15.47 1.25
-3 -3 3 15.89 1
-3 -3 3 17.06 1.7
-3 -3 3 15.35 1.37
2 3 -3 262.6 4.45
2 3 -3 250.31 5.04
2 3 -3 260.17 3.86
2 3 -3 254.74 4.5
2 3 -3 251.68 4.9
-2 -3 3 254.24 4.95
-2 -3 3 262.11 4.54
-2 -3 3 253.63 5.04
-2 -3 3 254.47 3.81
1 3 -3 1.06 0.86
1 3 -3 -0.11 0.61
1 3 -3 1.14 0.74
1 3 -3 0.23 0.55
1 3 -3 0.02 0.53
1 3 -3 0.28 0.67
-1 -3 3 0.44 0.71
-1 -3 3 1.08 0.65
-1 -3 3 -0.45 0.7
-1 -3 3 0.42 0.69
0 3 -3 119.58 3.02
0 3 -3 115.99 1.98
0 3 -3 114.44 1.96
0 3 -3 119.68 3.17
0 3 -3 117.68 3.01
0 3 -3 117.04 3.24
0 -3 3 119.63 2.96
0 -3 3 115.1 3.13
0 -3 3 118.01 3.14
0 -3 3 120.11 3.07
-1 3 -3 61.92 2.23
-1 3 -3 67.48 2.53
-1 3 -3 63.79 2.45
-1 3 -3 62.63 2.49
1 -3 3 60.35 2.51
1 -3 3 63.89 2.4
1 -3 3 59.87 2.21
1 -3 3 61.95 2.36
-2 3 -3 -0.61 0.69
-2 3 -3 0.37 0.8
2 -3 3 -0.09 0.87
2 -3 3 -0.48 0.72
2 -3 3 0.87 0.7
-3 3 -3 322.79 6.25
3 -3 3 311.33 5.98
3 -3 3 318.82 3.94
3 -3 3 321.27 3.95
3 -3 3 328.57 5.8
3 -3 3 322.31 6.51
-4 3 -3 67.43 3.14
-4 3 -3 74.21 3.17
4 -3 3 66.72 2.03
4 -3 3 71.76 2.92
4 -3 3 68.83 1.97
4 -3 3 69.11 3.2
-5 3 -3 8.63 1.67
-5 3 -3 10.56 1.78
5 -3 3 10.11 1.69
5 -3 3 11.36 1.13
5 -3 3 7.9 1.25
5 -3 3 10.59 1.91
-6 3 -3 80.88 3.88
-6 3 -3 81.31 3.74
6 -3 3 85.13 3.72
6 -3 3 86.54 4.16
6 -3 3 84.86 3.03
-7 3 -3 14.2 2.44
-7 3 -3 12.58 2.16
7 -3 3 18.8 2.64
7 -3 3 16.57 2.33
7 -3 3 13.06 1.77
-8 3 -3 8.34 1.92
-8 3 -3 6.45 2.17
8 -3 3 5.26 1.96
8 -3 3 6.53 1.86
8 -3 3 7.89 1.73
-9 3 -3 -2.08 1.43
-9 3 -3 6.58 1.89
9 -3 3 1.99 1.41
9 -3 3 0.7 1.41
9 -3 3 4.2 2.05
-10 3 -3 -1.31 1.53
10 -3 3 3.76 1.85
10 -3 3 0.05 0.88
10 -3 3 -1.97 1.2
11 -3 3 9.64 2.79
11 -3 3 9.91 2.32
11 -3 3 8.79 2.26
11 2 -3 -0.31 2.03
11 2 -3 3.95 1.9
-11 -2 3 1.26 2.08
-11 -2 3 4.96 1.61
10 2 -3 4.94 1.88
10 2 -3 1.1 1.85
-10 -2 3 -4.15 1.4
-10 -2 3 -0.96 1.25
9 2 -3 21.03 2.87
9 2 -3 17.63 3.04
-9 -2 3 17.1 2.94
-9 -2 3 22.1 2.56
8 2 -3 7.28 1.15
8 2 -3 5.75 1.77
8 2 -3 10.05 2.24
-8 -2 3 8.54 2.26
-8 -2 3 7.77 1.77
7 2 -3 101.71 2.38
7 2 -3 107.89 4.67
7 2 -3 101.53 2.47
7 2 -3 111.31 4.35
-7 -2 3 100.47 4.45
-7 -2 3 108.32 3.89
6 2 -3 13.1 2.06
6 2 -3 10.62 0.84
6 2 -3 12.82 1.98
6 2 -3 9.81 0.96
-6 -2 3 9.3 1.77
-6 -2 3 12.56 1.7
5 2 -3 34.83 2.38
5 2 -3 34.1 1.98
5 2 -3 33.11 2.43
-5 -2 3 30.85 2.38
-5 -2 3 30.8 2.04
4 2 -3 267.21 5.68
4 2 -3 264.3 4.89
4 2 -3 261.59 5.45
-4 -2 3 257.53 5.62
-4 -2 3 257.83 4.94
3 2 -3 14.25 1.57
3 2 -3 13.83 1.42
3 2 -3 11.16 1.52
3 2 -3 15.95 1.29
-3 -2 3 14.07 1.47
-3 -2 3 15.55 1.49
-3 -2 3 14.82 1.59
2 2 -3 16.77 1.32
2 2 -3 16.25 1.49
2 2 -3 15.44 1.33
2 2 -3 16.03 0.83
2 2 -3 17.14 1.27
2 2 -3 16.11 1.44
-2 -2 3 14.13 1.34
-2 -2 3 16.64 1.45
-2 -2 3 15.59 1.47
-2 -2 3 15.95 0.82
1 2 -3 14.26 1.2
1 2 -3 15.87 1.26
1 2 -3 13.6 1.35
1 2 -3 13.63 1
1 2 -3 13.83 1.14
-1 -2 3 13.63 1.31
-1 -2 3 12.37 1.26
-1 -2 3 12.94 1.26
-1 -2 3 14.46 1.01
0 2 -3 113.66 2.63
0 2 -3 119.7 3.07
0 2 -3 121.3 3.02
0 2 -3 118.69 2.08
0 -2 3 120.04 2.12
0 -2 3 115.25 3
0 -2 3 119.18 2.73
0 -2 3 114.64 2.96
-1 2 -3 672.76 8.42
-1 2 -3 680.66 8.78
-1 2 -3 681.12 6.41
-1 2 -3 684.89 7.94
-1 2 -3 672.12 8.73
1 -2 3 676.22 6.4
1 -2 3 654.41 8.63
1 -2 3 684.05 7.83
1 -2 3 680.35 8.42
1 -2 3 683.42 8.76
-2 2 -3 5.16 1.04
-2 2 -3 4.8 1.04
-2 2 -3 4.8 1.1
-2 2 -3 4.53 0.61
-2 2 -3 4.37 0.87
2 -2 3 4.57 1.1
2 -2 3 5.66 0.95
2 -2 3 4.92 1
2 -2 3 5.68 0.59
2 -2 3 4.92 1.04
-3 2 -3 0.69 0.76
-3 2 -3 0.31 0.83
-3 2 -3 0.61 0.63
-3 2 -3 -0.34 0.51
3 -2 3 -0.02 0.45
3 -2 3 0.7 0.71
3 -2 3 -0.18 0.88
3 -2 3 0.19 0.72
-4 2 -3 87.89 3.36
-4 2 -3 85.64 3.28
-4 2 -3 82.95 2.34
4 -2 3 80.56 2.28
4 -2 3 85.42 2.81
4 -2 3 85.01 3.31
4 -2 3 85.99 2.86
-5 2 -3 2.71 1.25
-5 2 -3 1.5 1.11
-5 2 -3 2.85 0.94
5 -2 3 1.15 1.12
5 -2 3 1.47 0.64
5 -2 3 2.25 1.07
-6 2 -3 76.43 3.64
-6 2 -3 75.06 3.58
6 -2 3 76.12 3.3
6 -2 3 73.93 3.65
-7 2 -3 4.32 1.59
-7 2 -3 5.8 1.62
7 -2 3 6.38 1.46
7 -2 3 8.5 1.93
7 -2 3 6.29 1.63
-8 2 -3 0.44 1.36
-8 2 -3 -0.45 1.21
8 -2 3 -0.68 1.24
8 -2 3 1.24 1.17
8 -2 3 1.48 1.52
-9 2 -3 22.78 3.16
-9 2 -3 28.12 3.08
9 -2 3 26.81 2.96
9 -2 3 30.04 3.18
9 -2 3 26.14 2.66
10 -2 3 7.6 2.21
10 -2 3 5.09 1.78
10 -2 3 2.5 2.07
10 -2 3 4.64 1.82
10 -2 3 9.21 2.29
11 -2 3 5.05 1.77
11 -2 3 -0.48 1.17
11 -2 3 3.72 2.07
11 -2 3 3.89 1.57
11 -2 3 1.88 1.57
11 1 -3 3.31 2.33
11 1 -3 4.05 1.72
-11 -1 3 3.43 1.74
-11 -1 3 0.93 2.09
10 1 -3 2.98 2.26
10 1 -3 4.03 1.75
-10 -1 3 3.25 1.83
-10 -1 3 4.38 2.31
9 1 -3 17.44 2.63
9 1 -3 11.59 2.53
-9 -1 3 18.94 2.96
-9 -1 3 13.57 2.31
8 1 -3 0.96 0.76
8 1 -3 2.77 1.49
8 1 -3 2.05 1.53
-8 -1 3 2.36 1.63
-8 -1 3 1.96 1.4
7 1 -3 58.37 3.59
7 1 -3 55.45 3.1
7 1 -3 52 1.77
7 1 -3 56.74 1.88
-7 -1 3 56.85 3.17
-7 -1 3 57.2 3.59
6 1 -3 93.16 2.06
6 1 -3 90.57 2.04
6 1 -3 90.64 3.9
6 1 -3 93.31 3.61
-6 -1 3 92.82 3.91
-6 -1 3 99.4 3.67
5 1 -3 62.52 2.76
5 1 -3 56.41 2.91
-5 -1 3 60.18 2.75
-5 -1 3 61.05 3.02
4 1 -3 26.09 1.89
4 1 -3 25.8 1.76
4 1 -3 21.29 1.88
-4 -1 3 24.52 1.84
-4 -1 3 22.42 1.92
-4 -1 3 22.62 1.63
3 1 -3 8.85 1.39
3 1 -3 9.44 1.19
3 1 -3 10.24 1.37
3 1 -3 10.86 1.5
3 1 -3 9.94 1.24
-3 -1 3 8.05 1.18
-3 -1 3 10.81 1.45
-3 -1 3 9.07 1.38
2 1 -3 111.57 2.89
2 1 -3 114.05 2.88
2 1 -3 113.08 2.99
2 1 -3 113.94 2.94
-2 -1 3 113.97 2.93
-2 -1 3 113.38 2.98
-2 -1 3 117.23 3
-2 -1 3 114.74 3.01
1 1 -3 484.54 6.54
1 1 -3 488.9 6.22
1 1 -3 475.83 6.46
1 1 -3 479.37 6.14
1 1 -3 493.54 5.19
-1 -1 3 491.63 6.52
-1 -1 3 473.11 6.53
-1 -1 3 475.53 5.14
-1 -1 3 488.69 6.23
-1 -1 3 494.92 6.23
0 1 -3 136.76 3.03
0 1 -3 139.56 2.52
0 1 -3 136.65 2.54
0 1 -3 131.05 3.04
0 1 -3 135.47 2.67
0 -1 3 133.93 2.99
0 -1 3 138.63 2.51
0 -1 3 135.91 3.08
0 -1 3 139.15 2.59
-1 1 -3 46.94 1.39
-1 1 -3 45.78 1.88
-1 1 -3 48.35 2
-1 1 -3 46.64 1.35
-1 1 -3 47.42 1.97
1 -1 3 44.76 1.99
1 -1 3 45.78 1.91
1 -1 3 44.3 1.82
1 -1 3 45.08 1.38
1 -1 3 43.51 1.33
-2 1 -3 96.47 2.88
-2 1 -3 89.59 2.91
-2 1 -3 93.7 2.82
-2 1 -3 89.68 1.96
-2 1 -3 94.37 2.08
2 -1 3 90.02 2.79
2 -1 3 90.51 1.93
2 -1 3 90.31 2.8
2 -1 3 98.04 2.09
2 -1 3 94.93 2.81
-3 1 -3 0.31 0.81
-3 1 -3 1.54 0.68
-3 1 -3 0.19 0.81
-3 1 -3 2.27 0.91
3 -1 3 1.5 0.85
3 -1 3 1.41 0.82
3 -1 3 0.75 0.7
3 -1 3 1.06 0.66
3 -1 3 0.81 0.57
-4 1 -3 59.03 2.18
-4 1 -3 59.51 2.71
-4 1 -3 57.98 2.81
4 -1 3 55.4 2.57
4 -1 3 61.16 2.22
4 -1 3 59.48 2.14
4 -1 3 58.14 2.06
-5 1 -3 5.81 1.39
-5 1 -3 4.24 1.22
-5 1 -3 6.16 1.25
5 -1 3 4.28 0.97
5 -1 3 4.86 1.19
5 -1 3 6.82 1.07
5 -1 3 5.75 1.4
-6 1 -3 -0.42 1.01
-6 1 -3 0.7 1.09
-6 1 -3 0.98 0.99
6 -1 3 1.11 1.06
6 -1 3 0.48 1.09
-7 1 -3 74.01 3.35
-7 1 -3 71.95 3.74
-7 1 -3 74.13 3.8
7 -1 3 72.35 3.63
7 -1 3 66.64 3.3
-8 1 -3 2.38 1.47
8 -1 3 0.87 1.25
8 -1 3 1.65 1.34
-9 1 -3 8.32 2.3
9 -1 3 11.5 2.2
9 -1 3 5.9 2.06
9 -1 3 8.31 1.99
9 -1 3 7.78 1.94
10 -1 3 -2.73 1.16
10 -1 3 1.67 1.63
10 -1 3 3.65 1.84
10 -1 3 0.23 1.3
10 -1 3 1.59 1.3
11 -1 3 3.59 1.65
11 -1 3 1.91 1.55
11 -1 3 0.42 1.72
11 -1 3 2.9 1.53
11 -1 3 2.04 1.63
11 0 -3 9.13 1.99
11 0 -3 7.99 2.73
-11 0 3 9.27 2.73
-11 0 3 9.28 2.23
10 0 -3 1.33 1.4
10 0 -3 -2.53 1.54
-10 0 3 -0.11 1.58
-10 0 3 -0.08 2.04
9 0 -3 13.28 2.25
9 0 -3 10.23 2.44
-9 0 3 16.16 2.64
-9 0 3 10.92 2.66
8 0 -3 31.5 3.2
8 0 -3 26.98 2.53
8 0 -3 25.59 1.75
-8 0 3 31.86 2.95
-8 0 3 29.74 3.3
7 0 -3 45.26 2.75
7 0 -3 46.81 1.97
7 0 -3 40.13 3.07
7 0 -3 43.67 1.74
-7 0 3 46.86 3.1
-7 0 3 42.43 3.18
6 0 -3 21.01 2.23
6 0 -3 20.57 1.18
6 0 -3 22.6 2.06
-6 0 3 18.32 2.23
-6 0 3 21.33 2.16
5 0 -3 2.68 1.06
5 0 -3 2.2 0.56
5 0 -3 1.94 1.15
-5 0 3 3.15 1.25
-5 0 3 2.21 1.16
4 0 -3 235.21 5.34
4 0 -3 238.41 2.99
4 0 -3 237.01 4.65
-4 0 3 240.41 4.6
-4 0 3 233.6 3.04
-4 0 3 246.06 5.21
-4 0 3 229.64 5.31
3 0 -3 162.07 3.46
3 0 -3 160.21 3.91
3 0 -3 160.21 4.02
3 0 -3 159.05 4
-3 0 3 161.84 3.43
-3 0 3 158.41 3.93
-3 0 3 164.23 3.99
2 0 -3 88.97 2.72
2 0 -3 89.53 2.62
2 0 -3 86.18 2.67
2 0 -3 89.36 2.37
-2 0 3 88.2 2.78
-2 0 3 89.89 2.62
-2 0 3 90.9 2.71
1 0 -3 159.4 3.13
1 0 -3 160.09 3.42
1 0 -3 160.09 2.31
1 0 -3 166.56 3.29
-1 0 3 160.73 2.31
-1 0 3 162.81 3.3
-1 0 3 156.59 3.08
-1 0 3 159.14 3.42
0 0 -3 150.24 2.92
0 0 -3 152.36 3.12
0 0 -3 152.62 3.15
0 0 -3 151.68 2.47
0 0 3 150.26 3.12
0 0 3 153.53 2.67
0 0 3 155.15 3.1
0 0 3 154.9 2.95
0 0 3 152.23 2.47
0 0 3 155.15 2.66
-1 0 -3 16.04 0.66
-1 0 -3 15.48 1.17
-1 0 -3 16.58 1.32
-1 0 -3 16.99 1.43
1 0 3 15.36 1.35
1 0 3 16.54 1.33
1 0 3 17.11 1.33
1 0 3 15.82 1.24
1 0 3 16.96 0.68
1 0 3 15.97 1.1
-2 0 -3 241.47 3.89
-2 0 -3 241.34 4.36
-2 0 -3 251.52 4.8
2 0 3 244.91 4.7
2 0 3 249.64 4.48
2 0 3 249.92 3.87
2 0 3 240.6 4.37
2 0 3 246.08 2.87
-3 0 -3 3.56 1.1
-3 0 -3 4.5 0.93
-3 0 -3 5.4 0.99
3 0 3 4.87 1.05
3 0 3 4.23 0.84
3 0 3 4.39 0.66
3 0 3 5.18 1.07
3 0 3 5.29 0.8
3 0 3 3.37 0.99
-4 0 -3 11.93 1.41
-4 0 -3 10.34 1.63
4 0 3 9.36 1.29
4 0 3 10.97 1.41
4 0 3 11.03 1.03
4 0 3 11.37 1.16
4 0 3 11.04 1.22
-5 0 -3 110.47 3.94
-5 0 -3 106.56 3.4
5 0 3 108.57 3.47
5 0 3 106.28 3.01
5 0 3 107.61 2.94
-6 0 -3 2.94 1.36
-6 0 -3 4.23 1.34
6 0 3 1.17 1.07
6 0 3 3 1.06
6 0 3 1.92 1.26
-7 0 -3 6.18 1.65
-7 0 -3 4.74 1.56
7 0 3 4.02 1.27
7 0 3 5.06 1.47
7 0 3 6.38 1.69
-8 0 -3 5.12 1.72
-8 0 -3 1.36 1.51
8 0 3 2.81 1.36
8 0 3 -0.93 1.2
8 0 3 1.54 1.3
-9 0 -3 15.34 2.47
9 0 3 9.84 2.19
9 0 3 9.11 1.99
9 0 3 8.19 1.97
10 0 3 12.3 2.46
10 0 3 11.06 2.3
10 0 3 14.02 2.66
10 0 3 15.88 2.48
11 0 3 -1.06 1.2
11 0 3 1.3 1.66
11 0 3 0.02 1.4
11 0 3 -0.85 1.4
11 0 3 -0.73 1.27
11 -1 -3 12.85 3.04
-11 1 3 14.4 2.78
10 -1 -3 3.34 2.17
10 -1 -3 4.25 1.49
-10 1 3 3.89 2.21
-10 1 3 -1.24 1.49
9 -1 -3 15.64 2.93
9 -1 -3 12.71 2.16
-9 1 3 13.55 2.71
-9 1 3 12.93 2.84
8 -1 -3 17.24 2.79
8 -1 -3 19.61 2.19
-8 1 3 20.75 3.09
-8 1 3 20.04 2.85
7 -1 -3 2.63 1.58
7 -1 -3 4.04 0.89
7 -1 -3 4.9 1.39
-7 1 3 2.5 1.67
-7 1 3 2.54 1.54
-7 1 3 5.29 1.05
6 -1 -3 141 3.87
6 -1 -3 129.6 3.1
6 -1 -3 131.13 4.68
-6 1 3 135.73 4.94
-6 1 3 131.16 3.26
-6 1 3 135.2 4.7
5 -1 -3 76.94 3.36
5 -1 -3 78.4 2.72
5 -1 -3 80.23 2.17
-5 1 3 78.29 2.24
-5 1 3 79.61 3.42
-5 1 3 77.51 3.51
4 -1 -3 11.35 0.97
4 -1 -3 11.41 1.29
4 -1 -3 11.99 1.75
-4 1 3 10.22 1.7
-4 1 3 10.73 1.67
-4 1 3 12.9 1.19
-4 1 3 12.52 0.99
3 -1 -3 36.3 2.16
3 -1 -3 37.05 1.62
3 -1 -3 35.49 1.25
-3 1 3 35 1.3
-3 1 3 38.53 2.23
-3 1 3 35.6 1.52
-3 1 3 37.36 2.26
2 -1 -3 0.4 0.64
2 -1 -3 -0.13 0.56
2 -1 -3 0.15 0.44
2 -1 -3 0.46 0.75
2 -1 -3 0.3 0.8
-2 1 3 -0.14 0.71
-2 1 3 -0.11 0.53
-2 1 3 -0.18 0.45
-2 1 3 0.01 0.77
-2 1 3 -0.65 0.6
1 -1 -3 136.06 3.28
1 -1 -3 145.63 2.7
1 -1 -3 141.67 3.25
1 -1 -3 138.92 3.18
1 -1 -3 139.93 2.45
-1 1 3 139.67 3.4
-1 1 3 140.41 2.71
-1 1 3 137.88 2.96
-1 1 3 146.62 3.28
-1 1 3 138.56 2.5
0 -1 -3 30.97 1.28
0 -1 -3 30.99 1.48
0 -1 -3 30.57 1.64
0 -1 -3 29.5 1.17
0 -1 -3 29.72 1.52
0 1 3 29.46 1.55
0 1 3 28.57 1.31
0 1 3 27.71 1.22
0 1 3 28.67 1.54
-1 -1 -3 92.13 2.57
-1 -1 -3 89.15 2.47
-1 -1 -3 90.13 1.34
-1 -1 -3 90.9 2.31
-1 -1 -3 92.85 1.37
-1 -1 -3 86.6 2.31
1 1 3 90.6 2.3
1 1 3 91.23 2.46
1 1 3 87.73 2.49
1 1 3 94.76 2.42
-2 -1 -3 127.77 2.97
-2 -1 -3 131.91 3.39
-2 -1 -3 127.57 3.07
2 1 3 129.48 3.1
2 1 3 127.68 2.91
2 1 3 127.92 3.32
2 1 3 126.57 2.9
-3 -1 -3 51.79 1.3
-3 -1 -3 53.8 2.15
-3 -1 -3 51.75 2.48
3 1 3 50.76 1.23
3 1 3 50.51 2.19
3 1 3 52.08 2.05
3 1 3 53.02 2.43
3 1 3 50.71 2.17
3 1 3 49.1 1.98
-4 -1 -3 81.39 2.63
-4 -1 -3 78.78 3.17
-4 -1 -3 84.45 2.91
-4 -1 -3 77.48 2.1
4 1 3 82.47 2.74
4 1 3 81.22 2.96
4 1 3 79.13 2.01
4 1 3 80.35 2.62
-5 -1 -3 38.96 2.3
-5 -1 -3 37.24 2.59
-5 -1 -3 38.02 1.86
5 1 3 40.97 2.46
5 1 3 37.99 2.08
5 1 3 39.73 1.73
5 1 3 40.8 2.09
-6 -1 -3 3.84 1.09
-6 -1 -3 3.19 1.3
-6 -1 -3 3.76 1.37
6 1 3 4.55 1.35
6 1 3 3.07 0.86
6 1 3 3.51 1.14
-7 -1 -3 10.58 2.05
-7 -1 -3 8.5 1.58
-7 -1 -3 6.6 1.65
7 1 3 11.86 1.94
7 1 3 10.78 1.7
-8 -1 -3 6.17 1.89
-8 -1 -3 3.24 1.68
-8 -1 -3 6.62 1.61
8 1 3 7.15 1.77
8 1 3 3.09 1.37
-9 -1 -3 2.52 1.74
9 1 3 3.42 1.61
9 1 3 5.86 1.61
-10 -1 -3 3.85 1.98
10 1 3 -0.19 1.37
10 1 3 2.42 1.45
10 1 3 4.52 2.13
11 1 3 2.49 1.58
11 1 3 4.26 1.67
11 1 3 3.23 2.17
11 1 3 1.48 1.39
12 1 3 10.1 2.54
12 1 3 10.1 2.52
12 1 3 6.42 2.47
12 1 3 6.02 1.74
11 -2 -3 7.68 2.4
11 -2 -3 9.88 2.75
-11 2 3 13.33 2.85
10 -2 -3 6.05 2.24
10 -2 -3 1.15 1.85
-10 2 3 5.56 2.3
9 -2 -3 1.91 1.12
9 -2 -3 2.04 1.86
-9 2 3 -0.95 1.53
8 -2 -3 56.18 2.84
8 -2 -3 49.85 3.75
-8 2 3 53.36 3.95
-8 2 3 49.37 2.68
-8 2 3 48.01 3.87
7 -2 -3 25.59 2.06
7 -2 -3 33.08 3.03
-7 2 3 30.23 2.03
-7 2 3 24.49 2.86
-7 2 3 32.71 3.08
6 -2 -3 11.53 1.29
6 -2 -3 13.33 2.16
6 -2 -3 13.36 1.21
6 -2 -3 12.23 1.54
-6 2 3 10.06 2.01
-6 2 3 12.86 1.5
-6 2 3 10.02 2
5 -2 -3 7.55 1.06
5 -2 -3 8.24 1.17
5 -2 -3 6.25 1
5 -2 -3 6.56 1.53
-5 2 3 8.27 1.16
-5 2 3 5.65 1.46
-5 2 3 5.29 1.53
4 -2 -3 1.66 1.03
4 -2 -3 1.75 0.71
4 -2 -3 0.56 0.62
-4 2 3 -0.45 0.64
-4 2 3 1.76 1.18
-4 2 3 1.91 1.14
3 -2 -3 81.38 2.19
3 -2 -3 83.1 3.01
3 -2 -3 81.23 1.99
-3 2 3 83.43 2.3
-3 2 3 83.29 1.96
-3 2 3 83.64 3.22
-3 2 3 84.49 3.26
2 -2 -3 49.13 2.3
2 -2 -3 48.39 2.17
2 -2 -3 49.11 1.44
2 -2 -3 53.86 2.33
2 -2 -3 54.11 1.76
-2 2 3 48.69 2.19
-2 2 3 47.17 1.72
-2 2 3 49.98 2.28
-2 2 3 50.62 2.43
-2 2 3 47.9 1.38
1 -2 -3 58.11 2.3
1 -2 -3 56.45 2.07
1 -2 -3 53.94 1.55
1 -2 -3 58.09 1.82
1 -2 -3 53.8 2.17
-1 2 3 57.1 2.23
-1 2 3 53.71 1.83
-1 2 3 58.84 1.56
-1 2 3 56.83 2.31
0 -2 -3 29.06 1.39
0 -2 -3 26.61 1.38
0 -2 -3 26.02 1.32
0 -2 -3 24.07 1.38
0 -2 -3 28.71 1.71
0 -2 -3 25.15 1.51
0 2 3 26.84 1.6
0 2 3 26.04 1.29
0 2 3 28.05 1.73
0 2 3 26.98 1.55
-1 -2 -3 28.6 1.1
-1 -2 -3 28.28 1.59
-1 -2 -3 27.43 1.71
-1 -2 -3 29.89 1.51
1 2 3 27.82 1.64
1 2 3 28.23 1.09
1 2 3 29.41 1.52
1 2 3 30.67 1.62
-2 -2 -3 65.5 2.3
-2 -2 -3 65.89 2.34
-2 -2 -3 66.38 2.49
-2 -2 -3 64.84 1.32
-2 -2 -3 68.15 2.06
2 2 3 65.4 2.48
2 2 3 66.24 1.34
2 2 3 64.46 2.29
2 2 3 64.84 2.35
2 2 3 69.84 2.03
-3 -2 -3 5 0.9
-3 -2 -3 5.2 0.69
-3 -2 -3 7.31 1.14
-3 -2 -3 6.29 1.21
-3 -2 -3 6.82 1.2
3 2 3 4.99 1.06
3 2 3 5.11 1.02
3 2 3 6.5 1.05
3 2 3 6.8 1.19
3 2 3 5.75 0.67
-4 -2 -3 0.94 0.91
-4 -2 -3 0.73 0.54
-4 -2 -3 0.41 0.62
-4 -2 -3 1.73 0.99
4 2 3 1.48 0.91
4 2 3 0.83 0.69
4 2 3 0.73 0.51
-5 -2 -3 80.02 3.26
-5 -2 -3 87.26 3.58
-5 -2 -3 82.26 2.45
5 2 3 84.97 2.69
5 2 3 83.77 2.66
5 2 3 83.68 2.38
5 2 3 84.71 3.22
-6 -2 -3 14.06 2.01
-6 -2 -3 13.05 2.13
-6 -2 -3 13.82 1.5
6 2 3 12.17 1.33
6 2 3 13.06 1.25
6 2 3 14.39 1.54
6 2 3 15.51 1.94
-7 -2 -3 64.81 3.66
-7 -2 -3 60.9 2.77
-7 -2 -3 60.95 3.48
7 2 3 61.72 2.75
7 2 3 61.89 3.23
-8 -2 -3 4.9 1.78
-8 -2 -3 2.57 1.29
8 2 3 5.3 1.38
8 2 3 0.9 1.29
-9 -2 -3 10.41 2.37
-9 -2 -3 10.49 1.99
9 2 3 13.87 2.58
9 2 3 11.6 1.93
9 2 3 12.18 2.14
-10 -2 -3 9.47 2.49
-10 -2 -3 11.97 2.31
10 2 3 13.71 2.78
10 2 3 15.45 2.08
10 2 3 10.66 2.19
-11 -2 -3 5.05 2.3
-11 -2 -3 1.49 1.5
11 2 3 3.72 1.43
11 2 3 6.92 2.18
11 2 3 6.74 2.51
12 2 3 0.58 2.01
12 2 3 0.7 1.63
10 -3 -3 15.92 3.09
10 -3 -3 11.9 3.02
-10 3 3 15.3 2.97
9 -3 -3 4.52 2.03
9 -3 -3 1.19 1.9
-9 3 3 0.4 1.71
8 -3 -3 6.99 1.31
8 -3 -3 11.25 2.37
8 -3 -3 5.05 2.05
-8 3 3 9.32 2.59
-8 3 3 6.1 1.46
7 -3 -3 6.73 1.92
7 -3 -3 9.62 2.23
7 -3 -3 8.44 1.27
-7 3 3 11.42 2.45
-7 3 3 10.23 1.69
6 -3 -3 0.62 1.22
6 -3 -3 0.53 1.22
6 -3 -3 0.94 0.74
6 -3 -3 1 0.6
-6 3 3 -0.18 1.25
-6 3 3 -0.16 0.79
5 -3 -3 68.55 2.11
5 -3 -3 66.26 3.26
5 -3 -3 69.49 2.14
-5 3 3 71.29 2.8
-5 3 3 59.26 3.39
4 -3 -3 0.97 0.51
4 -3 -3 1.32 0.51
4 -3 -3 0.53 0.61
4 -3 -3 1.83 1.06
4 -3 -3 1.25 1.01
-4 3 3 1.46 1.14
-4 3 3 0.15 0.83
3 -3 -3 43.73 1.89
3 -3 -3 47.85 2.61
3 -3 -3 46.09 2.5
-3 3 3 46.2 2.7
-3 3 3 43.28 2.07
2 -3 -3 39.66 2.27
2 -3 -3 39.17 2.16
2 -3 -3 39.57 1.78
-2 3 3 39.95 1.88
-2 3 3 38.15 2.37
1 -3 -3 9.93 1.23
1 -3 -3 8.48 1.29
1 -3 -3 8.4 1.36
1 -3 -3 8.01 1.25
1 -3 -3 9.36 1.25
1 -3 -3 7.73 0.76
-1 3 3 8.89 1.32
-1 3 3 9.23 1.54
-1 3 3 7.87 0.71
-1 3 3 8.47 1.18
0 -3 -3 15.62 1.38
0 -3 -3 15.05 1.11
0 -3 -3 13.88 1.58
0 -3 -3 15.34 1.36
0 -3 -3 13.97 1.41
0 3 3 17.28 1.56
0 3 3 15.26 1.1
0 3 3 15.16 1.52
0 3 3 16.08 1.54
0 3 3 15.62 1.26
-1 -3 -3 2.43 0.71
-1 -3 -3 2.19 0.8
-1 -3 -3 3.47 0.89
-1 -3 -3 4.6 1.14
1 3 3 1.86 0.87
1 3 3 2.1 0.96
1 3 3 2.52 0.79
1 3 3 2.51 0.68
1 3 3 3.31 0.94
-2 -3 -3 -0.38 0.58
-2 -3 -3 0.41 0.81
-2 -3 -3 0.21 0.51
-2 -3 -3 0.39 0.56
-2 -3 -3 -0.53 0.7
2 3 3 0.53 0.73
2 3 3 1.22 0.77
2 3 3 0 0.86
2 3 3 0.32 0.5
2 3 3 0.09 0.64
-3 -3 -3 14.17 1.06
-3 -3 -3 18.41 1.77
-3 -3 -3 16.11 1.67
-3 -3 -3 16.66 1.18
3 3 3 14.69 1.14
3 3 3 13.79 1.55
3 3 3 15.26 1
3 3 3 15.65 1.53
-4 -3 -3 0.73 1
-4 -3 -3 0.6 0.63
-4 -3 -3 1.43 0.62
-4 -3 -3 1.65 1.02
4 3 3 1.6 0.66
4 3 3 1.86 0.63
4 3 3 0.96 0.86
-5 -3 -3 72.5 2.36
-5 -3 -3 72.78 3.43
-5 -3 -3 73.74 3.27
5 3 3 73.94 2.28
5 3 3 76.51 2.27
5 3 3 76.28 3.1
5 3 3 76.69 2.3
-6 -3 -3 0.75 0.78
-6 -3 -3 0.61 1.12
-6 -3 -3 0.52 1.21
6 3 3 1.97 0.68
6 3 3 0.4 0.63
6 3 3 1.4 0.8
6 3 3 0.88 1.05
-7 -3 -3 55.78 3.45
-7 -3 -3 57.98 2.65
7 3 3 55.86 2.4
7 3 3 59.3 3.11
7 3 3 51.68 2.25
-8 -3 -3 17.83 2.69
-8 -3 -3 19.5 2.14
8 3 3 17.63 2.34
8 3 3 19.08 1.82
8 3 3 20.91 2.86
-9 -3 -3 2.63 1.79
-9 -3 -3 -0.27 1.13
9 3 3 2.08 1.28
9 3 3 2.8 1.91
9 3 3 0.2 0.96
-10 -3 -3 -1.62 1.67
-10 -3 -3 -0.4 1.24
10 3 3 -1.77 1.18
10 3 3 2.51 1.1
10 3 3 -0.48 1.76
-11 -3 -3 -1.01 1.36
-11 -3 -3 1.06 1.88
11 3 3 -0.71 1.3
11 3 3 -1.26 1.87
-12 -3 -3 17.94 3.33
-12 -3 -3 20.92 3.14
12 3 3 22.1 2.99
12 3 3 19.97 3.78
10 -4 -3 -0.36 1.74
10 -4 -3 2 1.88
-10 4 3 1.18 1.85
9 -4 -3 1.95 1.87
9 -4 -3 -1.37 1.69
-9 4 3 0.93 1.85
8 -4 -3 1.03 1.61
8 -4 -3 3.79 1.91
-8 4 3 -1.78 0.95
-8 4 3 0.27 1.81
7 -4 -3 31 3.01
7 -4 -3 24.29 3.12
-7 4 3 31.09 2.55
-7 4 3 26.38 3.12
6 -4 -3 0.14 1.33
6 -4 -3 0.28 1.29
-6 4 3 0.43 1.5
-6 4 3 0.68 1.05
5 -4 -3 32.92 2.68
5 -4 -3 30.91 2.76
-5 4 3 27.71 2.82
-5 4 3 30.31 2.27
4 -4 -3 18.25 2.04
4 -4 -3 13.3 2.05
-4 4 3 17.61 2.16
-4 4 3 17.83 1.87
3 -4 -3 11.99 1.7
3 -4 -3 8.37 1.53
-3 4 3 8.38 1.6
-3 4 3 8.21 1.37
2 -4 -3 85.29 3.25
2 -4 -3 77.7 3.06
-2 4 3 87.03 2.98
-2 4 3 76.5 3.28
1 -4 -3 10.8 1.5
1 -4 -3 9.15 1.19
1 -4 -3 8.33 1.41
-1 4 3 9.74 1.59
-1 4 3 10.02 1.44
0 -4 -3 3.23 0.92
0 -4 -3 2.71 0.87
0 -4 -3 3.24 0.91
0 -4 -3 2.3 1.01
0 -4 -3 5.11 0.79
0 4 3 4.62 0.77
0 4 3 4.67 1.14
0 4 3 3.37 1.07
0 4 3 4.26 1.01
-1 -4 -3 -0.37 0.52
-1 -4 -3 -0.22 0.79
-1 -4 -3 1.01 0.73
-1 -4 -3 1.02 0.72
1 4 3 0.12 0.63
1 4 3 0.96 0.94
1 4 3 1.55 0.67
1 4 3 0.86 0.83
-2 -4 -3 11.15 1.24
-2 -4 -3 9.74 1.38
-2 -4 -3 14.26 1.7
-2 -4 -3 10.66 1.1
2 4 3 13.11 1.21
2 4 3 14.7 1.72
2 4 3 11.68 1.25
-3 -4 -3 256.74 5.6
-3 -4 -3 266 4.44
-3 -4 -3 260.69 5.52
-3 -4 -3 264.33 4.12
3 4 3 255.06 4.25
3 4 3 266.73 4.18
3 4 3 269.35 5.52
-4 -4 -3 19.67 1.94
-4 -4 -3 21.65 1.47
-4 -4 -3 18.95 2.01
-4 -4 -3 20.57 1.16
4 4 3 19.28 1.31
4 4 3 21.1 1.19
4 4 3 21.81 1.97
-5 -4 -3 5.07 1.06
-5 -4 -3 2.98 1.41
-5 -4 -3 3.85 1.39
5 4 3 6.2 0.9
5 4 3 3.82 1.22
5 4 3 6.21 0.99
-6 -4 -3 19.45 1.71
-6 -4 -3 21.11 2.36
6 4 3 21.43 1.52
6 4 3 19.73 1.27
6 4 3 19.99 1.3
6 4 3 21.49 2.25
-7 -4 -3 4.22 1.6
-7 -4 -3 3.89 1.21
7 4 3 5.98 1.61
7 4 3 4.17 1.56
7 4 3 6.52 1.04
7 4 3 3.94 0.81
-8 -4 -3 4.41 1.77
-8 -4 -3 6.09 1.53
8 4 3 7.73 1.78
8 4 3 6.55 1.16
8 4 3 4.76 1.95
-9 -4 -3 0.39 1.22
-9 -4 -3 -0.36 1.69
9 4 3 0.97 1.42
9 4 3 -0.37 1.5
9 4 3 -1.22 0.67
-10 -4 -3 27.21 3.56
-10 -4 -3 23.22 2.63
10 4 3 20.81 2.88
10 4 3 23.3 3.45
-11 -4 -3 26.47 3.66
-11 -4 -3 18.13 2.59
11 4 3 20.83 3.04
11 4 3 22.02 3.59
-12 -4 -3 0.63 1.93
12 4 3 -0.18 1.61
12 4 3 0.1 2.09
9 -5 -3 6.29 1.88
9 -5 -3 3.28 2.3
-9 5 3 11.78 2.96
8 -5 -3 4.05 2.13
8 -5 -3 6.47 2.08
-8 5 3 0.55 1.41
-8 5 3 1.13 2.02
7 -5 -3 1.38 1.7
7 -5 -3 3.83 1.61
-7 5 3 4.65 2.11
-7 5 3 3.46 1.5
6 -5 -3 -0.64 1.24
6 -5 -3 0.8 1.57
-6 5 3 1.04 1.37
-6 5 3 1.87 1.74
5 -5 -3 15.71 2.41
5 -5 -3 16.8 2.33
-5 5 3 14.44 2.52
-5 5 3 15.22 2.05
4 -5 -3 33.34 2.51
4 -5 -3 24.43 2.5
-4 5 3 23.31 2.67
-4 5 3 29.76 2.35
3 -5 -3 13.82 1.87
3 -5 -3 14.44 1.98
-3 5 3 15.96 2.12
-3 5 3 14.57 1.87
2 -5 -3 3.58 1.34
2 -5 -3 4 1.33
-2 5 3 4.7 1.39
-2 5 3 2.03 1.14
1 -5 -3 36.15 2.29
1 -5 -3 39.8 2.41
-1 5 3 38.44 2.31
-1 5 3 36.38 2.5
0 -5 -3 58.42 2.68
0 -5 -3 57.5 2.77
0 5 3 60.55 1.83
0 5 3 58.83 2.73
0 5 3 59.03 1.76
0 5 3 54.52 2.63
-1 -5 -3 191.19 4.24
-1 -5 -3 188.68 4.32
-1 -5 -3 194.77 4.8
1 5 3 194.67 4.3
1 5 3 187.17 3.84
1 5 3 184.56 4.27
1 5 3 194.2 3.83
1 5 3 185.74 4.65
-2 -5 -3 17.43 1.8
-2 -5 -3 15.15 1.24
-2 -5 -3 15.5 1.48
2 5 3 14.32 1.45
2 5 3 12.65 1.76
2 5 3 15.85 1.63
2 5 3 17.65 1.46
2 5 3 15.87 1.46
-3 -5 -3 107.78 3.81
-3 -5 -3 106.35 2.58
-3 -5 -3 106.34 3.05
3 5 3 108.77 3.48
3 5 3 106.16 2.96
3 5 3 102.9 2.62
3 5 3 108.3 3.71
-4 -5 -3 0.09 0.77
-4 -5 -3 -1.03 0.94
-4 -5 -3 0.53 0.5
4 5 3 0.02 0.54
4 5 3 0.72 0.99
4 5 3 -0.06 1.02
4 5 3 -0.31 0.54
-5 -5 -3 3.85 1.43
-5 -5 -3 5.42 1.15
-5 -5 -3 4.22 0.62
5 5 3 6.65 0.86
5 5 3 3.43 1.34
5 5 3 3.14 0.87
5 5 3 3.64 1.41
-6 -5 -3 10.73 1.58
-6 -5 -3 10.21 2.07
6 5 3 10.02 1.96
6 5 3 9.9 1.9
-7 -5 -3 19.75 2.06
-7 -5 -3 19.75 2.49
7 5 3 20.83 2.73
7 5 3 17.82 1.09
7 5 3 18.56 2.46
-8 -5 -3 30.76 2.52
-8 -5 -3 27.79 3.14
8 5 3 18.98 2.52
8 5 3 23.99 3
8 5 3 21.44 1.28
-9 -5 -3 14.61 2.92
-9 -5 -3 8.96 1.85
9 5 3 13.75 2.82
9 5 3 9.53 2.22
-10 -5 -3 2.14 2
-10 -5 -3 1.31 1.34
10 5 3 -2.06 1.31
10 5 3 -0.41 1.77
-11 -5 -3 19.6 2.58
-11 -5 -3 16.35 3.43
11 5 3 12.5 3.04
11 5 3 17.95 2.95
-12 -5 -3 3.84 2.51
12 5 3 6.61 2.05
12 5 3 2.88 2.5
9 -6 -3 1.97 2.07
9 -6 -3 1.94 1.81
-9 6 3 5.84 2.32
8 -6 -3 1.61 1.75
8 -6 -3 0.42 1.72
-8 6 3 -0.41 1.35
-8 6 3 0.91 2.01
7 -6 -3 7.09 2.16
7 -6 -3 7.45 2.33
-7 6 3 2.88 2.25
-7 6 3 7.7 1.92
6 -6 -3 30.28 2.82
6 -6 -3 23.47 3.07
-6 6 3 24.03 2.75
-6 6 3 24.04 3.24
5 -6 -3 16.35 2.27
5 -6 -3 15.65 2.57
-5 6 3 10.69 2.39
-5 6 3 15.11 2.34
4 -6 -3 5.54 1.86
4 -6 -3 7.17 1.71
-4 6 3 9.3 2.14
-4 6 3 7.8 1.75
3 -6 -3 0.81 1.32
3 -6 -3 3.13 1.29
-3 6 3 1.9 1.23
-3 6 3 2.64 1.5
2 -6 -3 16.75 2
2 -6 -3 14.21 1.96
-2 6 3 15.97 2.04
-2 6 3 13.76 2.15
1 -6 -3 63.02 3.17
1 -6 -3 59.57 2.94
-1 6 3 61.19 3.13
-1 6 3 60.2 3.01
0 -6 -3 4.6 1.33
0 -6 -3 5.18 1.33
0 6 3 4.59 0.76
0 6 3 1.78 1.24
0 6 3 2.23 1.14
0 6 3 5.02 0.82
-1 -6 -3 2.05 1.08
-1 -6 -3 2.24 1.12
1 6 3 1.69 1.11
1 6 3 1.02 1.04
1 6 3 0.67 0.58
1 6 3 3.23 0.91
-2 -6 -3 87.32 3.18
-2 -6 -3 80.03 2.66
-2 -6 -3 89.32 3.58
2 6 3 79.08 2.87
2 6 3 78.54 2.92
2 6 3 81.04 2.8
-3 -6 -3 87.62 3.15
-3 -6 -3 84.39 2.43
-3 -6 -3 90.77 3.72
3 6 3 94.86 3.5
3 6 3 86.69 2.55
3 6 3 89.53 3.6
-4 -6 -3 42.44 1.51
-4 -6 -3 43.3 2.9
-4 -6 -3 40.15 2.33
4 6 3 41.83 1.6
4 6 3 33.28 2.59
4 6 3 42.38 2.81
-5 -6 -3 1.45 1.08
-5 -6 -3 -1.18 1.03
5 6 3 -1.02 1.26
5 6 3 0.67 1.22
-6 -6 -3 51.61 3.41
-6 -6 -3 55.35 2.79
6 6 3 52.86 3.29
6 6 3 46.69 3.37
-7 -6 -3 2.56 1.28
-7 -6 -3 1.4 1.48
7 6 3 3.7 1.82
7 6 3 1.22 1.5
-8 -6 -3 -0.44 1.36
-8 -6 -3 2.22 1.39
8 6 3 -1.43 1.48
8 6 3 3.73 1.95
-9 -6 -3 2.37 1.92
-9 -6 -3 2.69 1.41
9 6 3 4.22 2.15
9 6 3 3.36 1.74
-10 -6 -3 5.32 2.53
-10 -6 -3 4.06 1.73
10 6 3 8.3 2.25
10 6 3 6.19 2.52
-11 -6 -3 4.74 2.5
-11 -6 -3 4.74 1.65
11 6 3 9.75 3.03
11 6 3 11.69 2.65
-12 -6 -3 -1.71 1.78
12 6 3 1.74 2.1
12 6 3 -0.1 1.65
8 -7 -3 5.77 1.92
8 -7 -3 0.42 1.86
-8 7 3 4.44 2.44
-8 7 3 3.91 1.87
7 -7 -3 20.16 3.63
7 -7 -3 25.21 2.85
-7 7 3 18.59 3.48
-7 7 3 26.39 3.14
6 -7 -3 5.66 1.75
6 -7 -3 4.82 2.12
-6 7 3 5.8 1.82
-6 7 3 6.34 2.39
5 -7 -3 -1.58 1.12
5 -7 -3 -1.09 1.41
-5 7 3 -1.24 1.23
-5 7 3 1.61 1.8
4 -7 -3 64.38 3.59
4 -7 -3 63.48 3.94
-4 7 3 63.47 3.77
-4 7 3 69.51 4.35
3 -7 -3 33.74 2.75
3 -7 -3 28.66 2.94
-3 7 3 31.28 3.03
-3 7 3 35.45 3.04
2 -7 -3 1.07 1.23
2 -7 -3 2.09 1.41
-2 7 3 0.11 1.17
-2 7 3 -1.35 1.12
1 -7 -3 4.19 1.44
1 -7 -3 4.4 1.47
-1 7 3 3.84 1.41
-1 7 3 4.96 1.55
0 -7 -3 0.29 1.05
0 -7 -3 0.62 1.12
0 7 3 1.47 0.63
0 7 3 1.26 1.22
0 7 3 2.1 1.21
0 7 3 1.14 0.51
-1 -7 -3 39.19 2.7
-1 -7 -3 39.68 2.55
1 7 3 32.84 2.59
1 7 3 37.32 2.45
1 7 3 37.79 1.96
1 7 3 33.89 1.77
-2 -7 -3 2.98 1.17
-2 -7 -3 3.67 0.88
-2 -7 -3 6.73 1.65
2 7 3 4.54 1.19
2 7 3 2.38 1.35
2 7 3 4.03 1.18
-3 -7 -3 17.18 1.95
-3 -7 -3 18.01 2.25
-3 -7 -3 16.29 1.27
3 7 3 16.28 1.52
3 7 3 14.25 1.84
3 7 3 14.9 2.21
-4 -7 -3 41.57 2.63
-4 -7 -3 37.91 1.54
-4 -7 -3 41.75 2.94
4 7 3 37.51 1.63
4 7 3 39.68 2.75
4 7 3 41.05 3.01
-5 -7 -3 2.67 1.16
-5 -7 -3 0.11 1.2
5 7 3 -0.07 1.21
5 7 3 -0.19 1.22
-6 -7 -3 0.25 1.15
-6 -7 -3 1.66 1.42
6 7 3 0.56 1.48
6 7 3 -0.12 1.3
-7 -7 -3 1.48 1.28
-7 -7 -3 2.65 1.75
7 7 3 3.07 1.79
7 7 3 2.37 1.62
-8 -7 -3 3.33 1.51
-8 -7 -3 1.88 1.83
8 7 3 2.61 1.8
8 7 3 3.3 1.93
-9 -7 -3 6.43 2.47
-9 -7 -3 4.42 1.64
9 7 3 2.81 1.94
9 7 3 3.38 2.31
-10 -7 -3 -1.56 1.8
-10 -7 -3 2.07 1.51
10 7 3 2.39 1.97
10 7 3 -0.93 1.71
-11 -7 -3 1.19 2.38
-11 -7 -3 2.96 1.64
11 7 3 0.54 1.83
11 7 3 -0.33 2.03
7 -8 -3 0.25 1.87
7 -8 -3 1.01 1.49
-7 8 3 -1.86 1.42
-7 8 3 2.1 2.04
6 -8 -3 37.77 3.83
6 -8 -3 38.83 3.37
-6 8 3 28.97 3.77
-6 8 3 33.75 3.47
5 -8 -3 0.59 1.46
5 -8 -3 2.17 1.92
-5 8 3 4.26 1.91
-5 8 3 3.69 2.09
4 -8 -3 0.16 1.21
4 -8 -3 0.11 1.53
-4 8 3 1.33 1.58
-4 8 3 1.7 1.95
3 -8 -3 8.11 1.94
3 -8 -3 5.69 1.85
-3 8 3 10.88 2.37
-3 8 3 10.18 2.24
2 -8 -3 6.14 1.89
2 -8 -3 5.38 1.64
-2 8 3 5.44 1.76
-2 8 3 5.17 1.93
1 -8 -3 95.9 4.13
1 -8 -3 93.59 4.27
-1 8 3 97.11 4.45
-1 8 3 96.14 4.47
0 -8 -3 1.03 1.29
0 -8 -3 0.9 1.22
0 8 3 0.06 1.28
0 8 3 0.25 0.44
0 8 3 -1.5 1.02
0 8 3 0.19 0.6
-1 -8 -3 2.29 1.26
-1 -8 -3 2.09 1.32
1 8 3 3.33 1.37
1 8 3 3 0.97
1 8 3 2.13 1.4
1 8 3 1.37 0.63
-2 -8 -3 35.44 2.78
-2 -8 -3 39.06 2.82
2 8 3 33.42 2.81
2 8 3 41.33 2.51
2 8 3 39.61 2.38
-3 -8 -3 24.54 1.53
-3 -8 -3 23.14 2.54
-3 -8 -3 21.77 2.36
3 8 3 24.29 2.37
3 8 3 26.54 2.77
3 8 3 24.45 1.84
-4 -8 -3 15.01 2.38
-4 -8 -3 12.33 2.01
-4 -8 -3 9.03 0.96
4 8 3 11.67 2.14
4 8 3 13.93 2.15
4 8 3 10.11 1.23
-5 -8 -3 0.23 1.19
-5 -8 -3 0.64 1.3
5 8 3 2.33 1.46
5 8 3 1.46 1.49
-6 -8 -3 36.11 2.81
-6 -8 -3 37.26 3.28
6 8 3 30.11 3.23
6 8 3 34.13 3.22
-7 -8 -3 -0.09 1.16
-7 -8 -3 5.83 2.01
7 8 3 -1.29 1.5
7 8 3 -0.28 1.57
-8 -8 -3 0.14 1.37
-8 -8 -3 1.33 1.81
8 8 3 1.89 1.81
8 8 3 1.01 1.74
-9 -8 -3 1.45 1.52
-9 -8 -3 0.26 1.83
9 8 3 -1.99 1.66
9 8 3 1.86 1.93
-10 -8 -3 0.54 1.38
-10 -8 -3 -0.44 2.29
10 8 3 -2.83 1.61
10 8 3 1.34 2.17
-11 -8 -3 4.24 2.56
11 8 3 3.4 2.56
11 8 3 2.1 1.83
7 -9 -3 2.06 1.4
7 -9 -3 8.24 2.7
-7 9 3 0.73 1.88
-7 9 3 2.25 1.74
6 -9 -3 6.43 1.67
6 -9 -3 3.61 2.36
-6 9 3 2.34 1.92
5 -9 -3 2.72 1.95
5 -9 -3 4.16 1.49
-5 9 3 7.23 2.44
-5 9 3 3.92 2.23
4 -9 -3 0.62 1.77
4 -9 -3 -0.71 1.32
-4 9 3 -1.27 1.36
-4 9 3 -0.56 1.85
3 -9 -3 30.22 2.87
3 -9 -3 32.04 3.37
-3 9 3 26.92 3.27
-3 9 3 24.21 3.49
2 -9 -3 1.36 1.48
2 -9 -3 -0.12 1.17
-2 9 3 -2.78 1.22
-2 9 3 -1.38 1.39
1 -9 -3 3.31 1.72
1 -9 -3 1.61 1.38
-1 9 3 1.81 1.72
-1 9 3 3.52 1.8
0 -9 -3 45.58 3.29
0 -9 -3 40.81 3.07
0 9 3 46.11 3.28
0 9 3 40.98 1.85
0 9 3 42.39 3.46
-1 -9 -3 1.86 1.46
-1 -9 -3 4.08 1.61
1 9 3 4.31 1.47
1 9 3 3.79 1.07
1 9 3 4.99 1.77
-2 -9 -3 4.85 1.63
-2 -9 -3 3.43 1.56
2 9 3 3.58 1.72
2 9 3 2.81 1.3
2 9 3 1.47 1.12
-3 -9 -3 22.77 2.66
-3 -9 -3 17.06 2.41
3 9 3 19.09 2.63
3 9 3 18.49 1.87
3 9 3 17.85 2.3
-4 -9 -3 18.5 2.47
-4 -9 -3 17.23 2.36
4 9 3 19.72 2.93
4 9 3 21.64 2.64
4 9 3 19.27 1.53
-5 -9 -3 0.09 1.39
-5 -9 -3 0.82 1.39
5 9 3 -0.22 1.51
5 9 3 -1.2 1.45
-6 -9 -3 5.16 1.63
-6 -9 -3 2.9 1.83
6 9 3 5.72 2.11
6 9 3 2.28 1.87
-7 -9 -3 5.1 2.15
-7 -9 -3 2.38 1.62
7 9 3 6.56 2.32
7 9 3 6.89 2.25
-8 -9 -3 -0.68 1.35
-8 -9 -3 2.12 2.1
8 9 3 1.87 1.83
8 9 3 3.18 1.96
-9 -9 -3 6.89 1.94
-9 -9 -3 13.1 3.19
9 9 3 10.48 2.62
9 9 3 21.51 3.63
-10 -9 -3 2.85 1.92
-10 -9 -3 -0.68 1.87
10 9 3 0.51 1.88
10 9 3 0.87 2.34
-11 -9 -3 -0.94 1.93
11 9 3 -5.99 1.96
11 9 3 -2.52 1.99
6 -10 -3 4.59 2.25
-6 10 3 2.95 2.06
-6 10 3 3.08 2.08
5 -10 -3 3.79 2.34
5 -10 -3 9.62 1.96
-5 10 3 10.46 2.95
-5 10 3 12.06 2.68
4 -10 -3 2.37 1.42
4 -10 -3 -0.3 1.86
-4 10 3 3.13 2.31
-4 10 3 -0.89 1.48
3 -10 -3 3.31 1.55
3 -10 -3 3.11 1.9
-3 10 3 -0.2 1.9
-3 10 3 3.54 2.15
2 -10 -3 1.12 1.52
2 -10 -3 1.97 1.89
-2 10 3 1.76 1.77
-2 10 3 3.03 1.93
1 -10 -3 4.7 1.97
1 -10 -3 5.16 1.67
-1 10 3 3.89 1.94
-1 10 3 2.64 1.83
0 -10 -3 0.69 1.33
0 -10 -3 2.38 1.7
0 10 3 -2.37 1.14
0 10 3 0.47 1.75
-1 -10 -3 1.9 1.47
-1 -10 -3 0.77 1.41
1 10 3 6.03 1.83
1 10 3 1.67 0.93
1 10 3 2.46 1.49
-2 -10 -3 16.62 2.62
-2 -10 -3 19.63 2.63
2 10 3 16.46 2.02
2 10 3 20.92 2.28
2 10 3 14.45 2.62
-3 -10 -3 1.44 1.56
-3 -10 -3 -0.36 1.45
3 10 3 0 1.44
3 10 3 1.71 1.41
3 10 3 0.13 0.9
-4 -10 -3 15.43 2.5
-4 -10 -3 18.04 2.61
4 10 3 14.83 2.47
4 10 3 14.47 2.68
4 10 3 16.34 1.59
-5 -10 -3 -1.3 1.37
-5 -10 -3 4.25 1.81
5 10 3 3.61 2.05
5 10 3 2.71 1.65
-6 -10 -3 0.47 1.45
-6 -10 -3 2.69 1.67
6 10 3 1.94 1.79
6 10 3 3.26 1.89
-7 -10 -3 6.2 1.96
-7 -10 -3 5.41 2.1
7 10 3 11.28 2.69
7 10 3 6.06 2.55
-8 -10 -3 2.1 1.6
-8 -10 -3 0.48 1.82
8 10 3 0.64 2.07
8 10 3 -3 1.58
-9 -10 -3 0.79 1.65
-9 -10 -3 -0.11 1.76
9 10 3 -1.68 2.02
9 10 3 0.71 2.01
-10 -10 -3 3.75 2.31
-10 -10 -3 2.24 1.48
10 10 3 1.1 2.14
10 10 3 -3.38 1.99
4 -11 -3 -4.38 1.31
4 -11 -3 -1.44 1.1
-4 11 3 1.09 2.06
-4 11 3 5.43 2.13
3 -11 -3 -1.39 1.68
3 -11 -3 3.4 1.64
-3 11 3 -3.07 1.37
-3 11 3 1.95 1.93
2 -11 -3 0.62 1.23
2 -11 -3 -2.19 1.42
-2 11 3 2.66 2.17
-2 11 3 -2.47 1.56
1 -11 -3 7.76 2.25
1 -11 -3 3.43 1.71
-1 11 3 2.85 2.02
-1 11 3 5.67 2.14
0 -11 -3 11.53 2.38
0 -11 -3 10.79 2.43
0 11 3 13.78 2.91
0 11 3 9.27 2.26
-1 -11 -3 2.64 1.68
-1 -11 -3 3.08 1.75
1 11 3 0.47 1.74
1 11 3 2.38 1.56
-2 -11 -3 10.71 2.35
-2 -11 -3 10.69 2.54
2 11 3 15.64 2.2
2 11 3 9.65 2.47
2 11 3 10.61 1.72
-3 -11 -3 7.52 2.17
-3 -11 -3 4.2 1.86
3 11 3 5.08 1.31
3 11 3 4.92 2.06
3 11 3 3.28 1.56
-4 -11 -3 16.65 2.75
-4 -11 -3 13 2.7
4 11 3 15.5 2.56
4 11 3 14.24 2.91
-5 -11 -3 9.03 2.17
-5 -11 -3 5.59 2.14
5 11 3 12.39 2.46
5 11 3 6.93 2.37
-6 -11 -3 0.45 1.53
-6 -11 -3 0.09 1.58
6 11 3 -0.98 1.85
6 11 3 1.64 1.82
-7 -11 -3 10.89 2.48
-7 -11 -3 9.99 2.67
7 11 3 12.39 2.77
7 11 3 5.77 2.42
-8 -11 -3 3.98 2.44
-8 -11 -3 1.99 1.68
8 11 3 -3.02 2.06
8 11 3 3 2.23
-9 -11 -3 1.58 2.11
-9 -11 -3 4.56 1.87
9 11 3 0.53 2.25
9 11 3 4.29 2.4
3 -12 -3 -0.28 1.77
-3 12 3 2.1 2.1
-3 12 3 3.8 2.24
2 -12 -3 -0.41 1.76
2 -12 -3 4.61 1.44
-2 12 3 -1.66 1.78
-2 12 3 3.39 1.88
1 -12 -3 1.28 1.35
1 -12 -3 2.3 1.86
-1 12 3 1.51 1.7
-1 12 3 0.99 1.65
0 -12 -3 6.94 2.3
0 -12 -3 3.2 1.71
0 12 3 7.2 2.4
0 12 3 4.04 1.7
-1 -12 -3 0.73 1.89
-1 -12 -3 1.72 1.42
1 12 3 0.07 1.23
1 12 3 0.68 1.9
-2 -12 -3 1.07 1.61
-2 -12 -3 5.4 2.11
2 12 3 2.17 2.01
2 12 3 0.48 1.21
-3 -12 -3 11.8 2.72
-3 -12 -3 10.91 2.57
3 12 3 8.45 1.85
3 12 3 7.73 2.47
-4 -12 -3 3.72 1.95
-4 -12 -3 3.16 1.83
4 12 3 4.62 1.76
4 12 3 2.37 2.26
-5 -12 -3 6.74 2.47
-5 -12 -3 6.75 2.28
5 12 3 7.11 2.52
5 12 3 5.62 2.07
-6 -12 -3 5.76 2.07
-6 -12 -3 1.74 1.97
6 12 3 2.11 2.18
6 12 3 1.52 2.19
-7 -12 -3 23.37 3.43
-7 -12 -3 13.72 2.87
7 12 3 16.84 3.3
7 12 3 13.18 3
-8 -12 -3 17.43 2.86
-8 -12 -3 18.89 3.57
8 12 3 16.25 3.36
8 12 3 12.72 3.08
1 -13 -3 1.89 1.96
1 -13 -3 0.73 1.3
-1 13 3 4.22 1.82
-1 13 3 1.7 2.2
0 -13 -3 6.63 1.82
0 -13 -3 5.67 2.22
0 13 3 5.82 2.01
0 13 3 6.14 2.45
-1 -13 -3 -2.18 1.66
-1 -13 -3 0.82 1.37
1 13 3 -1.9 1.83
1 13 3 0.02 1.47
-2 -13 -3 11.54 2.68
-2 -13 -3 12.75 2.63
2 13 3 7.08 2.74
-3 -13 -3 4.06 2.08
-3 -13 -3 1.99 1.55
3 13 3 5.59 2.54
-4 -13 -3 1.52 1.79
-4 -13 -3 -4.31 1.09
4 13 3 0.52 1.99
-5 -13 -3 22.1 3.21
-5 -13 -3 20.35 3.18
5 13 3 23.44 3.12
5 13 3 16.68 3.44
-6 -13 -3 2.86 1.9
-6 -13 -3 5.61 2.34
6 13 3 7.18 2.42
6 13 3 9.99 2.99
-7 -13 -3 5.21 1.89
-7 -13 -3 1.89 1.71
7 13 3 -0.06 2.13
7 13 3 -1.37 1.99
2 14 3 1.87 2.28
-3 -14 -3 24.36 3.02
-3 -14 -3 11.78 2.84
3 14 3 15.31 3.31
-4 -14 -3 4.88 2.26
-4 -14 -3 2.63 1.8
4 14 3 8.69 2.67
6 13 -4 1.9 2.23
6 13 -4 3.08 1.97
-6 -13 4 2.1 2.05
5 13 -4 1.53 1.82
5 13 -4 0.04 1.86
-5 -13 4 6.32 2.48
4 13 -4 4.05 1.95
4 13 -4 -0.5 1.56
-4 -13 4 1.6 1.9
3 13 -4 0.06 1.65
3 13 -4 6.46 2.25
-3 -13 4 1.72 1.78
2 13 -4 14.69 2.86
2 13 -4 17.03 3.1
-2 -13 4 14.91 3.1
1 13 -4 9.92 2.24
1 13 -4 8.28 2.67
-1 -13 4 8.62 2.28
-1 -13 4 7.9 2.54
0 13 -4 1.96 2
0 -13 4 0.15 1.39
0 -13 4 1.5 1.81
-1 13 -4 9.51 2.64
1 -13 4 11.86 2.53
1 -13 4 14.48 3.12
7 12 -4 13.05 3.16
7 12 -4 14.75 2.31
-7 -12 4 6.89 2.17
-7 -12 4 9.51 2.79
6 12 -4 5.53 2.5
6 12 -4 1.07 1.57
-6 -12 4 1.68 2.05
-6 -12 4 3.44 1.54
5 12 -4 6.69 2.13
5 12 -4 9.87 2.69
-5 -12 4 6.09 2.27
-5 -12 4 8.27 2.03
4 12 -4 43.92 4.17
4 12 -4 47.83 3.83
-4 -12 4 36.54 4
3 12 -4 4.31 1.93
3 12 -4 8.79 2.5
-3 -12 4 9.37 2.61
2 12 -4 2.75 1.89
2 12 -4 4.91 1.95
-2 -12 4 3.76 1.51
-2 -12 4 4.08 2.06
1 12 -4 20.69 3.19
1 12 -4 21.57 2.96
-1 -12 4 16.42 3.03
-1 -12 4 18.35 2.82
0 12 -4 1.17 1.48
0 12 -4 2.99 1.9
0 -12 4 4.58 2.19
0 -12 4 1.13 1.6
-1 12 -4 0.98 1.92
-1 12 -4 5.58 1.8
1 -12 4 6.89 2.24
1 -12 4 4.96 2.24
-2 12 -4 1.42 1.76
2 -12 4 -0.22 1.65
2 -12 4 0.01 1.77
-3 12 -4 3.98 2.25
3 -12 4 2.13 2.18
3 -12 4 -0.21 1.73
9 11 -4 2.74 2.35
-9 -11 4 9.3 2.37
-9 -11 4 6.81 2.71
8 11 -4 2.73 2.37
-8 -11 4 -0.12 1.81
-8 -11 4 1.75 1.68
7 11 -4 6.21 1.67
7 11 -4 5.31 2.26
-7 -11 4 6.95 1.98
-7 -11 4 2.54 2.23
6 11 -4 21.6 2.6
6 11 -4 15.58 3.31
-6 -11 4 20.54 2.64
-6 -11 4 18.52 3.29
5 11 -4 0.66 2.01
5 11 -4 7.2 2.02
-5 -11 4 5.5 2.15
-5 -11 4 4.03 1.69
4 11 -4 3.5 1.72
4 11 -4 0.81 1.77
-4 -11 4 0.7 1.63
-4 -11 4 -0.04 1.14
3 11 -4 23.39 2.97
3 11 -4 24.13 3.24
-3 -11 4 26.49 3.34
-3 -11 4 13.61 2.01
-3 -11 4 18.85 2.05
2 11 -4 1.77 1.61
2 11 -4 -0.14 1.42
-2 -11 4 -2.33 0.92
-2 -11 4 1.08 1.62
1 11 -4 21 3.08
1 11 -4 14.72 2.64
-1 -11 4 19.18 2.66
-1 -11 4 18.8 3.11
0 11 -4 -1.77 1.09
0 11 -4 0.46 1.49
0 -11 4 4.9 2.04
0 -11 4 -2.26 1.18
-1 11 -4 10.57 2.19
-1 11 -4 13.95 2.74
1 -11 4 9.28 2.39
1 -11 4 7.36 2.49
-2 11 -4 0.53 1.14
-2 11 -4 0.19 1.57
2 -11 4 -1.43 1.52
2 -11 4 -0.71 1.51
-3 11 -4 -1.52 1.73
3 -11 4 2.13 2.05
3 -11 4 1.86 1.82
-4 11 -4 5.5 2.5
4 -11 4 5.48 2.22
4 -11 4 4.52 2.42
9 10 -4 -0.31 2.37
-9 -10 4 -1.01 1.69
-9 -10 4 3.54 1.88
8 10 -4 31.54 4.07
-8 -10 4 31.6 3.47
-8 -10 4 36.15 4.08
7 10 -4 -2.34 0.88
7 10 -4 0.96 1.86
-7 -10 4 -0.68 1.61
-7 -10 4 0.32 1.5
6 10 -4 2.32 2.02
6 10 -4 2.98 1.38
-6 -10 4 2.31 1.84
-6 -10 4 2.59 1.63
5 10 -4 26.89 3.44
5 10 -4 26.39 2.63
-5 -10 4 28.67 2.79
-5 -10 4 23.91 3.31
4 10 -4 11.77 2.61
4 10 -4 8.79 2.07
-4 -10 4 9.51 2.34
-4 -10 4 10.71 1.98
-4 -10 4 10.88 1.67
3 10 -4 17.21 2.85
3 10 -4 17.19 2.63
-3 -10 4 14.86 1.81
-3 -10 4 13.61 1.95
-3 -10 4 23.01 2.99
2 10 -4 -0.01 1.38
2 10 -4 1.91 1.59
-2 -10 4 -0.72 1.28
-2 -10 4 1.08 1.14
-2 -10 4 0.55 0.85
1 10 -4 1.12 1.34
1 10 -4 0.91 1.39
-1 -10 4 2.33 1.47
-1 -10 4 0.97 0.75
-1 -10 4 1.32 1.51
0 10 -4 3.87 1.61
0 10 -4 6.56 2.07
0 -10 4 3.56 1.6
0 -10 4 3.09 1.77
-1 10 -4 7.39 1.84
-1 10 -4 10.01 2.39
1 -10 4 7.52 2.14
1 -10 4 9.59 2.33
-2 10 -4 29.76 3.53
-2 10 -4 28.19 2.79
2 -10 4 34.46 3.45
2 -10 4 33.98 3.45
-3 10 -4 1.94 1.83
-3 10 -4 1.01 1.21
3 -10 4 -2.41 1.16
3 -10 4 2.91 1.7
-4 10 -4 -0.67 1.72
4 -10 4 -0.22 1.69
4 -10 4 2.34 1.74
-5 10 -4 4.76 2.32
5 -10 4 7.35 2.53
5 -10 4 9.14 2.51
-6 10 -4 0.07 1.89
6 -10 4 3.63 1.97
6 -10 4 1.37 1.8
10 9 -4 4.58 2.63
-10 -9 4 8.91 2.79
9 9 -4 4.76 2.61
-9 -9 4 2.7 2.06
8 9 -4 7.57 2.52
-8 -9 4 3.73 1.88
-8 -9 4 5.91 2.3
7 9 -4 13.27 2.01
7 9 -4 13.39 2.96
-7 -9 4 21.41 3.26
-7 -9 4 20.19 2.93
6 9 -4 7.7 1.71
6 9 -4 4.43 1.94
-6 -9 4 5.82 1.83
-6 -9 4 5.27 1.95
5 9 -4 32.23 3.31
5 9 -4 34.68 2.69
-5 -9 4 35.72 2.95
-5 -9 4 36.24 3.49
-5 -9 4 30.1 1.98
4 9 -4 1.96 1.31
4 9 -4 0.38 1.39
-4 -9 4 -1.08 0.96
-4 -9 4 0.04 1.35
-4 -9 4 0.58 0.93
3 9 -4 5.73 1.91
3 9 -4 10.42 2.06
-3 -9 4 11.79 1.76
-3 -9 4 10.6 1.73
-3 -9 4 12.12 2.32
2 9 -4 3.67 1.5
2 9 -4 3.26 1.64
-2 -9 4 5.87 1.56
-2 -9 4 4.63 1.22
-2 -9 4 5.35 1.84
1 9 -4 32.18 2.98
1 9 -4 32.94 2.96
-1 -9 4 30.99 1.73
-1 -9 4 28.42 2.59
-1 -9 4 27.03 2.89
0 9 -4 42.05 3.13
0 9 -4 34.24 3.15
0 -9 4 33.83 1.41
0 -9 4 36.59 3.3
0 -9 4 36.15 3.02
-1 9 -4 0.2 1.21
-1 9 -4 2.24 1.27
1 -9 4 -0.85 1.19
1 -9 4 0.96 1.41
-2 9 -4 18.9 2.79
-2 9 -4 21.88 2.48
2 -9 4 17.73 2.76
2 -9 4 17.23 2.85
-3 9 -4 2.14 1.63
-3 9 -4 0.57 1.28
3 -9 4 0.09 1.4
3 -9 4 -0.03 1.58
-4 9 -4 3.67 1.56
-4 9 -4 3.59 1.94
4 -9 4 1.52 1.82
4 -9 4 4.24 2.08
-5 9 -4 10.54 2.59
5 -9 4 5.45 2.19
5 -9 4 7.57 2.39
-6 9 -4 2.8 2.01
6 -9 4 2.07 1.75
6 -9 4 4.05 2.24
-7 9 -4 8.04 2.84
7 -9 4 13.46 3.05
7 -9 4 9.11 2.67
10 8 -4 2.13 2.28
10 8 -4 0.72 2.05
-10 -8 4 -2.95 1.81
9 8 -4 0.78 1.87
-9 -8 4 -2.7 1.67
8 8 -4 24.34 3.69
-8 -8 4 30.05 3.42
-8 -8 4 26.64 3.41
7 8 -4 5.32 1.37
7 8 -4 7.1 2.37
-7 -8 4 -0.03 1.31
-7 -8 4 2.75 1.83
6 8 -4 15.02 1.92
6 8 -4 15.07 2.77
-6 -8 4 16.49 2.51
-6 -8 4 13.67 2.53
-6 -8 4 13.38 1.45
5 8 -4 3.11 1.3
5 8 -4 2.72 1.69
-5 -8 4 3.62 1.39
-5 -8 4 3.93 1.62
-5 -8 4 2.24 0.98
4 8 -4 -1.26 1.19
4 8 -4 -0.55 0.99
-4 -8 4 0.66 1.2
-4 -8 4 0.34 0.79
-4 -8 4 -1.23 0.95
3 8 -4 78.7 4.06
3 8 -4 79.12 3.57
-3 -8 4 86.11 3.37
-3 -8 4 83.82 4.1
-3 -8 4 85.65 3.33
2 8 -4 55.8 3.2
2 8 -4 54.7 3.44
-2 -8 4 51.88 3.46
-2 -8 4 47.49 2.8
-2 -8 4 49.97 2.36
1 8 -4 0 1.13
1 8 -4 0.11 0.41
1 8 -4 -0.87 1.07
-1 -8 4 0.14 0.66
-1 -8 4 1.01 1.26
-1 -8 4 0.1 1.14
0 8 -4 3.91 1.61
0 8 -4 4.95 0.64
0 8 -4 3.53 1.54
0 -8 4 5.14 0.8
0 -8 4 6.69 1.64
0 -8 4 6.73 1.75
-1 8 -4 -0.27 1.04
-1 8 -4 -0.15 1.14
1 -8 4 -0.05 1.2
1 -8 4 1.57 1.33
-2 8 -4 20.75 2.33
-2 8 -4 17.2 2.66
2 -8 4 18.9 2.45
2 -8 4 18.69 2.67
-3 8 -4 22.19 2.47
-3 8 -4 22.79 2.94
3 -8 4 22.15 2.81
3 -8 4 20.8 2.8
-4 8 -4 1.69 1.63
-4 8 -4 1.1 1.4
4 -8 4 1.02 1.53
4 -8 4 1.84 1.71
-5 8 -4 26.54 3.26
-5 8 -4 23.04 2.54
5 -8 4 24.98 3.33
5 -8 4 22.01 3.07
-6 8 -4 0.82 1.88
6 -8 4 -0.88 1.78
6 -8 4 1.46 1.71
-7 8 -4 0.12 1.9
7 -8 4 0.22 1.58
7 -8 4 0.6 1.59
-8 8 -4 -0.7 1.75
8 -8 4 5.6 2.22
8 -8 4 2.39 1.9
11 7 -4 0.74 1.97
11 7 -4 -0.33 2.02
-11 -7 4 0.59 1.95
10 7 -4 17.33 3.49
10 7 -4 17.31 3.64
-10 -7 4 14.49 3.03
9 7 -4 1.97 2.11
9 7 -4 2.4 1.89
-9 -7 4 0.49 1.83
8 7 -4 10.28 2.57
-8 -7 4 11.92 2.73
7 7 -4 2.25 0.97
7 7 -4 -0.76 1.6
-7 -7 4 2.11 1.65
-7 -7 4 2.26 1.7
-7 -7 4 2.03 0.77
6 7 -4 5.08 1.24
6 7 -4 5.5 1.96
-6 -7 4 2.82 1.74
-6 -7 4 4.25 1.62
-6 -7 4 5 1.12
5 7 -4 92.9 3.29
5 7 -4 94.28 4.52
5 7 -4 87.94 2.88
-5 -7 4 89.8 3.04
-5 -7 4 92.59 4.42
-5 -7 4 89.69 4.05
4 7 -4 26.09 2.11
4 7 -4 24.94 2.59
-4 -7 4 21.4 2.46
-4 -7 4 23.98 1.87
-4 -7 4 20.34 2.14
3 7 -4 1.98 1.35
3 7 -4 2.26 1.11
-3 -7 4 3.39 1.15
-3 -7 4 2.62 1.36
-3 -7 4 1.75 1
2 7 -4 8.99 1.05
2 7 -4 13.5 1.93
2 7 -4 10.23 1.99
-2 -7 4 10.7 1.42
-2 -7 4 11.23 1.72
-2 -7 4 13.69 2.16
1 7 -4 1.07 1.09
1 7 -4 1.47 0.57
1 7 -4 0.95 1.08
-1 -7 4 0.76 1
-1 -7 4 1.91 0.76
-1 -7 4 2.56 1.26
0 7 -4 42.44 2.8
0 7 -4 45.08 1.38
0 7 -4 48.4 3.06
0 -7 4 53.25 3.05
0 -7 4 42.34 2.88
-1 7 -4 55.8 3.33
-1 7 -4 57.22 3.13
1 -7 4 58.62 3.32
1 -7 4 51.82 3.2
-2 7 -4 4.96 1.57
-2 7 -4 3.6 1.37
2 -7 4 4.92 1.5
2 -7 4 3 1.48
-3 7 -4 48.85 3.49
-3 7 -4 45.86 3.1
3 -7 4 47.77 3.51
3 -7 4 53.53 3.4
-4 7 -4 8.04 2.05
-4 7 -4 6.45 1.75
4 -7 4 4.88 1.76
4 -7 4 10.44 2.16
-5 7 -4 4.03 1.55
-5 7 -4 4.52 1.88
5 -7 4 4.66 1.92
5 -7 4 3.64 1.83
-6 7 -4 1.84 1.22
-6 7 -4 4.86 2.09
6 -7 4 1.55 1.73
6 -7 4 3.35 1.78
-7 7 -4 10.33 2.04
-7 7 -4 8.59 2.48
7 -7 4 3.77 2.06
7 -7 4 5.25 2.18
-8 7 -4 13.95 3.06
8 -7 4 14.29 3.02
8 -7 4 11.8 2.65
11 6 -4 1.81 2.15
11 6 -4 1.66 1.96
-11 -6 4 -1.73 1.65
10 6 -4 27.63 3.8
10 6 -4 22.67 3.74
-10 -6 4 24.73 3.76
9 6 -4 -0.66 1.68
9 6 -4 -1.74 1.74
-9 -6 4 0.06 1.8
8 6 -4 7.27 2.27
8 6 -4 11.47 2.56
-8 -6 4 11.55 2.67
-8 -6 4 9.57 1.34
7 6 -4 77.32 4.48
7 6 -4 74.42 2.57
-7 -6 4 66.37 4.12
-7 -6 4 76.43 2.84
6 6 -4 0.23 0.8
6 6 -4 0.99 0.63
6 6 -4 3.15 1.58
-6 -6 4 2.05 1.5
-6 -6 4 1.49 0.82
-6 -6 4 1.31 0.64
-6 -6 4 -0.44 1.08
5 6 -4 1.24 0.67
5 6 -4 2.34 1.44
5 6 -4 1.76 0.93
-5 -6 4 0.51 1.17
-5 -6 4 1.39 1.28
-5 -6 4 1.35 0.83
-5 -6 4 0.42 0.67
4 6 -4 7.63 1.81
4 6 -4 8.07 1.31
4 6 -4 7.24 1.11
-4 -6 4 8.41 1.37
-4 -6 4 7.66 1.57
-4 -6 4 5.96 1.66
3 6 -4 31.23 2.08
3 6 -4 28.75 2.49
-3 -6 4 30.93 2.1
-3 -6 4 31.1 2.49
-3 -6 4 28.39 2.03
2 6 -4 50.84 2.56
2 6 -4 52.19 3
2 6 -4 46.95 2.04
-2 -6 4 51.06 2.89
-2 -6 4 47.24 2.48
-2 -6 4 50.12 2.23
1 6 -4 10.84 0.99
1 6 -4 12.46 1.75
1 6 -4 11.37 1.82
-1 -6 4 11.42 1.66
-1 -6 4 12.38 1.88
0 6 -4 24.21 2.21
0 6 -4 23.05 0.96
0 6 -4 21.68 2.17
0 6 -4 23.88 1
0 -6 4 20.53 2.08
0 -6 4 23.52 2.15
-1 6 -4 21.73 2.13
-1 6 -4 18.65 2.2
1 -6 4 21.54 2.2
1 -6 4 22.61 2.12
-2 6 -4 -0.74 0.75
-2 6 -4 1.61 1.21
2 -6 4 0.46 1.09
2 -6 4 2.42 1.2
-3 6 -4 0.09 1.07
-3 6 -4 3.24 1.33
3 -6 4 1.38 1.36
3 -6 4 1.9 1.25
-4 6 -4 4.36 1.52
-4 6 -4 5.11 1.53
4 -6 4 1.88 1.42
4 -6 4 7.07 1.69
-5 6 -4 1.52 1.42
-5 6 -4 0.48 1.24
5 -6 4 -0.4 1.28
5 -6 4 1.25 1.59
-6 6 -4 74.21 3.86
-6 6 -4 72.67 4.51
6 -6 4 69.09 4.06
6 -6 4 72.57 4.58
-7 6 -4 -0.33 1.52
-7 6 -4 -2.26 1.01
7 -6 4 -0.53 1.42
7 -6 4 -0.33 1.45
-8 6 -4 -0.1 1.72
-8 6 -4 3.53 1.36
8 -6 4 1.37 1.77
8 -6 4 0.03 1.51
-9 6 -4 8.93 2.67
9 -6 4 13.36 3.1
9 -6 4 13.63 2.77
11 5 -4 4.22 2.19
11 5 -4 2.31 2.44
-11 -5 4 -0.46 1.93
10 5 -4 11.81 2.85
10 5 -4 18.33 3.39
-10 -5 4 10.09 2.65
9 5 -4 35.79 3.72
9 5 -4 24.62 3.4
-9 -5 4 30.21 2.24
-9 -5 4 34.21 3.86
8 5 -4 1.04 1.54
8 5 -4 2.78 1.9
-8 -5 4 0.65 0.81
-8 -5 4 0.23 1.68
7 5 -4 11.11 2.33
7 5 -4 13.24 2.33
7 5 -4 10.34 1.14
-7 -5 4 11.55 2.3
-7 -5 4 11.22 1.6
6 5 -4 0.12 1.27
6 5 -4 1.34 0.71
6 5 -4 -0.09 1.13
-6 -5 4 1.27 0.85
-6 -5 4 -0.06 0.47
-6 -5 4 2.67 1.61
5 5 -4 13.71 2.24
5 5 -4 14.14 1.31
5 5 -4 12.32 1.24
-5 -5 4 18.98 2.27
-5 -5 4 13.81 1.65
-5 -5 4 14.19 1.12
4 5 -4 74.91 2.44
4 5 -4 78.12 2.7
4 5 -4 77.42 3.58
-4 -5 4 74.61 2.44
-4 -5 4 72.19 3.48
-4 -5 4 78.99 2.85
3 5 -4 10.3 1.34
3 5 -4 11.22 1.79
3 5 -4 10.52 1.32
-3 -5 4 12.2 1.22
-3 -5 4 13.15 1.61
-3 -5 4 14.38 1.84
2 5 -4 36.74 2.42
2 5 -4 30.85 1.76
2 5 -4 31.57 1.71
2 5 -4 32.9 1.95
-2 -5 4 33.7 2.07
-2 -5 4 35.08 2.4
-2 -5 4 32.5 1.8
1 5 -4 10.96 1.06
1 5 -4 11.04 1.74
1 5 -4 11.09 1.01
1 5 -4 12.53 1.56
-1 -5 4 9.32 1.56
-1 -5 4 9.78 1.6
0 5 -4 42.1 2.41
0 5 -4 41.69 1.24
0 5 -4 41.45 1.2
0 5 -4 40.72 2.52
0 -5 4 45.18 2.51
0 -5 4 40.34 2.45
-1 5 -4 1.59 0.94
-1 5 -4 0.94 1.03
1 -5 4 1.09 0.98
1 -5 4 1.65 1.09
-2 5 -4 2.1 1.14
-2 5 -4 1.4 0.95
2 -5 4 1.81 1.12
2 -5 4 1.1 1.03
-3 5 -4 16.81 2.01
-3 5 -4 12.26 1.94
3 -5 4 10.81 1.87
3 -5 4 15.98 1.92
-4 5 -4 21.45 2.34
-4 5 -4 28.14 2.66
4 -5 4 29.22 2.48
4 -5 4 26.43 2.72
-5 5 -4 2.08 1.29
-5 5 -4 1.16 1.34
5 -5 4 0.66 0.44
5 -5 4 1.09 1.27
5 -5 4 0.05 1.22
-6 5 -4 6.65 1.74
-6 5 -4 1.27 1.44
6 -5 4 2.82 1.7
6 -5 4 2 0.77
6 -5 4 2.35 1.48
-7 5 -4 2.32 1.52
-7 5 -4 0.69 1.47
7 -5 4 0.03 1.57
7 -5 4 2 1.53
-8 5 -4 24.75 3.61
-8 5 -4 25.62 2.85
8 -5 4 26.57 3.09
8 -5 4 29.42 3.62
-9 5 -4 1.26 1.98
-9 5 -4 6.18 1.93
9 -5 4 4.47 1.78
9 -5 4 1.45 1.84
-10 5 -4 2.93 1.91
10 -5 4 2.54 2.21
10 -5 4 6.67 1.88
11 4 -4 11.68 3.21
11 4 -4 10.07 2.66
-11 -4 4 4.05 2.46
10 4 -4 3.67 2.35
10 4 -4 2.53 2.13
-10 -4 4 3.31 2.1
9 4 -4 2.17 1.9
9 4 -4 -1.51 1.48
-9 -4 4 1.67 1.9
-9 -4 4 1.97 1.24
8 4 -4 0.64 1.48
8 4 -4 0 1.49
-8 -4 4 -1.06 1.45
-8 -4 4 -0.68 0.85
7 4 -4 17.38 2.71
7 4 -4 18.58 2.72
-7 -4 4 20.06 2.71
-7 -4 4 18.22 1.95
6 4 -4 72.55 1.81
6 4 -4 70.53 3.74
6 4 -4 74.53 3.83
-6 -4 4 78.43 3.13
-6 -4 4 76.98 3.95
5 4 -4 1.87 1.24
5 4 -4 2.41 0.6
5 4 -4 1.86 1.15
-5 -4 4 1.77 0.48
-5 -4 4 2.25 1.31
-5 -4 4 3.8 1.1
4 4 -4 9.42 1
4 4 -4 10.07 1.25
4 4 -4 7.96 1.56
4 4 -4 10.93 1.7
-4 -4 4 10.74 0.95
-4 -4 4 8.73 1.45
-4 -4 4 10.91 1.78
3 4 -4 25.03 1.66
3 4 -4 22.39 1.82
3 4 -4 24.71 2.18
3 4 -4 25.32 1.43
-3 -4 4 25.69 1.34
-3 -4 4 23.55 2.03
-3 -4 4 24.44 1.8
2 4 -4 49.58 2.13
2 4 -4 49.9 2.05
2 4 -4 49.28 2.23
2 4 -4 46.61 2.58
2 4 -4 48.57 1.97
-2 -4 4 48.71 2.31
-2 -4 4 52.09 2.59
-2 -4 4 47.15 1.84
1 4 -4 13.97 1.61
1 4 -4 13.9 1.12
1 4 -4 14.49 1.43
1 4 -4 16.48 1.21
1 4 -4 14.61 1.45
-1 -4 4 15.37 1.6
-1 -4 4 14.84 1.67
-1 -4 4 9.45 1.05
0 4 -4 55.43 2.49
0 4 -4 48.31 1.36
0 4 -4 47.64 1.35
0 4 -4 49.27 2.54
0 -4 4 48.4 2.33
0 -4 4 49.39 2.49
-1 4 -4 35.24 2.27
-1 4 -4 34.35 2.16
1 -4 4 35.59 2.35
1 -4 4 34.28 1.99
-2 4 -4 28.87 2.22
-2 4 -4 30.02 2.17
2 -4 4 27.94 1.97
2 -4 4 27.44 2.25
-3 4 -4 50.97 2.79
-3 4 -4 49.9 2.85
3 -4 4 51 2.92
3 -4 4 49.48 2.56
-4 4 -4 3.62 1.4
-4 4 -4 0.52 1.06
4 -4 4 2.11 1.11
4 -4 4 0.88 1.16
-5 4 -4 9.91 1.89
-5 4 -4 10.78 1.96
5 -4 4 10.15 1.97
5 -4 4 11.2 0.97
5 -4 4 9.04 1.04
5 -4 4 11.97 1.9
-6 4 -4 199.92 6.45
-6 4 -4 195.13 5.98
6 -4 4 208.41 5.86
6 -4 4 190.06 6.44
6 -4 4 198.34 4.21
-7 4 -4 0.52 1.24
-7 4 -4 0.15 1.49
7 -4 4 -1.72 0.64
7 -4 4 1.58 1.6
7 -4 4 0.77 1.27
-8 4 -4 5.09 1.86
-8 4 -4 4.02 2
8 -4 4 6.7 1.96
8 -4 4 6.18 1.36
8 -4 4 6.58 2.09
-9 4 -4 8.26 2.3
-9 4 -4 4.52 2.14
9 -4 4 4.01 2.14
9 -4 4 3.69 1.61
-10 4 -4 4.74 2.1
-10 4 -4 9.3 2.01
10 -4 4 5.54 2.36
10 -4 4 6.5 2.02
11 3 -4 9.88 3
11 3 -4 7.61 2.24
-11 -3 4 2.98 2.32
10 3 -4 3.78 2.13
10 3 -4 3.93 2.11
-10 -3 4 2.99 2.26
-10 -3 4 5.4 1.67
9 3 -4 10.67 2.63
9 3 -4 11.77 2.54
-9 -3 4 8.33 2.34
-9 -3 4 9.91 1.93
8 3 -4 7.43 2.21
8 3 -4 10.44 2.33
-8 -3 4 9.2 1.82
-8 -3 4 9.36 2.23
7 3 -4 5.87 1.79
7 3 -4 5 1.93
-7 -3 4 6.43 1.54
-7 -3 4 4.08 1.73
6 3 -4 3.92 1.5
6 3 -4 7.86 1.79
-6 -3 4 6.52 1.63
-6 -3 4 5.99 1.45
5 3 -4 2.19 1.21
5 3 -4 1.98 1.22
-5 -3 4 1.25 1.15
-5 -3 4 2.33 1.06
4 3 -4 18.31 1.46
4 3 -4 20.81 2.03
4 3 -4 17.56 1.94
-4 -3 4 20.28 2.04
-4 -3 4 19.22 1.82
3 3 -4 72.08 2.54
3 3 -4 71.74 2.86
3 3 -4 71.45 1.72
3 3 -4 68.17 2.95
-3 -3 4 71.61 1.72
-3 -3 4 71.51 2.98
-3 -3 4 70.84 2.68
2 3 -4 -0.04 0.81
2 3 -4 -0.03 0.54
2 3 -4 0.52 0.66
2 3 -4 -0.21 0.68
-2 -3 4 -0.36 0.74
-2 -3 4 1.05 0.87
-2 -3 4 0.39 0.5
1 3 -4 30.74 1.62
1 3 -4 29.89 1.49
1 3 -4 28.11 1.89
1 3 -4 30.81 1.47
1 3 -4 31.09 1.78
1 3 -4 29.92 1.82
-1 -3 4 28.7 1.51
-1 -3 4 28.07 1.84
-1 -3 4 27.21 1.79
0 3 -4 0.61 0.69
0 3 -4 0.14 0.46
0 3 -4 1.89 0.95
0 3 -4 1.02 0.74
0 3 -4 0.57 0.76
0 3 -4 1.15 0.51
0 -3 4 2.46 0.92
0 -3 4 0.77 0.74
0 -3 4 0.63 0.89
-1 3 -4 1.95 0.99
-1 3 -4 2.08 0.91
1 -3 4 3.91 0.96
1 -3 4 2.48 0.98
-2 3 -4 0.02 0.65
-2 3 -4 -0.78 0.7
-2 3 -4 0.4 0.89
2 -3 4 0.24 0.9
2 -3 4 1.64 0.81
-3 3 -4 37.78 2.45
-3 3 -4 40.47 2.48
-3 3 -4 41.28 2.06
3 -3 4 43.17 2.55
3 -3 4 39.83 2.12
-4 3 -4 47.03 2.8
-4 3 -4 50.01 2.85
4 -3 4 46.96 2.39
4 -3 4 49.72 2.89
4 -3 4 48.54 1.57
-5 3 -4 10.92 1.88
-5 3 -4 8.15 1.75
5 -3 4 7.84 0.98
5 -3 4 7.97 1.47
5 -3 4 8.62 1.8
5 -3 4 8.73 1.2
-6 3 -4 21.64 2.57
-6 3 -4 22.15 2.59
6 -3 4 22.29 2.68
6 -3 4 22.28 1.76
6 -3 4 21.29 2.19
6 -3 4 18.91 1.38
-7 3 -4 0.54 1.41
-7 3 -4 2.47 1.44
7 -3 4 0.52 1.2
7 -3 4 -0.58 1.33
7 -3 4 -0.69 0.84
-8 3 -4 18.2 2.77
-8 3 -4 13.97 2.5
8 -3 4 16.24 2.03
8 -3 4 16.03 2.75
8 -3 4 20.58 2.5
-9 3 -4 68.63 4.53
-9 3 -4 67.98 4.34
9 -3 4 66.95 3.41
9 -3 4 69.04 4.54
9 -3 4 64.68 3.83
-10 3 -4 1.78 1.58
10 -3 4 -0.75 1.18
10 -3 4 -1.96 1.51
11 2 -4 5.35 2.53
11 2 -4 6.64 2.15
-11 -2 4 6.03 1.9
-11 -2 4 1.88 1.8
10 2 -4 5.35 2.36
10 2 -4 8.2 2.19
-10 -2 4 6.89 2.02
-10 -2 4 5.87 2.25
9 2 -4 -1.58 1.34
9 2 -4 1.95 1.91
-9 -2 4 2.34 1.65
-9 -2 4 0.79 1.82
8 2 -4 12.27 2.44
8 2 -4 12.21 2.3
-8 -2 4 11.64 2.33
-8 -2 4 12.28 2.07
7 2 -4 1.7 1.5
7 2 -4 -0.11 1.33
-7 -2 4 0.62 1.31
-7 -2 4 -0.27 1.12
6 2 -4 34.65 2.75
6 2 -4 31.62 2.59
-6 -2 4 24.91 2.45
-6 -2 4 33.92 2.46
5 2 -4 24.71 2.2
5 2 -4 23.09 2.27
-5 -2 4 25.24 2.11
-5 -2 4 27.35 2.36
4 2 -4 7.11 1.38
4 2 -4 7.01 1.36
-4 -2 4 6.4 1.4
-4 -2 4 9.29 1.54
3 2 -4 116.09 3.28
3 2 -4 114.44 3.57
3 2 -4 116.37 3.53
-3 -2 4 117.58 3.64
-3 -2 4 113.32 3.44
2 2 -4 103.56 1.98
2 2 -4 101.8 3.24
2 2 -4 99.91 2.92
2 2 -4 101.52 3.04
2 2 -4 104.8 3.03
-2 -2 4 101.72 3.12
-2 -2 4 107.28 3.18
-2 -2 4 98 1.9
-2 -2 4 96.44 3.19
1 2 -4 159.45 3.29
1 2 -4 153.68 3.47
1 2 -4 155.29 3.68
1 2 -4 158.9 2.97
-1 -2 4 149.52 3.8
-1 -2 4 157.85 2.96
-1 -2 4 155.46 3.54
-1 -2 4 157.67 3.29
-1 -2 4 154.08 3.74
0 2 -4 44.66 2.14
0 2 -4 42.92 2.1
0 2 -4 44.49 1.83
0 2 -4 46.01 1.57
0 2 -4 43.69 1.85
0 -2 4 44.17 1.52
0 -2 4 42.92 2.11
0 -2 4 43.68 2.15
0 -2 4 40.44 1.78
-1 2 -4 1.7 0.51
-1 2 -4 1.48 0.64
-1 2 -4 1.66 0.87
-1 2 -4 1.05 0.74
-1 2 -4 0.7 0.73
1 -2 4 0.88 0.74
1 -2 4 0.15 0.66
1 -2 4 1.55 0.95
1 -2 4 0.88 0.47
1 -2 4 -0.18 0.68
-2 2 -4 215.62 4.93
-2 2 -4 207.83 4.66
-2 2 -4 205.72 3.8
-2 2 -4 210.99 3.02
2 -2 4 206.64 4.77
2 -2 4 205.45 3.03
2 -2 4 213.51 3.8
-3 2 -4 34.41 2.35
-3 2 -4 34.88 1.37
-3 2 -4 35.42 2.22
-3 2 -4 38.14 1.77
3 -2 4 38.07 1.35
3 -2 4 35.72 1.78
3 -2 4 36.98 2.34
-4 2 -4 15.12 1.23
-4 2 -4 15.63 1.85
-4 2 -4 14.84 1.95
4 -2 4 18.5 1.63
4 -2 4 18.56 1.91
4 -2 4 17.47 1.19
-5 2 -4 9 1.25
-5 2 -4 9.88 1.88
-5 2 -4 12.6 2
5 -2 4 9.24 1.49
5 -2 4 7.81 1.07
5 -2 4 9.91 1.74
-6 2 -4 116.53 4.55
-6 2 -4 117.39 3.52
-6 2 -4 117.94 4.66
6 -2 4 124.62 4.69
6 -2 4 113.15 3.85
-7 2 -4 20.71 2.69
-7 2 -4 19.22 2.49
7 -2 4 22.07 2.33
7 -2 4 17.65 2.6
-8 2 -4 21.3 2.81
-8 2 -4 12.03 2.37
8 -2 4 19.5 2.41
8 -2 4 15.65 2.6
8 -2 4 19.73 2.15
-9 2 -4 3.27 2.02
9 -2 4 2.52 1.44
9 -2 4 1.95 1.2
9 -2 4 -0.94 1.48
-10 2 -4 6.43 2.24
10 -2 4 6.39 1.91
10 -2 4 4.44 2.22
10 -2 4 9.76 2.08
10 -2 4 6.62 2.16
11 -2 4 7.73 1.8
11 -2 4 7.81 2.19
11 -2 4 5.47 2.36
11 -2 4 12.43 2.59
11 1 -4 2.37 1.48
11 1 -4 -0.48 1.72
-11 -1 4 0.17 1.46
-11 -1 4 -0.62 1.92
10 1 -4 1.86 1.97
10 1 -4 4.19 1.81
-10 -1 4 2.03 2.16
-10 -1 4 1.55 1.56
9 1 -4 2.41 1.66
9 1 -4 3.45 1.98
-9 -1 4 1.61 1.55
-9 -1 4 1.78 1.79
8 1 -4 0.26 1.49
8 1 -4 0.6 1.28
-8 -1 4 1.89 1.48
-8 -1 4 1.26 1.67
7 1 -4 69.13 3.58
7 1 -4 69.92 3.9
-7 -1 4 69.58 3.65
-7 -1 4 75.25 4.18
6 1 -4 6.91 1.62
6 1 -4 7.93 1.77
-6 -1 4 6.93 1.71
-6 -1 4 10.83 1.87
5 1 -4 0.09 0.98
5 1 -4 0.76 1
-5 -1 4 0.47 0.99
-5 -1 4 -0.1 1.05
4 1 -4 11.59 1.68
4 1 -4 10.55 1.52
-4 -1 4 9.66 1.6
-4 -1 4 10.1 1.56
3 1 -4 126.67 3.73
3 1 -4 130.74 3.57
3 1 -4 124.91 3.61
-3 -1 4 129.74 3.8
-3 -1 4 116.27 3.34
-3 -1 4 131.18 3.8
2 1 -4 0.28 0.77
2 1 -4 0.59 0.7
2 1 -4 0.49 0.6
2 1 -4 1.35 0.83
-2 -1 4 0.19 0.82
-2 -1 4 0.38 0.32
-2 -1 4 0.84 0.37
-2 -1 4 -0.02 0.63
-2 -1 4 -0.21 0.73
-2 -1 4 1.3 0.78
1 1 -4 70.68 2.44
1 1 -4 67.31 2.23
1 1 -4 69.53 2.53
-1 -1 4 65.96 2.4
-1 -1 4 67.02 1.72
-1 -1 4 65.66 2.5
-1 -1 4 67.07 2.25
-1 -1 4 70.93 2.29
0 1 -4 36.16 1.55
0 1 -4 35.86 1.46
0 1 -4 36.3 1.57
0 1 -4 35.08 1.87
0 1 -4 34.58 1.92
0 -1 4 37.11 1.56
0 -1 4 34.4 1.85
0 -1 4 36.68 1.54
0 -1 4 35.77 1.95
0 -1 4 35.8 1.57
-1 1 -4 121.18 2.38
-1 1 -4 115.16 2.55
-1 1 -4 119.14 3.29
-1 1 -4 119.89 3.03
1 -1 4 125.91 3.38
1 -1 4 125.31 2.54
1 -1 4 120.34 2.36
1 -1 4 124.06 3.11
-2 1 -4 76.32 1.86
-2 1 -4 79.53 2.95
-2 1 -4 77.35 2.7
-2 1 -4 73.15 2.66
-2 1 -4 74.75 1.99
2 -1 4 75.53 2.83
2 -1 4 77.14 1.84
2 -1 4 77.7 2.05
2 -1 4 78.99 2.73
-3 1 -4 0.28 0.76
-3 1 -4 2.2 0.74
-3 1 -4 1.78 1
-3 1 -4 2.16 0.62
3 -1 4 1.68 0.66
3 -1 4 1.26 0.64
3 -1 4 1.88 0.98
-4 1 -4 325.14 5.31
-4 1 -4 323.65 6.89
4 -1 4 309.49 6.34
4 -1 4 340.85 5.13
4 -1 4 329.47 5.18
4 -1 4 327.11 5.27
-5 1 -4 147.38 3.78
-5 1 -4 133.57 4.38
-5 1 -4 146.49 4.81
5 -1 4 140.37 4.39
5 -1 4 140.57 3.49
5 -1 4 128.83 3.43
5 -1 4 143.87 3.63
-6 1 -4 1.59 1.21
-6 1 -4 2.23 1.09
-6 1 -4 1.05 1.14
6 -1 4 1.67 1
6 -1 4 3.26 1.35
-7 1 -4 10.16 1.74
-7 1 -4 7.7 1.87
7 -1 4 9.13 1.7
7 -1 4 13.29 2.23
-8 1 -4 0.78 1.45
-8 1 -4 0.49 1.2
8 -1 4 0.5 1.73
8 -1 4 0.03 1.37
8 -1 4 -0.68 0.99
-9 1 -4 23.95 3.24
9 -1 4 18.86 3.11
9 -1 4 20.76 2.76
9 -1 4 24.16 2.59
-10 1 -4 10.23 2.61
10 -1 4 8.71 2.03
10 -1 4 9.84 2.15
10 -1 4 9.14 2.27
10 -1 4 11.37 2.47
11 -1 4 1.62 1.28
11 -1 4 2.29 1.54
11 -1 4 1.98 1.13
11 -1 4 -0.62 1.74
11 -1 4 2.3 1.84
11 0 -4 2.05 1.98
-11 0 4 0.35 2.13
-11 0 4 2.66 1.9
10 0 -4 4.37 1.63
10 0 -4 7.74 2.68
-10 0 4 8.98 2.34
-10 0 4 6.98 2.57
9 0 -4 3.29 1.49
9 0 -4 1.18 1.92
-9 0 4 2.27 1.69
-9 0 4 1.08 1.98
8 0 -4 1.23 1.66
8 0 -4 -0.92 1.14
-8 0 4 -1.66 1.13
-8 0 4 0.05 1.38
7 0 -4 7.6 1.95
7 0 -4 6.59 1.64
7 0 -4 5.99 0.92
7 0 -4 6.27 0.83
-7 0 4 5.1 1.67
-7 0 4 6.49 1.88
6 0 -4 46.96 1.33
6 0 -4 48.76 2.73
6 0 -4 46.39 3.19
-6 0 4 48.82 3.09
-6 0 4 50.94 3.18
5 0 -4 37.04 2.27
5 0 -4 40.2 2.76
-5 0 4 39.07 2.61
-5 0 4 32.66 2.6
4 0 -4 8.67 1.44
4 0 -4 9.52 1.67
-4 0 4 8.18 1.21
-4 0 4 6.38 1.47
-4 0 4 7.59 1.51
3 0 -4 7.01 1.39
3 0 -4 5.51 1.07
-3 0 4 5.61 1.01
-3 0 4 5.36 1.21
-3 0 4 6.36 1.36
2 0 -4 1.5 0.78
2 0 -4 1.73 0.89
2 0 -4 1.78 0.78
2 0 -4 1.96 0.83
-2 0 4 0.79 0.42
-2 0 4 1.82 0.98
-2 0 4 1.77 0.88
-2 0 4 1.09 0.77
1 0 -4 94.9 2.8
1 0 -4 89.83 2.78
1 0 -4 90.97 2.66
-1 0 4 96.54 2.59
-1 0 4 93.31 2.01
-1 0 4 95.06 2.95
-1 0 4 91.18 2.72
-1 0 4 95.56 2.72
-1 0 4 92.51 1.95
0 0 -4 67.9 2.41
0 0 -4 71.42 1.84
0 0 -4 72.28 2.42
0 0 -4 73.32 2.34
0 0 4 71.13 2.27
0 0 4 67.21 1.84
0 0 4 67.89 1.98
0 0 4 69.4 2.02
0 0 4 66.62 2.35
0 0 4 69.81 2.5
-1 0 -4 -0.37 0.61
-1 0 -4 0.82 0.75
-1 0 -4 0.33 0.69
-1 0 -4 -0.13 0.36
1 0 4 -0.81 0.62
1 0 4 -0.62 0.72
1 0 4 0.82 0.75
1 0 4 -0.24 0.4
1 0 4 0.61 0.77
1 0 4 -0.94 0.54
-2 0 -4 434.48 6.07
-2 0 -4 432.32 6.7
-2 0 -4 444.07 7.23
-2 0 -4 429.04 4.38
2 0 4 433.1 6.69
2 0 4 406.02 6.98
2 0 4 419.86 5.97
2 0 4 438.53 6.71
2 0 4 446.76 6.71
-3 0 -4 30.92 1.87
-3 0 -4 32.14 2.23
-3 0 -4 34.91 1.76
3 0 4 30.11 2.06
3 0 4 29.73 1.58
3 0 4 30.62 1.07
3 0 4 32.53 2.01
3 0 4 30.82 1.08
-4 0 -4 51.96 2.86
-4 0 -4 54.23 2.31
4 0 4 51.24 2.47
4 0 4 45.89 2.59
4 0 4 51.46 1.65
4 0 4 49.76 2.06
4 0 4 50.95 1.73
-5 0 -4 6.8 1.57
-5 0 -4 6 1.28
5 0 4 7.19 1.11
5 0 4 6.96 1.41
5 0 4 7.27 1.01
5 0 4 5.15 1.42
-6 0 -4 1.19 1.06
-6 0 -4 1.01 1.18
6 0 4 -0.63 0.75
6 0 4 1.5 0.74
6 0 4 2.04 1.15
6 0 4 0.25 1.12
-7 0 -4 120.61 4.28
-7 0 -4 112.92 4.82
7 0 4 113.1 4.61
7 0 4 124.76 4.44
7 0 4 122.27 3.93
-8 0 -4 46.74 3.19
-8 0 -4 41.63 3.47
8 0 4 45.53 3.43
8 0 4 43.27 3.02
8 0 4 45.91 2.86
-9 0 -4 -0.7 1.42
-9 0 -4 0.83 1.49
9 0 4 -0.01 1.36
9 0 4 0.89 1.18
9 0 4 -1.04 1.4
-10 0 -4 12.89 2.51
10 0 4 12.19 2.57
10 0 4 7 1.95
10 0 4 13.58 2.17
11 0 4 6.45 2.05
11 0 4 5.05 1.73
11 0 4 6.38 2.17
11 0 4 0.51 1.82
11 0 4 3.86 1.6
11 -1 -4 -0.27 1.96
-11 1 4 -1.47 1.5
10 -1 -4 6.84 2.43
-10 1 4 5.53 2.27
-10 1 4 9.63 2.59
9 -1 -4 1.1 1.29
9 -1 -4 1.72 2.03
-9 1 4 2.36 2.08
-9 1 4 -1.08 1.47
8 -1 -4 23.73 3.03
8 -1 -4 17.87 2.25
-8 1 4 18.47 2.9
-8 1 4 16.99 2.9
7 -1 -4 33.97 2.49
7 -1 -4 30.32 3.07
-7 1 4 30.57 1.57
-7 1 4 25.69 2.94
-7 1 4 32.34 3
6 -1 -4 1.37 0.98
6 -1 -4 1.02 0.57
6 -1 -4 -0.55 1.14
-6 1 4 -0.02 1.25
-6 1 4 1.42 0.58
-6 1 4 1.81 1.38
5 -1 -4 5.08 1.49
5 -1 -4 5.87 1.13
5 -1 -4 2.98 0.62
-5 1 4 3.77 1.41
-5 1 4 3.45 1.32
-5 1 4 3.5 0.87
-5 1 4 3.22 0.69
4 -1 -4 5.62 0.78
4 -1 -4 6.6 1.15
4 -1 -4 5.72 1.36
-4 1 4 6.81 0.81
-4 1 4 5.67 1.42
-4 1 4 6.63 1.02
-4 1 4 5.49 1.43
3 -1 -4 231.79 4.27
3 -1 -4 229.62 5.22
3 -1 -4 232.87 3.32
-3 1 4 222.72 3.26
-3 1 4 230.26 5.13
-3 1 4 228.09 4.23
-3 1 4 230.83 5.4
2 -1 -4 29.97 1.82
2 -1 -4 33.59 1.29
2 -1 -4 32.49 2
2 -1 -4 31.56 1.62
-2 1 4 32.63 1.96
-2 1 4 34.2 1.28
-2 1 4 32.92 2.14
-2 1 4 33.12 1.61
1 -1 -4 25.08 1.19
1 -1 -4 23.95 1.7
1 -1 -4 21.2 1.45
1 -1 -4 21.74 1.62
-1 1 4 23.42 1.51
-1 1 4 23.4 1.61
-1 1 4 22 1.27
-1 1 4 23.15 1.78
-1 1 4 20.99 1.38
0 -1 -4 249.51 4.71
0 -1 -4 247.73 4.52
0 -1 -4 257.23 3.83
0 -1 -4 254.96 4.76
0 -1 -4 255.94 4.11
0 1 4 253.47 4.78
0 1 4 251.05 4.08
0 1 4 251.18 3.8
0 1 4 260.32 4.78
-1 -1 -4 12.49 1.28
-1 -1 -4 15.15 1.4
-1 -1 -4 14.38 0.73
-1 -1 -4 12.72 1.46
-1 -1 -4 14.51 1.44
1 1 4 12.59 1.26
1 1 4 12.99 1.37
1 1 4 13.52 1.43
1 1 4 13.42 0.77
1 1 4 13.24 1.37
-2 -1 -4 38.52 2.19
-2 -1 -4 36.7 1.91
-2 -1 -4 38.79 1.93
2 1 4 36.37 1.88
2 1 4 34.13 1.98
2 1 4 37.64 1.81
2 1 4 37.46 1.95
-3 -1 -4 7.11 1.45
-3 -1 -4 3.89 1.05
3 1 4 4.29 1.15
3 1 4 5.1 1.07
3 1 4 5.11 0.99
-4 -1 -4 16.88 1.64
-4 -1 -4 17.72 1.95
4 1 4 15.06 0.88
4 1 4 16.46 1.79
4 1 4 15.63 1.66
4 1 4 15.57 1.41
4 1 4 15.76 0.98
-5 -1 -4 103.54 3.57
-5 -1 -4 98.51 3.96
5 1 4 102.01 3.72
5 1 4 100.54 2.52
5 1 4 100.14 2.44
5 1 4 103.74 3.39
-6 -1 -4 4.38 1.47
-6 -1 -4 5.88 1.43
6 1 4 3.68 1.22
6 1 4 2.83 1.33
6 1 4 3.19 0.82
-7 -1 -4 -0.39 1.07
-7 -1 -4 -0.7 1.19
7 1 4 0.57 1.34
7 1 4 -0.78 0.94
-8 -1 -4 22.54 2.72
-8 -1 -4 23 3.01
8 1 4 29.74 2.37
8 1 4 24.25 2.64
8 1 4 29.74 2.56
-9 -1 -4 5.57 2.01
-9 -1 -4 1.76 1.72
9 1 4 2.38 1.31
9 1 4 3.25 1.41
9 1 4 6.29 1.97
-10 -1 -4 20.59 2.96
10 1 4 17.53 2.88
10 1 4 16.49 2.29
10 1 4 21.1 2.63
-11 -1 -4 3.61 2.13
11 1 4 2.56 1.4
11 1 4 1.54 1.23
11 1 4 3.04 2.35
11 1 4 2.33 1.72
12 1 4 -4.17 1.3
12 1 4 5.15 1.93
10 -2 -4 14.97 3.14
10 -2 -4 13.1 2.85
-10 2 4 18.25 3.4
9 -2 -4 1.53 1.97
-9 2 4 2.14 1.77
8 -2 -4 -2.1 0.89
8 -2 -4 1 1.58
-8 2 4 -0.31 0.69
-8 2 4 1.5 1.76
-8 2 4 -0.68 1.52
7 -2 -4 -0.33 0.83
7 -2 -4 2.59 1.64
-7 2 4 2.81 1.61
-7 2 4 -0.52 1.49
-7 2 4 0.76 0.68
6 -2 -4 11.02 1.22
6 -2 -4 12.72 1.17
6 -2 -4 12.93 1.52
6 -2 -4 14.77 2.33
-6 2 4 10.62 1.37
-6 2 4 12.78 2.25
-6 2 4 10.7 2.11
5 -2 -4 104.86 2.98
5 -2 -4 94.82 2.58
5 -2 -4 94.28 3.98
-5 2 4 101.56 2.81
-5 2 4 97.84 4.18
-5 2 4 103.26 2.84
-5 2 4 104.94 4.37
4 -2 -4 11.46 1.24
4 -2 -4 9.32 1.68
4 -2 -4 11.11 1.07
-4 2 4 10.99 1.17
-4 2 4 10.61 1.76
-4 2 4 14.56 1.99
-4 2 4 9.77 1.06
3 -2 -4 14.04 1.71
3 -2 -4 14.29 1.16
3 -2 -4 14.81 1.18
-3 2 4 14.76 1.08
-3 2 4 15.1 1.89
-3 2 4 15.02 1.22
-3 2 4 16.8 1.94
2 -2 -4 188.8 4.62
2 -2 -4 194.65 3.53
2 -2 -4 192.04 3.41
-2 2 4 202.38 4.59
-2 2 4 198.36 3.63
-2 2 4 195.24 4.84
-2 2 4 198.18 3.47
1 -2 -4 3.05 0.73
1 -2 -4 3.7 1.08
1 -2 -4 3.87 1.04
1 -2 -4 3.41 0.78
-1 2 4 3.54 0.85
-1 2 4 2.55 0.73
-1 2 4 3.68 0.99
-1 2 4 3.95 1.11
0 -2 -4 45.52 2.27
0 -2 -4 43.53 2.08
0 -2 -4 45.69 1.9
0 -2 -4 45.36 1.71
0 -2 -4 45.28 1.83
0 -2 -4 44.21 1.67
0 2 4 46.71 2.29
0 2 4 45.62 1.85
0 2 4 47.3 2.15
0 2 4 46.7 1.98
-1 -2 -4 4.25 0.97
-1 -2 -4 3.47 1.04
-1 -2 -4 4.33 0.67
-1 -2 -4 4.44 0.96
-1 -2 -4 4.96 0.98
-1 -2 -4 4.75 0.7
1 2 4 5.75 1.04
1 2 4 5.88 1.1
1 2 4 5.96 1.2
1 2 4 4.76 1.09
-2 -2 -4 1.89 0.91
-2 -2 -4 1.93 0.84
-2 -2 -4 2.15 0.96
2 2 4 2.92 0.9
2 2 4 0.81 0.85
2 2 4 3.8 0.92
2 2 4 2.24 0.88
-3 -2 -4 232.79 4.95
-3 -2 -4 234.33 5.3
-3 -2 -4 233.88 4.45
3 2 4 235.73 4.47
3 2 4 232.61 4.85
3 2 4 233.11 4.86
-4 -2 -4 1.22 0.73
-4 -2 -4 0.21 0.4
-4 -2 -4 0.95 1
-4 -2 -4 -0.11 0.93
4 2 4 -0.09 0.39
4 2 4 0.72 0.79
4 2 4 0.74 0.94
-5 -2 -4 1.42 1.15
-5 -2 -4 1.93 0.81
-5 -2 -4 2.36 0.65
-5 -2 -4 0.36 1.02
5 2 4 1.99 0.96
5 2 4 1.98 0.6
5 2 4 2.26 1.16
-6 -2 -4 29.78 1.73
-6 -2 -4 27.36 2.59
-6 -2 -4 28 2.37
6 2 4 24.68 2.3
6 2 4 26.69 2.01
6 2 4 29 1.52
-7 -2 -4 2.12 1.5
-7 -2 -4 5.03 1.65
-7 -2 -4 2.53 0.99
7 2 4 3.27 1.26
7 2 4 5.58 1.59
-8 -2 -4 31.44 3.24
-8 -2 -4 28.93 2.23
-8 -2 -4 32.62 3
8 2 4 30.61 2.86
8 2 4 30.01 2.37
-9 -2 -4 2.04 1.29
-9 -2 -4 2.4 1.77
9 2 4 1.66 1.55
9 2 4 2.75 1.35
-10 -2 -4 1.44 1.82
10 2 4 -2.39 1.61
10 2 4 1.05 1.62
10 2 4 1.44 1.25
-11 -2 -4 6.12 2.25
11 2 4 3.76 1.45
11 2 4 3.84 1.89
11 2 4 8 2.68
11 2 4 5.42 1.65
-12 -2 -4 -2.12 1.57
12 2 4 2.69 2.27
12 2 4 -2.77 1.31
10 -3 -4 -1.56 1.68
10 -3 -4 0.15 1.92
-10 3 4 2.8 2.12
9 -3 -4 -0.49 1.7
9 -3 -4 1.22 1.89
-9 3 4 0.48 1.7
8 -3 -4 11.64 2.51
8 -3 -4 16.09 2.84
-8 3 4 14.27 1.7
-8 3 4 20.84 3.29
7 -3 -4 41.77 3.59
7 -3 -4 45.75 2.17
7 -3 -4 45.66 3.57
-7 3 4 44.16 2.55
-7 3 4 46.73 3.86
6 -3 -4 0.15 0.48
6 -3 -4 0.44 1.34
6 -3 -4 0.11 1.26
6 -3 -4 0.69 0.69
-6 3 4 -1.07 0.62
-6 3 4 0.34 1.27
5 -3 -4 10.57 1.88
5 -3 -4 15.89 1.27
5 -3 -4 12.62 1.12
-5 3 4 13.45 2.24
-5 3 4 14.36 1.6
4 -3 -4 67.46 1.91
4 -3 -4 67.62 2.41
4 -3 -4 62.97 3.2
-4 3 4 62.92 2.46
-4 3 4 62.93 3.5
3 -3 -4 15.47 1.8
3 -3 -4 15.68 1.85
3 -3 -4 15.25 0.98
3 -3 -4 16.22 1.36
-3 3 4 15.19 1.45
-3 3 4 13.32 2
-3 3 4 15.97 0.93
2 -3 -4 42.17 2.31
2 -3 -4 40.04 1.4
2 -3 -4 39 2.28
2 -3 -4 40.61 1.87
-2 3 4 41.65 2
-2 3 4 41.62 2.6
-2 3 4 39.48 1.35
1 -3 -4 12.52 1.48
1 -3 -4 10.92 1.23
1 -3 -4 10.97 1.58
1 -3 -4 12.13 1.07
1 -3 -4 10.66 1.26
-1 3 4 11.53 1.69
-1 3 4 11.48 0.97
-1 3 4 11.5 1.42
0 -3 -4 11.48 1.39
0 -3 -4 14.24 1.35
0 -3 -4 12.15 1.22
0 -3 -4 13.41 1.34
0 -3 -4 13.28 1.6
0 -3 -4 12.85 1.26
0 3 4 13.72 1.15
0 3 4 12.36 1.65
0 3 4 12.76 1.41
-1 -3 -4 342.72 4.86
-1 -3 -4 331.99 6.24
-1 -3 -4 321.15 5.7
-1 -3 -4 348 5.64
-1 -3 -4 335.71 5.83
1 3 4 342.95 5.83
1 3 4 328.22 5.54
1 3 4 348.94 5.9
-2 -3 -4 9.14 1.42
-2 -3 -4 5.49 0.99
-2 -3 -4 6.52 0.81
-2 -3 -4 4.83 1.2
2 3 4 7.59 1.3
2 3 4 7.62 1.14
2 3 4 7.06 0.83
2 3 4 7.87 1.3
-3 -3 -4 7.03 1.37
-3 -3 -4 3.85 1.18
-3 -3 -4 6.68 1.11
-3 -3 -4 6.49 0.75
3 3 4 5.76 0.72
3 3 4 6.01 1.02
3 3 4 5.98 1.32
-4 -3 -4 55.15 1.6
-4 -3 -4 53.7 2.89
-4 -3 -4 55.22 2.82
-4 -3 -4 55.31 2.14
4 3 4 54.24 2.72
4 3 4 58.39 2.19
4 3 4 55.77 1.58
-5 -3 -4 16.16 2.07
-5 -3 -4 17.85 1.23
-5 -3 -4 19.09 1.41
-5 -3 -4 17.14 2.03
5 3 4 16.35 1.46
5 3 4 18.65 2.01
5 3 4 16.52 1.08
-6 -3 -4 21.95 2.42
-6 -3 -4 27.08 2.45
-6 -3 -4 26.21 1.62
6 3 4 26.21 1.79
6 3 4 24.37 1.66
6 3 4 25.95 1.47
6 3 4 30.54 2.37
-7 -3 -4 -0.74 1.17
-7 -3 -4 0.33 1.26
-7 -3 -4 0.13 0.76
7 3 4 0.36 0.54
7 3 4 -0.13 0.89
7 3 4 -0.45 1.1
-8 -3 -4 3.55 1.71
-8 -3 -4 2.19 1.06
-8 -3 -4 0.36 1.57
8 3 4 1.37 1.03
8 3 4 1.75 1.32
-9 -3 -4 -0.4 1.04
-9 -3 -4 1.89 1.75
9 3 4 2.19 1.8
9 3 4 0.2 1.01
9 3 4 2.73 1.62
-10 -3 -4 4.19 2.15
-10 -3 -4 4.38 1.49
10 3 4 -0.03 0.99
10 3 4 6.31 2.39
10 3 4 8.15 2.12
-11 -3 -4 6.43 2.33
11 3 4 7.23 2.51
11 3 4 8.73 2.18
-12 -3 -4 1.35 2.14
12 3 4 6.44 2.95
12 3 4 3.1 1.83
10 -4 -4 14.84 3
10 -4 -4 11.03 2.83
-10 4 4 11.01 3
9 -4 -4 15.89 3.16
9 -4 -4 25.46 3.49
-9 4 4 16.27 3.19
8 -4 -4 -2.07 1.47
8 -4 -4 1.41 1.79
-8 4 4 0.17 0.99
-8 4 4 1.75 1.86
7 -4 -4 8.47 2.16
7 -4 -4 5.82 2.12
-7 4 4 4.75 2.06
-7 4 4 5.91 1.39
6 -4 -4 17.61 2.61
6 -4 -4 20.26 2.66
-6 4 4 16.4 2.83
-6 4 4 20.76 2.13
5 -4 -4 42.49 3.15
5 -4 -4 40.48 3.03
-5 4 4 35.72 2.37
-5 4 4 37.22 3.18
4 -4 -4 12.51 2.07
4 -4 -4 12.08 2.02
-4 4 4 15.98 1.75
-4 4 4 12.89 2.18
3 -4 -4 4.86 1.4
3 -4 -4 4.26 1.43
-3 4 4 2.78 1.07
-3 4 4 7.03 1.66
2 -4 -4 25.55 2.08
2 -4 -4 28.17 2.19
-2 4 4 24.92 2.33
-2 4 4 26.24 1.95
1 -4 -4 74.36 2.9
1 -4 -4 71.99 1.83
1 -4 -4 70.76 3.06
-1 4 4 69.25 1.76
-1 4 4 67.26 3.1
-1 4 4 72 2.75
0 -4 -4 82.18 2.75
0 -4 -4 85.22 3.29
0 -4 -4 79.45 2.29
0 4 4 78.71 2.26
0 4 4 77.6 2.88
0 4 4 79.63 3.13
-1 -4 -4 1.4 1.03
-1 -4 -4 1.2 0.74
-1 -4 -4 0.43 0.73
1 4 4 1.11 0.98
1 4 4 1.42 0.74
1 4 4 0 0.87
1 4 4 0.19 0.67
-2 -4 -4 94.93 3.53
-2 -4 -4 91.19 2.46
-2 -4 -4 96.23 3.15
-2 -4 -4 85.42 2.7
2 4 4 93.75 2.91
2 4 4 90.88 2.42
2 4 4 91.09 3.29
-3 -4 -4 44.79 1.94
-3 -4 -4 45.83 1.69
-3 -4 -4 38.13 2.44
-3 -4 -4 44.08 2.48
3 4 4 43.41 1.66
3 4 4 44.84 2.01
-4 -4 -4 87.28 2.52
-4 -4 -4 85.15 3.55
-4 -4 -4 89.02 2.33
-4 -4 -4 88.05 3.58
4 4 4 83.39 2.51
4 4 4 83.54 3.34
4 4 4 83.41 2.18
-5 -4 -4 11.29 1.22
-5 -4 -4 8.56 1.77
-5 -4 -4 9.4 1.78
-5 -4 -4 9.49 1.08
5 4 4 9.98 1.22
5 4 4 10.62 1.06
5 4 4 7.98 1.58
-6 -4 -4 5.96 1.1
-6 -4 -4 3.82 1.57
-6 -4 -4 4.9 1.61
6 4 4 6.89 1.67
6 4 4 5.65 0.98
6 4 4 5.43 1
6 4 4 4.61 0.92
-7 -4 -4 4.14 1.57
-7 -4 -4 4.16 1.74
-7 -4 -4 3.41 1.04
7 4 4 2.73 0.76
7 4 4 2.52 0.96
7 4 4 2.97 1.51
-8 -4 -4 41.13 3.43
-8 -4 -4 37.36 2.38
8 4 4 39 2.14
8 4 4 38.37 3.17
-9 -4 -4 9.45 1.7
-9 -4 -4 9.08 2.5
9 4 4 9.54 2.51
9 4 4 6.5 1.91
9 4 4 8.93 1.41
-10 -4 -4 3.1 2.19
-10 -4 -4 4.59 1.51
10 4 4 6.29 2.17
10 4 4 6.37 2.36
-11 -4 -4 -0.69 1.78
11 4 4 -0.09 2.2
11 4 4 -1.97 1.51
-12 -4 -4 8.94 2.9
12 4 4 9.5 3.12
9 -5 -4 5.13 2.32
9 -5 -4 4.71 2.57
-9 5 4 4.16 2.53
8 -5 -4 2.15 1.71
8 -5 -4 5.1 2.2
-8 5 4 5.02 1.68
-8 5 4 4.82 2.27
7 -5 -4 13.75 2.81
7 -5 -4 18.69 2.8
-7 5 4 18.05 2.33
-7 5 4 18.22 3.23
6 -5 -4 8.05 2.13
6 -5 -4 11.67 2.34
-6 5 4 8.87 1.82
-6 5 4 13.12 2.7
5 -5 -4 2.61 1.64
5 -5 -4 4.57 1.66
-5 5 4 3.34 1.38
-5 5 4 4.89 1.86
4 -5 -4 42.15 2.84
4 -5 -4 39.47 3.04
-4 5 4 35.34 2.5
-4 5 4 32.84 3
3 -5 -4 25.6 2.33
3 -5 -4 24.66 2.51
-3 5 4 24.97 2.46
-3 5 4 25.78 2.2
2 -5 -4 72.52 3.4
2 -5 -4 70.82 3.33
-2 5 4 72.01 3.57
-2 5 4 73.43 3.11
1 -5 -4 3.15 1.24
1 -5 -4 4.55 1.26
-1 5 4 2.52 1.21
-1 5 4 4.47 1.4
0 -5 -4 20.05 1.31
0 -5 -4 21.44 1.88
0 -5 -4 19.29 1.94
0 5 4 21.08 1.26
0 5 4 18.12 1.96
0 5 4 23.03 2.08
-1 -5 -4 43.07 2.16
-1 -5 -4 53.11 2.88
-1 -5 -4 50.75 2.19
1 5 4 47.58 2.23
1 5 4 49.96 2.57
1 5 4 48.96 2.09
1 5 4 47.58 2.6
-2 -5 -4 4.68 1.14
-2 -5 -4 5.22 1.39
-2 -5 -4 4.9 0.99
-2 -5 -4 5.09 1.09
2 5 4 2.8 0.88
2 5 4 7.25 1.53
2 5 4 6.77 1.24
2 5 4 4.36 0.96
-3 -5 -4 44.65 2.79
-3 -5 -4 45.93 2.62
-3 -5 -4 44.7 2.01
-3 -5 -4 46.1 1.97
3 5 4 46.89 2.09
3 5 4 41.73 1.88
3 5 4 45.9 2.75
-4 -5 -4 -0.21 0.7
-4 -5 -4 0.45 0.59
-4 -5 -4 0.05 1.06
-4 -5 -4 1.36 1.19
4 5 4 0.53 1.16
4 5 4 1.3 0.71
4 5 4 1.35 0.8
-5 -5 -4 0.19 0.53
-5 -5 -4 1.14 1.24
-5 -5 -4 0.22 0.75
-5 -5 -4 1.14 1.26
5 5 4 0.65 0.58
5 5 4 0.22 0.67
5 5 4 0.71 1.15
-6 -5 -4 125.78 3.5
-6 -5 -4 124.01 4.87
6 5 4 120.55 4.51
6 5 4 116.15 3.25
6 5 4 120.08 2.85
-7 -5 -4 33.22 2.14
-7 -5 -4 35.74 3.15
7 5 4 31.98 1.55
7 5 4 28.31 2.93
7 5 4 32.93 3
7 5 4 30.2 1.6
-8 -5 -4 0.35 0.98
-8 -5 -4 0.42 1.6
8 5 4 -0.34 1.51
8 5 4 1.08 0.68
8 5 4 -2.07 1.24
-9 -5 -4 3.74 1.98
-9 -5 -4 2.82 1.21
9 5 4 5.92 2.2
9 5 4 0.85 1.67
-10 -5 -4 1.18 2.04
-10 -5 -4 3.1 1.38
10 5 4 5.02 2.01
10 5 4 2.55 2.3
-11 -5 -4 0.3 1.89
11 5 4 5.25 2.65
11 5 4 5.49 2.08
-12 -5 -4 18.89 3.38
12 5 4 6.99 3.09
12 5 4 11.82 2.72
9 -6 -4 3.99 2.05
8 -6 -4 -2.33 1.62
8 -6 -4 -1.82 1.71
-8 6 4 6.36 2.56
7 -6 -4 1.53 1.83
7 -6 -4 3.87 2
-7 6 4 2.66 2.11
-7 6 4 2.96 1.55
6 -6 -4 28.76 3.11
6 -6 -4 31.99 3.4
-6 6 4 34.01 2.99
-6 6 4 24.88 3.42
5 -6 -4 1.14 1.57
5 -6 -4 0.95 1.41
-5 6 4 0.52 1.29
-5 6 4 -0.62 1.46
4 -6 -4 53.73 3.71
4 -6 -4 55.88 3.5
-4 6 4 53.81 3.87
-4 6 4 51.36 3.18
3 -6 -4 7.71 1.92
3 -6 -4 8.55 1.87
-3 6 4 7.29 1.92
-3 6 4 6.71 1.61
2 -6 -4 11.59 1.89
2 -6 -4 19.19 2.28
-2 6 4 15.15 2.12
-2 6 4 15.09 2.29
1 -6 -4 55.36 3.14
1 -6 -4 50.62 2.86
-1 6 4 52.35 3
-1 6 4 51.88 3.17
0 -6 -4 2 1.24
0 -6 -4 -1.17 0.85
0 6 4 1.33 0.66
0 6 4 1.86 0.58
0 6 4 0.36 1.07
0 6 4 1.08 1.11
-1 -6 -4 75.43 3.4
-1 -6 -4 80.55 3.18
1 6 4 77.6 3.22
1 6 4 78.24 2.64
1 6 4 77.31 3.48
1 6 4 77.28 2.62
-2 -6 -4 1.86 1
-2 -6 -4 1.28 1.21
2 6 4 2.28 1.07
2 6 4 2.29 1.3
2 6 4 2.62 1.05
-3 -6 -4 -0.42 1.09
-3 -6 -4 -0.41 0.48
-3 -6 -4 -0.04 0.8
3 6 4 -0.29 1.12
3 6 4 1.01 0.88
3 6 4 -1.25 0.87
-4 -6 -4 197.9 4.59
-4 -6 -4 195.36 3.94
-4 -6 -4 207.15 5.9
4 6 4 202.2 4.02
4 6 4 191.02 5.29
4 6 4 196.89 4.9
4 6 4 204.6 5.8
-5 -6 -4 -0.06 0.51
-5 -6 -4 0.22 1.27
-5 -6 -4 0.58 0.88
5 6 4 2.33 1.48
5 6 4 0.65 0.66
5 6 4 -0.28 1.27
-6 -6 -4 2.94 1.08
-6 -6 -4 1.77 1.49
6 6 4 0.24 1.33
6 6 4 0.78 1.38
6 6 4 0.99 0.61
-7 -6 -4 8.67 1.61
-7 -6 -4 7.46 2.12
7 6 4 8.62 2.26
7 6 4 10.87 2.25
-8 -6 -4 4.7 1.44
-8 -6 -4 4.16 1.86
8 6 4 1.86 1.73
8 6 4 -0.86 1.59
-9 -6 -4 16.84 2.12
-9 -6 -4 15.97 3.1
9 6 4 16.82 3.12
9 6 4 18.13 2.86
-10 -6 -4 13.93 2.09
-10 -6 -4 15.41 3.35
10 6 4 5.91 2.56
10 6 4 12.57 2.66
-11 -6 -4 2.42 2.24
11 6 4 2.81 1.81
11 6 4 -1.7 2.2
8 -7 -4 13.13 3.13
8 -7 -4 16.42 2.73
-8 7 4 8.93 2.83
7 -7 -4 2.7 1.93
7 -7 -4 0.54 1.79
-7 7 4 2.08 1.71
-7 7 4 -0.64 1.97
6 -7 -4 6.9 1.97
6 -7 -4 9.59 2.47
-6 7 4 5.38 2.43
-6 7 4 11.21 2.25
5 -7 -4 4.61 1.94
5 -7 -4 7.09 2.16
-5 7 4 5.29 2.13
-5 7 4 3.06 1.66
4 -7 -4 2.6 1.62
4 -7 -4 0.14 1.4
-4 7 4 1.19 1.61
-4 7 4 3.04 1.57
3 -7 -4 14.29 2.31
3 -7 -4 8.98 2.02
-3 7 4 11.58 2.14
-3 7 4 11.88 2.38
2 -7 -4 19.52 2.44
2 -7 -4 18.72 2.37
-2 7 4 18.69 2.4
-2 7 4 24.22 2.71
1 -7 -4 36.1 2.73
1 -7 -4 39.59 2.86
-1 7 4 41.15 3.03
-1 7 4 36.33 2.94
0 -7 -4 0.84 1.27
0 -7 -4 0.62 1.1
0 7 4 -0.96 0.52
0 7 4 -0.88 1.15
0 7 4 0.93 1.14
0 7 4 -1.03 0.42
-1 -7 -4 7.54 1.66
-1 -7 -4 8.3 1.57
1 7 4 7 1.11
1 7 4 11.19 1.42
1 7 4 9.02 1.72
1 7 4 9.13 1.86
-2 -7 -4 72.25 3.57
-2 -7 -4 70.33 3.15
2 7 4 68.37 3.57
2 7 4 73.9 3.15
2 7 4 69.28 2.95
-3 -7 -4 18.17 1.43
-3 -7 -4 16.72 2.19
-3 -7 -4 16.13 1.86
3 7 4 18.57 2.32
3 7 4 17.69 1.76
3 7 4 18.93 2.18
-4 -7 -4 35.14 1.77
-4 -7 -4 35.6 2.98
-4 -7 -4 34.68 2.37
4 7 4 34.67 2.77
4 7 4 40.05 1.97
4 7 4 41.71 3.02
-5 -7 -4 0.68 0.47
-5 -7 -4 1.21 1
-5 -7 -4 0.72 1.4
5 7 4 1.8 1.46
5 7 4 0.67 0.65
5 7 4 0.21 1.36
-6 -7 -4 0.18 1.39
-6 -7 -4 -0.65 0.98
6 7 4 1.06 1.57
6 7 4 1.8 1.58
-7 -7 -4 41.14 3.71
-7 -7 -4 40.45 2.61
7 7 4 38.91 3.55
7 7 4 33.84 3.38
-8 -7 -4 2.51 1.39
-8 -7 -4 1.25 1.83
8 7 4 3.48 2.1
8 7 4 0.99 1.7
-9 -7 -4 5.3 1.51
-9 -7 -4 4.25 2.29
9 7 4 3.45 1.93
9 7 4 2.19 2.1
-10 -7 -4 9.23 1.95
-10 -7 -4 10.02 2.87
10 7 4 8.22 2.86
10 7 4 8.29 2.66
-11 -7 -4 -0.48 1.99
11 7 4 0.06 2.11
11 7 4 2.94 2.33
7 -8 -4 6.27 2.59
7 -8 -4 4.43 2.08
-7 8 4 6.77 2.67
-7 8 4 4.98 1.98
6 -8 -4 1.01 1.42
6 -8 -4 1.34 2.06
-6 8 4 3.09 1.82
-6 8 4 -2.1 1.77
5 -8 -4 11.16 2.33
5 -8 -4 15.31 2.85
-5 8 4 17.58 2.86
-5 8 4 17.67 3.4
4 -8 -4 37.86 3.53
4 -8 -4 37.76 3.23
-4 8 4 40.44 3.53
-4 8 4 36.18 3.81
3 -8 -4 18.81 2.6
3 -8 -4 16.04 2.67
-3 8 4 24.62 3.28
-3 8 4 24.66 2.96
2 -8 -4 -0.92 1.29
2 -8 -4 -1.07 1.07
-2 8 4 -3.02 1.14
-2 8 4 0.9 1.58
1 -8 -4 21.47 2.55
1 -8 -4 19.18 2.56
-1 8 4 20.52 2.77
-1 8 4 20.63 2.61
0 -8 -4 57.83 3.41
0 -8 -4 54.61 3.4
0 8 4 55.01 3.42
0 8 4 54.58 1.9
0 8 4 50.05 3.4
0 8 4 50.67 1.83
-1 -8 -4 0.98 1.28
-1 -8 -4 1.07 1.16
1 8 4 0.88 1.16
1 8 4 0.92 0.85
1 8 4 2.28 0.67
1 8 4 0.93 1.36
-2 -8 -4 23.76 2.42
-2 -8 -4 18.3 2.35
2 8 4 25.53 2.29
2 8 4 24.04 2.6
2 8 4 20.91 2.02
-3 -8 -4 10.15 2.12
-3 -8 -4 9.9 1.8
3 8 4 11.04 2.06
3 8 4 12.52 2.04
3 8 4 11.16 1.68
-4 -8 -4 40.92 2.72
-4 -8 -4 34.47 3.01
-4 -8 -4 37.54 1.86
4 8 4 36.83 2
4 8 4 40.99 3.02
4 8 4 39.74 3.3
-5 -8 -4 54.05 3.75
-5 -8 -4 47.52 2.96
5 8 4 51.65 3.57
5 8 4 52.48 3.68
5 8 4 52.58 1.92
-6 -8 -4 2.61 1.3
-6 -8 -4 0.16 1.5
6 8 4 0.6 1.63
6 8 4 -0.15 1.57
-7 -8 -4 -0.21 1.14
-7 -8 -4 0.08 1.56
7 8 4 4 2.06
7 8 4 0.32 1.61
-8 -8 -4 2.12 1.39
-8 -8 -4 -0.79 1.77
8 8 4 -0.52 1.7
8 8 4 2.19 1.87
-9 -8 -4 1.51 2.1
-9 -8 -4 2.56 1.44
9 8 4 -0.7 1.7
9 8 4 4.03 2.16
-10 -8 -4 4.96 2.52
10 8 4 1.25 2.31
10 8 4 2.92 2.18
-11 -8 -4 -0.03 2.36
11 8 4 0.37 2.05
11 8 4 0.68 1.95
6 -9 -4 21.85 2.81
6 -9 -4 19.19 3.5
-6 9 4 17.38 3
-6 9 4 27.14 4.01
5 -9 -4 11.89 2.86
5 -9 -4 10.34 2.16
-5 9 4 13.01 3.29
-5 9 4 12.24 2.7
4 -9 -4 1.05 1.64
4 -9 -4 3.98 2.12
-4 9 4 -0.37 1.58
-4 9 4 4.51 2.22
3 -9 -4 26.07 2.81
3 -9 -4 25.06 3.37
-3 9 4 20.36 3.12
-3 9 4 31.51 3.63
2 -9 -4 12.58 2.53
2 -9 -4 12.27 2.33
-2 9 4 9.91 2.52
-2 9 4 9.7 2.19
1 -9 -4 -1.59 1.32
1 -9 -4 1.04 1.53
-1 9 4 0.89 1.48
-1 9 4 0.47 1.58
0 -9 -4 8.37 2.06
0 -9 -4 7.97 2.02
0 9 4 5.7 0.89
0 9 4 5.73 1.82
0 9 4 3.47 1.82
-1 -9 -4 -0.79 1.17
-1 -9 -4 1.44 1.35
1 9 4 -1.97 1.39
1 9 4 -0.67 0.74
1 9 4 -2.38 1.15
-2 -9 -4 7.32 2.02
-2 -9 -4 4.45 1.61
2 9 4 8.71 1.83
2 9 4 9.24 2.23
2 9 4 4.91 1.27
-3 -9 -4 63.65 3.96
-3 -9 -4 59.76 3.48
3 9 4 57.71 2.91
3 9 4 63.78 3.99
3 9 4 53.43 3.26
-4 -9 -4 -0.96 1.13
-4 -9 -4 0.05 1.39
4 9 4 -0.45 0.84
4 9 4 -1.18 1.37
4 9 4 -0.58 1.17
-5 -9 -4 2.91 1.82
-5 -9 -4 2.79 1.5
5 9 4 2.28 1.77
5 9 4 2.37 1.62
5 9 4 2.58 0.76
-6 -9 -4 0.94 1.83
-6 -9 -4 7.04 1.82
6 9 4 2.3 1.88
6 9 4 2.02 1.71
-7 -9 -4 8.82 1.99
-7 -9 -4 5.35 2.15
7 9 4 7.26 2.48
7 9 4 4.33 2.18
-8 -9 -4 3.05 1.51
-8 -9 -4 10.07 2.63
8 9 4 4.08 2.36
8 9 4 3.27 2.23
-9 -9 -4 8.23 2.71
-9 -9 -4 3.38 1.48
9 9 4 -0.45 2.13
9 9 4 0.93 1.87
-10 -9 -4 0.68 2.05
10 9 4 2.65 2.33
10 9 4 -2.77 2.06
5 -10 -4 8.49 2.15
5 -10 -4 8.87 2.54
-5 10 4 7.53 2.69
-5 10 4 10.52 3.16
4 -10 -4 3.64 2.19
4 -10 -4 5.62 1.94
-4 10 4 -3.77 1.96
-4 10 4 5.3 2.17
3 -10 -4 7.69 2.15
3 -10 -4 10.94 2.73
-3 10 4 11.16 2.79
-3 10 4 11.53 2.77
2 -10 -4 1.26 1.57
2 -10 -4 0.6 1.71
-2 10 4 4.45 2.21
-2 10 4 3.79 1.99
1 -10 -4 4.9 1.97
1 -10 -4 5.5 2.03
-1 10 4 8.05 2.19
-1 10 4 6.15 2.32
0 -10 -4 20.3 2.72
0 -10 -4 23.2 3.01
0 10 4 25 2.9
0 10 4 22.98 3.26
-1 -10 -4 6.07 1.9
-1 -10 -4 5.3 1.82
1 10 4 6.21 1.73
1 10 4 7.2 1.26
1 10 4 4.91 2.13
-2 -10 -4 5.71 1.88
-2 -10 -4 5.53 1.92
2 10 4 3.12 1.24
2 10 4 4.61 1.46
2 10 4 4.6 2.02
-3 -10 -4 3.65 1.59
-3 -10 -4 6.1 1.91
3 10 4 5.2 2.03
3 10 4 2.42 1.31
3 10 4 0.5 0.99
-4 -10 -4 1.99 1.77
-4 -10 -4 0.18 1.39
4 10 4 1.94 1.76
4 10 4 -0.6 0.83
4 10 4 1.91 1.61
-5 -10 -4 3.25 1.82
-5 -10 -4 2.29 1.46
5 10 4 2.13 1.92
5 10 4 -0.09 1.74
-6 -10 -4 2.96 1.96
-6 -10 -4 2.14 1.47
6 10 4 -1.75 1.6
6 10 4 -2.27 1.54
-7 -10 -4 1.4 1.87
-7 -10 -4 0.35 1.57
7 10 4 0.96 1.95
7 10 4 -0.11 1.73
-8 -10 -4 -0.44 1.25
-8 -10 -4 4.24 2.26
8 10 4 0.87 1.89
8 10 4 2.3 2.22
-9 -10 -4 1.95 1.45
-9 -10 -4 -0.38 1.95
9 10 4 -2.91 1.85
9 10 4 -1.66 1.85
-10 -10 -4 3.38 2.51
10 10 4 -1.25 2.28
10 10 4 5.98 2.51
4 -11 -4 1.61 1.26
4 -11 -4 -0.83 1.75
-4 11 4 0.29 1.71
-4 11 4 -0.76 1.88
3 -11 -4 -3.37 1.37
3 -11 -4 2.09 1.57
-3 11 4 -2.21 1.57
-3 11 4 3.97 2.28
2 -11 -4 11.17 2.73
2 -11 -4 14.26 2.7
-2 11 4 13.1 2.92
-2 11 4 13.13 2.82
1 -11 -4 4.11 1.8
1 -11 -4 2.52 1.79
-1 11 4 1.43 1.99
-1 11 4 1.82 1.87
0 -11 -4 4.35 1.84
0 -11 -4 0.65 1.5
0 11 4 0.18 1.91
0 11 4 2.34 1.88
-1 -11 -4 4.77 1.86
-1 -11 -4 1.13 1.6
1 11 4 1.59 1.78
1 11 4 1.76 1.6
-2 -11 -4 1.15 1.71
-2 -11 -4 -0.7 1.51
2 11 4 -0.16 1.8
2 11 4 0.38 0.87
2 11 4 1.18 1.27
-3 -11 -4 10.17 2.27
-3 -11 -4 9.3 2.43
3 11 4 7.75 1.6
3 11 4 7.92 2.4
3 11 4 8.11 1.84
-4 -11 -4 0.81 1.64
-4 -11 -4 -0.29 1.55
4 11 4 0.09 1.91
4 11 4 -0.44 1.36
-5 -11 -4 3.63 2.04
-5 -11 -4 0.41 1.53
5 11 4 3.29 2
5 11 4 2.74 1.77
-6 -11 -4 -4.37 1.33
-6 -11 -4 2.33 1.71
6 11 4 -1.72 1.54
6 11 4 0.43 2.1
-7 -11 -4 3.97 1.75
-7 -11 -4 -1.61 1.73
7 11 4 4.58 2.35
7 11 4 1.76 2.25
-8 -11 -4 2.34 2.14
-8 -11 -4 0.26 1.4
8 11 4 0.84 2.08
8 11 4 -0.92 2.11
-9 -11 -4 0.04 1.96
9 11 4 -0.97 2.1
9 11 4 7.28 2.51
3 -12 -4 5.37 2.29
3 -12 -4 -0.49 1.25
-3 12 4 -0.46 1.89
-3 12 4 2.09 1.82
2 -12 -4 3.4 1.58
2 -12 -4 1.75 1.81
-2 12 4 -5 1.67
-2 12 4 3.05 2.05
1 -12 -4 2.99 1.54
1 -12 -4 3.89 2.08
-1 12 4 -1.55 1.33
-1 12 4 2.05 2.24
0 -12 -4 -0.86 1.46
0 -12 -4 1.88 1.66
0 12 4 9.54 2.19
0 12 4 5.62 2.53
-1 -12 -4 5.7 2.14
-1 -12 -4 3.02 1.78
1 12 4 7.28 1.96
1 12 4 6.16 2.32
-2 -12 -4 -2.19 1.45
-2 -12 -4 -1.01 1.44
2 12 4 1.58 2.03
2 12 4 0.38 1.07
-3 -12 -4 -0.85 1.35
-3 -12 -4 0.09 1.7
3 12 4 0.93 2.03
-4 -12 -4 -1.14 1.52
-4 -12 -4 -0.69 1.45
4 12 4 0.6 1.98
4 12 4 -1.32 1.35
-5 -12 -4 1.46 1.62
-5 -12 -4 1.85 1.78
5 12 4 4.53 2.31
5 12 4 6.33 2.04
-6 -12 -4 -2.1 1.31
-6 -12 -4 0.91 1.8
6 12 4 0.6 1.97
6 12 4 3.19 2
-7 -12 -4 1.21 1.45
-7 -12 -4 -1.81 1.58
7 12 4 -0.14 2.31
7 12 4 -1.38 1.86
-8 -12 -4 1.05 2.16
-8 -12 -4 2.27 1.51
8 12 4 -1.84 1.9
8 12 4 -2.61 1.98
1 -13 -4 5.08 1.92
1 -13 -4 4.15 2.09
-1 13 4 2.87 2.08
-1 13 4 4.79 1.87
0 -13 -4 6.15 2.08
0 -13 -4 0.66 1.49
0 13 4 3.96 1.79
0 13 4 4.83 2.5
-1 -13 -4 3.39 1.49
-1 -13 -4 -3.11 1.35
1 13 4 6.32 1.72
1 13 4 -0.97 2.02
-2 -13 -4 4.02 2.23
-2 -13 -4 0.8 1.74
2 13 4 -3.24 1.49
-3 -13 -4 1.21 1.91
-3 -13 -4 0.85 1.61
3 13 4 5.4 2.51
-4 -13 -4 2.33 1.67
-4 -13 -4 2.54 1.93
4 13 4 -2.27 1.75
-5 -13 -4 2.92 1.71
-5 -13 -4 3.47 2.29
5 13 4 2.73 2.39
5 13 4 -0.66 1.46
-6 -13 -4 0.09 1.93
-6 -13 -4 3.21 1.86
6 13 4 1.84 1.98
6 13 4 4.18 2.37
5 13 -5 5.42 2.44
5 13 -5 7.41 2.02
-5 -13 5 6.99 2.55
4 13 -5 9.86 2.33
4 13 -5 16.01 3.16
-4 -13 5 7.25 2.5
3 13 -5 4.88 2.18
3 13 -5 4.17 2.13
-3 -13 5 1.11 2.02
2 13 -5 1.81 1.69
2 13 -5 0.07 1.66
-2 -13 5 0.61 1.97
1 13 -5 8.61 2.26
1 13 -5 16.12 3.12
-1 -13 5 12.36 2.43
-1 -13 5 14.91 3.38
0 13 -5 4.81 1.75
0 13 -5 6.99 2.3
0 -13 5 2.52 2.1
0 -13 5 3.74 1.9
7 12 -5 -2.72 1.83
-7 -12 5 3.2 2.08
6 12 -5 6.05 2.61
6 12 -5 9.09 2.1
-6 -12 5 5.4 2.37
-6 -12 5 14.08 2.28
5 12 -5 5.75 1.85
5 12 -5 2.61 2.04
-5 -12 5 7.15 2.53
4 12 -5 -0.46 1.43
4 12 -5 4.04 2.12
-4 -12 5 0.39 1.71
3 12 -5 25.54 3.51
3 12 -5 21.53 3.12
-3 -12 5 20.53 3.63
2 12 -5 5.42 2.14
2 12 -5 3.68 2.15
-2 -12 5 5.29 1.85
-2 -12 5 3.73 2
1 12 -5 7.95 2.24
1 12 -5 9.01 2.49
-1 -12 5 6.5 2.48
-1 -12 5 6.99 2
0 12 -5 3.21 1.59
0 12 -5 1.69 1.88
0 -12 5 -1.1 1.64
0 -12 5 -0.48 1.36
-1 12 -5 7.05 2.01
-1 12 -5 2.59 2.01
1 -12 5 5.69 2.19
1 -12 5 2.64 2.1
-2 12 -5 37.82 4.28
2 -12 5 26.8 3.58
2 -12 5 34.91 3.9
8 11 -5 5.5 2.78
-8 -11 5 7.56 2.68
7 11 -5 6.22 2.83
-7 -11 5 0.03 1.78
6 11 -5 3.03 1.44
6 11 -5 -2.91 1.67
-6 -11 5 0.08 1.9
-6 -11 5 1.78 1.37
5 11 -5 2.73 1.99
5 11 -5 2.28 1.56
-5 -11 5 3.16 1.3
-5 -11 5 0.94 1.76
4 11 -5 3.13 1.64
4 11 -5 -2.13 1.66
-4 -11 5 3.62 2.07
-4 -11 5 1.27 0.98
3 11 -5 31.61 3.27
3 11 -5 36.08 3.77
-3 -11 5 31.97 2.73
-3 -11 5 35.85 3.69
2 11 -5 1.27 1.57
2 11 -5 2.19 1.64
-2 -11 5 3.5 1.93
-2 -11 5 0.89 1.31
1 11 -5 11.81 2.5
1 11 -5 13.47 2.72
-1 -11 5 9.37 2.53
-1 -11 5 9.11 2.17
0 11 -5 59.26 4.1
0 11 -5 58.87 4.33
0 -11 5 64.94 4.57
0 -11 5 57.04 4.1
-1 11 -5 11.28 2.58
-1 11 -5 7.67 2.22
1 -11 5 10.89 2.67
1 -11 5 5.74 2.24
-2 11 -5 2.56 1.39
-2 11 -5 2.09 1.76
2 -11 5 -2.13 1.35
2 -11 5 1.49 1.56
-3 11 -5 23.52 3.74
3 -11 5 19.95 3.19
3 -11 5 11.57 2.81
-4 11 -5 -1.33 1.57
4 -11 5 -1.05 1.62
4 -11 5 0.75 1.77
9 10 -5 3.85 2.21
9 10 -5 1.07 1.62
-9 -10 5 2.9 2.16
8 10 -5 9.91 3.01
-8 -10 5 5.79 2.4
7 10 -5 0.52 1.94
-7 -10 5 -0.22 1.71
6 10 -5 28.77 2.65
6 10 -5 25.52 3.72
-6 -10 5 27.83 3.66
-6 -10 5 28.22 2.92
5 10 -5 5.7 1.55
5 10 -5 4.68 2.09
-5 -10 5 3.87 1.6
-5 -10 5 7.11 2.09
4 10 -5 1.5 1.7
4 10 -5 0.44 1.29
-4 -10 5 0.92 1
-4 -10 5 1.48 1.03
-4 -10 5 -0.3 1.44
3 10 -5 34.61 3.55
3 10 -5 41.41 3.28
-3 -10 5 34.87 2.37
-3 -10 5 39.07 2.88
-3 -10 5 35.57 3.57
2 10 -5 48.34 3.8
2 10 -5 52.94 3.72
-2 -10 5 48.72 4.01
-2 -10 5 50.42 3.33
1 10 -5 9.66 2.39
1 10 -5 9.1 2.23
-1 -10 5 4.7 1.95
-1 -10 5 9.91 2.13
0 10 -5 0.6 1.47
0 10 -5 -0.84 1.2
0 -10 5 0.12 1.36
0 -10 5 -0.31 1.4
-1 10 -5 -0.36 1.4
-1 10 -5 -0.45 1.52
1 -10 5 0.25 1.54
1 -10 5 0.14 1.61
-2 10 -5 10.97 2.65
-2 10 -5 13.82 2.49
2 -10 5 19.96 3.13
2 -10 5 14.31 2.71
-3 10 -5 3.83 1.73
-3 10 -5 5.37 2.37
3 -10 5 7 2.34
3 -10 5 7.42 2.31
-4 10 -5 11.39 2.79
-4 10 -5 7.07 1.91
4 -10 5 7.43 2.51
4 -10 5 7.3 2.43
-5 10 -5 1.69 1.86
5 -10 5 -0.51 1.79
5 -10 5 -0.17 1.6
9 9 -5 -1.71 1.6
9 9 -5 5.2 2.55
-9 -9 5 -1.13 1.88
8 9 -5 10.57 2.51
8 9 -5 14.71 3.12
-8 -9 5 9.34 2.64
7 9 -5 5.04 2.32
-7 -9 5 16.45 3.32
6 9 -5 -0.28 0.98
6 9 -5 0.99 1.86
-6 -9 5 0.83 1.76
5 9 -5 22.65 3.32
5 9 -5 17.77 2.23
-5 -9 5 25.31 2.08
-5 -9 5 16.03 2.83
4 9 -5 47.94 3.88
4 9 -5 54.83 3.26
-4 -9 5 50.54 3.79
-4 -9 5 53.14 2.9
3 9 -5 48.71 3.74
3 9 -5 62.3 3.52
-3 -9 5 52.83 3.12
-3 -9 5 51.98 3.66
2 9 -5 4.77 1.64
2 9 -5 2.57 1.54
-2 -9 5 5.25 1.88
-2 -9 5 4.26 1.46
1 9 -5 4.99 0.85
1 9 -5 4.27 1.73
1 9 -5 5.58 1.77
-1 -9 5 1.89 1.38
-1 -9 5 4.49 1.82
0 9 -5 48.78 3.41
0 9 -5 48.12 3.46
0 -9 5 45.29 3.52
0 -9 5 44.43 3.3
-1 9 -5 10.29 2.24
-1 9 -5 14.55 2.42
1 -9 5 9.24 2.21
1 -9 5 11.24 2.32
-2 9 -5 15.44 2.8
-2 9 -5 16.15 2.51
2 -9 5 20.5 2.93
2 -9 5 16.07 2.61
-3 9 -5 0.26 1.37
-3 9 -5 1.15 1.68
3 -9 5 2.32 1.77
3 -9 5 -0.45 1.38
-4 9 -5 2.72 1.62
-4 9 -5 2.7 1.91
4 -9 5 3.95 1.89
4 -9 5 1.7 1.91
-5 9 -5 15.05 3.13
-5 9 -5 26.3 2.8
5 -9 5 19.71 3.41
5 -9 5 22.07 3.16
-6 9 -5 2.78 2.42
6 -9 5 2.28 1.67
6 -9 5 3.7 2.06
10 8 -5 12.18 2.9
10 8 -5 10.03 3.29
-10 -8 5 8.99 2.76
9 8 -5 3.91 2.34
9 8 -5 -1.41 1.61
-9 -8 5 3.76 2.19
8 8 -5 -2.52 1.57
8 8 -5 2.88 1.89
-8 -8 5 2.68 1.98
7 8 -5 19.42 2.86
7 8 -5 18.72 1.98
7 8 -5 19.65 3.24
-7 -8 5 14.88 2.93
6 8 -5 -0.17 0.98
6 8 -5 5.68 2.04
-6 -8 5 2.21 0.96
-6 -8 5 1.94 1.67
5 8 -5 30.79 3.36
5 8 -5 25.8 2.16
-5 -8 5 27.49 2.15
-5 -8 5 23.31 2.89
4 8 -5 7.36 1.6
4 8 -5 5.51 1.89
-4 -8 5 4.25 1.64
-4 -8 5 6.44 1.51
3 8 -5 -0.31 1.07
3 8 -5 -0.01 1.31
-3 -8 5 -0.37 1.18
-3 -8 5 0.07 1.01
2 8 -5 57.55 3.26
2 8 -5 53.1 3.56
2 8 -5 50.1 2.27
-2 -8 5 54.6 3.14
-2 -8 5 45.64 3.29
1 8 -5 1.14 0.46
1 8 -5 0.88 1.27
1 8 -5 1.2 0.59
1 8 -5 -0.13 1.09
-1 -8 5 0.13 1.25
-1 -8 5 1.3 1.23
0 8 -5 59.81 3.61
0 8 -5 68.35 3.79
0 -8 5 56.37 3.46
0 -8 5 63.53 3.73
-1 8 -5 6.09 1.86
-1 8 -5 8.16 1.91
1 -8 5 9.19 2.06
1 -8 5 5.2 1.74
-2 8 -5 0.07 1.4
-2 8 -5 -0.21 1.05
2 -8 5 0.65 1.38
2 -8 5 1.42 1.32
-3 8 -5 50.7 3.51
-3 8 -5 54.69 3.94
3 -8 5 50.41 3.51
3 -8 5 57.43 4.07
-4 8 -5 -0.71 1.37
-4 8 -5 2.37 1.41
4 -8 5 -1.4 1.15
4 -8 5 -0.71 1.3
-5 8 -5 1.6 1.48
-5 8 -5 0.18 1.59
5 -8 5 -1.11 1.49
5 -8 5 3.2 1.81
-6 8 -5 -0.15 1.93
-6 8 -5 -0.66 1.42
6 -8 5 1.07 1.72
6 -8 5 0.06 1.58
-7 8 -5 3.76 1.98
7 -8 5 0.32 1.43
7 -8 5 0.6 1.92
10 7 -5 3.26 2.23
10 7 -5 -1.5 1.93
-10 -7 5 0.64 1.95
9 7 -5 1.06 2.04
9 7 -5 0.88 1.84
-9 -7 5 1.72 1.95
8 7 -5 1.16 2
8 7 -5 -1.38 1.57
-8 -7 5 -0.24 1.84
7 7 -5 26.77 3.39
7 7 -5 17.92 2.9
7 7 -5 21.85 1.86
-7 -7 5 21.3 1.82
-7 -7 5 20.98 3.07
6 7 -5 1.8 0.9
6 7 -5 1.29 1.56
6 7 -5 0.9 1.37
-6 -7 5 0.26 0.94
-6 -7 5 2.31 1.67
5 7 -5 3.31 1.81
5 7 -5 1.9 1.27
5 7 -5 2.16 0.95
-5 -7 5 1.25 1
-5 -7 5 0.34 1.31
4 7 -5 37.25 2.56
4 7 -5 40.8 3.29
4 7 -5 39.13 2.35
-4 -7 5 37.71 2.44
-4 -7 5 35.37 2.97
3 7 -5 1.01 0.93
3 7 -5 0.19 0.97
3 7 -5 2.22 1.46
-3 -7 5 1.87 1.43
-3 -7 5 1.69 1.07
2 7 -5 121.57 3.41
2 7 -5 117.72 4.71
2 7 -5 115.63 4.05
2 7 -5 106.86 3.2
-2 -7 5 115.23 4.12
-2 -7 5 111.84 4.45
1 7 -5 2.22 1.27
1 7 -5 3.12 1.42
1 7 -5 4.15 0.85
1 7 -5 1.74 0.57
-1 -7 5 3.59 1.48
-1 -7 5 5.9 1.6
0 7 -5 10.46 1.92
0 7 -5 13.24 2.16
0 -7 5 13.27 2.1
0 -7 5 15.14 2.08
-1 7 -5 103.53 4.51
-1 7 -5 102.71 4.39
1 -7 5 102.09 4.23
1 -7 5 98.64 4.37
-2 7 -5 17.04 2.28
-2 7 -5 16.05 2.53
2 -7 5 19.17 2.38
2 -7 5 19.41 2.54
-3 7 -5 9.05 2
-3 7 -5 13.4 2.27
3 -7 5 14.67 2.36
3 -7 5 13.43 2.26
-4 7 -5 -0.75 1.14
-4 7 -5 0.66 1.39
4 -7 5 0.26 1.32
4 -7 5 1.01 1.24
-5 7 -5 17 2.94
-5 7 -5 14.36 2.43
5 -7 5 9.88 2.2
5 -7 5 12.74 2.67
-6 7 -5 51.72 3.75
-6 7 -5 48.51 4.13
6 -7 5 49 3.73
6 -7 5 47.86 4.22
-7 7 -5 2.41 1.36
-7 7 -5 2.89 2.14
7 -7 5 0.36 1.39
7 -7 5 3.11 2.26
-8 7 -5 1.9 2.12
8 -7 5 1.37 1.86
8 -7 5 1.36 1.7
11 6 -5 -2.64 2
11 6 -5 -1.59 2.02
-11 -6 5 2.63 2.29
10 6 -5 10.9 3.1
10 6 -5 9.13 3.13
-10 -6 5 6.5 2.63
9 6 -5 12.34 2.86
9 6 -5 13.97 2.91
-9 -6 5 10.37 2.74
8 6 -5 1.36 1.96
8 6 -5 2.67 1.78
-8 -6 5 0.58 1.81
-8 -6 5 0.81 0.91
7 6 -5 0.96 1.42
7 6 -5 2.65 1.89
-7 -6 5 2.08 1.04
-7 -6 5 1.74 1.65
6 6 -5 20.13 2.91
6 6 -5 25.37 1.57
6 6 -5 22.52 2.59
-6 -6 5 21 2.73
-6 -6 5 23.42 2.09
5 6 -5 13.39 2.11
5 6 -5 10.89 2.13
5 6 -5 13.07 1.42
-5 -6 5 13.71 1.87
-5 -6 5 8.95 1.18
-5 -6 5 10.78 2.13
4 6 -5 88.77 3.63
4 6 -5 89.13 2.96
4 6 -5 92.91 4.28
-4 -6 5 84.74 4.01
-4 -6 5 89.26 3.47
3 6 -5 0.61 0.95
3 6 -5 2.33 1
3 6 -5 1.35 1.28
-3 -6 5 -0.4 0.86
-3 -6 5 0.11 1.02
2 6 -5 27.8 1.8
2 6 -5 26.33 2.02
2 6 -5 28.22 2.49
2 6 -5 28.27 1.66
-2 -6 5 29.79 2.29
-2 -6 5 29.9 2.42
1 6 -5 94.69 2.52
1 6 -5 96.71 4
1 6 -5 99.69 3.65
1 6 -5 95.8 2.56
-1 -6 5 95.34 3.91
-1 -6 5 98.71 3.77
0 6 -5 31.99 2.49
0 6 -5 24.29 2.34
0 -6 5 27.63 2.27
0 -6 5 22.93 2.27
-1 6 -5 17.41 2.17
-1 6 -5 19.61 2.3
1 -6 5 18.04 2.13
1 -6 5 16.19 1.97
-2 6 -5 2.17 1.21
-2 6 -5 -0.83 0.98
2 -6 5 0.42 1.08
2 -6 5 1.63 1.21
-3 6 -5 79.33 4.07
-3 6 -5 74.14 3.8
3 -6 5 75.78 3.63
3 -6 5 82.38 4.21
-4 6 -5 62.31 3.85
-4 6 -5 59.09 3.67
4 -6 5 67.06 4.03
4 -6 5 68.47 3.57
-5 6 -5 -0.83 1.37
-5 6 -5 0.19 1.26
5 -6 5 -1.24 1.26
5 -6 5 -0.66 1.16
-6 6 -5 13 2.63
-6 6 -5 15.84 2.59
6 -6 5 15.22 2.81
6 -6 5 17.65 2.59
-7 6 -5 8 2.42
-7 6 -5 8.84 2.17
7 -6 5 12.72 2.41
7 -6 5 10.18 2.74
-8 6 -5 1.73 2.2
-8 6 -5 2.39 1.65
8 -6 5 4.14 2.34
8 -6 5 1.17 1.42
-9 6 -5 -0.74 1.84
9 -6 5 0.58 1.34
9 -6 5 2.83 2.3
11 5 -5 2.62 2.19
11 5 -5 2.26 2.49
-11 -5 5 11.71 3.01
10 5 -5 -2.02 1.95
10 5 -5 0.69 2.05
-10 -5 5 -0.07 1.93
9 5 -5 1.77 1.88
9 5 -5 -2.09 1.83
-9 -5 5 1.12 1.88
-9 -5 5 -0.78 0.87
8 5 -5 -2.12 1.36
8 5 -5 4.27 1.95
-8 -5 5 3.41 1.83
-8 -5 5 2.07 1.09
7 5 -5 40.59 3.57
7 5 -5 43.67 3.46
-7 -5 5 39.29 3.44
-7 -5 5 43.18 2.69
6 5 -5 38.67 1.44
6 5 -5 40.62 3.2
6 5 -5 39.58 3.18
-6 -5 5 41.59 2.6
-6 -5 5 43.87 3.42
-6 -5 5 39.35 1.37
5 5 -5 5.79 1.71
5 5 -5 7.93 1.8
5 5 -5 5.73 0.89
-5 -5 5 5.14 1.62
-5 -5 5 5.75 1.37
-5 -5 5 5.25 0.83
4 5 -5 21.06 2.36
4 5 -5 21.62 2.08
4 5 -5 23.91 1.52
-4 -5 5 19.54 2.35
-4 -5 5 23.33 2.06
-4 -5 5 21.79 1.39
3 5 -5 59.7 3.22
3 5 -5 65.56 2.4
3 5 -5 66.39 2.86
-3 -5 5 69.98 2.98
-3 -5 5 63.71 2.26
-3 -5 5 68.49 3.3
2 5 -5 48.95 2.96
2 5 -5 46.91 2.26
2 5 -5 52.72 2.27
2 5 -5 50.15 2.16
-2 -5 5 49.61 2.58
-2 -5 5 53.22 2.93
1 5 -5 59.55 3.06
1 5 -5 54.34 2.64
1 5 -5 54.38 1.97
1 5 -5 54.07 1.93
-1 -5 5 55.88 2.85
-1 -5 5 58.25 2.92
0 5 -5 1.98 1.13
0 5 -5 2.01 0.5
0 5 -5 2.04 0.52
0 5 -5 1.02 0.99
0 -5 5 1.91 1.06
0 -5 5 2 1.14
-1 5 -5 82.25 3.61
-1 5 -5 84.62 3.44
1 -5 5 79.28 3.54
1 -5 5 81.35 3.29
-2 5 -5 84.09 3.67
-2 5 -5 91.51 3.84
2 -5 5 83.99 3.85
2 -5 5 89.53 3.45
-3 5 -5 0.58 1.07
-3 5 -5 -0.51 1.01
3 -5 5 0.97 1.14
3 -5 5 0.12 0.99
-4 5 -5 20.27 2.51
-4 5 -5 20.59 2.51
4 -5 5 23.46 2.24
4 -5 5 17.89 2.5
-5 5 -5 -1.09 0.99
-5 5 -5 0.36 1.22
5 -5 5 0.29 1.16
5 -5 5 0.59 1.26
-6 5 -5 4.15 1.7
-6 5 -5 7.13 2
6 -5 5 4.02 1.61
6 -5 5 3.17 1.8
-7 5 -5 5.13 2.05
-7 5 -5 4.98 1.92
7 -5 5 3.48 1.55
7 -5 5 5.79 2.23
-8 5 -5 3.14 1.63
-8 5 -5 6.78 2.54
8 -5 5 4.8 2.1
8 -5 5 2.78 1.66
-9 5 -5 10.18 2.41
-9 5 -5 7.65 2.57
9 -5 5 6.52 2.43
9 -5 5 9.41 2.12
11 4 -5 2.57 2.29
11 4 -5 1.08 2.13
-11 -4 5 -3.83 1.51
10 4 -5 -0.45 2.01
10 4 -5 -0.79 1.78
-10 -4 5 1.61 2.09
9 4 -5 65.43 4.56
9 4 -5 66.9 4.58
-9 -4 5 67.55 4.65
-9 -4 5 64.86 3.57
8 4 -5 29.77 3.44
8 4 -5 21 3.17
-8 -4 5 28.75 2.52
-8 -4 5 27.63 3.3
7 4 -5 0.9 1.52
7 4 -5 0.44 1.51
-7 -4 5 1.83 1.57
-7 -4 5 0.55 1.14
6 4 -5 28.8 2.82
6 4 -5 24.52 2.71
-6 -4 5 24.79 2.28
-6 -4 5 22.97 2.65
5 4 -5 2.16 1.31
5 4 -5 3.8 1.48
-5 -4 5 3.77 1.53
-5 -4 5 1.88 1.21
4 4 -5 77.62 3.38
4 4 -5 72.62 1.92
4 4 -5 75.83 3.55
-4 -4 5 75.26 3.19
-4 -4 5 77.43 3.57
-4 -4 5 70.14 1.91
3 4 -5 40.01 1.7
3 4 -5 41.69 2.35
3 4 -5 37.89 2.63
-3 -4 5 40.49 2.6
-3 -4 5 40.51 1.6
-3 -4 5 41.54 2.45
2 4 -5 -0.47 0.83
2 4 -5 0.23 0.74
2 4 -5 1.08 0.77
2 4 -5 0.39 0.6
-2 -4 5 -0.88 0.79
-2 -4 5 0.67 0.57
-2 -4 5 -0.05 0.92
1 4 -5 224.3 4.09
1 4 -5 226.14 4.58
1 4 -5 225.77 5.59
1 4 -5 213.69 4.08
-1 -4 5 223.68 5.21
-1 -4 5 214.01 4.42
-1 -4 5 221.47 5.05
0 4 -5 95.18 2.18
0 4 -5 99.31 3.62
0 4 -5 101.37 3.29
0 4 -5 96.68 2.19
0 -4 5 106.48 3.42
0 -4 5 102.84 3.61
-1 4 -5 18.71 1.8
-1 4 -5 18.4 1.98
1 -4 5 16.82 1.72
1 -4 5 16.26 1.96
-2 4 -5 -0.13 0.81
-2 4 -5 0.41 0.94
2 -4 5 0.65 1
2 -4 5 -0.16 0.78
-3 4 -5 0.56 1.07
-3 4 -5 -0.35 0.94
3 -4 5 -1.16 0.86
3 -4 5 0.48 0.89
-4 4 -5 14.14 2.16
-4 4 -5 20.7 2.25
4 -4 5 20.52 2.04
4 -4 5 18.97 2.37
-5 4 -5 16.28 2.32
-5 4 -5 19.46 2.46
5 -4 5 16.32 2.35
5 -4 5 17.7 1.12
5 -4 5 20.86 2.13
5 -4 5 19.11 1.06
-6 4 -5 -0.82 1.26
-6 4 -5 0.91 1.45
6 -4 5 2.41 1.58
6 -4 5 -0.87 0.98
6 -4 5 -0.85 0.6
-7 4 -5 15.37 2.6
-7 4 -5 12.19 2.4
7 -4 5 17.26 1.58
7 -4 5 16.63 2.28
7 -4 5 16.03 2.82
-8 4 -5 7.66 2.36
-8 4 -5 5.11 1.85
8 -4 5 -0.34 1.59
8 -4 5 7.78 1.87
-9 4 -5 6.36 2.19
-9 4 -5 6.73 2.34
9 -4 5 13.18 2.29
9 -4 5 6.52 2.47
-10 4 -5 -1 1.77
-10 4 -5 -3.2 1.15
10 -4 5 -0.62 1.87
10 -4 5 2.29 1.2
11 3 -5 41.23 4.46
11 3 -5 40.43 4.08
-11 -3 5 30.84 4.16
10 3 -5 -2.34 1.7
10 3 -5 0.5 2.01
-10 -3 5 2.62 1.62
-10 -3 5 -1.84 1.78
9 3 -5 -0.19 1.81
9 3 -5 2.41 1.98
-9 -3 5 1.83 1.41
-9 -3 5 -0.85 1.65
8 3 -5 31.67 3.27
8 3 -5 24.72 3.26
-8 -3 5 28.52 2.71
-8 -3 5 30.86 3.31
7 3 -5 -2.86 1.15
7 3 -5 0.2 1.41
-7 -3 5 -0.62 1.1
-7 -3 5 0.82 1.46
6 3 -5 88.59 4.11
6 3 -5 90.82 4.1
-6 -3 5 89.49 3.82
-6 -3 5 84.85 4.19
5 3 -5 21.32 2.28
5 3 -5 21.84 2.36
-5 -3 5 20.25 2.31
-5 -3 5 20.93 2.14
4 3 -5 6.15 1.54
4 3 -5 8.89 1.65
-4 -3 5 11.78 1.84
-4 -3 5 9.75 1.7
3 3 -5 126.03 4.13
3 3 -5 131.92 2.44
3 3 -5 134.8 3.97
-3 -3 5 127.26 4.07
-3 -3 5 130.64 3.91
-3 -3 5 129.86 2.38
2 3 -5 40.64 1.67
2 3 -5 38.73 2.43
2 3 -5 44.02 2.15
-2 -3 5 41.15 2.31
-2 -3 5 41.02 1.56
-2 -3 5 42.8 2.44
1 3 -5 5.63 1.33
1 3 -5 5.35 0.99
1 3 -5 5.52 1
-1 -3 5 5.24 0.94
-1 -3 5 5.55 1.18
-1 -3 5 4.54 1.14
0 3 -5 12.78 1.42
0 3 -5 12.63 1.07
0 3 -5 12.24 1.67
0 -3 5 12.05 1.41
0 -3 5 11.43 1.65
0 -3 5 12.4 1.02
-1 3 -5 5.52 0.99
-1 3 -5 5.19 1.3
-1 3 -5 5.61 1.16
-1 3 -5 5.72 0.75
1 -3 5 6.78 0.72
1 -3 5 6.46 1.37
1 -3 5 7.3 1.21
-2 3 -5 32.6 2.17
-2 3 -5 35.14 1.04
-2 3 -5 37.39 1.89
-2 3 -5 33.83 2.46
2 -3 5 35.57 1.91
2 -3 5 31.02 2.29
-3 3 -5 35.49 2.54
-3 3 -5 32.86 2.36
-3 3 -5 33.2 1.87
3 -3 5 32.43 1.11
3 -3 5 34.61 1.95
3 -3 5 32.04 2.49
-4 3 -5 0.8 0.5
-4 3 -5 -0.43 1.07
-4 3 -5 0.87 1.03
4 -3 5 0.02 0.99
4 -3 5 0.9 0.47
4 -3 5 0.87 0.91
-5 3 -5 12.37 2.13
-5 3 -5 13.89 2.24
-5 3 -5 9.52 1.06
5 -3 5 11.09 1.66
5 -3 5 10.47 1
5 -3 5 6.66 1.75
-6 3 -5 13.1 2.3
-6 3 -5 15.66 2.44
6 -3 5 12.75 2.25
6 -3 5 12.98 1.17
6 -3 5 14.87 1.94
-7 3 -5 20.94 2.93
-7 3 -5 23.59 2.92
7 -3 5 19.31 1.83
7 -3 5 21.65 2.28
7 -3 5 20.94 2.85
-8 3 -5 4.84 1.9
-8 3 -5 5.96 2
8 -3 5 4.79 2.02
8 -3 5 6.65 1.49
8 -3 5 5.03 1.63
-9 3 -5 3.62 2.05
-9 3 -5 8.04 2.43
9 -3 5 6.41 1.76
9 -3 5 6.66 2.36
-10 3 -5 3.4 1.94
10 -3 5 2.33 1.49
10 -3 5 0.24 1.63
11 2 -5 -1.24 1.71
11 2 -5 5.46 2.06
-11 -2 5 5.55 1.61
-11 -2 5 0.46 2.01
10 2 -5 9.17 2.47
10 2 -5 9.07 2.54
-10 -2 5 9 2.66
-10 -2 5 9.83 2.24
9 2 -5 5.61 2.22
9 2 -5 3.94 2.18
-9 -2 5 6.07 1.72
-9 -2 5 2.06 1.93
8 2 -5 61.44 3.84
8 2 -5 55.9 4.1
-8 -2 5 63.1 3.7
-8 -2 5 64.98 4.31
7 2 -5 1.25 1.45
7 2 -5 0.18 1.33
-7 -2 5 4.09 1.53
-7 -2 5 1.41 1.45
6 2 -5 5.88 1.62
6 2 -5 5.79 1.64
-6 -2 5 7.55 1.82
-6 -2 5 5.02 1.56
5 2 -5 113.57 4.17
5 2 -5 113.14 4.3
-5 -2 5 112.14 4.37
-5 -2 5 116.74 4.1
4 2 -5 -0.21 0.93
4 2 -5 -0.2 0.92
-4 -2 5 0.56 1.06
-4 -2 5 -0.26 0.92
3 2 -5 12.98 1.74
3 2 -5 9.68 1.6
-3 -2 5 11.11 1.73
-3 -2 5 11.33 1.69
2 2 -5 0.81 0.89
2 2 -5 1.27 0.87
2 2 -5 0.39 0.49
-2 -2 5 0.26 0.84
-2 -2 5 1.01 0.44
-2 -2 5 1.03 0.96
1 2 -5 2.84 0.76
1 2 -5 1.69 0.82
1 2 -5 2.6 1.07
-1 -2 5 0.64 0.88
-1 -2 5 1.94 0.92
-1 -2 5 2.24 0.68
-1 -2 5 3.39 0.88
0 2 -5 35.94 1.87
0 2 -5 36.01 1.71
0 2 -5 35.6 2.21
0 2 -5 34.88 1.6
0 -2 5 35.45 1.77
0 -2 5 32.25 1.69
0 -2 5 34.05 1.56
0 -2 5 37.01 2.2
-1 2 -5 9.45 1.4
-1 2 -5 9.67 1.05
-1 2 -5 10.91 1.41
-1 2 -5 10.25 1.06
1 -2 5 10.97 1.62
1 -2 5 9.86 0.94
1 -2 5 9.94 1.17
-2 2 -5 6.04 0.96
-2 2 -5 8.93 1.6
-2 2 -5 7.45 1.34
-2 2 -5 5.91 0.82
2 -2 5 5.31 1.3
2 -2 5 5.69 0.79
2 -2 5 7.5 1.09
-3 2 -5 32 2.28
-3 2 -5 29.92 1.38
-3 2 -5 33.87 2.51
-3 2 -5 31.4 1.6
3 -2 5 31.96 2.35
3 -2 5 31.98 1.67
3 -2 5 30.41 1.37
-4 2 -5 10.8 1.14
-4 2 -5 9.07 1.09
-4 2 -5 7.8 1.57
-4 2 -5 9.63 1.8
4 -2 5 9.09 1.23
4 -2 5 11.94 1.88
4 -2 5 9.09 0.98
-5 2 -5 45.1 2.08
-5 2 -5 48.13 3.21
-5 2 -5 48.13 3.04
5 -2 5 44.7 2.23
5 -2 5 48.13 2.99
5 -2 5 45.72 1.95
-6 2 -5 0.85 1.21
-6 2 -5 0.22 1.25
-6 2 -5 1.41 0.91
6 -2 5 -0.3 1.17
6 -2 5 1.46 1
-7 2 -5 46.5 2.61
-7 2 -5 47.83 3.59
-7 2 -5 47.99 3.53
7 -2 5 38.34 3.24
7 -2 5 47.46 2.75
-8 2 -5 1.87 1.67
-8 2 -5 3.28 1.79
8 -2 5 5.86 1.96
8 -2 5 -0.49 1.08
-9 2 -5 0.73 1.75
9 -2 5 2.85 1.29
9 -2 5 2.9 1.43
9 -2 5 4.33 1.97
-10 2 -5 -0.12 1.74
10 -2 5 1.25 1.23
10 -2 5 2.78 2.4
10 -2 5 0.11 1.42
-11 2 -5 5.09 2.1
11 -2 5 0.81 1.9
11 -2 5 4.36 1.79
11 1 -5 8.74 2.8
11 1 -5 11.77 2.34
-11 -1 5 7.22 2.86
10 1 -5 51.28 3.89
10 1 -5 47.36 4.33
-10 -1 5 48 3.86
-10 -1 5 50.8 4.65
9 1 -5 0.06 1.75
9 1 -5 0.39 1.43
-9 -1 5 0.37 1.44
-9 -1 5 -1.61 1.42
8 1 -5 2.52 1.64
8 1 -5 4.79 1.76
-8 -1 5 4.92 1.74
-8 -1 5 2.23 1.97
7 1 -5 51.61 3.27
7 1 -5 50.27 3.67
-7 -1 5 44.66 3.23
-7 -1 5 42.38 3.57
6 1 -5 -0.13 1.2
6 1 -5 0.41 1.13
-6 -1 5 0.69 1.23
-6 -1 5 0.31 1.21
5 1 -5 21.1 2.09
5 1 -5 21.38 2.25
-5 -1 5 19.11 2.25
-5 -1 5 21.2 2.24
4 1 -5 0.29 1.03
4 1 -5 0.37 1.02
-4 -1 5 0.36 1.05
-4 -1 5 -1.67 0.94
3 1 -5 13.86 1.67
3 1 -5 18.53 1.94
-3 -1 5 16.21 1.88
-3 -1 5 17.57 1.89
2 1 -5 238.49 5.07
2 1 -5 233.05 4.99
-2 -1 5 234.75 3.17
-2 -1 5 242.18 5.03
-2 -1 5 232.61 3.24
-2 -1 5 242.69 5.31
1 1 -5 43.74 2.07
1 1 -5 43.18 2.28
-1 -1 5 47.17 2.09
-1 -1 5 46.05 1.64
-1 -1 5 46.41 2.09
-1 -1 5 44.53 1.67
-1 -1 5 44.28 2.36
0 1 -5 17.36 1.73
0 1 -5 23.57 1.36
0 1 -5 21.23 1.45
0 -1 5 19.7 1.39
0 -1 5 18.25 1.77
0 -1 5 19.36 1.37
0 -1 5 19.31 1.34
-1 1 -5 11.57 1.32
-1 1 -5 13.26 1.29
-1 1 -5 13.36 1.02
-1 1 -5 11.94 1.56
1 -1 5 12.31 1.38
1 -1 5 13.3 1.58
1 -1 5 14.24 1.08
1 -1 5 15.22 1.2
-2 1 -5 5.77 0.95
-2 1 -5 5.29 1.15
-2 1 -5 3.32 1.18
-2 1 -5 4.74 0.74
2 -1 5 5.83 0.79
2 -1 5 5.08 0.89
2 -1 5 4.31 1.15
-3 1 -5 68.94 2.24
-3 1 -5 68.37 2.94
-3 1 -5 67.81 1.9
-3 1 -5 67.66 3.18
3 -1 5 66.79 2.17
3 -1 5 63.25 2.91
3 -1 5 64.41 1.85
-4 1 -5 0.83 1.04
-4 1 -5 2.74 0.92
-4 1 -5 1.89 1.17
4 -1 5 2.87 1.11
4 -1 5 2.88 0.77
4 -1 5 1.33 0.71
4 -1 5 2.42 0.68
-5 1 -5 1.56 1.28
-5 1 -5 -0.13 0.97
-5 1 -5 0.67 0.82
5 -1 5 -0.15 0.72
5 -1 5 -1.22 0.95
5 -1 5 -0.16 0.55
5 -1 5 0.51 0.62
-6 1 -5 1.75 1.42
-6 1 -5 6.64 1.37
6 -1 5 4.7 1.08
6 -1 5 4.42 1.52
-7 1 -5 101.44 3.92
-7 1 -5 107.72 4.94
7 -1 5 99.91 4.44
7 -1 5 106.79 3.64
-8 1 -5 12.04 2.11
-8 1 -5 8.11 2.15
8 -1 5 10.31 2.23
8 -1 5 9.49 2.38
8 -1 5 12.02 1.91
-9 1 -5 5.1 2.03
-9 1 -5 3.61 1.64
9 -1 5 3.14 1.4
9 -1 5 5.16 1.93
9 -1 5 4.39 2.12
-10 1 -5 25.7 3.49
10 -1 5 32.79 3.33
10 -1 5 33.2 2.87
10 -1 5 20.6 3.29
11 -1 5 2.45 1.41
11 -1 5 -0.87 1.82
11 -1 5 0.58 1.26
11 0 -5 1.42 1.98
-11 0 5 -0.14 2.2
-11 0 5 3.74 1.59
10 0 -5 7.98 1.89
10 0 -5 4.49 2.29
-10 0 5 0.76 2.05
-10 0 5 4.68 2.22
9 0 -5 15.26 2.95
9 0 -5 13.27 2.23
-9 0 5 12.17 2.87
-9 0 5 11.41 2.48
8 0 -5 15.3 2.33
8 0 -5 24.18 3.12
-8 0 5 22.1 3.08
-8 0 5 17.83 2.88
7 0 -5 2.47 1.71
7 0 -5 4.25 1.47
-7 0 5 0.87 1.57
-7 0 5 5.17 1.91
6 0 -5 3.34 1.54
6 0 -5 1.18 1.11
-6 0 5 3.59 1.51
-6 0 5 2.4 1.47
5 0 -5 23.41 2.44
5 0 -5 19.8 2
-5 0 5 20.09 2.36
-5 0 5 19.3 2.3
4 0 -5 66.09 2.78
4 0 -5 60.68 3.14
-4 0 5 61.5 3.06
-4 0 5 64.36 3.22
3 0 -5 19.43 1.94
3 0 -5 17.44 1.68
-3 0 5 15.89 1.9
-3 0 5 19.77 1.85
2 0 -5 5.08 1.18
2 0 -5 5.63 1.2
-2 0 5 6.15 0.8
-2 0 5 4.6 0.66
-2 0 5 5.43 1.16
-2 0 5 7.03 1.45
1 0 -5 23.72 1.76
1 0 -5 26.84 1.5
1 0 -5 27.16 1.84
-1 0 5 25.94 1.29
-1 0 5 27.78 1.32
-1 0 5 27.71 1.95
-1 0 5 31.25 1.9
-1 0 5 27.19 1.67
-1 0 5 29.38 1.83
0 0 -5 106.17 3.2
0 0 -5 104.65 3.06
0 0 -5 100.8 2.39
0 0 5 104.67 2.99
0 0 5 100.58 3.18
0 0 5 101.77 2.67
0 0 5 99.38 2.63
0 0 5 97.33 3.21
0 0 5 105.52 2.51
-1 0 -5 27.09 1.71
-1 0 -5 25.06 1.89
-1 0 -5 25.35 1.06
1 0 5 27.74 1.72
1 0 5 28.34 1.15
1 0 5 26.67 1.56
1 0 5 30.71 1.76
1 0 5 26.14 1.94
-2 0 -5 -0.09 0.83
-2 0 -5 -0.17 0.71
2 0 5 -0.11 0.34
2 0 5 -0.5 0.59
2 0 5 0.16 0.86
2 0 5 -0.38 0.85
-3 0 -5 3.25 0.97
-3 0 -5 5.29 1.22
3 0 5 3.35 1.14
3 0 5 4.65 1.19
3 0 5 4.07 0.89
-4 0 -5 7.81 1.61
-4 0 -5 8.09 1.33
4 0 5 6.13 0.75
4 0 5 7.56 1.13
4 0 5 7.92 1.55
4 0 5 6.95 1.49
4 0 5 8.38 0.85
-5 0 -5 65.76 3.55
-5 0 -5 69.18 2.92
5 0 5 73.04 3.47
5 0 5 69.41 2.07
5 0 5 76.54 2.17
5 0 5 72.58 3.26
-6 0 -5 9.09 1.59
-6 0 -5 9.27 1.97
6 0 5 8.41 1.08
6 0 5 7.13 1.59
6 0 5 5.87 1.1
6 0 5 8.26 1.83
-7 0 -5 19.85 2.28
-7 0 -5 20.62 2.77
7 0 5 24.14 2.45
7 0 5 21.56 1.82
7 0 5 20.1 2.65
-8 0 -5 14.41 2.32
-8 0 -5 12.25 2.49
8 0 5 14.44 2.61
8 0 5 14.52 1.95
8 0 5 16.67 2.46
-9 0 -5 2.6 1.88
-9 0 -5 3 1.6
9 0 5 2.14 1.4
9 0 5 1.51 1.78
9 0 5 3.34 1.34
-10 0 -5 4 1.85
-10 0 -5 3.5 2.08
10 0 5 3.54 1.55
10 0 5 5.52 1.63
10 0 5 5.27 2.24
11 0 5 -0.64 1.69
11 0 5 5.39 1.83
10 -1 -5 4.78 2.29
-10 1 5 2.71 2.06
-10 1 5 3.01 2.19
9 -1 -5 4.74 1.43
9 -1 -5 1.29 2.11
-9 1 5 1.34 1.78
-9 1 5 3.14 2.22
8 -1 -5 3.48 1.96
8 -1 -5 4.04 1.22
-8 1 5 -0.7 1.67
-8 1 5 0.54 1.68
7 -1 -5 0.28 1.05
7 -1 -5 0.67 1.46
-7 1 5 -0.3 1.33
-7 1 5 0.07 1.38
6 -1 -5 39.52 3.04
6 -1 -5 37.98 2.44
6 -1 -5 35.81 1.34
-6 1 5 40.03 3.27
-6 1 5 41.01 3.23
-6 1 5 35.48 1.33
5 -1 -5 94.67 2
5 -1 -5 96.99 3.27
5 -1 -5 99.8 4.25
-5 1 5 96.98 4.13
-5 1 5 99.25 4.23
-5 1 5 93.3 2.03
4 -1 -5 5.13 0.69
4 -1 -5 5.67 1.48
4 -1 -5 6.32 1.2
-4 1 5 6.13 1.48
-4 1 5 6.11 0.72
-4 1 5 5.79 1.52
-4 1 5 3.96 0.93
3 -1 -5 3.63 0.6
3 -1 -5 4.22 1.27
3 -1 -5 2.35 0.9
-3 1 5 2.68 1.1
-3 1 5 2.31 0.78
-3 1 5 2.74 1.21
-3 1 5 3.13 0.61
2 -1 -5 109.49 3.03
2 -1 -5 106.51 3.58
2 -1 -5 108.91 2.34
-2 1 5 108.43 3.84
-2 1 5 109.59 3.06
-2 1 5 114.43 3.42
-2 1 5 107.93 2.42
1 -1 -5 3.67 0.76
1 -1 -5 4.75 1.1
1 -1 -5 4.34 0.91
1 -1 -5 3 0.9
-1 1 5 3.61 1.16
-1 1 5 3.19 0.77
-1 1 5 3.65 0.92
-1 1 5 2.64 0.78
0 -1 -5 27.82 1.84
0 -1 -5 33.17 2.08
0 -1 -5 30.54 1.4
0 -1 -5 30.33 1.64
0 1 5 30.32 1.45
0 1 5 28.13 1.85
0 1 5 28.04 1.58
0 1 5 28.46 1.72
0 1 5 33.35 2.09
-1 -1 -5 1.21 0.88
-1 -1 -5 0.86 0.74
-1 -1 -5 0.36 0.82
-1 -1 -5 0.38 0.41
1 1 5 0.54 0.71
1 1 5 -0.09 0.79
1 1 5 -0.28 0.44
1 1 5 0.55 0.72
1 1 5 0.13 0.7
-2 -1 -5 0.38 0.85
-2 -1 -5 0.27 0.77
2 1 5 1.13 0.89
2 1 5 0.59 0.68
2 1 5 0.64 0.88
-3 -1 -5 255.34 5.14
-3 -1 -5 252.9 5.94
3 1 5 248.85 5.37
3 1 5 250.86 5.25
3 1 5 248.56 5.08
-4 -1 -5 -0.71 0.86
-4 -1 -5 1.36 1.02
4 1 5 0.66 0.97
4 1 5 -1.18 0.77
-5 -1 -5 8.24 1.58
-5 -1 -5 5.04 1.54
5 1 5 9.8 0.91
5 1 5 9.47 1.61
5 1 5 8.34 0.79
5 1 5 8.79 1.61
-6 -1 -5 39.95 3.07
-6 -1 -5 39.07 2.63
6 1 5 38.48 2.79
6 1 5 36.56 1.76
6 1 5 42.38 2.62
6 1 5 35.06 1.57
-7 -1 -5 24.26 2.84
-7 -1 -5 24.71 2.53
7 1 5 22.44 2.71
7 1 5 22.23 1.53
7 1 5 23.39 1.75
7 1 5 25.55 2.38
-8 -1 -5 10.73 2.34
-8 -1 -5 11.74 2.25
8 1 5 9.76 1.62
8 1 5 11.12 2.05
8 1 5 11.38 2.26
-9 -1 -5 0.33 1.59
-9 -1 -5 -0.39 1.44
9 1 5 0.4 1.26
9 1 5 3.27 1.8
9 1 5 0.29 1.04
-10 -1 -5 15.54 2.78
-10 -1 -5 20.76 3.48
10 1 5 11.77 2.59
10 1 5 18.77 2.59
10 1 5 12.91 1.99
-11 -1 -5 16.99 2.92
11 1 5 15.82 2.66
11 1 5 22.92 3.26
10 -2 -5 -0.74 1.97
-10 2 5 -2.3 1.41
9 -2 -5 9.47 2.66
-9 2 5 1.37 1.87
-9 2 5 5.33 2.48
8 -2 -5 -0.17 0.87
8 -2 -5 1.81 1.86
-8 2 5 2.61 1.88
-8 2 5 -3.92 1.31
7 -2 -5 17.12 1.91
7 -2 -5 18.19 2.83
-7 2 5 16.22 1.35
-7 2 5 20.4 2.94
-7 2 5 17.06 2.86
6 -2 -5 10.4 1.53
6 -2 -5 9.45 1.11
6 -2 -5 11.65 2.24
-6 2 5 14.35 2.53
-6 2 5 9.72 2.18
-6 2 5 10.76 1.21
5 -2 -5 12.39 1.18
5 -2 -5 14.1 2.2
5 -2 -5 15.03 1.59
-5 2 5 12.51 1.2
-5 2 5 11.64 1.24
-5 2 5 13.54 2.28
-5 2 5 13.49 2.27
4 -2 -5 28.76 1.73
4 -2 -5 29.98 2.52
4 -2 -5 27.08 1.42
-4 2 5 29.29 1.51
-4 2 5 29.06 1.63
-4 2 5 31.08 2.61
-4 2 5 26.93 2.63
3 -2 -5 1.64 0.67
3 -2 -5 1.46 0.73
3 -2 -5 0.58 0.99
-3 2 5 1.53 0.66
-3 2 5 1.02 1.19
-3 2 5 2.46 0.73
-3 2 5 1.53 1.16
2 -2 -5 43.29 1.77
2 -2 -5 42.01 2.44
2 -2 -5 41.27 1.9
-2 2 5 42.38 1.83
-2 2 5 41.33 1.78
-2 2 5 41.96 2.38
-2 2 5 42.47 2.59
1 -2 -5 0.11 0.54
1 -2 -5 -0.3 0.91
1 -2 -5 1.53 0.75
1 -2 -5 -0.17 0.31
-1 2 5 1.64 0.76
-1 2 5 1.07 0.83
-1 2 5 2.42 0.95
-1 2 5 1.04 1.03
0 -2 -5 65.21 2.44
0 -2 -5 64.78 2.28
0 -2 -5 67.47 2.81
0 -2 -5 65.16 2.07
0 2 5 64.27 2.41
0 2 5 66.18 2.83
0 2 5 64.96 2.37
-1 -2 -5 125.93 2.43
-1 -2 -5 127.63 3.75
-1 -2 -5 125.63 3.61
-1 -2 -5 128.52 3.4
-1 -2 -5 129.53 2.44
1 2 5 121.58 3.34
1 2 5 116.08 3.43
1 2 5 124.06 3.54
-2 -2 -5 2.5 1.08
-2 -2 -5 4.57 1.2
-2 -2 -5 2.85 0.93
2 2 5 4.29 1.09
2 2 5 3.09 1.02
-3 -2 -5 19.2 1.85
-3 -2 -5 15.79 1.93
3 2 5 16.56 1.73
3 2 5 17.73 1.67
-4 -2 -5 12.2 1.72
-4 -2 -5 12.15 1.87
4 2 5 11.7 1.56
4 2 5 10.94 1.7
-5 -2 -5 28.92 2.58
-5 -2 -5 35.62 2.46
5 2 5 31.95 1.12
5 2 5 33.11 2.51
5 2 5 35.12 2.2
5 2 5 33.63 1.19
-6 -2 -5 54.24 3.18
-6 -2 -5 52.29 3.43
6 2 5 51.93 1.76
6 2 5 47.32 2.61
6 2 5 49.64 3.05
-7 -2 -5 0.81 1.3
-7 -2 -5 0.19 1.3
7 2 5 0.11 0.88
7 2 5 0.15 0.54
7 2 5 2.22 1.37
-8 -2 -5 35.85 3.1
-8 -2 -5 37.1 3.52
8 2 5 39.46 2.72
8 2 5 41.62 2.34
8 2 5 38.84 3.33
-9 -2 -5 17.26 2.93
-9 -2 -5 24.04 3.35
9 2 5 15.75 1.98
9 2 5 24.25 3.02
9 2 5 19.28 2.25
-10 -2 -5 4.54 2.08
10 2 5 4.4 1.96
10 2 5 3.01 1.38
-11 -2 -5 -4.41 1.47
11 2 5 -0.95 2
11 2 5 -1.03 1.56
10 -3 -5 1.24 1.99
10 -3 -5 1.63 2.07
-10 3 5 -0.78 1.71
9 -3 -5 15.43 3.12
9 -3 -5 14.99 3.11
-9 3 5 14.52 3.24
8 -3 -5 2.4 1.94
8 -3 -5 1.02 1.9
-8 3 5 3.87 2.07
7 -3 -5 1.72 1.71
7 -3 -5 0.88 0.79
-7 3 5 -0.09 0.76
-7 3 5 2.29 1.67
6 -3 -5 36.32 1.91
6 -3 -5 41.86 3.35
-6 3 5 32.26 3.27
-6 3 5 29.72 1.96
5 -3 -5 3.21 1.57
5 -3 -5 4.11 0.91
5 -3 -5 4.97 0.93
-5 3 5 3.43 1
-5 3 5 3.32 1.72
4 -3 -5 25.36 2.46
4 -3 -5 26.7 1.48
4 -3 -5 28.06 1.7
-4 3 5 28.18 2.74
-4 3 5 27.47 1.82
-4 3 5 26.06 1.35
3 -3 -5 2.68 0.8
3 -3 -5 2.6 1.23
3 -3 -5 4.28 0.83
-3 3 5 2.78 0.94
-3 3 5 3.76 1.47
-3 3 5 4.1 0.73
2 -3 -5 98.37 3.67
2 -3 -5 101.89 2.58
2 -3 -5 98.3 2.88
2 -3 -5 99.23 3.45
-2 3 5 98.74 3.89
-2 3 5 101.41 2.52
-2 3 5 98.85 3
1 -3 -5 33.61 1.68
1 -3 -5 32.06 1.77
1 -3 -5 29.93 2.23
1 -3 -5 28.14 1.91
-1 3 5 32.57 2.33
-1 3 5 33.49 1.96
-1 3 5 30.51 1.57
0 -3 -5 0.78 0.7
0 -3 -5 -0.98 0.85
0 -3 -5 -0.17 0.67
0 -3 -5 -0.27 0.62
0 -3 -5 0.32 0.56
0 3 5 0.85 0.62
0 3 5 0.88 1.03
0 3 5 0.03 0.82
-1 -3 -5 26.97 1.87
-1 -3 -5 25.02 1.37
-1 -3 -5 24.29 1.3
-1 -3 -5 22.1 2
1 3 5 22.83 1.95
1 3 5 21.94 1.92
-2 -3 -5 6.49 1.32
-2 -3 -5 4.98 0.71
-2 -3 -5 4.39 0.73
-2 -3 -5 5.75 1.23
2 3 5 6.95 1.23
2 3 5 2.91 1.06
-3 -3 -5 40.29 2.51
-3 -3 -5 43.51 2.63
-3 -3 -5 42.98 2.13
3 3 5 42.15 2.43
3 3 5 38.56 2.16
-4 -3 -5 77.31 3.52
-4 -3 -5 79.21 3.4
-4 -3 -5 77.29 2.77
4 3 5 78.03 2.82
4 3 5 74.38 3.26
-5 -3 -5 2.51 1.31
-5 -3 -5 3.52 1.31
-5 -3 -5 3.55 0.61
5 3 5 2.17 1.17
5 3 5 4.95 1.12
5 3 5 3.97 0.66
-6 -3 -5 59.31 3.39
-6 -3 -5 49.52 3.35
-6 -3 -5 47.68 1.77
6 3 5 48.51 1.67
6 3 5 52.09 3.09
6 3 5 49.16 2.51
-7 -3 -5 63.7 3.71
-7 -3 -5 59.58 3.92
-7 -3 -5 63.2 2.37
7 3 5 68.65 3.66
7 3 5 63.21 2.88
7 3 5 62.84 2.18
-8 -3 -5 4.1 1.14
-8 -3 -5 9.2 2.17
-8 -3 -5 7.53 2.11
8 3 5 5.44 1.91
8 3 5 5.66 1.41
-9 -3 -5 4.67 1.21
-9 -3 -5 1.8 1.86
-9 -3 -5 2.61 1.86
9 3 5 4.15 1.37
9 3 5 0.81 1.63
-10 -3 -5 4.96 2.24
10 3 5 4.64 1.91
10 3 5 3.11 1.24
-11 -3 -5 17.39 3.23
11 3 5 16.58 2.88
11 3 5 14.13 3.11
9 -4 -5 1.48 2.06
9 -4 -5 -3.42 1.57
-9 4 5 -0.28 1.69
8 -4 -5 2.01 1.95
8 -4 -5 0.17 1.62
-8 4 5 3.05 2.29
7 -4 -5 2.33 1.68
7 -4 -5 1.16 1.74
-7 4 5 4.64 2.1
-7 4 5 1.21 0.98
6 -4 -5 27.81 3.03
6 -4 -5 22.47 2.86
-6 4 5 21.55 2.08
-6 4 5 18.81 2.83
5 -4 -5 0.73 1.36
5 -4 -5 2.63 1.59
-5 4 5 1.32 1.04
-5 4 5 3.49 1.59
4 -4 -5 59.82 3.41
4 -4 -5 51.96 3.28
-4 4 5 57.9 2.77
-4 4 5 50.57 3.58
3 -4 -5 16.76 2.05
3 -4 -5 17.38 2.13
-3 4 5 21.6 1.95
-3 4 5 15.4 2.33
2 -4 -5 6.34 1.55
2 -4 -5 5.92 1.45
2 -4 -5 7.23 0.9
-2 4 5 7.38 0.79
-2 4 5 6.04 1.28
-2 4 5 4.84 1.52
1 -4 -5 21.2 1.35
1 -4 -5 23.18 2.25
1 -4 -5 22.55 1.91
-1 4 5 18.81 2.11
-1 4 5 16.85 1.17
-1 4 5 18.24 1.86
0 -4 -5 10.99 1.27
0 -4 -5 10.25 1.46
0 -4 -5 10.86 1.82
0 -4 -5 10.16 1.27
0 4 5 9.35 1.07
0 4 5 11.34 1.6
0 4 5 12.41 1.8
-1 -4 -5 57.54 3.01
-1 -4 -5 56.67 2.13
-1 -4 -5 57.98 2.49
-1 -4 -5 61.92 2.27
1 4 5 58.54 2.75
1 4 5 61.18 2.44
1 4 5 58.01 2.75
-2 -4 -5 10.04 1.67
-2 -4 -5 10.86 1.6
-2 -4 -5 12.09 1.11
2 4 5 9.09 1.05
2 4 5 10.2 1.57
2 4 5 9.78 1.63
-3 -4 -5 4.78 0.79
-3 -4 -5 4.28 1.26
-3 -4 -5 3.65 1.33
-3 -4 -5 6.02 1.14
3 4 5 4.98 1.41
3 4 5 4.26 0.7
3 4 5 5.76 1.17
-4 -4 -5 126.85 4.41
-4 -4 -5 125.57 2.5
-4 -4 -5 130.44 3.53
-4 -4 -5 115.82 4.31
4 4 5 120.52 4.11
4 4 5 118.54 2.44
4 4 5 130.9 3.5
-5 -4 -5 4.65 0.95
-5 -4 -5 5.1 1.52
-5 -4 -5 4.44 1.48
-5 -4 -5 4.54 0.74
5 4 5 2.65 0.93
5 4 5 5.05 1.46
5 4 5 4.15 0.68
-6 -4 -5 21.07 2.6
-6 -4 -5 21.81 1.38
-6 -4 -5 21.8 1.59
-6 -4 -5 22.89 2.59
6 4 5 23.55 1.75
6 4 5 19.47 1.24
6 4 5 23.37 2.52
-7 -4 -5 2.02 1.44
-7 -4 -5 3.13 1.73
-7 -4 -5 2.53 0.9
7 4 5 3.33 1.52
7 4 5 2.42 0.72
7 4 5 0.69 0.82
-8 -4 -5 -0.13 1.5
-8 -4 -5 -0.29 0.74
-8 -4 -5 1.35 1.7
8 4 5 -0.52 0.84
8 4 5 -0.46 1.43
-9 -4 -5 33.53 3.56
-9 -4 -5 33.27 2.28
9 4 5 33.12 2.21
9 4 5 36.05 3.56
-10 -4 -5 6.98 2.55
10 4 5 6.82 2.2
10 4 5 4.23 2.31
-11 -4 -5 17.11 3.31
11 4 5 21.68 3.4
11 4 5 19.01 3.72
9 -5 -5 9.07 2.48
9 -5 -5 9.81 2.84
-9 5 5 9.56 2.71
8 -5 -5 5.46 2.37
8 -5 -5 7.08 2.51
-8 5 5 10.6 2.87
7 -5 -5 4.5 2.3
7 -5 -5 3.06 1.85
-7 5 5 1.93 1.19
-7 5 5 -0.55 1.77
6 -5 -5 10.19 2.43
6 -5 -5 9.99 2.38
-6 5 5 9.25 2.48
-6 5 5 8.26 1.67
5 -5 -5 4.57 1.73
5 -5 -5 3.54 1.7
-5 5 5 4.38 1.42
-5 5 5 2.59 1.6
4 -5 -5 0.92 1.28
4 -5 -5 -0.3 1.23
-4 5 5 -0.54 1.25
-4 5 5 -0.53 1.14
3 -5 -5 -0.61 1.12
3 -5 -5 0.21 1.11
-3 5 5 -0.09 1.33
-3 5 5 1.29 1.14
2 -5 -5 32.56 2.62
2 -5 -5 30.8 2.5
-2 5 5 27.87 2.64
-2 5 5 31.78 2.43
1 -5 -5 44.49 1.65
1 -5 -5 46.31 2.92
1 -5 -5 45.12 2.68
-1 5 5 42.09 1.55
-1 5 5 44.17 2.63
-1 5 5 41.03 2.85
0 -5 -5 8.02 1.41
0 -5 -5 9.19 1.7
0 -5 -5 7.81 1.18
0 5 5 6.66 0.94
0 5 5 6.48 1.49
0 5 5 8.98 1.73
-1 -5 -5 1.92 1.2
-1 -5 -5 2.64 1
-1 -5 -5 2.46 0.96
1 5 5 1.37 0.67
1 5 5 1.02 0.74
1 5 5 2.28 1.14
1 5 5 1.57 1.11
-2 -5 -5 37.44 2.3
-2 -5 -5 34.4 1.85
-2 -5 -5 35.37 2.57
2 5 5 33.22 2.46
2 5 5 36.54 2.31
2 5 5 34.84 1.8
-3 -5 -5 0.88 0.72
-3 -5 -5 2 1.14
-3 -5 -5 1.69 1.18
-3 -5 -5 0.6 0.74
3 5 5 2.26 1.31
3 5 5 2.18 0.69
3 5 5 1.07 0.98
-4 -5 -5 13.54 1.25
-4 -5 -5 13.17 2.16
-4 -5 -5 11.78 1.32
-4 -5 -5 16.08 2.07
4 5 5 15.02 2.22
4 5 5 11.16 1.58
4 5 5 11.63 1.08
-5 -5 -5 0.02 0.59
-5 -5 -5 -0.42 1.07
-5 -5 -5 0.55 1.28
-5 -5 -5 0.36 0.63
5 5 5 0.46 0.78
5 5 5 0.14 0.56
5 5 5 -0.57 1.11
-6 -5 -5 2.15 1.45
-6 -5 -5 -1.07 0.62
-6 -5 -5 1.52 0.56
-6 -5 -5 0.15 1.32
6 5 5 1.88 1.48
6 5 5 1.19 0.82
6 5 5 0.71 0.57
-7 -5 -5 26.78 3.15
-7 -5 -5 26.1 1.8
-7 -5 -5 26.06 2.97
7 5 5 27.99 2.88
7 5 5 25.67 1.75
-8 -5 -5 -0.3 1.58
-8 -5 -5 -0.44 0.73
8 5 5 0.57 1.47
8 5 5 0.33 0.76
-9 -5 -5 33.37 2.3
-9 -5 -5 38.6 3.93
9 5 5 37.13 3.52
9 5 5 38.15 3.74
-10 -5 -5 3.24 2.19
10 5 5 3.61 1.95
10 5 5 2.29 2.06
-11 -5 -5 -1.15 2.17
11 5 5 4.35 2.68
11 5 5 2.16 2
8 -6 -5 1.07 1.75
8 -6 -5 8.45 2.9
-8 6 5 6.26 2.34
7 -6 -5 0.22 1.67
7 -6 -5 -1.34 1.67
-7 6 5 -1.34 1.69
-7 6 5 -2.4 0.97
6 -6 -5 1.03 1.82
6 -6 -5 2.14 1.7
-6 6 5 4.8 2.26
-6 6 5 3.41 1.54
5 -6 -5 3.99 1.76
5 -6 -5 1.3 1.63
-5 6 5 0.89 1.3
-5 6 5 2.01 1.69
4 -6 -5 3.25 1.58
4 -6 -5 3.58 1.62
-4 6 5 0.4 1.42
-4 6 5 3.04 1.49
3 -6 -5 28.36 2.88
3 -6 -5 30.56 2.83
-3 6 5 26.35 2.84
-3 6 5 24.63 2.53
2 -6 -5 2.19 1.23
2 -6 -5 3.45 1.52
-2 6 5 2.31 1.36
-2 6 5 0.77 1.48
1 -6 -5 0.84 1.26
1 -6 -5 2.11 1.18
-1 6 5 1.8 1.43
-1 6 5 1.37 1.29
0 -6 -5 41.79 2.97
0 -6 -5 35.92 2.46
0 6 5 32.22 2.61
0 6 5 35.17 1.65
0 6 5 31.83 2.63
-1 -6 -5 12.13 1.64
-1 -6 -5 9 1.41
-1 -6 -5 9.68 1.93
1 6 5 9.86 1.23
1 6 5 10 1.78
1 6 5 7.39 1.62
-2 -6 -5 8.67 1.88
-2 -6 -5 12.21 1.56
-2 -6 -5 10.44 1.61
2 6 5 11.39 1.93
2 6 5 11.32 1.79
-3 -6 -5 13.64 2.07
-3 -6 -5 13.95 1.9
-3 -6 -5 16.06 1.61
3 6 5 11.6 1.29
3 6 5 15.54 1.75
3 6 5 15.85 2.22
-4 -6 -5 4.5 1.65
-4 -6 -5 6.5 1.06
-4 -6 -5 7.27 1.24
-4 -6 -5 4.56 1.53
4 6 5 5.38 1.01
4 6 5 7.16 1.25
4 6 5 6.12 1.73
-5 -6 -5 36.63 3.07
-5 -6 -5 35.79 3.04
-5 -6 -5 38.97 1.86
-5 -6 -5 42.26 2.12
5 6 5 38.05 2.04
5 6 5 37.46 3.07
5 6 5 34.46 1.81
-6 -6 -5 17.97 1.23
-6 -6 -5 17.86 1.66
-6 -6 -5 14.59 2.48
6 6 5 20.72 2.78
6 6 5 17.91 1.33
6 6 5 16.16 1.56
-7 -6 -5 48.6 2.44
-7 -6 -5 43.28 3.59
7 6 5 46.81 2
7 6 5 49.91 3.64
7 6 5 46.11 3.71
-8 -6 -5 2 1.07
-8 -6 -5 1.04 1.73
8 6 5 4.75 1.97
8 6 5 3.75 2
-9 -6 -5 12.65 1.92
-9 -6 -5 10.62 2.8
9 6 5 14.15 2.99
9 6 5 19.56 3.22
-10 -6 -5 18.06 3.44
10 6 5 13.66 3.05
10 6 5 19.68 3.22
-11 -6 -5 2.04 2.27
11 6 5 -0.32 1.86
11 6 5 2.38 2.39
7 -7 -5 4.86 1.96
7 -7 -5 1.62 2.02
-7 7 5 2.82 1.56
-7 7 5 5.91 2.45
6 -7 -5 2.51 1.92
6 -7 -5 -0.51 1.48
-6 7 5 3.71 1.65
-6 7 5 4.01 2.22
5 -7 -5 19.39 2.99
5 -7 -5 16.99 3.05
-5 7 5 16.02 3.09
-5 7 5 18.65 2.59
4 -7 -5 -0.27 1.39
4 -7 -5 -0.95 1.46
-4 7 5 0.91 1.69
-4 7 5 2.48 1.58
3 -7 -5 0.39 1.35
3 -7 -5 0.09 1.26
-3 7 5 -0.94 1.36
-3 7 5 0.98 1.38
2 -7 -5 30.71 2.9
2 -7 -5 32.31 2.9
-2 7 5 36.77 3.04
-2 7 5 29.23 3.08
1 -7 -5 3.64 1.45
1 -7 -5 6.8 1.77
-1 7 5 5.56 1.86
-1 7 5 3.07 1.54
0 -7 -5 4.54 1.47
0 -7 -5 4.19 1.61
0 7 5 4.72 0.89
0 7 5 2.57 1.56
0 7 5 6.19 1.76
0 7 5 4.1 0.76
-1 -7 -5 19.11 2.12
-1 -7 -5 18.57 2.4
1 7 5 18.01 1.46
1 7 5 20.02 2.4
1 7 5 20.43 2.32
1 7 5 19.26 1.69
-2 -7 -5 10 1.63
-2 -7 -5 7.89 1.88
2 7 5 9.58 1.61
2 7 5 8.21 1.63
2 7 5 10.6 2.13
-3 -7 -5 6.34 1.83
-3 -7 -5 7.83 1.48
3 7 5 5.9 1.36
3 7 5 7.1 1.62
3 7 5 6.49 1.83
-4 -7 -5 17.03 1.81
-4 -7 -5 14.02 1.35
-4 -7 -5 19.91 2.57
4 7 5 12.34 1.65
4 7 5 17.18 2.58
4 7 5 14.97 2.22
-5 -7 -5 17.99 1.34
-5 -7 -5 25.18 2.98
-5 -7 -5 19.29 1.89
5 7 5 15.47 2.43
5 7 5 23.48 2.7
5 7 5 18.69 1.66
-6 -7 -5 -0.66 1.5
-6 -7 -5 0.42 0.92
6 7 5 0.61 1.54
6 7 5 1.06 0.7
6 7 5 -2.7 1.27
-7 -7 -5 13.1 2.7
-7 -7 -5 11.24 1.73
7 7 5 15.25 2.78
7 7 5 17.67 2.88
-8 -7 -5 14.36 2.92
-8 -7 -5 7.9 1.65
8 7 5 12.62 2.69
8 7 5 11.03 2.67
-9 -7 -5 8.02 2.49
9 7 5 5.87 2.4
9 7 5 6.14 2.46
-10 -7 -5 5.82 2.54
10 7 5 2.6 2.36
10 7 5 6.88 2.76
-11 -7 -5 -4.11 1.46
11 7 5 1.81 2.31
11 7 5 1.11 2.16
7 -8 -5 -0.5 1.74
7 -8 -5 -0.68 1.83
-7 8 5 -1.52 1.81
6 -8 -5 -0.08 1.68
6 -8 -5 -0.99 1.8
-6 8 5 3.86 1.86
-6 8 5 1.95 1.97
5 -8 -5 -1.87 1.26
5 -8 -5 0.11 1.79
-5 8 5 -2.98 1.58
-5 8 5 1.63 1.64
4 -8 -5 2.72 1.75
4 -8 -5 1.07 1.59
-4 8 5 -2.37 1.57
-4 8 5 -1.02 1.45
3 -8 -5 6.75 1.98
3 -8 -5 6.47 2.07
-3 8 5 6.14 1.98
-3 8 5 4.68 2.17
2 -8 -5 3.7 1.73
2 -8 -5 5.42 1.88
-2 8 5 3.84 1.85
-2 8 5 5.09 1.97
1 -8 -5 50.02 3.47
1 -8 -5 55.27 3.67
-1 8 5 50.85 3.63
-1 8 5 49.56 3.58
0 -8 -5 0.28 1.35
0 -8 -5 -0.27 1.22
0 8 5 0.72 0.61
0 8 5 1.73 1.5
0 8 5 -2.13 1.26
-1 -8 -5 9.45 2.03
-1 -8 -5 15.45 2.17
1 8 5 9.78 1.98
1 8 5 11.42 1.47
1 8 5 9.62 1.13
1 8 5 11.31 2.17
-2 -8 -5 82.93 3.76
-2 -8 -5 81.48 4.27
2 8 5 83.92 4.3
2 8 5 80.07 3.64
2 8 5 89.16 3.43
-3 -8 -5 17 2.11
-3 -8 -5 15.18 2.53
3 8 5 16.81 2.26
3 8 5 14.08 1.96
3 8 5 13.83 2.36
-4 -8 -5 3.87 1.81
-4 -8 -5 3.14 1.25
4 8 5 1.93 1.56
4 8 5 2.37 1.08
4 8 5 0.5 1.41
-5 -8 -5 35.04 3.37
-5 -8 -5 31.52 2.51
5 8 5 33.04 3.17
5 8 5 37.38 3.48
5 8 5 35.7 1.95
-6 -8 -5 -1.13 1.47
-6 -8 -5 0.7 1.11
6 8 5 -0.93 1.57
6 8 5 0.69 1.83
-7 -8 -5 18.04 2.11
-7 -8 -5 14.4 2.97
7 8 5 15.83 2.9
7 8 5 18.45 2.97
-8 -8 -5 2.64 1.31
-8 -8 -5 6.79 2.44
8 8 5 3.28 2.02
8 8 5 2.67 2.16
-9 -8 -5 0.79 2.05
9 8 5 3.17 2.17
9 8 5 2.57 2.34
-10 -8 -5 3.35 2.29
10 8 5 7.76 2.83
10 8 5 6.83 2.73
-11 -8 -5 7.68 2.73
11 8 5 12.18 2.86
11 8 5 5.29 2.64
6 -9 -5 -0.31 2.05
6 -9 -5 6.44 1.96
-6 9 5 -3.4 1.52
-6 9 5 0.13 1.39
5 -9 -5 1.06 1.35
5 -9 -5 -0.66 1.75
-5 9 5 -0.32 1.54
-5 9 5 -2.2 1.71
4 -9 -5 1.09 1.67
4 -9 -5 3.94 2.01
-4 9 5 4.9 2.48
-4 9 5 1.71 1.67
3 -9 -5 13.4 2.56
3 -9 -5 15.04 2.84
-3 9 5 10.34 2.62
-3 9 5 15.39 2.7
2 -9 -5 3.24 1.74
2 -9 -5 0.96 1.64
-2 9 5 -0.64 1.65
-2 9 5 -3.31 1.39
1 -9 -5 1.43 1.58
1 -9 -5 0.26 1.56
-1 9 5 0.87 1.44
-1 9 5 3.8 1.9
0 -9 -5 49.3 3.53
0 -9 -5 49.16 3.65
0 9 5 49.08 3.6
0 9 5 39.41 3.45
-1 -9 -5 2.52 1.5
-1 -9 -5 2.55 1.78
1 9 5 3.52 2.01
1 9 5 2.57 0.95
1 9 5 3.77 1.63
-2 -9 -5 2.87 1.47
-2 -9 -5 2.4 1.66
2 9 5 4.26 1.92
2 9 5 2.06 1.36
2 9 5 3.51 1.22
-3 -9 -5 10.51 1.99
-3 -9 -5 10.97 2.38
3 9 5 15.08 2.19
3 9 5 14.06 2
3 9 5 11.47 2.36
-4 -9 -5 7.43 2.21
-4 -9 -5 6.71 1.68
4 9 5 9.62 2.01
4 9 5 6.63 1.37
4 9 5 8.16 2.16
-5 -9 -5 81.5 4.74
-5 -9 -5 79.59 3.81
5 9 5 84.24 4.44
5 9 5 81.54 2.8
5 9 5 74.96 4.53
-6 -9 -5 8.67 2.39
-6 -9 -5 8.76 1.75
6 9 5 9.45 2.26
6 9 5 8.35 2.43
-7 -9 -5 1.35 1.26
-7 -9 -5 2.35 1.98
7 9 5 -0.62 1.71
7 9 5 0.11 1.81
-8 -9 -5 31.51 2.7
-8 -9 -5 31.46 3.87
8 9 5 31.92 4.05
8 9 5 32.44 3.92
-9 -9 -5 3.07 2.53
9 9 5 -0.25 1.94
9 9 5 -1.96 2.02
-10 -9 -5 4.34 2.54
10 9 5 4.35 2.48
10 9 5 -0.5 2.15
5 -10 -5 6.66 2.15
5 -10 -5 14.72 3.07
-5 10 5 9.28 2.65
-5 10 5 4.87 2.66
4 -10 -5 2 1.84
4 -10 -5 2.21 1.61
-4 10 5 3.74 2.07
-4 10 5 -0.82 1.54
3 -10 -5 -1.5 1.45
3 -10 -5 0.91 1.41
-3 10 5 3.4 2.24
-3 10 5 -1.83 1.61
2 -10 -5 28.4 3.24
2 -10 -5 21.86 3.11
-2 10 5 26.76 3.52
-2 10 5 26.72 3.54
1 -10 -5 -1.07 1.58
1 -10 -5 0.59 1.61
-1 10 5 -1.97 1.55
-1 10 5 2.72 1.87
0 -10 -5 -0.64 1.37
0 -10 -5 0.7 1.55
0 10 5 1.87 1.74
0 10 5 -0.64 1.77
-1 -10 -5 8.22 2.23
-1 -10 -5 8.32 2.02
1 10 5 8.07 2.49
1 10 5 9.12 2.15
-2 -10 -5 -1.92 1.33
-2 -10 -5 -1.58 1.25
2 10 5 0.79 0.94
2 10 5 -0.12 1.24
2 10 5 2.7 2
-3 -10 -5 31.61 3
-3 -10 -5 30.88 3.49
3 10 5 29.54 2.54
3 10 5 28.71 3.35
3 10 5 29.94 2.81
-4 -10 -5 0.09 1.31
-4 -10 -5 2.06 1.83
4 10 5 3.22 1.66
4 10 5 -1.37 1.58
4 10 5 0.7 1.07
-5 -10 -5 0.16 1.69
-5 -10 -5 -0.26 1.26
5 10 5 -2.21 1.51
5 10 5 2.97 1.66
-6 -10 -5 26.27 3.41
-6 -10 -5 25.7 2.77
6 10 5 28.78 3.55
6 10 5 30.11 3.46
-7 -10 -5 3.6 1.69
-7 -10 -5 6.19 2.43
7 10 5 4.22 2.15
7 10 5 4.71 2.13
-8 -10 -5 7 2.72
8 10 5 6.84 2.29
8 10 5 -0.31 2.16
-9 -10 -5 -1.73 1.96
9 10 5 3.07 2.3
9 10 5 -1.37 2.01
10 10 5 -2.44 2.08
10 10 5 4.56 2.37
4 -11 -5 22.11 2.85
4 -11 -5 13.48 3.15
-4 11 5 18.46 3.71
-4 11 5 20.72 3.4
3 -11 -5 1.04 1.52
3 -11 -5 -0.45 1.62
-3 11 5 -0.35 2
-3 11 5 1.82 2
2 -11 -5 3.22 1.74
2 -11 -5 -1.7 1.77
-2 11 5 6.07 2.27
-2 11 5 0.22 1.7
1 -11 -5 7.81 2.29
1 -11 -5 6.94 2.13
-1 11 5 5.03 2.06
-1 11 5 6.69 2.48
0 -11 -5 1.39 1.73
0 -11 -5 -1.11 1.36
0 11 5 0.35 1.9
0 11 5 -2.64 1.08
-1 -11 -5 54.17 4.05
-1 -11 -5 50.73 3.92
1 11 5 58.11 4.46
1 11 5 51.96 3.72
-2 -11 -5 -1.8 1.29
-2 -11 -5 -1.96 1.4
2 11 5 2.22 1.3
2 11 5 -1.47 1.75
-3 -11 -5 2.3 1.56
-3 -11 -5 -0.35 1.69
3 11 5 0.03 1.6
3 11 5 0 1.08
3 11 5 0.34 1.07
-4 -11 -5 39.71 3.89
-4 -11 -5 28.44 3.08
4 11 5 32.14 2.99
4 11 5 29.89 3.59
-5 -11 -5 -0.17 1.71
-5 -11 -5 -0.55 1.22
5 11 5 5.08 2.07
5 11 5 0.37 2.02
-6 -11 -5 1.75 1.55
-6 -11 -5 5.37 2.33
6 11 5 3.03 2.45
6 11 5 -0.91 1.82
-7 -11 -5 -0.99 1.86
-7 -11 -5 0.68 1.28
7 11 5 3.91 2.35
7 11 5 3.61 2.22
-8 -11 -5 4.9 2.52
8 11 5 3.61 2.48
8 11 5 1.18 2.12
-9 -11 -5 0.86 2.26
9 11 5 0.57 2.32
9 11 5 -0.68 1.97
2 -12 -5 3.86 2.12
2 -12 -5 6.33 1.9
-2 12 5 8.27 2.42
-2 12 5 5.75 2.29
1 -12 -5 13.36 2.79
1 -12 -5 18.77 2.83
-1 12 5 22.46 3.45
-1 12 5 19.11 3.48
0 -12 -5 4.43 1.9
0 -12 -5 0.37 1.56
0 12 5 -1.54 1.32
0 12 5 1.08 2.15
-1 -12 -5 0.24 1.68
-1 -12 -5 5.72 2.01
1 12 5 7.31 2.24
1 12 5 2.65 2.05
-2 -12 -5 16.56 2.94
-2 -12 -5 24.46 3.3
2 12 5 24.16 2.77
2 12 5 24.24 3.54
-3 -12 -5 0.67 1.89
-3 -12 -5 0.16 1.64
3 12 5 0.21 1.91
-4 -12 -5 8.94 2.85
-4 -12 -5 5.08 1.94
4 12 5 13.95 3.1
4 12 5 5.84 1.66
-5 -12 -5 7.08 2.47
-5 -12 -5 5.1 1.92
5 12 5 7.74 2.69
5 12 5 6.46 2.02
-6 -12 -5 4.11 1.87
-6 -12 -5 1.03 1.92
6 12 5 1.7 1.78
6 12 5 7.59 2.59
-7 -12 -5 -5.39 1.75
7 12 5 1.22 2.3
7 12 5 -1.74 1.94
8 12 5 -1.96 2.25
0 -13 -5 7.81 2.46
0 -13 -5 9.85 2.58
0 13 5 11.56 2.44
0 13 5 14.85 3.28
-1 -13 -5 -0.41 1.66
-1 -13 -5 4.76 2.12
1 13 5 -1.76 1.92
1 13 5 5.08 1.69
-2 -13 -5 -1.64 1.34
-2 -13 -5 1.6 1.78
2 13 5 4.17 2.12
-3 -13 -5 10.02 2.98
-3 -13 -5 13.77 2.77
3 13 5 10.3 2.93
-4 -13 -5 -0.75 1.5
-4 -13 -5 3.6 1.88
4 13 5 0.3 2.16
-5 -13 -5 8.33 2.24
-5 -13 -5 6.64 2.3
5 13 5 7.85 2.63
-6 -13 -5 1.45 1.58
-6 -13 -5 3.26 2.37
6 13 5 3.05 1.81
6 13 5 1.52 2.23
3 13 -6 4.11 1.95
3 13 -6 2.82 1.68
-3 -13 6 3 2.03
2 13 -6 4.07 1.91
2 13 -6 0.33 1.47
-2 -13 6 -0.32 1.72
6 12 -6 4.01 2.57
-6 -12 6 7.18 2.58
5 12 -6 4.18 2.41
5 12 -6 2.47 1.61
-5 -12 6 -0.39 1.51
4 12 -6 0 1.27
4 12 -6 3.27 2.19
-4 -12 6 0.65 1.64
3 12 -6 6.54 2.44
3 12 -6 4.67 1.77
-3 -12 6 7.96 2.55
2 12 -6 4.79 2.2
2 12 -6 4 1.94
-2 -12 6 -1.38 1.73
-2 -12 6 0.55 1.28
1 12 -6 4.21 1.92
1 12 -6 3.42 2.11
-1 -12 6 4.9 2.03
-1 -12 6 2.76 2
0 12 -6 20.85 3.39
0 12 -6 19.88 3.02
0 -12 6 18.15 3.08
0 -12 6 10.87 2.73
-1 12 -6 1.6 1.47
-1 12 -6 1.58 1.87
1 -12 6 -2.56 1.32
1 -12 6 1.22 1.79
-2 12 -6 1.79 2.09
2 -12 6 6.09 2.38
2 -12 6 1.75 1.96
7 11 -6 2.64 1.72
7 11 -6 0.38 2.15
-7 -11 6 -1.45 1.78
6 11 -6 2.4 1.43
6 11 -6 1.1 1.91
-6 -11 6 2.3 2.12
5 11 -6 2.74 1.49
5 11 -6 4.71 2.42
5 11 -6 1.83 1.21
-5 -11 6 7.33 2.37
4 11 -6 8.53 1.99
4 11 -6 7.64 2.59
-4 -11 6 11.53 2.56
3 11 -6 -3.14 1.5
3 11 -6 3.73 1.74
-3 -11 6 1.32 1.36
-3 -11 6 8.28 2.47
2 11 -6 13.82 2.69
2 11 -6 21.12 3.23
-2 -11 6 17.2 2.54
-2 -11 6 16.31 3.09
1 11 -6 1.52 1.52
1 11 -6 2.63 1.72
-1 -11 6 -0.57 1.3
-1 -11 6 1.04 1.67
0 11 -6 0.7 1.55
0 11 -6 0.03 1.3
0 -11 6 -0.64 1.47
0 -11 6 -0.98 1.29
-1 11 -6 8.25 2.31
-1 11 -6 9.61 2.76
1 -11 6 10.53 2.44
1 -11 6 8.94 2.49
-2 11 -6 13.37 3
-2 11 -6 19.39 2.81
2 -11 6 23.6 3.43
2 -11 6 21.06 3.59
-3 11 -6 9.08 2.68
-3 11 -6 9.12 2.12
3 -11 6 8.45 2.64
3 -11 6 11.82 2.89
8 10 -6 1.97 2.5
8 10 -6 5.35 2.02
-8 -10 6 3.8 2.03
7 10 -6 16.02 2.83
7 10 -6 16.63 3.45
-7 -10 6 7.3 2.51
6 10 -6 8.92 2.75
6 10 -6 4.66 1.88
-6 -10 6 11.99 2.9
5 10 -6 21.58 2.46
5 10 -6 16.24 2.29
5 10 -6 19.98 3.5
-5 -10 6 19.17 3.26
4 10 -6 2.08 1.14
4 10 -6 0.96 1.8
4 10 -6 1.23 1.24
-4 -10 6 1.91 1.87
-4 -10 6 3.56 1.23
3 10 -6 3.03 1.49
3 10 -6 1.02 0.71
3 10 -6 1.59 1.66
-3 -10 6 -1.03 1.12
-3 -10 6 0.86 1.66
2 10 -6 0.29 1.26
2 10 -6 2.18 1.73
-2 -10 6 -0.13 1.16
-2 -10 6 -1.51 1.53
1 10 -6 0.63 1.44
1 10 -6 0.83 1.67
-1 -10 6 2.5 1.83
-1 -10 6 0.79 1.39
0 10 -6 21.54 3.11
0 10 -6 20.24 2.93
0 -10 6 24.96 2.99
0 -10 6 24.08 3.07
-1 10 -6 10.88 2.42
-1 10 -6 17.83 3.07
1 -10 6 11.71 2.65
1 -10 6 10.18 2.43
-2 10 -6 0.98 1.29
-2 10 -6 -0.16 1.8
2 -10 6 -0.63 1.53
2 -10 6 0.37 1.61
-3 10 -6 28.57 3.21
-3 10 -6 27.98 3.66
3 -10 6 27.03 3.35
3 -10 6 24.86 3.46
-4 10 -6 -2.78 1.44
-4 10 -6 3.9 1.6
4 -10 6 0.13 1.71
4 -10 6 0.65 1.67
-5 10 -6 12.54 3.08
5 -10 6 9.8 2.33
5 -10 6 14.35 2.98
9 9 -6 14.32 3.22
9 9 -6 14.12 2.99
-9 -9 6 8.41 2.88
8 9 -6 8.77 2.37
8 9 -6 1.22 2.31
-8 -9 6 6.64 2.56
7 9 -6 7.47 2.66
7 9 -6 9.48 2.14
-7 -9 6 13.32 2.9
6 9 -6 6.97 2.54
6 9 -6 4.89 1.28
6 9 -6 3.58 1.62
-6 -9 6 4.48 1.98
5 9 -6 0.64 1.17
5 9 -6 1.57 1.7
5 9 -6 -0.71 0.94
-5 -9 6 1.01 0.93
-5 -9 6 -0.4 1.45
4 9 -6 3.06 1.22
4 9 -6 1.39 1.8
4 9 -6 2.84 1.4
-4 -9 6 3.9 1.47
-4 -9 6 4.31 1.95
3 9 -6 0.38 1.19
3 9 -6 0.53 0.89
3 9 -6 -1.32 1.46
-3 -9 6 -1.41 1.17
-3 -9 6 0.48 1.03
2 9 -6 59.07 4.11
2 9 -6 62.79 3.75
2 9 -6 57.54 2.39
-2 -9 6 64.34 4.03
-2 -9 6 55.54 3.47
1 9 -6 15.12 2.47
1 9 -6 12 2.46
-1 -9 6 14.79 2.44
-1 -9 6 15.37 2.55
0 9 -6 1.39 1.59
0 9 -6 1.16 1.49
0 -9 6 0.29 1.36
0 -9 6 1.49 1.44
-1 9 -6 46.4 3.72
-1 9 -6 48.12 3.81
1 -9 6 43.43 3.63
1 -9 6 41.15 3.56
-2 9 -6 6.83 2.1
-2 9 -6 3.88 1.76
2 -9 6 5.84 2.14
2 -9 6 6.46 2.02
-3 9 -6 22.36 3.17
-3 9 -6 18.89 2.86
3 -9 6 20.08 3.02
3 -9 6 20.92 2.83
-4 9 -6 0.62 1.31
-4 9 -6 -0.74 1.48
4 -9 6 1.19 1.64
4 -9 6 1.13 1.6
-5 9 -6 -0.71 1.29
-5 9 -6 -2.83 1.65
5 -9 6 -0.29 1.54
5 -9 6 0.25 1.6
-6 9 -6 26.55 3.81
6 -9 6 31.81 3.34
6 -9 6 37.08 4.12
9 8 -6 18.97 3.56
9 8 -6 17.18 3.35
-9 -8 6 17.17 3.42
8 8 -6 -2.16 1.54
8 8 -6 -0.72 1.38
-8 -8 6 -0.8 1.59
7 8 -6 3.19 2.06
7 8 -6 2.66 1.74
-7 -8 6 1.87 1.76
6 8 -6 1.19 0.94
6 8 -6 0.82 1.3
6 8 -6 1.07 1.81
-6 -8 6 0.33 0.93
-6 -8 6 0.04 1.42
5 8 -6 6.63 1.67
5 8 -6 6.5 1.49
5 8 -6 6.61 2.29
-5 -8 6 7.59 1.7
-5 -8 6 5.22 1.93
4 8 -6 10.9 2.39
4 8 -6 11.35 1.86
4 8 -6 6.92 1.6
-4 -8 6 7.93 1.7
-4 -8 6 9.79 2.16
3 8 -6 37.14 3.42
3 8 -6 32.38 2.57
3 8 -6 33.72 2.34
-3 -8 6 33.39 2.74
-3 -8 6 38.93 3.27
2 8 -6 2.49 0.93
2 8 -6 2.9 1.62
2 8 -6 2.74 1.38
-2 -8 6 2.9 1.47
-2 -8 6 1.36 1.26
1 8 -6 26.46 2.98
1 8 -6 29.44 1.46
1 8 -6 26 2.63
-1 -8 6 27.2 2.68
-1 -8 6 26.97 2.87
0 8 -6 8.06 2.03
0 8 -6 9.48 2.03
0 -8 6 8.02 2
0 -8 6 10.65 2.11
-1 8 -6 33.05 3.15
-1 8 -6 27.57 3.03
1 -8 6 29.19 2.96
1 -8 6 30.61 3.06
-2 8 -6 -1.33 1.15
-2 8 -6 1.69 1.46
2 -8 6 -0.52 1.31
2 -8 6 -0.73 1.27
-3 8 -6 -0.95 1.26
-3 8 -6 -0.41 1.32
3 -8 6 2.63 1.71
3 -8 6 0.92 1.39
-4 8 -6 31.18 3.49
-4 8 -6 28.95 3.15
4 -8 6 29.38 3.31
4 -8 6 29.24 3.01
-5 8 -6 0.08 1.7
-5 8 -6 0.68 1.41
5 -8 6 0.14 1.23
5 -8 6 1.98 1.93
-6 8 -6 9.27 2.43
-6 8 -6 7.72 2.15
6 -8 6 11.53 2.75
6 -8 6 10.55 2.38
-7 8 -6 3.32 2.11
7 -8 6 8.64 2.69
7 -8 6 7.46 2.15
10 7 -6 -1.31 1.89
10 7 -6 6.28 2.48
-10 -7 6 -0.17 2.05
9 7 -6 20.4 3.54
9 7 -6 12.63 3.11
-9 -7 6 13.64 3.06
8 7 -6 0.03 1.82
8 7 -6 0.43 1.91
-8 -7 6 1.91 1.94
7 7 -6 6.96 2.34
7 7 -6 11.36 2.51
-7 -7 6 9.31 2.41
-7 -7 6 9.96 1.78
6 7 -6 33.68 1.9
6 7 -6 32.69 3.13
6 7 -6 32.77 3.42
-6 -7 6 34.53 3.4
-6 -7 6 32.72 2.6
5 7 -6 7.79 1.31
5 7 -6 3.05 1.46
5 7 -6 2.98 1.76
-5 -7 6 4.19 1.42
-5 -7 6 4.71 1.81
4 7 -6 1.09 1.1
4 7 -6 0.16 0.8
4 7 -6 -0.05 1.46
-4 -7 6 0.83 1.34
-4 -7 6 1.11 1.19
3 7 -6 32.23 3.1
3 7 -6 30.02 2.28
3 7 -6 28.75 2.17
-3 -7 6 33.93 2.65
-3 -7 6 29.49 2.8
2 7 -6 78.77 3.46
2 7 -6 67.21 3.85
2 7 -6 73.07 2.71
-2 -7 6 68.99 3.49
-2 -7 6 67.36 3.68
1 7 -6 13.1 0.99
1 7 -6 13.39 2.09
1 7 -6 16.15 2.52
1 7 -6 12.7 1.12
-1 -7 6 14.83 2.18
-1 -7 6 13.62 2.22
0 7 -6 0.87 1.18
0 7 -6 0.6 1.17
0 -7 6 0.5 1.22
0 -7 6 2.36 1.3
-1 7 -6 8.93 1.88
-1 7 -6 11.02 2.2
1 -7 6 6.34 1.73
1 -7 6 7.15 1.99
-2 7 -6 7.62 1.89
-2 7 -6 6.87 1.86
2 -7 6 5.21 1.84
2 -7 6 4.89 1.63
-3 7 -6 12.31 2.34
-3 7 -6 15.45 2.57
3 -7 6 13.69 2.33
3 -7 6 14.37 2.58
-4 7 -6 21.9 3.16
-4 7 -6 13.4 2.42
4 -7 6 14.61 2.41
4 -7 6 12.65 2.57
-5 7 -6 8.33 2.14
-5 7 -6 8.07 2.3
5 -7 6 9.49 2.11
5 -7 6 5.02 2.16
-6 7 -6 4.82 1.93
-6 7 -6 2.54 2.13
6 -7 6 2.01 1.45
6 -7 6 1.92 1.71
-7 7 -6 8.98 2.71
-7 7 -6 6.47 1.78
7 -7 6 6.45 2.33
7 -7 6 6.45 1.82
-8 7 -6 13.23 3.31
8 -7 6 14.22 3.14
8 -7 6 10.11 2.38
10 6 -6 3.83 2.28
10 6 -6 2.72 2.1
-10 -6 6 1.98 2.19
9 6 -6 14.32 3.06
9 6 -6 8.89 2.52
-9 -6 6 11.21 2.76
8 6 -6 11.26 2.66
8 6 -6 13.68 3
-8 -6 6 10.21 2.74
-8 -6 6 11.58 1.94
7 6 -6 2.56 1.71
7 6 -6 0.88 1.65
-7 -6 6 0.38 1.08
-7 -6 6 -2.23 1.38
6 6 -6 0.65 0.57
6 6 -6 2.12 1.77
6 6 -6 -0.37 1.37
-6 -6 6 2.07 1.26
-6 -6 6 2.78 1.81
5 6 -6 -1.31 1.34
5 6 -6 3.96 1.53
5 6 -6 2.28 0.79
-5 -6 6 1.19 1.39
-5 -6 6 0.38 1.06
4 6 -6 42.17 2.12
4 6 -6 44.79 3.3
4 6 -6 48.35 2.88
-4 -6 6 41.54 3.2
-4 -6 6 43.1 2.84
3 6 -6 34.18 2.27
3 6 -6 35.78 2.19
3 6 -6 34.34 2.95
-3 -6 6 34.92 2.66
-3 -6 6 30.4 2.67
2 6 -6 2.84 0.98
2 6 -6 3.39 1.17
2 6 -6 3.76 1.42
-2 -6 6 4.43 1.39
-2 -6 6 5.01 1.46
1 6 -6 8.16 1.03
1 6 -6 8.99 0.97
1 6 -6 10.39 1.99
1 6 -6 7.75 1.58
-1 -6 6 5.12 1.44
-1 -6 6 10.21 1.83
0 6 -6 10.7 1.99
0 6 -6 11.34 1.78
0 -6 6 12.04 2.06
0 -6 6 9.19 1.78
-1 6 -6 65.12 3.39
-1 6 -6 70.56 3.82
1 -6 6 66.59 3.69
1 -6 6 66.29 3.34
-2 6 -6 25.83 2.67
-2 6 -6 25.78 2.64
2 -6 6 24.65 2.68
2 -6 6 24.18 2.36
-3 6 -6 1.59 1.48
-3 6 -6 0.79 1.31
3 -6 6 1.02 1.35
3 -6 6 -0.72 1.1
-4 6 -6 19.9 2.7
-4 6 -6 12.49 2.37
4 -6 6 13.16 2.6
4 -6 6 15.01 2.15
-5 6 -6 3.88 1.79
-5 6 -6 2.58 1.46
5 -6 6 1.95 1.65
5 -6 6 2.49 1.41
-6 6 -6 16.49 2.85
-6 6 -6 25.41 3.37
6 -6 6 19.32 2.46
6 -6 6 19.77 3.25
-7 6 -6 20.86 2.91
-7 6 -6 26.23 3.71
7 -6 6 24.44 3.37
7 -6 6 27.15 2.86
-8 6 -6 -0.29 1.5
-8 6 -6 0.95 1.9
8 -6 6 2.2 1.41
8 -6 6 1.97 1.98
10 5 -6 0.75 2.2
10 5 -6 3.71 2.29
-10 -5 6 2.38 2.21
9 5 -6 9.98 2.59
9 5 -6 7.12 2.48
-9 -5 6 7.62 1.78
-9 -5 6 6.41 2.48
8 5 -6 -2.23 1.36
8 5 -6 -1.38 1.49
-8 -5 6 -0.39 0.99
-8 -5 6 -1.3 1.38
7 5 -6 1.26 1.58
7 5 -6 1.57 1.62
-7 -5 6 -0.16 1.5
-7 -5 6 -0.56 1.07
6 5 -6 54.58 3.85
6 5 -6 55.36 3.61
-6 -5 6 51.65 3.7
-6 -5 6 54.13 3.17
5 5 -6 9.42 1.92
5 5 -6 10.94 0.97
5 5 -6 8.79 2.16
-5 -5 6 8.02 0.81
-5 -5 6 10.41 1.89
-5 -5 6 7.76 1.91
4 5 -6 9.99 1.97
4 5 -6 11.42 1.84
4 5 -6 10.28 1.14
-4 -5 6 10.8 1.02
-4 -5 6 10.78 1.85
-4 -5 6 8.85 1.97
3 5 -6 12.15 1.7
3 5 -6 12.27 1.36
3 5 -6 12.66 2.04
-3 -5 6 11.24 1.96
-3 -5 6 11.82 1.21
-3 -5 6 14.53 1.95
2 5 -6 0.6 1.03
2 5 -6 -0.26 0.74
2 5 -6 -0.33 0.7
-2 -5 6 1.03 1.09
-2 -5 6 1.17 1.1
1 5 -6 142.17 3.35
1 5 -6 146.75 5.02
1 5 -6 147.5 4.17
1 5 -6 151.11 3.43
-1 -5 6 146.88 4.69
-1 -5 6 151.04 4.6
0 5 -6 0.62 0.45
0 5 -6 1.12 1.13
0 5 -6 1.75 1.06
0 5 -6 0.4 0.49
0 -5 6 0.61 1.03
0 -5 6 1.19 1.13
-1 5 -6 14.17 2.11
-1 5 -6 8.81 1.65
1 -5 6 15.37 1.83
1 -5 6 12.88 2.15
-2 5 -6 38.08 2.86
-2 5 -6 40.84 2.97
2 -5 6 33.79 2.82
2 -5 6 41.41 2.55
-3 5 -6 0.07 1.17
-3 5 -6 0.51 1.17
3 -5 6 0.79 1.1
3 -5 6 2.02 1.49
-4 5 -6 95 4.53
-4 5 -6 83.43 4.35
4 -5 6 90.3 4.55
4 -5 6 90.1 3.73
-5 5 -6 25.43 2.85
-5 5 -6 29.22 3.01
5 -5 6 29.52 2.47
5 -5 6 24.57 2.99
-6 5 -6 -1.67 1.22
-6 5 -6 -0.14 1.41
6 -5 6 0.98 1.34
6 -5 6 0.67 1.25
-7 5 -6 55.05 4.05
-7 5 -6 54 4.31
7 -5 6 54.74 4.22
7 -5 6 58.99 3.56
-8 5 -6 8.82 2.51
-8 5 -6 6.17 2.16
8 -5 6 6.16 1.73
8 -5 6 8.77 2.58
-9 5 -6 -1.41 1.61
-9 5 -6 0.96 1.41
9 -5 6 5.31 1.59
9 -5 6 6.2 2.49
10 4 -6 7.29 2.66
10 4 -6 4.9 2.21
-10 -4 6 4.65 2.14
9 4 -6 7.89 2.34
9 4 -6 1.48 2.05
-9 -4 6 5.86 1.84
-9 -4 6 8.06 2.65
8 4 -6 12.68 2.61
8 4 -6 13.51 2.77
-8 -4 6 10.62 2.08
-8 -4 6 11.65 2.59
7 4 -6 -0.09 1.49
7 4 -6 -2.17 1.42
-7 -4 6 2.75 1.84
-7 -4 6 0.05 1.15
6 4 -6 11.86 2.31
6 4 -6 15.12 2.52
-6 -4 6 15.01 2.26
-6 -4 6 12.73 2.3
5 4 -6 0.52 1.23
5 4 -6 3.82 1.6
-5 -4 6 1.42 1.34
-5 -4 6 0.63 1.29
4 4 -6 17.73 2.09
4 4 -6 18.43 2.37
4 4 -6 19.5 1.06
-4 -4 6 21.66 2.38
-4 -4 6 18.38 2.22
-4 -4 6 16.71 0.99
3 4 -6 135.91 4.78
3 4 -6 140.43 3.12
3 4 -6 145.87 4.28
-3 -4 6 137.09 4.55
-3 -4 6 138.46 3.01
-3 -4 6 135.95 4.45
2 4 -6 0.55 0.95
2 4 -6 1.4 0.83
2 4 -6 1.66 0.86
-2 -4 6 0.2 0.92
-2 -4 6 0.85 0.53
-2 -4 6 0.1 0.91
1 4 -6 22.03 2.19
1 4 -6 24.23 1.49
1 4 -6 26.4 1.83
1 4 -6 27.13 1.62
-1 -4 6 22.91 2.06
-1 -4 6 24.9 2.2
0 4 -6 5.76 0.81
0 4 -6 7.43 0.92
0 4 -6 8.25 1.43
0 4 -6 7.38 1.54
0 -4 6 6.42 1.49
0 -4 6 8.14 1.44
-1 4 -6 23.88 1.08
-1 4 -6 22.66 0.98
-1 4 -6 21.9 1.98
-1 4 -6 20.48 2.18
1 -4 6 21.1 1.83
1 -4 6 21.09 2.21
-2 4 -6 160.61 5.22
-2 4 -6 158.12 4.81
2 -4 6 155.76 5.1
2 -4 6 167.8 4.34
-3 4 -6 6.01 1.62
-3 4 -6 8.52 1.7
3 -4 6 8.85 1.46
3 -4 6 8.1 1.82
-4 4 -6 -0.05 1.06
-4 4 -6 -0.72 1.09
4 -4 6 0.92 0.93
4 -4 6 1.28 1.31
-5 4 -6 87.65 4.5
-5 4 -6 84.03 4.45
5 -4 6 89.06 4.55
5 -4 6 92.13 3.55
-6 4 -6 4.55 1.91
-6 4 -6 5.14 1.91
6 -4 6 5.68 0.96
6 -4 6 7.55 1.68
6 -4 6 3.2 1.62
-7 4 -6 12.07 2.69
-7 4 -6 10.66 2.4
7 -4 6 10.88 1.9
7 -4 6 8.47 2.26
-8 4 -6 5.95 2.1
-8 4 -6 3.14 1.9
8 -4 6 0.98 1.3
8 -4 6 2.2 1.73
-9 4 -6 1.94 1.97
-9 4 -6 0.45 1.38
9 -4 6 0.81 1.67
9 -4 6 -1.13 1.01
10 3 -6 9.76 2.78
10 3 -6 7.93 2.19
-10 -3 6 5.45 2.68
-10 -3 6 4.35 1.58
9 3 -6 -0.3 1.56
9 3 -6 3.53 1.91
-9 -3 6 2.42 2.01
-9 -3 6 1.42 1.57
8 3 -6 14.09 2.66
8 3 -6 16.77 2.94
-8 -3 6 17.84 2.64
-8 -3 6 9.04 2.4
7 3 -6 2.4 1.69
7 3 -6 3.13 1.69
-7 -3 6 -1.78 1.23
-7 -3 6 -1.69 1.17
6 3 -6 15.18 2.5
6 3 -6 18.05 2.43
-6 -3 6 15.74 2.3
-6 -3 6 16.42 2.48
5 3 -6 86.19 4.04
5 3 -6 90.2 4.08
-5 -3 6 82.7 4.09
-5 -3 6 86.51 3.91
4 3 -6 10.39 1.84
4 3 -6 5.97 1.56
-4 -3 6 9.81 1.88
-4 -3 6 12.22 1.96
3 3 -6 10.07 1.64
3 3 -6 10.92 1.85
3 3 -6 8.92 0.87
-3 -3 6 9.99 0.78
-3 -3 6 9.22 1.63
-3 -3 6 7.25 1.6
2 3 -6 37.12 2.56
2 3 -6 38.44 2.18
2 3 -6 41 1.79
-2 -3 6 37.35 1.62
-2 -3 6 43.75 2.54
-2 -3 6 45.98 2.67
1 3 -6 114.92 3.14
1 3 -6 117.39 4.07
1 3 -6 115.14 3.19
-1 -3 6 111.6 3.09
-1 -3 6 116.97 3.96
-1 -3 6 119.08 3.24
-1 -3 6 116.47 3.61
0 3 -6 371.57 6.44
0 3 -6 385.96 5.66
0 3 -6 364.9 7.42
0 -3 6 362.97 5.63
0 -3 6 370.72 7.27
0 -3 6 361.8 6.4
-1 3 -6 0.44 0.84
-1 3 -6 0.66 0.84
-1 3 -6 -0.95 0.54
-1 3 -6 0.33 0.52
1 -3 6 0.13 0.73
1 -3 6 0.12 0.48
1 -3 6 0.32 0.92
-2 3 -6 14.99 1.34
-2 3 -6 13.2 1.92
-2 3 -6 17.82 1.89
-2 3 -6 17.85 1
2 -3 6 15.73 1.49
2 -3 6 17.63 2.13
2 -3 6 16.47 0.96
-3 3 -6 127.14 2.47
-3 3 -6 124.84 3.5
-3 3 -6 132.44 4.74
-3 3 -6 125.03 4.46
3 -3 6 123.18 4.49
3 -3 6 130.86 3.52
3 -3 6 126.46 2.44
-4 3 -6 7.62 0.88
-4 3 -6 4.65 1.47
-4 3 -6 8.67 1.96
4 -3 6 5.94 1.17
4 -3 6 6.74 0.81
4 -3 6 8.29 1.83
-5 3 -6 17.8 2.54
-5 3 -6 20.48 2.51
-5 3 -6 19.93 1.34
5 -3 6 21.06 1.89
5 -3 6 19.91 2.61
5 -3 6 20.19 1.24
-6 3 -6 -0.57 1.33
-6 3 -6 0.44 1.32
-6 3 -6 0.46 0.67
6 -3 6 0.66 1.04
6 -3 6 2.63 1.63
-7 3 -6 3.12 1.67
-7 3 -6 2.88 1.79
7 -3 6 4.08 1.3
7 -3 6 2.67 1.6
-8 3 -6 104.78 5.5
-8 3 -6 110.68 5.53
8 -3 6 95.83 5.23
8 -3 6 97.07 4.04
-9 3 -6 5.01 2.05
9 -3 6 3 1.38
9 -3 6 0.36 1.54
-10 3 -6 -2.48 1.46
10 -3 6 3.02 2.69
10 -3 6 2.92 1.85
10 2 -6 2.95 1.78
10 2 -6 -3.05 1.57
-10 -2 6 2.83 2.19
-10 -2 6 4.27 1.59
9 2 -6 3.14 1.71
9 2 -6 -2.73 1.53
-9 -2 6 -1.09 1.29
-9 -2 6 -0.21 1.83
8 2 -6 29.74 3.06
8 2 -6 33.37 3.46
-8 -2 6 28.6 3.4
-8 -2 6 31.29 3.07
7 2 -6 17.88 2.65
7 2 -6 15.25 2.56
-7 -2 6 15.76 2.54
-7 -2 6 17.68 2.66
6 2 -6 2.61 1.48
6 2 -6 3.6 1.48
-6 -2 6 1.38 1.41
-6 -2 6 2.55 1.55
5 2 -6 12.96 2.19
5 2 -6 12.25 2.06
-5 -2 6 7.56 1.76
-5 -2 6 13.8 2.18
4 2 -6 5.23 1.44
4 2 -6 5.46 1.48
-4 -2 6 2.8 1.32
-4 -2 6 2.43 1.25
3 2 -6 50.06 2.69
3 2 -6 51.57 2.87
-3 -2 6 55.25 2.91
-3 -2 6 50.02 2.89
2 2 -6 191.54 4.63
2 2 -6 189.25 5.08
-2 -2 6 191.67 3.37
-2 -2 6 198.7 5.16
-2 -2 6 199.01 4.87
-2 -2 6 189.45 3.39
1 2 -6 0.35 0.77
1 2 -6 0.76 0.63
1 2 -6 0.58 0.89
-1 -2 6 0.36 0.7
-1 -2 6 0.5 0.55
-1 -2 6 0.2 0.84
-1 -2 6 1.73 1.03
0 2 -6 105.64 2.96
0 2 -6 102.66 3.08
0 2 -6 104.24 2.96
0 2 -6 108.5 3.86
0 -2 6 104.32 3.79
0 -2 6 105.56 2.92
0 -2 6 104.47 3.04
0 -2 6 106.67 3.12
-1 2 -6 139.83 3.9
-1 2 -6 141.66 4.39
-1 2 -6 138.45 3.25
-1 2 -6 140.48 3.26
1 -2 6 140.97 4.4
1 -2 6 143 3.17
1 -2 6 140.41 3.29
-2 2 -6 89.06 3.73
-2 2 -6 93.27 2.58
-2 2 -6 94.3 3.49
-2 2 -6 92.84 2.52
2 -2 6 91.61 2.58
2 -2 6 87.58 2.4
2 -2 6 95.33 3.71
-3 2 -6 25.39 1.46
-3 2 -6 23.18 1.39
-3 2 -6 25.2 2.42
-3 2 -6 25.18 2.18
3 -2 6 23.52 2.25
3 -2 6 23.33 1.34
3 -2 6 25.71 1.54
-4 2 -6 5.63 1.55
-4 2 -6 6.65 0.98
-4 2 -6 6.87 1.67
-4 2 -6 6.61 1.09
4 -2 6 8.49 1.16
4 -2 6 4.03 1.46
4 -2 6 5.81 0.93
-5 2 -6 26.44 1.68
-5 2 -6 22.1 2.42
-5 2 -6 26.46 2.86
5 -2 6 21.98 1.46
5 -2 6 21.1 1.53
5 -2 6 27.46 1.82
5 -2 6 25.59 2.58
-6 2 -6 46.62 3.3
-6 2 -6 44.56 2.32
-6 2 -6 38.8 3.38
6 -2 6 43.75 3.3
6 -2 6 43.28 2.29
-7 2 -6 0.48 1.48
-7 2 -6 -1.36 1.41
-7 2 -6 0.47 0.93
7 -2 6 0.79 1.44
7 -2 6 1.94 1.04
-8 2 -6 0.79 1
-8 2 -6 -2.73 1.36
8 -2 6 0.82 1
8 -2 6 2.96 1.87
-9 2 -6 1.03 1.82
9 -2 6 3.3 1.3
9 -2 6 3.66 2.18
9 -2 6 2.61 1.78
-10 2 -6 12.41 2.81
10 -2 6 19.05 3.53
10 -2 6 9.76 2.4
10 1 -6 21.14 3.68
10 1 -6 21.66 2.84
-10 -1 6 18.57 2.95
-10 -1 6 24.94 3.81
9 1 -6 3.8 1.79
9 1 -6 3.04 2.1
-9 -1 6 2.18 1.63
-9 -1 6 2.1 1.97
8 1 -6 21.39 2.63
8 1 -6 17.94 3.15
-8 -1 6 19.28 2.81
-8 -1 6 17.25 2.91
7 1 -6 9.24 2.32
7 1 -6 2.21 1.49
-7 -1 6 8.49 2.1
-7 -1 6 6.93 2.14
6 1 -6 1.72 1.44
6 1 -6 0.26 1.27
-6 -1 6 4.04 1.51
-6 -1 6 2.46 1.5
5 1 -6 97.79 4.3
5 1 -6 99.16 3.94
-5 -1 6 102.96 4.31
-5 -1 6 102.01 4.3
4 1 -6 96.81 3.95
4 1 -6 88.29 3.6
-4 -1 6 86.55 3.7
-4 -1 6 91.55 3.94
3 1 -6 8.24 1.64
3 1 -6 10.15 1.61
-3 -1 6 8.48 1.71
-3 -1 6 6.18 1.44
2 1 -6 23.48 2.05
2 1 -6 23.2 1.94
-2 -1 6 24.36 1.12
-2 -1 6 24.69 1.16
-2 -1 6 24.78 1.95
-2 -1 6 22.96 2.05
1 1 -6 95.68 3.43
1 1 -6 93.31 2.89
1 1 -6 101.74 3.25
-1 -1 6 95.35 2.56
-1 -1 6 98.11 3.6
-1 -1 6 94.41 2.96
-1 -1 6 93.45 2.53
0 1 -6 90.25 2.96
0 1 -6 89.92 2.58
0 1 -6 91.03 3.41
0 -1 6 87.15 2.81
0 -1 6 92.2 3.41
0 -1 6 91.28 2.8
0 -1 6 89.92 2.67
0 -1 6 86.65 2.78
-1 1 -6 46.58 2.12
-1 1 -6 43.61 1.65
1 -1 6 45.81 1.74
1 -1 6 46.56 2.01
1 -1 6 42.04 2.45
1 -1 6 45.5 2.38
-2 1 -6 7.46 1.56
-2 1 -6 6.7 0.8
-2 1 -6 7.26 1.17
2 -1 6 5.97 1.43
2 -1 6 7.38 0.93
2 -1 6 6.92 1.03
-3 1 -6 32.96 1.79
-3 1 -6 29.31 2.51
-3 1 -6 30.03 1.28
3 -1 6 29.34 2.35
3 -1 6 31.74 1.7
3 -1 6 30.79 1.31
-4 1 -6 62.69 2.43
4 -1 6 59.48 2.29
4 -1 6 59.55 3.23
4 -1 6 60.89 1.88
4 -1 6 61.3 1.9
-5 1 -6 30.8 2.02
-5 1 -6 29.8 2.89
5 -1 6 30.35 2.57
5 -1 6 29.28 1.58
5 -1 6 26.94 1.45
-6 1 -6 4.43 1.78
-6 1 -6 5.08 1.26
6 -1 6 5.25 0.9
6 -1 6 3.58 1.53
6 -1 6 2.84 1.63
6 -1 6 3.5 0.99
-7 1 -6 26.18 2.23
-7 1 -6 23.98 3.06
7 -1 6 25.22 2.88
7 -1 6 23.3 1.87
7 -1 6 32.14 3.4
-8 1 -6 52.67 4.11
-8 1 -6 51.48 3.11
8 -1 6 54.18 3.77
8 -1 6 50.32 2.69
8 -1 6 54.69 4.1
-9 1 -6 0.97 1.37
-9 1 -6 0.23 1.59
9 -1 6 1.76 1.62
9 -1 6 0.89 1.17
9 -1 6 0.34 1.9
-10 1 -6 6.05 2.3
-10 1 -6 4.69 1.63
10 -1 6 5.29 2.04
10 -1 6 5.63 2.51
-11 1 -6 0.32 1.66
11 -1 6 -0.57 1.3
11 -1 6 -4.42 1.8
10 0 -6 5.57 2.41
-10 0 6 4.74 2.47
-10 0 6 3.1 2.05
9 0 -6 -1.53 1.71
9 0 -6 3.96 1.46
-9 0 6 1.46 1.63
-9 0 6 3.52 2.03
8 0 -6 9.95 2.03
8 0 -6 7.68 2.33
-8 0 6 4.1 2.07
-8 0 6 5.1 2.1
7 0 -6 89.51 3.96
7 0 -6 83.56 4.71
-7 0 6 79.67 4.54
-7 0 6 82.09 4.52
6 0 -6 1.3 1.44
6 0 -6 7.44 1.61
-6 0 6 4.89 1.82
-6 0 6 2.74 1.51
5 0 -6 0.91 1.11
5 0 -6 0.56 1.15
-5 0 6 1.16 1.47
-5 0 6 -0.05 1.23
4 0 -6 47.46 2.93
4 0 -6 48.23 2.69
-4 0 6 47.85 3.08
-4 0 6 48.54 2.95
3 0 -6 2.49 1.14
3 0 -6 1.54 0.99
-3 0 6 1.85 0.42
-3 0 6 1.61 0.38
-3 0 6 2.41 1.12
-3 0 6 1.76 1.28
2 0 -6 84.68 3.15
2 0 -6 84.78 3.34
-2 0 6 84.24 3.54
-2 0 6 85.08 2.13
-2 0 6 86.43 3.1
-2 0 6 81.76 2.06
1 0 -6 50.86 2.13
1 0 -6 51.71 2.5
1 0 -6 49.78 2.54
-1 0 6 50.74 1.86
-1 0 6 51.21 2.25
-1 0 6 48.41 1.86
-1 0 6 50.83 2.67
0 0 -6 20.09 1.81
0 0 -6 17.49 1.7
0 0 -6 16.72 1.2
0 0 6 19.44 1.96
0 0 6 21.4 1.49
0 0 6 18.57 1.53
0 0 6 18.07 1.33
-1 0 -6 79.93 3.28
-1 0 -6 80.44 2.87
-1 0 -6 79.65 1.95
1 0 6 78.92 2.01
1 0 6 77.13 2.8
1 0 6 80.91 2.83
1 0 6 77.85 3.21
-2 0 -6 7.4 0.64
-2 0 -6 8.67 1.62
-2 0 -6 8.36 1.32
2 0 6 7.56 1.16
2 0 6 7.66 1.44
2 0 6 7.41 0.68
2 0 6 8.33 1.46
-3 0 -6 16.43 2.01
-3 0 -6 16.23 1.59
3 0 6 14.92 1.38
3 0 6 15.24 1.91
3 0 6 15.38 1.8
-4 0 -6 2.04 1.22
-4 0 -6 5.33 1.24
4 0 6 3.67 1.26
4 0 6 4.68 1.42
-5 0 -6 5.85 1.74
-5 0 -6 5.27 1.36
5 0 6 5.23 0.77
5 0 6 4.71 1.63
5 0 6 6.06 0.77
5 0 6 2.83 1.35
-6 0 -6 26.12 2.97
-6 0 -6 21.3 2.19
6 0 6 28.42 2.82
6 0 6 26.99 2.52
6 0 6 23.28 1.36
6 0 6 25.34 1.48
-7 0 -6 12.27 2.11
-7 0 -6 8.97 2.18
7 0 6 14.44 1.48
7 0 6 11.03 2.27
7 0 6 13.54 2.21
-8 0 -6 11.42 2.61
-8 0 -6 11.61 2.19
8 0 6 16.43 2.84
8 0 6 10.65 1.58
8 0 6 14.16 2.43
-9 0 -6 6.09 2.27
-9 0 -6 1.3 1.38
9 0 6 3.18 1.71
9 0 6 1.89 1.97
9 0 6 3.69 1.17
-10 0 -6 5.5 2.2
-10 0 -6 2.74 1.87
10 0 6 5.89 1.92
10 0 6 7.21 2.5
-11 0 -6 19.16 2.48
-11 0 -6 25.22 3.62
11 0 6 22.32 3.59
11 0 6 19.37 2.73
10 -1 -6 2.61 2.37
-10 1 6 5.88 2.64
-10 1 6 0.2 1.79
9 -1 -6 33.85 3.84
-9 1 6 29.64 4
-9 1 6 27.35 3.47
8 -1 -6 1.13 1.3
8 -1 -6 1.46 1.85
-8 1 6 0.8 1.66
-8 1 6 4.15 2.17
7 -1 -6 0.33 1.62
7 -1 -6 1.78 1.13
-7 1 6 0.98 1.76
-7 1 6 0.39 1.56
6 -1 -6 24.67 2.26
6 -1 -6 22.31 2.66
-6 1 6 21.49 2.77
-6 1 6 23.58 2.93
5 -1 -6 2.41 1.17
5 -1 -6 3.02 1.4
-5 1 6 3.9 1.56
-5 1 6 2.62 1.59
4 -1 -6 76.07 3.63
4 -1 -6 77.7 3.01
4 -1 -6 76.94 1.72
-4 1 6 76.5 3.9
-4 1 6 78.35 3.67
3 -1 -6 3.33 0.63
3 -1 -6 5.01 1.15
3 -1 -6 4.78 1.43
-3 1 6 4.71 1.51
-3 1 6 5.06 0.77
-3 1 6 3.7 1.24
2 -1 -6 15.55 1.58
2 -1 -6 18.15 1.97
2 -1 -6 15.33 1.13
-2 1 6 17.14 1.26
-2 1 6 16.73 1.77
-2 1 6 14.31 2.1
1 -1 -6 150.28 3.67
1 -1 -6 149.22 4.28
1 -1 -6 140.13 3.84
1 -1 -6 145.22 3.28
-1 1 6 147.27 3.32
-1 1 6 147.96 3.66
-1 1 6 148.04 4.53
0 -1 -6 21.7 1.31
0 -1 -6 24.49 1.97
0 -1 -6 22.09 1.57
0 -1 -6 24.91 1.95
0 1 6 21.48 1.58
0 1 6 24.15 2.03
0 1 6 22.48 1.46
-1 -1 -6 59.4 2.79
-1 -1 -6 58.62 2.69
-1 -1 -6 59.66 1.62
1 1 6 61.09 2.5
1 1 6 60.06 1.71
1 1 6 60.9 2.88
-2 -1 -6 -0.4 0.87
-2 -1 -6 -0.23 0.82
2 1 6 0.83 0.93
2 1 6 0.73 0.87
-3 -1 -6 6.13 1.3
-3 -1 -6 5.53 1.45
3 1 6 4.47 1.27
3 1 6 3.05 1.15
-4 -1 -6 83.59 3.2
-4 -1 -6 84.43 3.88
4 1 6 86.19 3.47
4 1 6 82.11 3.5
-5 -1 -6 6.09 1.62
-5 -1 -6 4.41 1.39
5 1 6 3.95 1.38
5 1 6 7.68 1.56
-6 -1 -6 25.31 2.91
-6 -1 -6 32.85 2.62
6 1 6 28.8 2.47
6 1 6 28.14 1.23
6 1 6 27.67 1.32
6 1 6 30.1 2.73
-7 -1 -6 -0.9 1.14
-7 -1 -6 2.72 1.59
7 1 6 0.85 1.3
7 1 6 -0.19 1.06
7 1 6 1.05 0.65
-8 -1 -6 45.72 3.32
-8 -1 -6 50.74 4.06
8 1 6 44.83 3.21
8 1 6 42.41 2.2
8 1 6 51.66 3.83
-9 -1 -6 13.06 2.83
-9 -1 -6 11.79 2.44
9 1 6 13.75 2.31
9 1 6 11.3 2.63
-10 -1 -6 1.26 1.88
-10 -1 -6 0.4 1.47
10 1 6 -0.02 1.64
10 1 6 -0.44 1.23
-11 -1 -6 -2.95 1.74
-11 -1 -6 3.63 2.08
11 1 6 1.77 2.03
11 1 6 1.43 1.3
10 -2 -6 -2.15 1.67
-10 2 6 2.31 2.1
9 -2 -6 -0.21 2.1
-9 2 6 1.18 2.12
-9 2 6 3.27 2.09
8 -2 -6 5.46 2.34
-8 2 6 10.7 2.74
-8 2 6 6.24 2.3
7 -2 -6 6.32 2.13
7 -2 -6 2.1 1.12
-7 2 6 1.09 1.74
-7 2 6 4.34 2.05
6 -2 -6 12.68 2.42
6 -2 -6 12.22 1.74
-6 2 6 11.08 2.48
-6 2 6 10.03 1.01
-6 2 6 11.53 2.36
5 -2 -6 11.02 2.12
5 -2 -6 13.11 1.07
5 -2 -6 12.59 1.63
-5 2 6 12.08 2.24
-5 2 6 13.14 2.36
-5 2 6 10.52 1.07
4 -2 -6 17.24 1.2
4 -2 -6 17.99 1.63
4 -2 -6 19.37 2.36
-4 2 6 16.52 1.27
-4 2 6 16.17 2.47
-4 2 6 16.02 1.36
-4 2 6 20.9 2.46
3 -2 -6 32.81 1.91
3 -2 -6 30.44 1.51
3 -2 -6 32.97 2.64
-3 2 6 35.4 2.74
-3 2 6 33.46 1.63
-3 2 6 32.6 1.84
-3 2 6 28.81 2.37
2 -2 -6 9.36 1.33
2 -2 -6 9.93 1.08
2 -2 -6 8.47 1.52
-2 2 6 6.86 1.15
-2 2 6 7.65 1.23
-2 2 6 8.93 1.82
-2 2 6 9.15 1.61
1 -2 -6 189.04 5.12
1 -2 -6 187.62 4.41
1 -2 -6 192.73 4.45
1 -2 -6 185.38 3.94
-1 2 6 184.98 4.28
-1 2 6 190.56 4.38
-1 2 6 192.13 5.31
-1 2 6 194.13 4.14
0 -2 -6 10.49 1.25
0 -2 -6 14.6 1.6
0 -2 -6 11.43 1.11
0 -2 -6 12.8 1.71
0 2 6 14.3 1.92
0 2 6 12.87 1.35
0 2 6 14.01 1.62
-1 -2 -6 1.3 0.5
-1 -2 -6 1.23 0.58
-1 -2 -6 2.43 1.03
-1 -2 -6 1.53 1.07
1 2 6 0.29 0.81
1 2 6 0.32 1
-2 -2 -6 14.14 1.85
-2 -2 -6 18.25 1.92
2 2 6 15.6 1.83
2 2 6 15.28 1.79
-3 -2 -6 21.93 2.03
-3 -2 -6 20.62 2.2
3 2 6 19.43 2.01
3 2 6 19.25 1.88
-4 -2 -6 63.23 3.42
-4 -2 -6 57.63 2.97
4 2 6 55.93 2.94
4 2 6 60.16 2.88
-5 -2 -6 -0.21 1
-5 -2 -6 -0.11 1.09
5 2 6 0.42 1.11
5 2 6 1.26 1.04
-6 -2 -6 45.71 3.02
-6 -2 -6 52.86 3.58
6 2 6 47.93 2.81
6 2 6 47.89 3.25
-7 -2 -6 24.63 3.07
-7 -2 -6 25.64 2.65
7 2 6 26.74 2.38
7 2 6 24.1 2.71
7 2 6 25.59 1.45
-8 -2 -6 -2.19 1.19
-8 -2 -6 -2.68 1.06
8 2 6 0.14 1.46
8 2 6 -0.93 0.69
8 2 6 0.25 1.09
-9 -2 -6 2.46 2.12
-9 -2 -6 -1.3 1.53
9 2 6 2.34 1.49
9 2 6 0.01 1.75
-10 -2 -6 2.01 2.06
-10 -2 -6 4.14 2.11
10 2 6 2.35 1.31
10 2 6 1.38 1.85
-11 -2 -6 4.77 2.01
11 2 6 4.47 2.35
9 -3 -6 0.13 1.88
9 -3 -6 5.23 2.4
-9 3 6 2.1 2.26
8 -3 -6 18.85 3.14
8 -3 -6 21.6 3.54
-8 3 6 20.11 3.35
7 -3 -6 5.21 2.1
-7 3 6 5.1 2.32
6 -3 -6 7.53 2.08
6 -3 -6 3.3 0.92
-6 3 6 2.95 0.87
-6 3 6 4.58 2.05
5 -3 -6 23.6 2.8
5 -3 -6 23.36 1.66
-5 3 6 21.92 1.7
-5 3 6 23.4 3.02
4 -3 -6 28.27 2.77
4 -3 -6 24.94 1.6
4 -3 -6 28.59 1.69
-4 3 6 29.18 1.83
-4 3 6 27.69 2.81
-4 3 6 29.06 1.63
3 -3 -6 60.17 2.31
3 -3 -6 61.44 3.33
3 -3 -6 59.85 2.24
-3 3 6 59.47 2.16
-3 3 6 62.37 3.58
-3 3 6 62.2 2.47
2 -3 -6 0.45 0.96
2 -3 -6 1.88 0.81
2 -3 -6 0.35 0.6
2 -3 -6 0.95 1.07
-2 3 6 1.22 0.85
-2 3 6 2.26 1.31
-2 3 6 0.12 0.59
1 -3 -6 0.82 0.86
1 -3 -6 -0.32 1.04
1 -3 -6 0.04 0.72
-1 3 6 -0.72 1.04
-1 3 6 -0.73 0.55
-1 3 6 0.52 0.85
0 -3 -6 11.59 1.37
0 -3 -6 10.4 1.85
0 -3 -6 10.53 1.14
0 -3 -6 10.68 1.44
0 3 6 8.31 1.19
0 3 6 11.65 1.85
0 3 6 10.53 1.63
-1 -3 -6 81.57 2.34
-1 -3 -6 83.29 3.46
-1 -3 -6 85.42 3.24
-1 -3 -6 82.08 2.27
1 3 6 79.9 3.15
1 3 6 81.65 3.39
-2 -3 -6 68.23 1.72
-2 -3 -6 65.2 1.64
-2 -3 -6 70.77 3.15
-2 -3 -6 71.75 3.21
2 3 6 69.67 2.97
2 3 6 71.55 3.07
-3 -3 -6 0.21 1
-3 -3 -6 0.48 1.01
3 3 6 -0.27 0.89
3 3 6 0.65 0.95
-4 -3 -6 87.55 3.95
-4 -3 -6 83.43 3.65
4 3 6 87.41 3.28
4 3 6 91.45 3.75
-5 -3 -6 2.29 1.38
-5 -3 -6 1.57 1.32
5 3 6 1.33 1.02
5 3 6 0.58 1.05
-6 -3 -6 1.84 1.43
-6 -3 -6 4.81 1.67
6 3 6 3.14 1.17
6 3 6 4.02 1.46
-7 -3 -6 1.47 1.47
-7 -3 -6 -0.6 1.33
7 3 6 -0.12 1.03
7 3 6 -1.04 0.52
7 3 6 1.46 1.41
-8 -3 -6 15.18 2.88
-8 -3 -6 18.51 2.85
8 3 6 23.88 2.22
8 3 6 21.07 2.86
8 3 6 18.27 1.49
-9 -3 -6 21.72 3.38
-9 -3 -6 22.15 3.08
9 3 6 22.27 3.01
9 3 6 19.1 2.16
-10 -3 -6 1.51 1.88
-10 -3 -6 4.3 2.5
10 3 6 5.31 1.51
10 3 6 -0.19 1.7
-11 -3 -6 10.57 2.69
11 3 6 13.94 3.21
11 3 6 11.38 2.85
9 -4 -6 4.24 2.33
9 -4 -6 0.53 2.12
-9 4 6 6.25 2.63
8 -4 -6 0.43 1.79
8 -4 -6 2.74 2.02
-8 4 6 2.19 2.25
7 -4 -6 1.72 1.97
7 -4 -6 3.67 2.06
-7 4 6 -2.08 1.5
6 -4 -6 10.77 2.41
6 -4 -6 8.93 2.42
-6 4 6 9.58 2.47
-6 4 6 11.15 1.55
5 -4 -6 58.19 3.82
5 -4 -6 54.65 3.82
-5 4 6 54.3 2.68
-5 4 6 52.03 4.07
4 -4 -6 36.25 3.02
4 -4 -6 34.86 1.53
4 -4 -6 29.63 2.79
-4 4 6 37.27 2.3
-4 4 6 29.87 1.33
-4 4 6 32.82 3.11
3 -4 -6 5.44 1.57
3 -4 -6 5.3 0.85
3 -4 -6 3.66 1.43
-3 4 6 4.51 0.76
-3 4 6 5.85 1.77
-3 4 6 5.41 1.26
2 -4 -6 29.14 1.59
2 -4 -6 29.66 2.68
2 -4 -6 31.35 2.45
-2 4 6 30.18 1.5
-2 4 6 30.23 2.72
-2 4 6 26.34 2.15
1 -4 -6 87.99 3.38
1 -4 -6 89.15 2.81
1 -4 -6 90.96 3.9
-1 4 6 94.73 4
-1 4 6 86.54 3.36
-1 4 6 88.59 2.69
0 -4 -6 47.39 2.92
0 -4 -6 49.38 2.33
0 -4 -6 45.59 2.24
0 4 6 43.28 2.05
0 4 6 48.18 2.93
0 4 6 44.14 2.55
-1 -4 -6 2.5 1.05
-1 -4 -6 3.46 1.29
-1 -4 -6 3.9 0.93
-1 -4 -6 4.2 0.82
1 4 6 1.16 1.18
1 4 6 2.64 1.25
-2 -4 -6 64.49 2.01
-2 -4 -6 67.27 3.09
-2 -4 -6 64.55 2.06
-2 -4 -6 64.05 3.25
2 4 6 65.98 3.06
2 4 6 64.99 3.17
-3 -4 -6 5.59 0.69
-3 -4 -6 4.19 0.68
-3 -4 -6 6.27 1.54
-3 -4 -6 4.4 1.48
3 4 6 5.92 1.36
3 4 6 4.74 1.41
-4 -4 -6 12.52 2.13
-4 -4 -6 10.42 1.91
4 4 6 10.26 1.59
4 4 6 6.34 1.57
-5 -4 -6 -0.68 1.08
-5 -4 -6 0.49 1.26
5 4 6 -0.95 1.05
5 4 6 -0.16 0.95
-6 -4 -6 12.73 2.23
-6 -4 -6 15.31 2.52
6 4 6 12.83 2.24
6 4 6 13.11 1.74
-7 -4 -6 34.89 3.43
-7 -4 -6 34.97 1.56
-7 -4 -6 37.59 3.33
7 4 6 36.63 2.42
7 4 6 37.99 3.31
-8 -4 -6 -1.12 1.47
-8 -4 -6 2.68 1.7
8 4 6 -2.64 1.29
8 4 6 -1.7 0.79
-9 -4 -6 14.33 3.03
-9 -4 -6 11.91 2.69
9 4 6 13.86 1.84
9 4 6 19.88 3.03
-10 -4 -6 -1.41 1.72
10 4 6 2.04 1.78
-11 -4 -6 2.2 2.32
11 4 6 3.35 2.54
11 4 6 4.99 2.36
8 -5 -6 18.32 3.47
8 -5 -6 11.22 2.83
-8 5 6 12.56 3.11
7 -5 -6 1.09 2.1
7 -5 -6 2.86 1.89
-7 5 6 0.88 1.94
6 -5 -6 12.67 2.57
6 -5 -6 12.59 2.77
-6 5 6 10.14 2.53
-6 5 6 11.88 1.88
5 -5 -6 -0.48 1.27
5 -5 -6 0.64 1.49
-5 5 6 -0.04 1.01
-5 5 6 -0.5 1.4
4 -5 -6 -0.03 1.38
4 -5 -6 0.15 1.36
-4 5 6 1.03 1.1
-4 5 6 0.02 1.48
3 -5 -6 117.24 4.93
3 -5 -6 109.16 4.59
-3 5 6 111.99 5.03
-3 5 6 112.91 4.09
2 -5 -6 10.63 0.98
2 -5 -6 8.69 2
2 -5 -6 10.06 1.83
-2 5 6 9.75 0.87
-2 5 6 9.09 1.98
-2 5 6 6.47 1.58
1 -5 -6 9.62 1.7
1 -5 -6 6.98 1.81
1 -5 -6 7.21 1.12
-1 5 6 9.48 1.93
-1 5 6 8.57 1.02
-1 5 6 10.15 1.75
0 -5 -6 32.06 2.61
0 -5 -6 33.2 2.16
0 -5 -6 35.45 1.97
0 5 6 29.1 2.42
0 5 6 37.94 2.83
0 5 6 31.35 1.74
-1 -5 -6 1.57 1.21
-1 -5 -6 -0.08 0.77
-1 -5 -6 1.27 0.91
1 5 6 0.4 1.08
1 5 6 -1.02 1.03
-2 -5 -6 9.58 1.64
-2 -5 -6 8.99 1.28
-2 -5 -6 6.67 1.72
2 5 6 7.53 1.73
2 5 6 13.36 1.85
-3 -5 -6 14.86 1.27
-3 -5 -6 12.34 2.05
-3 -5 -6 12.57 1.93
3 5 6 11.01 1.13
3 5 6 15.29 2.35
3 5 6 14.76 1.95
-4 -5 -6 7.89 0.98
-4 -5 -6 7.82 1.83
-4 -5 -6 6.94 1.65
4 5 6 11.48 2.07
4 5 6 5.91 1.36
4 5 6 6.77 0.88
-5 -5 -6 35.77 2.98
-5 -5 -6 39.1 3.07
-5 -5 -6 39.07 1.54
5 5 6 33.13 1.39
5 5 6 37.67 2.23
5 5 6 33.43 2.93
-6 -5 -6 -0.9 1.16
-6 -5 -6 0.48 0.55
-6 -5 -6 1.39 1.48
6 5 6 0.27 0.89
6 5 6 -0.17 1.34
6 5 6 0.9 0.53
-7 -5 -6 6.16 2.01
-7 -5 -6 9.32 1.06
-7 -5 -6 9.79 2.49
7 5 6 10.68 1.61
7 5 6 7.16 1.96
-8 -5 -6 2.87 1.91
-8 -5 -6 2.84 1.99
8 5 6 2.38 1.91
8 5 6 1.06 0.92
-9 -5 -6 13.75 2.96
9 5 6 14.44 2.99
-10 -5 -6 4.29 2.25
10 5 6 1.74 2.14
10 5 6 0.4 2.3
-11 -5 -6 -3.15 1.81
11 5 6 0.57 2.33
11 5 6 -2.09 1.67
8 -6 -6 7.25 2.28
8 -6 -6 10.31 3.04
-8 6 6 4.2 2.5
7 -6 -6 -1.02 1.66
7 -6 -6 3.24 2.2
-7 6 6 1.06 2.11
6 -6 -6 0.29 1.76
6 -6 -6 -2.71 1.38
-6 6 6 1.07 1.24
-6 6 6 1.48 2.01
5 -6 -6 51.88 4.01
5 -6 -6 51.81 4.04
-5 6 6 55.7 3.41
-5 6 6 50.42 4.22
4 -6 -6 9.06 2.27
4 -6 -6 4.87 1.91
-4 6 6 6.72 2.19
-4 6 6 5.65 1.61
3 -6 -6 4.87 1.71
3 -6 -6 3.78 1.9
-3 6 6 4.85 1.61
-3 6 6 2.22 1.69
2 -6 -6 15.42 2.4
2 -6 -6 12.4 2.17
-2 6 6 17.15 2.76
-2 6 6 17.14 2.35
1 -6 -6 4.5 0.85
1 -6 -6 6.77 1.92
1 -6 -6 6.04 1.54
-1 6 6 2.96 0.65
-1 6 6 6.86 1.75
-1 6 6 1.99 1.51
0 -6 -6 27.81 2.65
0 -6 -6 27.39 2.25
0 -6 -6 24.34 1.7
0 6 6 21.43 1.46
0 6 6 24.74 2.44
0 6 6 27.19 2.7
-1 -6 -6 1.95 1.51
-1 -6 -6 5.68 1.23
-1 -6 -6 4.82 1.29
1 6 6 2.44 1.38
1 6 6 3.39 1.5
-2 -6 -6 3.35 1.02
-2 -6 -6 3.99 1.49
-2 -6 -6 1.6 1.1
2 6 6 3.56 1.46
2 6 6 2.83 1.29
-3 -6 -6 37.29 2.05
-3 -6 -6 40.48 2.78
-3 -6 -6 35.31 2.89
3 6 6 40.27 3.01
3 6 6 35.18 1.85
3 6 6 37.47 2.5
-4 -6 -6 0.33 1.37
-4 -6 -6 2.25 1.3
-4 -6 -6 1.14 0.83
4 6 6 2 1.1
4 6 6 1.33 1.5
4 6 6 1.66 0.61
-5 -6 -6 7.74 1.88
-5 -6 -6 7.66 1.19
-5 -6 -6 5.65 1.86
5 6 6 7.14 1.89
5 6 6 7.65 1.44
5 6 6 4.24 0.78
-6 -6 -6 2.5 1.57
-6 -6 -6 0.48 0.69
-6 -6 -6 0.51 1.55
6 6 6 1.46 0.9
6 6 6 2.98 1.76
-7 -6 -6 8.8 2.32
-7 -6 -6 11.69 1.29
-7 -6 -6 6.26 2.18
7 6 6 10.14 2.39
7 6 6 11.88 1.51
-8 -6 -6 2.44 1.83
8 6 6 -0.27 1.71
-9 -6 -6 5.36 2.36
9 6 6 1.96 1.81
9 6 6 4.58 2.34
-10 -6 -6 1.88 2.23
10 6 6 -2.57 1.81
10 6 6 -1.67 1.78
-11 -6 -6 -0.13 2.01
11 6 6 6.29 2.44
11 6 6 0.86 2.06
7 -7 -6 22.25 3.92
7 -7 -6 30.87 3.51
-7 7 6 28.44 4.17
6 -7 -6 -1.99 1.59
6 -7 -6 1.05 1.84
-6 7 6 4.83 2.58
-6 7 6 -0.16 1.24
5 -7 -6 -1.01 1.74
5 -7 -6 -1.53 1.34
-5 7 6 3.23 1.48
-5 7 6 -1.69 1.61
4 -7 -6 18.34 2.94
4 -7 -6 16.42 2.93
-4 7 6 16.61 3.05
-4 7 6 19.31 2.79
3 -7 -6 3.6 1.79
3 -7 -6 5.31 1.84
-3 7 6 1.08 1.8
-3 7 6 2.19 1.57
2 -7 -6 12.08 2.17
2 -7 -6 10.99 2.31
-2 7 6 12.23 2.18
-2 7 6 7.82 2.1
1 -7 -6 9.99 1.92
1 -7 -6 11.33 2.26
-1 7 6 10.1 2.18
-1 7 6 7.74 1.96
0 -7 -6 12.06 1.99
0 -7 -6 13.81 2.38
0 7 6 12.22 1.33
0 7 6 12.13 2.16
0 7 6 16.11 2.47
0 7 6 11.93 1.06
-1 -7 -6 11.83 1.88
-1 -7 -6 9.57 2.16
1 7 6 12.37 2.16
1 7 6 12.48 2.12
-2 -7 -6 -0.29 0.93
-2 -7 -6 1.28 1.36
2 7 6 0.69 1.21
2 7 6 1.42 1.52
-3 -7 -6 0.27 0.91
-3 -7 -6 -0.94 1.16
-3 -7 -6 0.57 1.2
3 7 6 -0.98 1.34
3 7 6 1.36 1.16
-4 -7 -6 13.95 2.58
-4 -7 -6 12.43 1.55
4 7 6 14.48 1.94
4 7 6 9.75 2.08
-5 -7 -6 18.65 2.72
-5 -7 -6 16.92 1.67
5 7 6 14.82 2.59
5 7 6 13.88 1.76
-6 -7 -6 23.72 3.13
-6 -7 -6 24.36 1.79
6 7 6 23.93 1.81
6 7 6 26.48 3.15
-7 -7 -6 0.47 0.71
-7 -7 -6 0.49 1.66
7 7 6 0.33 1.75
7 7 6 1.64 1.83
-8 -7 -6 3.41 2.24
8 7 6 1.06 2.1
8 7 6 2.26 2.12
-9 -7 -6 -3.15 1.55
9 7 6 0.79 2.18
9 7 6 -2.35 1.97
-10 -7 -6 22.07 3.75
10 7 6 9.33 2.82
10 7 6 13.93 3.34
-11 -7 -6 1.78 2.03
11 7 6 -0.82 2.33
11 7 6 -0.53 2.1
6 -8 -6 7.33 2.47
6 -8 -6 2.42 1.79
-6 8 6 2.87 1.54
-6 8 6 5.03 2.4
5 -8 -6 5.48 2.35
5 -8 -6 8.61 2.53
-5 8 6 6.52 2.73
-5 8 6 6.78 1.95
4 -8 -6 4.15 2.09
4 -8 -6 1.59 1.84
-4 8 6 -0.16 1.58
-4 8 6 2.28 2.03
3 -8 -6 -1.15 1.49
3 -8 -6 0.97 1.72
-3 8 6 1.64 1.75
-3 8 6 -0.29 1.46
2 -8 -6 4.78 1.91
2 -8 -6 8.3 2.22
-2 8 6 5.35 2.06
-2 8 6 5.96 2
1 -8 -6 -0.34 1.14
1 -8 -6 1.7 1.62
-1 8 6 -0.49 1.47
-1 8 6 1.58 1.64
0 -8 -6 -0.09 1.27
0 -8 -6 -2.47 1.16
0 8 6 2.35 1.71
0 8 6 -0.61 1.44
0 8 6 0.88 0.64
-1 -8 -6 0 1.35
-1 -8 -6 0.34 1.14
1 8 6 -1.16 1.43
1 8 6 0.88 0.92
1 8 6 3 1.6
-2 -8 -6 4.41 1.79
-2 -8 -6 4.56 1.43
2 8 6 4.55 1.82
2 8 6 3.88 1.36
2 8 6 2.29 1.34
-3 -8 -6 -0.14 1.08
-3 -8 -6 -1.2 1.26
3 8 6 2.03 1.36
3 8 6 1.64 1.66
3 8 6 -1.89 0.93
-4 -8 -6 1.45 1.14
-4 -8 -6 2.57 1.77
4 8 6 1.61 1.09
4 8 6 4.93 1.72
4 8 6 0.7 1.63
-5 -8 -6 -0.67 0.93
-5 -8 -6 1.88 1.79
5 8 6 -0.31 0.9
5 8 6 3.37 1.76
5 8 6 0.2 1.62
-6 -8 -6 -1.09 0.91
-6 -8 -6 0.11 1.7
6 8 6 1.51 1.71
6 8 6 -0.23 1.79
-7 -8 -6 0.82 1
-7 -8 -6 -1.15 1.77
7 8 6 -2.4 1.82
7 8 6 3.85 2
-8 -8 -6 18.89 3.56
8 8 6 18.7 3.43
8 8 6 17.9 3.12
-9 -8 -6 1.7 2.37
9 8 6 2.12 2.14
9 8 6 1.62 2.16
-10 -8 -6 -1.29 1.88
10 8 6 -0.35 2.18
10 8 6 -1.33 2.16
5 -9 -6 -2.32 1.51
5 -9 -6 4.25 1.93
-5 9 6 7.19 2.09
-5 9 6 -1.44 1.9
4 -9 -6 19.07 3.12
4 -9 -6 13.47 2.86
-4 9 6 8.72 2.51
-4 9 6 10.53 2.92
3 -9 -6 3.35 1.92
3 -9 -6 0.78 1.66
-3 9 6 -0.2 1.52
-3 9 6 -0.22 1.96
2 -9 -6 6.1 2.06
2 -9 -6 3.88 1.88
-2 9 6 3.83 2.06
-2 9 6 1.03 1.78
1 -9 -6 -0.16 1.58
1 -9 -6 -1.46 1.41
-1 9 6 0.69 1.55
-1 9 6 2.38 1.67
0 -9 -6 4.69 1.88
0 -9 -6 -0.02 1.4
0 9 6 -2.46 1.26
0 9 6 4.09 2
-1 -9 -6 7.04 2.15
-1 -9 -6 5.07 1.69
1 9 6 6.47 1.26
1 9 6 7.52 1.99
1 9 6 3.43 2.03
-2 -9 -6 -2.63 1.23
-2 -9 -6 -1.71 1.01
2 9 6 -1.54 1.11
2 9 6 -0.37 1.45
2 9 6 0.09 1
-3 -9 -6 2.56 1.42
-3 -9 -6 2.8 1.67
3 9 6 2.28 1.4
3 9 6 -0.42 1.5
3 9 6 3.62 1.49
-4 -9 -6 -0.53 1.08
-4 -9 -6 -2.43 1.46
4 9 6 -1.17 1.42
4 9 6 1.36 1.13
4 9 6 2.82 1.7
-5 -9 -6 3.06 1.93
-5 -9 -6 2.91 1.24
5 9 6 -1.17 1.62
5 9 6 0.54 1.63
5 9 6 2.51 1.1
-6 -9 -6 22.48 3.21
-6 -9 -6 21.72 2.26
6 9 6 23.61 3.33
6 9 6 20.78 3.27
-7 -9 -6 1.26 1.99
7 9 6 2.31 2.24
7 9 6 6.52 2.37
-8 -9 -6 5.2 2.37
8 9 6 5.04 2.58
8 9 6 1.86 2.27
-9 -9 -6 4.36 2.52
9 9 6 1.15 2.23
9 9 6 1.8 2.04
-10 -9 -6 8.1 2.91
10 9 6 4.3 2.63
10 9 6 3.47 2.3
4 -10 -6 -2.39 1.49
4 -10 -6 5.39 1.99
-4 10 6 6.02 2.43
-4 10 6 2.95 2.16
3 -10 -6 -0.91 1.75
3 -10 -6 3.24 1.89
-3 10 6 6.25 2.21
-3 10 6 5.21 2.43
2 -10 -6 -3.18 1.51
2 -10 -6 3.47 1.83
-2 10 6 2.55 1.98
-2 10 6 2.52 2.13
1 -10 -6 2 1.97
1 -10 -6 1.69 1.73
-1 10 6 4.91 2.06
-1 10 6 3.32 2.31
0 -10 -6 9.6 2.26
0 -10 -6 11.14 2.61
0 10 6 8.22 2.39
0 10 6 9.51 2.37
-1 -10 -6 -0.44 1.3
-1 -10 -6 -0.91 1.49
1 10 6 0.98 1.4
1 10 6 -0.39 1.87
-2 -10 -6 -0.07 1.65
-2 -10 -6 -0.31 1.14
2 10 6 3.01 1.62
2 10 6 1.28 1.15
2 10 6 6.68 2.21
-3 -10 -6 18.06 2.98
-3 -10 -6 15.89 2.54
3 10 6 13.04 2.71
3 10 6 20.45 2.25
3 10 6 16.54 2.24
-4 -10 -6 1.19 1.83
-4 -10 -6 3.89 1.62
4 10 6 8.07 1.48
4 10 6 2.65 2.13
4 10 6 5.59 1.82
-5 -10 -6 -0.04 1.15
-5 -10 -6 -1.54 1.68
5 10 6 -2.05 1.22
5 10 6 -0.86 1.63
-6 -10 -6 1.54 1.21
-6 -10 -6 -0.31 1.8
6 10 6 -0.25 1.81
6 10 6 1.61 1.72
-7 -10 -6 -0.83 1.77
7 10 6 2.32 2.03
7 10 6 -1.02 1.86
-8 -10 -6 8.65 2.84
8 10 6 10.67 3.1
8 10 6 6.96 2.66
-9 -10 -6 17.02 3.61
9 10 6 9.87 2.99
9 10 6 6.94 2.85
3 -11 -6 2.3 1.52
3 -11 -6 0.06 1.7
-3 11 6 -0.3 1.74
-3 11 6 1.02 2.17
2 -11 -6 19.67 3.41
2 -11 -6 15.89 3.05
-2 11 6 9.25 2.71
-2 11 6 9.7 2.69
1 -11 -6 -0.32 1.63
1 -11 -6 1.06 1.54
-1 11 6 4.76 2.06
-1 11 6 -1.21 2.01
0 -11 -6 0.65 1.62
0 -11 -6 0.61 1.68
0 11 6 0.69 2.05
0 11 6 -0.28 1.75
-1 -11 -6 4.34 1.73
-1 -11 -6 7.37 2.36
1 11 6 1.91 2.09
1 11 6 2.75 1.67
-2 -11 -6 0.53 1.91
-2 -11 -6 -0.15 1.44
2 11 6 0.59 1.54
2 11 6 1.3 2.12
-3 -11 -6 3.08 1.66
-3 -11 -6 3.73 2.1
3 11 6 1.3 1.47
3 11 6 4.69 2.18
-4 -11 -6 7.36 2.55
-4 -11 -6 2.84 1.73
4 11 6 2.92 1.78
4 11 6 6.51 2.51
-5 -11 -6 3.81 1.65
-5 -11 -6 2.92 2.15
5 11 6 2.85 2.38
5 11 6 3.47 1.83
-6 -11 -6 21.75 2.84
-6 -11 -6 26.38 3.86
6 11 6 24.42 3.24
6 11 6 20.72 3.62
-7 -11 -6 5.81 2.64
7 11 6 14.64 3.01
7 11 6 12.89 3.06
-8 -11 -6 2.43 2.43
8 11 6 2.17 2.29
8 11 6 7.41 2.62
1 -12 -6 8.32 2.48
1 -12 -6 8.59 2.48
-1 12 6 13.98 3.22
-1 12 6 13.97 2.96
0 -12 -6 4.01 1.98
0 -12 -6 2.71 1.84
0 12 6 0.51 1.91
0 12 6 6.55 1.95
-1 -12 -6 12.1 2.64
-1 -12 -6 12.15 2.93
1 12 6 17.11 2.61
1 12 6 11.17 2.83
-2 -12 -6 -0.41 1.55
-2 -12 -6 0.1 1.86
2 12 6 -1.07 2.01
2 12 6 3.22 1.4
-3 -12 -6 -0.98 1.7
-3 -12 -6 3.76 2
3 12 6 4.86 2.47
-4 -12 -6 18.7 2.87
-4 -12 -6 21.03 3.35
4 12 6 11.53 3.01
-5 -12 -6 7.69 1.99
-5 -12 -6 14.8 3.32
5 12 6 7.89 2.75
5 12 6 13.26 2.65
-6 -12 -6 4.75 2.41
6 12 6 3.93 2.51
6 12 6 2.38 2
-7 -12 -6 4.68 2.51
7 12 6 -0.68 2.04
7 12 6 4 2.61
-2 -13 -6 15.85 3.08
-2 -13 -6 16.19 3.06
2 13 6 18.37 3.47
-3 -13 -6 -0.84 1.69
-3 -13 -6 1.52 1.57
3 13 6 0.11 2.02
-4 -13 -6 0.34 1.56
-4 -13 -6 0.83 1.99
4 13 6 -1.82 2.14
5 12 -7 0.68 1.93
-5 -12 7 6.95 2.77
4 12 -7 22.79 3.7
4 12 -7 17.75 2.64
-4 -12 7 12.06 2.85
3 12 -7 -3.88 1.42
3 12 -7 1.01 1.27
-3 -12 7 0.14 1.69
2 12 -7 18.06 3.3
2 12 -7 15.2 2.8
-2 -12 7 18.09 3.44
-2 -12 7 14.89 2.64
1 12 -7 1.7 1.71
1 12 -7 3.34 2.07
-1 -12 7 -0.72 1.29
-1 -12 7 2.52 1.78
0 12 -7 0.34 1.76
0 12 -7 1.42 1.59
0 -12 7 0.61 1.8
0 -12 7 -1.31 1.41
-1 12 -7 5.26 2.24
6 11 -7 13.78 3.11
-6 -11 7 7.94 2.83
5 11 -7 20.12 3.79
-5 -11 7 18.44 3.43
4 11 -7 0.78 1.96
4 11 -7 3.07 1.41
-4 -11 7 1.64 1.95
3 11 -7 0.65 1.12
3 11 -7 -0.31 1.51
-3 -11 7 0.67 1.27
-3 -11 7 -0.09 1.47
2 11 -7 0.39 1.35
2 11 -7 2 1.85
-2 -11 7 -0.24 1.17
-2 -11 7 0.5 1.61
1 11 -7 2.75 1.84
1 11 -7 4.47 2.14
-1 -11 7 3.8 2.11
-1 -11 7 4.43 1.98
0 11 -7 8.54 2.5
0 11 -7 7.09 2.2
0 -11 7 8.07 2.49
0 -11 7 3.65 1.8
-1 11 -7 21.32 3.32
-1 11 -7 21.44 3.18
1 -11 7 20.53 3.26
1 -11 7 22.51 3.18
-2 11 -7 0.94 1.83
-2 11 -7 4.59 1.76
2 -11 7 -0.23 1.49
2 -11 7 0.83 1.74
-3 11 -7 1.67 1.51
-3 11 -7 3.75 2
3 -11 7 6.4 2.42
3 -11 7 7.47 2.17
8 10 -7 2.38 2.22
8 10 -7 0.55 1.63
-8 -10 7 -0.58 1.99
7 10 -7 17.08 3.41
7 10 -7 17.28 2.92
-7 -10 7 10.87 2.84
6 10 -7 3.47 1.64
6 10 -7 3.42 2.29
-6 -10 7 5.59 2.37
5 10 -7 6.92 1.92
5 10 -7 6.72 2.75
5 10 -7 5.19 1.47
-5 -10 7 5.71 2.32
4 10 -7 -1.85 0.89
4 10 -7 -1.91 1.48
-4 -10 7 0.75 1.37
-4 -10 7 0.96 1.77
3 10 -7 0.67 1.22
3 10 -7 -0.78 1.64
-3 -10 7 2.37 1.85
-3 -10 7 1.35 1.41
2 10 -7 31.7 3.69
2 10 -7 23.94 2.86
-2 -10 7 29.39 3.01
-2 -10 7 25.34 3.29
1 10 -7 15.54 2.9
1 10 -7 9.49 2.31
-1 -10 7 11.78 2.68
-1 -10 7 14.58 2.55
0 10 -7 2.67 1.61
0 10 -7 -0.02 1.41
0 -10 7 -3.36 1.09
0 -10 7 -0.8 1.48
-1 10 -7 6.42 2.13
-1 10 -7 4.91 2
1 -10 7 6.21 2.04
1 -10 7 3.55 1.88
-2 10 -7 11.29 2.43
-2 10 -7 5.59 2.12
2 -10 7 9.2 2.58
2 -10 7 10.23 2.52
-3 10 -7 5.86 2.28
-3 10 -7 7.93 2.64
3 -10 7 16.23 3.14
3 -10 7 12.15 2.57
-4 10 -7 3.54 1.94
-4 10 -7 3.87 2.24
4 -10 7 4.74 2.34
4 -10 7 3.94 1.93
8 9 -7 2.28 2.01
8 9 -7 -5.01 1.57
-8 -9 7 0.16 1.95
7 9 -7 3.57 2.13
7 9 -7 11.79 2.59
-7 -9 7 7.46 2.35
6 9 -7 0.05 1.43
6 9 -7 0.78 2.03
-6 -9 7 -2.41 1.45
5 9 -7 0.71 0.91
5 9 -7 -0.96 1.5
5 9 -7 -0.32 1.15
-5 -9 7 -2.55 1.31
-5 -9 7 -1.08 1.04
4 9 -7 67 4.68
4 9 -7 57.96 3.17
4 9 -7 64.72 3.39
-4 -9 7 62.52 3.63
-4 -9 7 63.7 4.35
3 9 -7 7.32 1.63
3 9 -7 6.47 2.14
3 9 -7 9.08 1.44
-3 -9 7 7.17 2.19
-3 -9 7 6.21 1.8
2 9 -7 0.8 1.55
2 9 -7 0.44 1.36
-2 -9 7 0.81 1.43
-2 -9 7 3.92 1.73
1 9 -7 26.32 2.97
1 9 -7 22.28 3.15
-1 -9 7 27.43 2.95
-1 -9 7 23.9 2.93
0 9 -7 2.41 1.55
0 9 -7 1.04 1.45
0 -9 7 -1.85 1.15
0 -9 7 1.84 1.53
-1 9 -7 19.21 2.96
-1 9 -7 14.55 2.74
1 -9 7 14.43 2.71
1 -9 7 17.19 2.74
-2 9 -7 -0.32 1.35
-2 9 -7 3 1.6
2 -9 7 2.99 1.87
2 -9 7 1.59 1.64
-3 9 -7 11.25 2.55
-3 9 -7 17.5 3.12
3 -9 7 15.9 2.76
3 -9 7 11.11 2.8
-4 9 -7 25.06 3.78
-4 9 -7 25.24 3.21
4 -9 7 23.65 3.58
4 -9 7 29.3 3.24
-5 9 -7 -0.74 1.68
-5 9 -7 2.69 1.75
5 -9 7 0.39 1.37
5 -9 7 0.05 1.69
9 8 -7 4.46 2.29
9 8 -7 6.41 2.74
-9 -8 7 5.04 2.33
8 8 -7 -0.88 1.66
8 8 -7 3.59 2.31
-8 -8 7 4.36 2.36
7 8 -7 7.11 2.44
7 8 -7 5.92 1.95
-7 -8 7 8.31 2.5
6 8 -7 48.3 4.28
6 8 -7 52.18 3.69
-6 -8 7 45.97 3.94
-6 -8 7 48.39 3.25
5 8 -7 8.39 1.47
5 8 -7 12.09 2.72
5 8 -7 9.8 2.05
-5 -8 7 11.27 2.02
-5 -8 7 10.92 2.52
4 8 -7 -0.9 1.46
4 8 -7 0.53 1.08
4 8 -7 0.35 0.96
-4 -8 7 1.38 1.34
-4 -8 7 0.01 1.46
3 8 -7 1.31 0.87
3 8 -7 1.48 1.7
3 8 -7 1.27 1.14
-3 -8 7 2.76 1.61
-3 -8 7 -0.36 1.11
2 8 -7 9.02 1.28
2 8 -7 13.76 2.7
2 8 -7 11.17 2
-2 -8 7 11.27 2.12
-2 -8 7 14.23 2.35
1 8 -7 74.66 3.97
1 8 -7 66.69 4.28
-1 -8 7 75.1 4.09
-1 -8 7 63.55 3.8
0 8 -7 3.17 1.5
0 8 -7 7.38 2.04
0 -8 7 6.21 1.95
0 -8 7 4.08 1.62
-1 8 -7 7.41 2.06
-1 8 -7 10.15 2.19
1 -8 7 7.45 1.89
1 -8 7 6.07 1.99
-2 8 -7 95.13 5.03
-2 8 -7 100.29 5.04
2 -8 7 94.32 4.62
2 -8 7 96.29 5.12
-3 8 -7 2.86 1.79
-3 8 -7 1.42 1.64
3 -8 7 0.49 1.35
3 -8 7 2.64 1.91
-4 8 -7 0.76 1.68
-4 8 -7 2.81 1.75
4 -8 7 0.31 1.36
4 -8 7 5.28 2.16
-5 8 -7 -0.23 1.63
-5 8 -7 -2.21 1.3
5 -8 7 1.14 1.89
5 -8 7 1.15 1.45
-6 8 -7 6.42 2.49
-6 8 -7 6.47 2.2
6 -8 7 5.73 2.26
6 -8 7 8.59 1.9
9 7 -7 17.6 3.32
9 7 -7 16.64 3.5
-9 -7 7 8.57 2.49
8 7 -7 35.72 3.83
8 7 -7 36.66 4.22
-8 -7 7 37.76 4.08
7 7 -7 -0.01 1.57
7 7 -7 2.17 2.1
-7 -7 7 -1.71 1.48
-7 -7 7 2.22 1.18
6 7 -7 1.76 1.49
6 7 -7 1.65 1.71
-6 -7 7 -0.81 1.39
-6 -7 7 2.56 1.47
5 7 -7 2.84 0.94
5 7 -7 3.15 1.94
5 7 -7 2.34 1.49
-5 -7 7 4.41 1.47
-5 -7 7 1.79 1.6
4 7 -7 7.77 2.15
4 7 -7 10.43 1.58
4 7 -7 9.95 1.9
-4 -7 7 9.86 1.94
-4 -7 7 5.83 1.94
3 7 -7 39.44 2.43
3 7 -7 38.69 2.5
3 7 -7 41.57 3.48
-3 -7 7 35.08 2.87
-3 -7 7 39.78 3.22
2 7 -7 1.18 1.53
2 7 -7 0.03 1.02
2 7 -7 1.31 0.74
-2 -7 7 -1.29 1.19
-2 -7 7 -1.67 0.96
1 7 -7 13.3 1.15
1 7 -7 13.63 2.51
1 7 -7 17.03 2.22
-1 -7 7 14.52 2.31
-1 -7 7 11.97 2.23
0 7 -7 66.78 3.64
0 7 -7 63.75 3.99
0 -7 7 69.63 3.96
0 -7 7 66.33 3.74
-1 7 -7 17.45 2.49
-1 7 -7 14.75 2.49
1 -7 7 16.83 2.67
1 -7 7 14.35 2.28
-2 7 -7 0.54 1.36
-2 7 -7 0.9 1.42
2 -7 7 -0.7 1.15
2 -7 7 1.19 1.52
-3 7 -7 0.21 1.41
-3 7 -7 -0.15 1.41
3 -7 7 -0.73 1.25
3 -7 7 0.36 1.13
-4 7 -7 30.6 3.39
-4 7 -7 40.04 3.57
4 -7 7 35.64 3.52
4 -7 7 33.36 2.98
-5 7 -7 5.79 2.03
-5 7 -7 8.31 2.43
5 -7 7 5.94 1.87
5 -7 7 6.53 2.28
-6 7 -7 0.38 1.53
-6 7 -7 0.49 1.66
6 -7 7 1.36 1.94
6 -7 7 2.86 1.43
-7 7 -7 19.72 3.01
-7 7 -7 15.35 3.49
7 -7 7 14.82 3.27
7 -7 7 18.79 2.57
10 6 -7 26.11 3.76
10 6 -7 20.31 3.62
-10 -6 7 22.34 3.85
9 6 -7 1.03 2.28
9 6 -7 5.05 2.41
-9 -6 7 3.28 2.41
8 6 -7 -2.96 1.37
8 6 -7 -0.28 2.01
-8 -6 7 0.26 1.29
-8 -6 7 -2.55 1.35
7 6 -7 3.13 1.83
7 6 -7 1.6 1.86
-7 -6 7 2.35 1.42
-7 -6 7 3.37 1.97
6 6 -7 13.34 2.48
6 6 -7 11.7 2.67
-6 -6 7 11.03 2.38
-6 -6 7 10.73 2.14
5 6 -7 47.81 3.31
5 6 -7 52.33 2.03
5 6 -7 50.88 3.93
-5 -6 7 54.56 3.39
-5 -6 7 56.47 3.84
4 6 -7 4.74 1.5
4 6 -7 4.89 1.93
4 6 -7 4.86 1.02
-4 -6 7 1.28 1.54
-4 -6 7 4.41 1.49
3 6 -7 5.47 1.38
3 6 -7 5.09 1.11
3 6 -7 5.6 1.71
-3 -6 7 4.52 1.65
-3 -6 7 3.62 1.49
2 6 -7 106.55 4.83
2 6 -7 99.88 3.61
2 6 -7 99.16 3.3
-2 -6 7 103.37 4.36
-2 -6 7 106.29 4.4
1 6 -7 51.67 2.09
1 6 -7 53.58 2.09
1 6 -7 51.7 3.56
1 6 -7 51.2 2.85
-1 -6 7 53.5 3.23
-1 -6 7 55.78 3.4
0 6 -7 3.89 0.71
0 6 -7 5.2 0.66
0 6 -7 5.72 1.68
0 6 -7 4.56 1.4
0 -6 7 3.27 1.39
0 -6 7 4.95 1.6
-1 6 -7 4.14 1.7
-1 6 -7 2.3 1.25
1 -6 7 2.61 1.5
1 -6 7 0.9 1.11
-2 6 -7 56.15 3.74
-2 6 -7 49.66 3.47
2 -6 7 56.95 3.81
2 -6 7 57.43 3.23
-3 6 -7 1.8 1.31
-3 6 -7 1.48 1.55
3 -6 7 0.88 1.43
3 -6 7 2.25 1.27
-4 6 -7 11.23 2.46
-4 6 -7 15.35 2.63
4 -6 7 9.36 1.86
4 -6 7 7.79 2.12
-5 6 -7 11.99 2.54
-5 6 -7 9.47 2.41
5 -6 7 13.13 2.75
5 -6 7 13.48 2.11
-6 6 -7 -0.3 1.71
-6 6 -7 -1.66 1.38
6 -6 7 0.35 1.75
6 -6 7 1.94 1.28
-7 6 -7 26.38 3.65
-7 6 -7 27.85 3.45
7 -6 7 35.69 3
7 -6 7 38.25 4.13
-8 6 -7 3.51 2.14
-8 6 -7 1.46 1.69
8 -6 7 2.07 1.36
8 -6 7 4.22 2.14
10 5 -7 7.21 2.53
10 5 -7 4.92 2.28
-10 -5 7 4.17 2.59
9 5 -7 0.9 2.1
9 5 -7 3.84 2.25
-9 -5 7 -0.5 1.76
8 5 -7 14.33 3.05
8 5 -7 16.45 3.07
-8 -5 7 19.22 2.64
-8 -5 7 12.19 2.69
7 5 -7 20.15 3.04
7 5 -7 22.15 3.28
-7 -5 7 22.26 2.57
-7 -5 7 23.24 3.32
6 5 -7 2.16 1.69
6 5 -7 2.35 1.78
-6 -5 7 1.52 1.46
-6 -5 7 1.33 1.56
5 5 -7 11.36 2.53
5 5 -7 12.69 2.25
-5 -5 7 5.66 1.76
-5 -5 7 11.08 2.22
4 5 -7 2.92 1.37
4 5 -7 1.93 1.56
4 5 -7 3.39 0.81
-4 -5 7 2.28 1.44
-4 -5 7 1.58 0.57
-4 -5 7 2.22 1.32
3 5 -7 10.7 1.72
3 5 -7 14.64 2.29
3 5 -7 9.77 1.37
-3 -5 7 9.15 1.1
-3 -5 7 13.93 2.19
-3 -5 7 16.5 2.2
2 5 -7 2.86 1.02
2 5 -7 2.78 1.45
2 5 -7 3.62 1.03
-2 -5 7 3.42 1.32
-2 -5 7 3.13 1.39
1 5 -7 16.86 1.4
1 5 -7 14.51 2.21
1 5 -7 13.47 1.77
1 5 -7 15.1 1.28
-1 -5 7 13.55 2
-1 -5 7 18.09 2.27
0 5 -7 84.12 2.39
0 5 -7 89.73 4.18
0 5 -7 83.42 2.33
0 5 -7 88.48 3.64
0 -5 7 82.87 4.01
0 -5 7 94.44 3.68
-1 5 -7 0.14 1.1
-1 5 -7 2.77 1.27
1 -5 7 -0.42 1.19
1 -5 7 0.57 1.01
-2 5 -7 29.88 2.77
-2 5 -7 25.89 2.45
2 -5 7 28.66 2.22
2 -5 7 29 2.8
-3 5 -7 9.56 2.02
-3 5 -7 6.65 1.96
3 -5 7 6.21 1.52
3 -5 7 7.51 1.96
-4 5 -7 8.63 1.98
-4 5 -7 9.9 2.25
4 -5 7 9.66 2.19
4 -5 7 10.91 1.81
-5 5 -7 30.27 3.21
-5 5 -7 30.34 3.39
5 -5 7 29.9 2.45
5 -5 7 34.05 3.43
-6 5 -7 0.34 1.64
-6 5 -7 2.6 1.81
6 -5 7 3.35 1.43
6 -5 7 4.75 2.14
-7 5 -7 -0.34 1.39
-7 5 -7 -0.26 1.57
7 -5 7 0.62 1.73
7 -5 7 2.19 1.16
-8 5 -7 7.19 2.49
-8 5 -7 11.17 2.85
8 -5 7 7.85 2.67
8 -5 7 5.81 1.68
-9 5 -7 3.67 1.98
-9 5 -7 3 1.88
9 -5 7 9.16 2.57
10 4 -7 27.46 3.95
10 4 -7 29.28 3.68
-10 -4 7 31.07 4.09
9 4 -7 3.54 2.11
9 4 -7 7.86 2.52
-9 -4 7 7.7 1.85
-9 -4 7 0.78 2.1
8 4 -7 2.87 2.01
8 4 -7 4.69 2.2
-8 -4 7 1.68 1.54
-8 -4 7 -0.94 1.72
7 4 -7 0.54 1.65
7 4 -7 0.19 1.57
-7 -4 7 3.6 1.92
-7 -4 7 4.73 1.8
6 4 -7 0.28 1.51
6 4 -7 3.35 1.71
-6 -4 7 6.04 1.8
-6 -4 7 1.66 1.51
5 4 -7 20.59 2.54
5 4 -7 15.62 2.62
-5 -4 7 14.75 2.39
-5 -4 7 15.05 2.33
4 4 -7 2.04 1.37
4 4 -7 1.41 1.35
-4 -4 7 2.66 0.53
-4 -4 7 3.48 1.5
-4 -4 7 1.83 1.35
3 4 -7 5.12 1.41
3 4 -7 4.67 1.47
3 4 -7 4.51 0.92
-3 -4 7 4.79 1.56
-3 -4 7 4.91 0.79
-3 -4 7 7.02 1.69
2 4 -7 34.44 2.21
2 4 -7 32.54 1.91
2 4 -7 30.44 2.75
-2 -4 7 31.85 1.71
-2 -4 7 34.91 2.62
-2 -4 7 34.69 2.56
1 4 -7 13.41 2.18
1 4 -7 14.22 1.44
1 4 -7 14.7 1.6
-1 -4 7 12.13 1.8
-1 -4 7 11.58 1.91
0 4 -7 11.28 1.96
0 4 -7 10.44 1.62
0 4 -7 12.12 1.22
0 -4 7 13.08 2.06
0 -4 7 10.68 1.71
-1 4 -7 15.82 1.88
-1 4 -7 17.19 2.14
-1 4 -7 16.81 1.15
1 -4 7 16.62 1.75
1 -4 7 14.04 2.15
-2 4 -7 67.35 3.48
-2 4 -7 77.53 3.98
2 -4 7 74.06 3.01
2 -4 7 71.72 3.79
-3 4 -7 41.8 3.26
-3 4 -7 41.43 3.13
3 -4 7 38.43 3.08
3 -4 7 41.69 2.4
-4 4 -7 25.82 3
-4 4 -7 22.76 2.62
4 -4 7 27.79 2.79
4 -4 7 27.5 2.12
-5 4 -7 1.49 1.39
-5 4 -7 -0.55 1.26
5 -4 7 0.85 0.93
5 -4 7 1.87 1.45
-6 4 -7 -0.09 1.5
-6 4 -7 4.21 1.89
6 -4 7 -0.79 1.28
6 -4 7 -0.03 0.95
-7 4 -7 13.85 2.72
-7 4 -7 8.13 2.39
7 -4 7 14.84 2.93
7 -4 7 11.77 1.89
-8 4 -7 22.49 3.42
-8 4 -7 28.51 3.59
8 -4 7 26.94 3.65
8 -4 7 25.06 2.39
-9 4 -7 0.3 1.61
-9 4 -7 -0.12 1.77
9 -4 7 0.84 1.88
10 3 -7 0.93 1.85
10 3 -7 0.44 1.95
-10 -3 7 -0.41 1.2
-10 -3 7 1.89 2.12
9 3 -7 1.51 1.96
9 3 -7 0.39 1.9
-9 -3 7 -1.11 1.34
-9 -3 7 1.39 1.92
8 3 -7 7.72 2.38
8 3 -7 12.62 2.79
-8 -3 7 9.08 2.11
-8 -3 7 12.96 2.73
7 3 -7 20.03 2.9
7 3 -7 18.29 2.9
-7 -3 7 19.85 2.99
-7 -3 7 18.08 2.87
6 3 -7 -0.33 1.37
6 3 -7 1.21 1.59
-6 -3 7 0.57 1.33
-6 -3 7 0.91 1.46
5 3 -7 5.12 1.77
5 3 -7 4.34 1.67
-5 -3 7 5.23 1.75
-5 -3 7 6.62 1.85
4 3 -7 13.62 2.26
4 3 -7 15.18 2.14
-4 -3 7 15.13 2.18
-4 -3 7 12.29 2.17
3 3 -7 12.04 1.79
3 3 -7 12.14 1.97
-3 -3 7 12.65 2.09
-3 -3 7 10.95 1.87
-3 -3 7 14.04 1.11
-3 -3 7 12.04 0.93
2 3 -7 29.82 1.61
2 3 -7 26.69 2.5
2 3 -7 27.95 2.09
-2 -3 7 29.37 2.31
-2 -3 7 27.79 2.49
-2 -3 7 27.19 1.49
1 3 -7 4.75 1.06
1 3 -7 4.65 1.12
1 3 -7 6.21 1.61
-1 -3 7 6.89 1.36
-1 -3 7 1.89 1.24
0 3 -7 59.15 2.68
0 3 -7 55.08 3.15
0 3 -7 51.67 2.23
0 -3 7 55.74 3.15
0 -3 7 53.62 2.57
0 -3 7 54.42 2.21
-1 3 -7 4.14 1.38
-1 3 -7 3.11 1.16
-1 3 -7 6.78 1.07
1 -3 7 6.61 1.7
1 -3 7 5.47 0.91
1 -3 7 4.04 1.13
-2 3 -7 23.89 1.37
-2 3 -7 23.47 2.2
-2 3 -7 25.99 2.57
2 -3 7 21.16 2.35
2 -3 7 22.8 1.74
2 -3 7 24.24 1.29
-3 3 -7 2.11 1.27
-3 3 -7 0.87 1.16
-3 3 -7 1.29 0.61
3 -3 7 1.1 1.27
3 -3 7 1.58 0.59
3 -3 7 1.73 0.91
-4 3 -7 2.1 1.32
-4 3 -7 2.46 1.47
-4 3 -7 2.52 0.72
4 -3 7 1.36 1.32
4 -3 7 1.15 0.9
4 -3 7 1.48 0.54
-5 3 -7 109.17 5.2
-5 3 -7 105.89 4.82
-5 3 -7 108.58 2.82
5 -3 7 109.99 3.46
5 -3 7 108.35 4.88
-6 3 -7 35.9 3.24
-6 3 -7 29.74 3.43
-6 3 -7 32.06 1.75
6 -3 7 29.94 3.04
6 -3 7 32.77 2.2
-7 3 -7 13.15 2.54
-7 3 -7 11.27 2.49
7 -3 7 12.17 2.53
7 -3 7 14.85 1.87
-8 3 -7 3.97 2.01
-8 3 -7 5.59 2.24
8 -3 7 4.5 1.39
8 -3 7 5.93 2.37
-9 3 -7 -1.41 1.57
9 -3 7 2.28 1.92
-10 3 -7 15.87 3.26
10 -3 7 7.79 2.5
10 -3 7 7.15 2.98
10 2 -7 5.83 2.08
10 2 -7 -0.72 1.88
-10 -2 7 3.13 1.53
-10 -2 7 2.08 2.13
9 2 -7 19.3 3.09
9 2 -7 19.6 3.29
-9 -2 7 16.18 3.05
-9 -2 7 21.76 3.5
8 2 -7 -2.52 1.39
8 2 -7 0.02 1.87
-8 -2 7 -0.64 1.44
-8 -2 7 5.88 2.26
7 2 -7 4.05 1.9
7 2 -7 2.14 1.47
-7 -2 7 -0.13 1.5
-7 -2 7 2.47 1.78
6 2 -7 2.42 1.56
6 2 -7 2.23 1.61
-6 -2 7 1.64 1.46
-6 -2 7 1.31 1.56
5 2 -7 56.47 3.55
5 2 -7 53.14 3.44
-5 -2 7 57.17 3.53
-5 -2 7 59.27 3.63
4 2 -7 9.49 1.85
4 2 -7 11.35 1.9
-4 -2 7 13.4 2.1
-4 -2 7 12.52 2.2
3 2 -7 0.52 1.06
3 2 -7 -0.19 0.93
-3 -2 7 0.93 0.42
-3 -2 7 0.98 1.04
-3 -2 7 0.63 0.36
-3 -2 7 2.75 1.36
2 2 -7 55.48 2.76
2 2 -7 50.44 2.98
-2 -2 7 51.08 1.84
-2 -2 7 50.87 2.75
-2 -2 7 57.47 3.17
-2 -2 7 53.36 1.94
1 2 -7 8.19 1.41
1 2 -7 7.03 1.53
-1 -2 7 8.74 1.38
-1 -2 7 8.3 1.45
-1 -2 7 6.67 1.53
-1 -2 7 7.03 1.06
0 2 -7 55.38 2.29
0 2 -7 57.53 3.15
0 2 -7 57.03 2.47
0 -2 7 54.44 3.02
0 -2 7 54.91 2.38
-1 2 -7 11.46 1.64
-1 2 -7 11.96 1.39
-1 2 -7 12.24 1.16
-1 2 -7 13.7 1.88
1 -2 7 14.14 1.97
1 -2 7 13.99 1.27
1 -2 7 12.87 1.36
-2 2 -7 13.29 1.31
-2 2 -7 12.87 1.11
-2 2 -7 11.53 1.96
-2 2 -7 12.2 1.72
2 -2 7 10.79 1.9
2 -2 7 15.48 1.34
2 -2 7 12.39 1.15
-3 2 -7 109.47 2.88
-3 2 -7 109.54 2.97
-3 2 -7 113.13 4.64
-3 2 -7 113.76 4.18
3 -2 7 100.18 4.16
3 -2 7 107.4 2.86
3 -2 7 113.8 2.91
-4 2 -7 25.24 1.47
-4 2 -7 27.57 2.5
-4 2 -7 29.51 1.73
-4 2 -7 25.48 2.74
4 -2 7 28.63 1.61
4 -2 7 23.07 1.5
4 -2 7 25.81 2.59
-5 2 -7 2.77 1.37
-5 2 -7 2.89 1.59
-5 2 -7 2.32 0.91
5 -2 7 2.27 0.73
5 -2 7 1.13 0.7
5 -2 7 2.32 1.5
5 -2 7 2.75 0.83
-6 2 -7 19.17 2.69
-6 2 -7 21 1.79
-6 2 -7 17.56 2.85
6 -2 7 20.37 1.63
6 -2 7 26.6 2.93
-7 2 -7 0.18 1.49
-7 2 -7 1.24 0.9
7 -2 7 -1.42 1.29
7 -2 7 1.28 0.8
-8 2 -7 30.11 2.51
-8 2 -7 37.97 3.85
8 -2 7 32.88 3.47
8 -2 7 43.29 4.33
-9 2 -7 4.95 2.48
9 -2 7 13.82 2.9
9 -2 7 9.58 2.81
-10 2 -7 -0.64 1.79
10 -2 7 2.59 1.69
10 -2 7 -0.26 2.08
10 1 -7 1.59 1.47
10 1 -7 -1.04 2
-10 -1 7 -1.3 1.78
-10 -1 7 1.68 1.59
9 1 -7 2.91 1.73
9 1 -7 1.74 2.03
-9 -1 7 -1.14 1.8
-9 -1 7 2.36 1.68
8 1 -7 4.05 1.61
8 1 -7 -1.15 1.59
-8 -1 7 -1.21 1.74
-8 -1 7 0.36 1.65
7 1 -7 25.77 2.85
7 1 -7 32.04 3.38
-7 -1 7 27.08 3.42
-7 -1 7 24.7 3.07
6 1 -7 6.1 1.76
6 1 -7 4.44 1.78
-6 -1 7 4.05 1.89
-6 -1 7 6.37 2.02
5 1 -7 1.65 1.33
5 1 -7 3.14 1.55
-5 -1 7 0.19 1.17
-5 -1 7 3.14 1.56
4 1 -7 15.16 2.11
4 1 -7 16.41 2.24
-4 -1 7 17.42 2.25
-4 -1 7 17.61 2.47
3 1 -7 20.97 2.17
3 1 -7 17.38 2.06
-3 -1 7 18.64 2.27
-3 -1 7 16.46 2.03
2 1 -7 70.05 3.23
2 1 -7 70.37 3.19
-2 -1 7 67.12 2
-2 -1 7 68.36 3.05
-2 -1 7 67.2 3.41
-2 -1 7 63.18 1.95
1 1 -7 1.03 0.98
1 1 -7 -0.89 0.71
-1 -1 7 0.14 0.73
-1 -1 7 0.68 0.87
-1 -1 7 0.6 0.54
-1 -1 7 2.08 1.17
0 1 -7 13.1 1.61
0 1 -7 15.73 1.28
0 1 -7 15.13 1.78
0 -1 7 15.48 1.66
0 -1 7 17.33 1.97
0 -1 7 14.08 1.47
-1 1 -7 188.48 5.46
-1 1 -7 189.25 3.69
-1 1 -7 187.96 4.46
1 -1 7 190.93 3.72
1 -1 7 183.25 5.25
1 -1 7 183.06 4.65
-2 1 -7 3.54 0.68
-2 1 -7 2.54 0.93
-2 1 -7 1.99 1.13
2 -1 7 1.29 1.07
2 -1 7 4.24 1.33
2 -1 7 2.74 0.91
2 -1 7 2.56 0.7
-3 1 -7 17.16 1.59
-3 1 -7 15.23 0.95
-3 1 -7 19.91 2.28
3 -1 7 15 1.04
3 -1 7 12.27 2.04
3 -1 7 14.21 2.07
3 -1 7 12.46 1.28
-4 1 -7 19.05 1.66
-4 1 -7 13.73 2.27
4 -1 7 18.3 2.3
4 -1 7 16.84 1.09
4 -1 7 16.62 1.03
4 -1 7 17.77 2.5
-5 1 -7 1.02 0.96
-5 1 -7 -0.68 1.13
5 -1 7 0.02 0.52
5 -1 7 -0.88 1.19
5 -1 7 1.28 0.54
5 -1 7 1.62 1.42
-6 1 -7 37.93 2.37
-6 1 -7 41.59 3.63
6 -1 7 37.87 3.33
6 -1 7 36.95 1.75
6 -1 7 38.88 3.23
-7 1 -7 11.57 1.85
-7 1 -7 12.24 2.61
7 -1 7 11.62 2.27
7 -1 7 11 1.37
7 -1 7 14.99 2.7
-8 1 -7 1.86 1.92
-8 1 -7 4.45 1.45
8 -1 7 5.58 1.96
8 -1 7 7.09 2.4
-9 1 -7 34.72 2.89
-9 1 -7 46.08 4.23
9 -1 7 44.45 4.42
9 -1 7 38.08 3.64
-10 1 -7 0.09 1.91
10 -1 7 0.37 1.38
10 -1 7 0.54 2
10 0 -7 2.13 2.08
-10 0 7 1.81 2.2
-10 0 7 1.22 1.54
9 0 -7 24.09 3.69
9 0 -7 19.34 2.47
-9 0 7 12.82 3.14
-9 0 7 11.97 2.78
8 0 -7 9.54 1.91
8 0 -7 1.91 1.88
-8 0 7 4.96 2.15
-8 0 7 7.72 2.41
7 0 -7 -1.83 1.16
7 0 -7 0.81 1.65
-7 0 7 -1.45 1.38
-7 0 7 -1.27 1.44
6 0 -7 1.1 1.23
6 0 -7 -1.45 1.11
-6 0 7 2.19 1.58
-6 0 7 0.72 1.51
5 0 -7 1.5 1.36
5 0 -7 1.27 1.2
-5 0 7 -1.26 1.17
-5 0 7 1.51 1.47
4 0 -7 62.78 3.48
4 0 -7 67.93 3.27
-4 0 7 68.22 3.85
-4 0 7 70.67 3.59
3 0 -7 10.73 1.79
3 0 -7 11.16 1.9
-3 0 7 11.41 2.11
-3 0 7 8.81 0.85
-3 0 7 9.63 1.68
-3 0 7 9.69 0.74
2 0 -7 20.73 1.97
2 0 -7 20.06 2.11
-2 0 7 18.27 1.3
-2 0 7 18.22 2.32
-2 0 7 17.82 1.18
-2 0 7 18.84 1.9
1 0 -7 171.2 4.7
1 0 -7 167.87 4.77
-1 0 7 167.06 3.68
-1 0 7 165.16 4.05
-1 0 7 163.99 3.7
-1 0 7 165.32 4.95
0 0 -7 0.62 0.53
0 0 -7 -0.42 0.81
0 0 -7 0.43 0.9
0 0 7 -0.79 0.66
0 0 7 0.46 1.02
0 0 7 1.75 0.89
-1 0 -7 27.33 2.11
-1 0 -7 31.83 2.46
-1 0 -7 30.19 1.36
1 0 7 28.22 2.28
1 0 7 30.31 1.47
1 0 7 30.17 2.08
-2 0 -7 15.07 0.84
-2 0 -7 18.03 2.08
-2 0 -7 13.85 1.7
2 0 7 15.12 1.91
2 0 7 17.92 0.95
2 0 7 16.23 2.1
-3 0 -7 27.89 2.61
-3 0 -7 30.94 2.11
3 0 7 28.38 2.34
3 0 7 29.39 2.49
-4 0 -7 121.32 4.92
-4 0 -7 124.75 3.82
4 0 7 119.02 4.46
4 0 7 123.85 4.56
-5 0 -7 -0.43 1.15
-5 0 -7 0.55 1.08
5 0 7 -0.24 1.09
5 0 7 0.99 1.41
-6 0 -7 1.13 1.18
-6 0 -7 1.25 1.39
6 0 7 0.39 0.52
6 0 7 3.15 1.56
6 0 7 1.79 1.57
6 0 7 0.69 0.51
-7 0 -7 29.06 3.42
-7 0 -7 32.23 2.6
7 0 7 29.09 3.21
7 0 7 27.69 1.52
7 0 7 30.79 3.06
-8 0 -7 5.19 1.71
-8 0 -7 6.9 2.24
8 0 7 8.96 2.29
8 0 7 7.61 2.59
-9 0 -7 27.83 4.12
-9 0 -7 28.03 2.89
9 0 7 22.04 3.38
9 0 7 24.62 2.91
-10 0 -7 6.32 2.59
-10 0 -7 2.2 1.63
10 0 7 6.46 1.74
10 0 7 3.09 2.12
-11 0 -7 4.46 2.2
11 0 7 0.71 1.16
11 0 7 1 2.15
9 -1 -7 2.97 2.03
-9 1 7 1.05 1.75
-9 1 7 2.48 2.19
8 -1 -7 1.46 1.19
8 -1 -7 3.82 2.11
-8 1 7 0.96 2.2
-8 1 7 0.17 1.73
7 -1 -7 19.74 2.23
7 -1 -7 14.44 2.77
-7 1 7 17.1 3.05
-7 1 7 17.17 3.02
6 -1 -7 32.21 3.17
6 -1 -7 39.41 2.74
-6 1 7 37.51 3.52
-6 1 7 38.64 3.44
5 -1 -7 0.19 1.24
5 -1 -7 -1.22 0.89
-5 1 7 -1.55 1.21
-5 1 7 -1.99 1.01
4 -1 -7 33.55 2.82
4 -1 -7 37.97 2.44
-4 1 7 38.92 2.95
-4 1 7 32.2 2.99
-4 1 7 36.77 1.28
3 -1 -7 72.06 3.11
3 -1 -7 70.44 3.56
3 -1 -7 73.27 2.08
-3 1 7 75.6 3.46
-3 1 7 72.51 2.08
-3 1 7 76.63 3.87
2 -1 -7 1.78 1.07
2 -1 -7 1.71 1.12
2 -1 -7 1.76 0.69
-2 1 7 0.79 1.24
-2 1 7 1.84 0.79
-2 1 7 2.26 1.09
1 -1 -7 1.12 0.88
1 -1 -7 0.97 0.98
-1 1 7 0.93 0.88
-1 1 7 1.2 1.17
-1 1 7 1.99 0.86
0 -1 -7 0.45 0.52
0 -1 -7 -0.19 0.94
0 -1 -7 -0.43 0.87
0 1 7 -0.43 0.65
0 1 7 -0.83 0.88
0 1 7 1.32 0.83
-1 -1 -7 69.01 1.93
-1 -1 -7 74.07 3.22
-1 -1 -7 70.85 3.21
1 1 7 65.03 3.22
1 1 7 68.48 2.78
1 1 7 71.36 2.03
-2 -1 -7 140.12 4.3
-2 -1 -7 144.61 4.83
2 1 7 149.42 4.6
2 1 7 150.29 4.34
-3 -1 -7 2.7 1.3
-3 -1 -7 3.73 1.27
3 1 7 3.17 1.32
3 1 7 3.03 1.3
-4 -1 -7 0.65 1.23
-4 -1 -7 1.35 1.1
4 1 7 -0.29 1.07
4 1 7 0.01 1.05
-5 -1 -7 57.07 3.02
-5 -1 -7 45.47 3.4
5 1 7 54.8 3.21
5 1 7 53.86 3.28
-6 -1 -7 14.67 2.61
-6 -1 -7 14.75 2.2
6 1 7 13.12 2.14
6 1 7 10.71 2.08
-7 -1 -7 38.74 3.01
-7 -1 -7 31.99 3.44
7 1 7 34.2 2.87
7 1 7 34.59 3.4
-8 -1 -7 3.83 1.59
-8 -1 -7 1.4 1.76
8 1 7 0.96 1.44
8 1 7 1.61 1.76
-9 -1 -7 7.09 2.55
-9 -1 -7 8.18 2.16
9 1 7 9.45 2.27
9 1 7 10.34 2.62
-10 -1 -7 4.9 2.41
-10 -1 -7 3.07 1.68
10 1 7 -0.33 1.28
10 1 7 6.15 2.41
-11 -1 -7 0.51 1.65
-11 -1 -7 2.27 1.95
11 1 7 0.29 2.07
11 1 7 3.37 1.45
9 -2 -7 12.65 3.08
-9 2 7 12.28 2.77
-9 2 7 11.92 2.74
8 -2 -7 18.4 3.08
-8 2 7 18.89 3.25
-8 2 7 16.65 3.14
7 -2 -7 -0.52 1.71
7 -2 -7 1.44 1.07
-7 2 7 1.07 1.81
-7 2 7 1.54 2
6 -2 -7 14.61 1.86
6 -2 -7 17.92 3.02
-6 2 7 14.53 2.74
-6 2 7 20.33 3.06
5 -2 -7 17.85 1.85
5 -2 -7 15.54 2.46
-5 2 7 17.73 2.86
-5 2 7 15.74 2.6
-5 2 7 15.98 1.13
4 -2 -7 12.31 2.26
4 -2 -7 8.65 1.01
4 -2 -7 14.04 1.68
-4 2 7 15.76 2.5
-4 2 7 11.84 1.13
-4 2 7 12.03 2.11
3 -2 -7 1.45 0.61
3 -2 -7 1.46 1.22
3 -2 -7 1.95 0.99
-3 2 7 0.67 0.71
-3 2 7 3.76 1.53
-3 2 7 0.11 1.09
2 -2 -7 1.04 0.58
2 -2 -7 -0.74 0.69
2 -2 -7 1.63 1.23
-2 2 7 0.42 0.76
-2 2 7 -0.95 0.98
-2 2 7 -1.08 0.9
1 -2 -7 20.52 1.92
1 -2 -7 21.35 2.17
-1 2 7 20.75 1.9
-1 2 7 17.87 2.33
-1 2 7 21.03 1.79
0 -2 -7 133.73 3.34
0 -2 -7 137.97 4.55
0 -2 -7 130.78 4.08
0 2 7 138.8 3.87
0 2 7 127.46 4.53
0 2 7 135.55 3.43
-1 -2 -7 10.58 1.71
-1 -2 -7 10.12 0.93
-1 -2 -7 9.46 0.99
-1 -2 -7 11.2 1.81
1 2 7 8.43 1.67
1 2 7 9.41 1.54
-2 -2 -7 2.64 1.23
-2 -2 -7 3.21 1.33
2 2 7 5.2 1.35
2 2 7 4.74 1.45
-3 -2 -7 9.86 1.8
-3 -2 -7 6.79 1.7
3 2 7 9.85 1.67
3 2 7 11.21 1.78
-4 -2 -7 1.02 1.15
-4 -2 -7 1.33 1.19
4 2 7 0.61 1.15
4 2 7 0.77 1.12
-5 -2 -7 49.16 3.57
-5 -2 -7 48.47 3.05
5 2 7 47.89 2.9
5 2 7 51.09 3.31
-6 -2 -7 6.46 1.86
-6 -2 -7 6.39 1.77
6 2 7 6.13 1.6
6 2 7 5.9 1.79
-7 -2 -7 10.4 2.18
-7 -2 -7 12.45 2.52
7 2 7 11.33 2.1
7 2 7 7.18 2.07
-8 -2 -7 38.54 3.93
-8 -2 -7 47.16 3.61
8 2 7 43.28 3.86
8 2 7 40.95 3.04
-9 -2 -7 44.92 4.33
-9 -2 -7 49.22 3.75
9 2 7 49.1 4.18
9 2 7 49.96 3.34
-10 -2 -7 16.05 3.34
-10 -2 -7 17.42 2.93
10 2 7 20.42 2.4
10 2 7 16.44 3.13
-11 -2 -7 2.87 2.23
-11 -2 -7 0.61 1.66
11 2 7 3.99 2.31
9 -3 -7 1.95 2
9 -3 -7 -1.69 1.74
-9 3 7 -2.1 1.97
8 -3 -7 15.39 3.05
8 -3 -7 14.01 3.03
-8 3 7 12.23 2.79
7 -3 -7 3.15 1.98
-7 3 7 -0.09 1.65
6 -3 -7 29.74 3.36
6 -3 -7 33.12 2.16
-6 3 7 31.84 3.61
5 -3 -7 5.78 1.13
5 -3 -7 1.43 1.5
-5 3 7 0.34 1.43
-5 3 7 1.1 1.6
-5 3 7 4.34 0.92
4 -3 -7 2.06 0.78
4 -3 -7 1.39 0.92
4 -3 -7 3.71 1.55
-4 3 7 -2.08 1.06
-4 3 7 2.42 0.68
-4 3 7 1.52 1.56
-4 3 7 0.8 0.79
3 -3 -7 85.4 2.99
3 -3 -7 81.32 4.01
-3 3 7 88.25 4.47
-3 3 7 84.39 2.95
-3 3 7 81.84 2.83
2 -3 -7 21.05 1.77
2 -3 -7 24.1 2.57
-2 3 7 21.85 1.82
-2 3 7 25.55 2.56
1 -3 -7 53.61 2.59
1 -3 -7 52.9 2.56
1 -3 -7 54.96 3.29
-1 3 7 55.2 2.66
-1 3 7 48.7 3.12
0 -3 -7 2.72 0.97
0 -3 -7 3.22 1.14
0 -3 -7 3.94 0.86
0 -3 -7 3.99 1.47
0 3 7 3.38 1.44
0 3 7 4.11 1.26
-1 -3 -7 4.14 1.33
-1 -3 -7 4.54 0.86
-1 -3 -7 3.81 0.76
-1 -3 -7 3.14 1.24
1 3 7 4.94 1.48
1 3 7 3.76 1.32
-2 -3 -7 23.41 1.05
-2 -3 -7 22.97 2.26
-2 -3 -7 25.04 1.11
-2 -3 -7 26.09 2.32
2 3 7 25.21 2.24
2 3 7 25.82 2.26
-3 -3 -7 14.31 2.12
-3 -3 -7 11.41 1.99
3 3 7 15.13 2.06
3 3 7 15.67 2.02
-4 -3 -7 13.9 2.17
-4 -3 -7 15.07 2.35
4 3 7 16.07 2.06
4 3 7 13.27 2.12
-5 -3 -7 1.11 1.35
-5 -3 -7 0.08 1.23
5 3 7 -0.19 1.13
5 3 7 0.43 1.1
-6 -3 -7 4.5 1.74
-6 -3 -7 2.92 1.62
6 3 7 0.72 1.27
6 3 7 2.48 1.29
-7 -3 -7 56.75 3.81
-7 -3 -7 58.27 4.21
7 3 7 56.85 3.74
7 3 7 63.24 3.33
-8 -3 -7 14.97 2.86
-8 -3 -7 17.91 2.87
8 3 7 10.47 2.28
8 3 7 12.64 2.04
-9 -3 -7 0.36 1.65
-9 -3 -7 0.81 1.97
9 3 7 2.36 1.19
9 3 7 0.64 1.66
-10 -3 -7 2.01 2.21
-10 -3 -7 1.75 1.95
10 3 7 5.82 2.29
10 3 7 3.73 1.32
-11 -3 -7 0.2 1.89
11 3 7 1.14 1.85
8 -4 -7 5.78 2.51
8 -4 -7 9.91 2.74
-8 4 7 5.77 2.29
7 -4 -7 -1.51 1.62
7 -4 -7 1.26 1.89
-7 4 7 1.42 1.99
6 -4 -7 1.34 1.78
6 -4 -7 1.51 1.86
-6 4 7 2.38 2.16
5 -4 -7 18.82 2.82
5 -4 -7 16 2.7
-5 4 7 18.97 3.11
-5 4 7 17.81 1.75
4 -4 -7 11.1 1.24
4 -4 -7 10.39 2.12
4 -4 -7 10 2.22
-4 4 7 11.05 2.37
-4 4 7 11.92 1.71
3 -4 -7 31.5 3.04
3 -4 -7 34.24 1.81
3 -4 -7 33.2 2.83
-3 4 7 29.8 1.59
-3 4 7 27.38 3.05
-3 4 7 31.35 2.24
2 -4 -7 13.44 2.37
2 -4 -7 12.32 1.95
2 -4 -7 12.46 1.46
-2 4 7 10.29 1.18
-2 4 7 11.46 2.14
-2 4 7 11.89 1.78
1 -4 -7 2.13 1.36
1 -4 -7 2.99 1
1 -4 -7 4.27 1.27
-1 4 7 3.44 1.25
-1 4 7 2.68 1.44
-1 4 7 3.05 0.87
0 -4 -7 86.09 4.01
0 -4 -7 88.14 3.26
0 -4 -7 86.05 3.06
0 4 7 88.87 3.55
0 4 7 87.27 3.97
-1 -4 -7 0.88 0.71
-1 -4 -7 1.75 1.04
-1 -4 -7 -0.27 1.08
-1 -4 -7 0.9 0.6
1 4 7 0.61 1.24
1 4 7 2.71 1.29
-2 -4 -7 70.33 2.15
-2 -4 -7 72.96 3.4
-2 -4 -7 71.45 3.64
-2 -4 -7 71.6 2.08
2 4 7 78.21 3.59
2 4 7 74.56 3.6
-3 -4 -7 1.87 0.47
-3 -4 -7 0.98 0.36
-3 -4 -7 1.37 1.19
-3 -4 -7 1.31 1.31
3 4 7 2.14 1.27
3 4 7 2.35 1.37
-4 -4 -7 12.24 2.19
-4 -4 -7 9.81 2.02
4 4 7 12.02 1.86
4 4 7 14.54 2.26
-5 -4 -7 128.29 5.04
-5 -4 -7 126.88 5.16
5 4 7 136.33 4.44
5 4 7 133.38 5.03
-6 -4 -7 27.69 2.9
-6 -4 -7 29.88 3.21
6 4 7 28.09 2.88
6 4 7 26.6 2.36
-7 -4 -7 1.75 1.69
-7 -4 -7 1.24 1.57
7 4 7 0.77 1.11
7 4 7 0.84 1.46
-8 -4 -7 11.1 2.52
-8 -4 -7 10.32 2.53
8 4 7 13.96 1.94
8 4 7 9.18 2.46
-9 -4 -7 1.94 1.88
-9 -4 -7 -0.75 1.74
9 4 7 -0.91 1.62
9 4 7 -0.16 0.89
-10 -4 -7 8.82 2.73
-10 -4 -7 14.78 3.04
10 4 7 13.38 2.97
-11 -4 -7 -3.03 1.45
11 4 7 0.96 2.08
8 -5 -7 4.52 2.29
8 -5 -7 1.94 2.07
-8 5 7 -1.55 2.05
7 -5 -7 18.64 3.32
7 -5 -7 23.21 3.4
-7 5 7 22.04 3.59
6 -5 -7 2.11 1.9
6 -5 -7 1.44 1.91
-6 5 7 1.86 2.05
5 -5 -7 4.55 2
5 -5 -7 6.24 2.08
-5 5 7 4.68 1.29
-5 5 7 7.37 2.41
4 -5 -7 6.62 1.94
4 -5 -7 1.99 1.66
-4 5 7 2.94 1.27
-4 5 7 5.06 2.13
3 -5 -7 -0.61 0.45
3 -5 -7 -1.25 1.32
3 -5 -7 -2.06 1.07
-3 5 7 0.97 1.49
-3 5 7 1.51 1.16
2 -5 -7 19.75 1.42
2 -5 -7 20.23 2.71
2 -5 -7 22.75 2.43
-2 5 7 21.87 2.35
-2 5 7 21.73 1.29
-2 5 7 21.78 2.86
1 -5 -7 4.37 1.7
1 -5 -7 3.02 0.91
1 -5 -7 3.82 1.33
-1 5 7 2.4 1.41
-1 5 7 3.15 0.78
-1 5 7 3.46 1.54
0 -5 -7 68.3 3.01
0 -5 -7 63.09 3.61
0 -5 -7 64.35 2.76
0 5 7 62.25 3.56
0 5 7 66.93 3.41
-1 -5 -7 8.5 1.53
-1 -5 -7 6.75 1.76
-1 -5 -7 7.49 1.32
1 5 7 7.09 1.7
1 5 7 4.37 1.64
-2 -5 -7 11.77 1.9
-2 -5 -7 10.88 1.05
-2 -5 -7 13.16 2.16
-2 -5 -7 14.24 1.41
2 5 7 13.64 2.17
2 5 7 13.28 2.18
-3 -5 -7 102.38 2.58
-3 -5 -7 104.13 2.66
-3 -5 -7 111.43 4.31
-3 -5 -7 112.17 4.79
3 5 7 115.8 4.24
3 5 7 109.42 4.45
-4 -5 -7 0.67 1.37
-4 -5 -7 0.81 0.47
-4 -5 -7 0.44 1.17
4 5 7 -0.88 1.31
4 5 7 0.64 1.09
-5 -5 -7 2.7 1.65
-5 -5 -7 7.76 1.91
5 5 7 7.76 1.6
5 5 7 6.15 1.87
-6 -5 -7 20.95 2.86
-6 -5 -7 18.73 2.89
6 5 7 16.87 2.65
6 5 7 21.78 2.13
-7 -5 -7 1.98 1.77
-7 -5 -7 0.32 1.57
7 5 7 2.16 1.68
7 5 7 1.06 1.13
-8 -5 -7 47.41 4.02
-8 -5 -7 46.19 4.08
8 5 7 46.96 2.75
8 5 7 48.2 4.12
-9 -5 -7 1.06 1.89
-9 -5 -7 -0.06 1.81
9 5 7 -1.82 1.86
-10 -5 -7 7.64 2.76
10 5 7 9.07 2.65
-11 -5 -7 6.92 2.39
11 5 7 -0.16 2.21
11 5 7 8.3 3.14
7 -6 -7 2.61 1.92
7 -6 -7 4.61 2.25
-7 6 7 1.33 2.23
6 -6 -7 2.69 2.21
6 -6 -7 5.56 2.23
-6 6 7 3.54 2.24
5 -6 -7 2.65 1.79
5 -6 -7 0.09 1.6
-5 6 7 -0.03 1.26
-5 6 7 1.62 2.07
4 -6 -7 29.69 3.21
4 -6 -7 41.83 3.84
-4 6 7 32.25 3.74
-4 6 7 33.99 2.77
3 -6 -7 33.23 3.09
3 -6 -7 40.01 3.62
-3 6 7 38.41 3.01
-3 6 7 38.96 3.69
2 -6 -7 61.73 3.64
2 -6 -7 46.08 3.63
-2 6 7 55.44 3.93
-2 6 7 57.05 3.45
1 -6 -7 7.15 2.02
1 -6 -7 5.36 1.53
1 -6 -7 6.08 1.04
-1 6 7 9.13 2.09
-1 6 7 6.22 1.73
0 -6 -7 46.64 3.39
0 -6 -7 55.7 2.5
0 -6 -7 52.08 2.94
0 6 7 51.55 3.33
0 6 7 56.63 3.65
-1 -6 -7 50.57 2.68
-1 -6 -7 54.18 2.73
-1 -6 -7 52.19 3.5
1 6 7 51.69 3.38
1 6 7 54.18 3.39
-2 -6 -7 6.89 1.91
-2 -6 -7 5.94 1.55
-2 -6 -7 3.3 1.05
2 6 7 4.38 1.69
2 6 7 4.81 1.57
-3 -6 -7 -0.89 1.07
-3 -6 -7 1.1 0.79
-3 -6 -7 0.75 1.32
-3 -6 -7 0.03 0.43
3 6 7 -0.16 1.14
3 6 7 2.48 1.59
-4 -6 -7 -1.18 1.06
-4 -6 -7 -1.68 1.16
-4 -6 -7 0.74 0.61
4 6 7 0.06 0.53
4 6 7 0.74 1.13
4 6 7 0.25 1.35
-5 -6 -7 16.93 2.83
-5 -6 -7 16.74 1.23
-5 -6 -7 15.16 2.56
5 6 7 16.32 2.78
5 6 7 19.1 2.18
-6 -6 -7 28.21 3.26
-6 -6 -7 31.42 3.42
6 6 7 27.21 3.19
6 6 7 29.12 2.28
-7 -6 -7 -0.09 1.31
-7 -6 -7 1.57 1.92
7 6 7 -0.77 1.66
7 6 7 -0.38 0.82
-8 -6 -7 7.6 2.25
-8 -6 -7 6.3 2.42
8 6 7 4.02 2.12
-9 -6 -7 6.22 2.34
9 6 7 11.28 2.75
-10 -6 -7 -2.44 1.8
10 6 7 3.37 2.46
10 6 7 -1 2.17
11 6 7 3 2.2
6 -7 -7 0.14 1.75
6 -7 -7 -3.65 1.43
-6 7 7 -1.7 1.94
5 -7 -7 2.85 1.94
5 -7 -7 9.16 2.52
-5 7 7 9.76 1.88
-5 7 7 9.6 2.57
4 -7 -7 30.87 3.49
4 -7 -7 31.79 3.67
-4 7 7 37.15 4.06
-4 7 7 36.43 3.19
3 -7 -7 12.26 2.43
3 -7 -7 7.92 2.33
-3 7 7 12.14 2.36
-3 7 7 13.31 2.8
2 -7 -7 29.92 2.97
2 -7 -7 29.01 3.17
-2 7 7 26.95 2.97
-2 7 7 32.13 3.53
1 -7 -7 65.78 3.64
1 -7 -7 73.76 4.32
-1 7 7 64.96 3.87
-1 7 7 69.94 4.28
0 -7 -7 26.64 2.48
0 -7 -7 28.2 3.11
0 -7 -7 28.75 1.86
0 7 7 30.27 3
0 7 7 31.24 3.02
-1 -7 -7 0.77 1.09
-1 -7 -7 0.26 0.87
-1 -7 -7 2.19 1.57
1 7 7 -0.54 1.29
1 7 7 0.62 1.4
-2 -7 -7 4.37 1.46
-2 -7 -7 6.11 2.04
-2 -7 -7 4.07 1.28
2 7 7 3.37 1.56
2 7 7 5.56 1.87
-3 -7 -7 26.03 1.99
-3 -7 -7 23.61 2.88
-3 -7 -7 32.14 2.73
3 7 7 29.92 2.66
3 7 7 29.03 3.06
-4 -7 -7 32.33 3.35
-4 -7 -7 32.12 2
-4 -7 -7 35.08 3.04
4 7 7 32.8 3.41
4 7 7 38.96 2.67
-5 -7 -7 1.9 1.57
-5 -7 -7 2.71 1.86
-5 -7 -7 1.35 0.77
5 7 7 -0.38 1.59
5 7 7 0.23 1.07
-6 -7 -7 21.41 3.11
-6 -7 -7 17.66 2.98
6 7 7 19.06 1.93
6 7 7 18.9 3.03
-7 -7 -7 -1.61 1.56
7 7 7 -0.46 1.73
-8 -7 -7 7.5 2.66
8 7 7 4.48 2.36
8 7 7 2.53 2.2
-9 -7 -7 0.97 1.94
9 7 7 -2.99 1.99
9 7 7 1.59 2.15
-10 -7 -7 5.52 2.66
10 7 7 -0.04 2.17
10 7 7 6.59 2.76
6 -8 -7 2.85 2.23
6 -8 -7 9.97 2.7
-6 8 7 0.39 2.11
5 -8 -7 -0.56 1.77
5 -8 -7 -1.8 1.66
-5 8 7 -0.72 1.76
-5 8 7 3.32 1.55
4 -8 -7 10.29 2.47
4 -8 -7 7.73 2.29
-4 8 7 6.29 2.36
-4 8 7 12.4 2.49
3 -8 -7 20.24 3.04
3 -8 -7 19.64 3.27
-3 8 7 15.5 2.75
-3 8 7 19.86 3.4
2 -8 -7 14.98 2.82
2 -8 -7 12.25 2.51
-2 8 7 15.87 2.64
-2 8 7 17.39 2.92
1 -8 -7 0.84 1.58
1 -8 -7 1.74 1.55
-1 8 7 -3.09 1.35
-1 8 7 -0.07 1.53
0 -8 -7 11.82 2.49
0 -8 -7 8.23 1.95
0 8 7 7.16 2.09
0 8 7 9.28 2.28
0 8 7 6.76 1.19
-1 -8 -7 39 2.91
-1 -8 -7 37 3.39
1 8 7 35.46 3.16
1 8 7 29.65 3.07
1 8 7 33.54 2.2
-2 -8 -7 4.67 2.01
-2 -8 -7 7.64 1.65
2 8 7 11.9 1.85
2 8 7 8.43 1.88
2 8 7 8.01 2.28
-3 -8 -7 0.57 1.57
-3 -8 -7 0.79 1.12
3 8 7 0.8 1.28
3 8 7 3.1 1.84
-4 -8 -7 11.37 2.55
-4 -8 -7 11.55 1.71
4 8 7 13.53 2.12
4 8 7 7.14 2.2
-5 -8 -7 3.13 1.08
-5 -8 -7 4.05 2.06
5 8 7 3.56 2.1
5 8 7 4.97 2.03
5 8 7 4.97 1.3
-6 -8 -7 0.2 1.85
6 8 7 0.2 1.74
6 8 7 1.4 1.77
-7 -8 -7 1.93 2.08
7 8 7 -0.71 1.74
7 8 7 1.49 2.15
-8 -8 -7 2.46 2.38
8 8 7 0.55 2.12
8 8 7 2.22 2.24
-9 -8 -7 0.17 1.92
9 8 7 -0.24 1.9
9 8 7 -2.52 1.97
-10 -8 -7 -0.84 2.17
10 8 7 0.27 2.09
10 8 7 -0.53 2.15
5 -9 -7 3.14 1.84
5 -9 -7 1.05 2.02
-5 9 7 4.38 1.56
-5 9 7 2.35 2.35
4 -9 -7 10.14 2.77
4 -9 -7 11.78 2.75
-4 9 7 10.02 3.07
-4 9 7 9.22 2.31
3 -9 -7 -0.18 1.64
3 -9 -7 1.12 1.75
-3 9 7 1.69 1.79
-3 9 7 0.46 1.57
2 -9 -7 5.24 1.89
2 -9 -7 -0.12 1.58
-2 9 7 1.04 1.79
-2 9 7 -0.33 1.69
1 -9 -7 19.32 2.84
1 -9 -7 23.24 3.33
-1 9 7 22.93 3.33
-1 9 7 21.07 3.25
0 -9 -7 1.14 1.82
0 -9 -7 4.31 1.76
0 9 7 1.88 1.7
0 9 7 3.82 2.07
-1 -9 -7 1.54 1.44
-1 -9 -7 2.13 1.73
1 9 7 -1.28 1.44
1 9 7 1.13 1.79
-2 -9 -7 3.74 2
-2 -9 -7 3.57 1.39
2 9 7 1.24 1.21
2 9 7 2.01 1.61
2 9 7 1.76 1.93
-3 -9 -7 -0.05 1.12
-3 -9 -7 4.01 2.26
3 9 7 2.44 1.38
3 9 7 1.83 1.28
3 9 7 3.32 1.9
-4 -9 -7 5.67 2.18
-4 -9 -7 2.09 1.33
4 9 7 6.44 1.96
4 9 7 2.59 1.87
4 9 7 5.9 1.33
-5 -9 -7 -0.61 1.67
-5 -9 -7 0.54 0.95
5 9 7 0.83 0.96
5 9 7 -0.35 1.82
5 9 7 0.62 1.6
-6 -9 -7 5.28 2.29
6 9 7 2.59 2.16
6 9 7 2.3 1.96
-7 -9 -7 1.06 1.92
7 9 7 1.29 1.97
7 9 7 2.62 2.23
-8 -9 -7 -0.37 1.95
8 9 7 1.16 2.1
8 9 7 1.73 2.34
-9 -9 -7 0.79 2
9 9 7 -2.21 1.85
9 9 7 1.87 2.14
4 -10 -7 -0.19 1.73
4 -10 -7 0.82 1.45
-4 10 7 -0.84 1.59
-4 10 7 1.11 2.19
3 -10 -7 27.16 3.52
3 -10 -7 20.72 3.34
-3 10 7 27.31 4.25
-3 10 7 26.95 3.41
2 -10 -7 3.87 2.05
2 -10 -7 2.17 1.79
-2 10 7 -2.31 1.77
-2 10 7 -0.53 1.68
1 -10 -7 0.21 1.91
1 -10 -7 -1.82 1.39
-1 10 7 4.39 2.07
-1 10 7 -1.5 1.65
0 -10 -7 1.19 1.56
0 -10 -7 4.07 2.09
0 10 7 0.67 1.64
0 10 7 -0.1 1.85
-1 -10 -7 1.13 1.71
-1 -10 -7 -0.49 1.36
1 10 7 -1.66 1.76
1 10 7 0.08 1.5
-2 -10 -7 7.58 1.85
-2 -10 -7 5.05 2.22
2 10 7 4.09 1.75
2 10 7 7.42 2.32
-3 -10 -7 -0.33 1.25
-3 -10 -7 0.91 1.88
3 10 7 1.4 1.99
3 10 7 -0.21 1.17
3 10 7 1.11 1.16
-4 -10 -7 -1.43 1.77
-4 -10 -7 1.2 1.15
4 10 7 1.22 1.44
4 10 7 -1.45 0.94
4 10 7 -3.85 1.67
-5 -10 -7 1.62 2.03
5 10 7 0.34 1.92
5 10 7 3.05 1.92
-6 -10 -7 2.97 2.02
6 10 7 -4.05 1.37
6 10 7 -1.32 1.93
-7 -10 -7 1.7 2.25
7 10 7 3.38 2.24
7 10 7 5.15 2.46
-8 -10 -7 0.88 2.29
8 10 7 -1.27 1.85
8 10 7 -2.71 1.77
2 -11 -7 0.3 1.91
2 -11 -7 4.51 2.37
-2 11 7 -2.84 1.5
-2 11 7 -1.01 1.64
1 -11 -7 2.54 1.89
1 -11 -7 1.06 1.9
-1 11 7 -0.56 2
-1 11 7 -0.44 1.75
0 -11 -7 2.08 1.78
0 -11 -7 3.08 1.97
0 11 7 1.36 2.12
0 11 7 3.38 2.08
-1 -11 -7 2.35 1.86
-1 -11 -7 3.07 1.68
1 11 7 0.61 1.83
1 11 7 3.02 1.88
-2 -11 -7 0.69 1.89
-2 -11 -7 0.64 1.29
2 11 7 -1.13 1.81
2 11 7 1.22 1.35
-3 -11 -7 1.52 1.56
-3 -11 -7 2.28 1.92
3 11 7 -1.28 1.8
3 11 7 2.46 1.27
-4 -11 -7 3.51 2.16
-4 -11 -7 1.44 1.46
4 11 7 3.74 2.44
4 11 7 6.84 1.65
-5 -11 -7 1.12 2.05
5 11 7 0.89 1.4
5 11 7 2.17 2.34
-6 -11 -7 -2.76 1.72
6 11 7 2.45 1.78
6 11 7 3.27 2.32
-7 -11 -7 -0.76 1.89
7 11 7 2.84 2.15
7 11 7 4.23 2.52
0 -12 -7 1.87 1.69
0 -12 -7 5.13 2
0 12 7 3.26 1.84
0 12 7 2.97 2.12
-1 -12 -7 1.05 1.32
-1 -12 -7 -0.36 1.7
1 12 7 -2.79 1.57
1 12 7 1.42 1.67
-2 -12 -7 2.2 1.75
-2 -12 -7 1.42 1.81
2 12 7 0.08 1.88
2 12 7 1.41 1.5
-3 -12 -7 -1.42 1.56
-3 -12 -7 3.55 1.62
3 12 7 3.64 2.21
-4 -12 -7 2.57 2.28
4 12 7 4.56 2.33
-5 -12 -7 1.37 2.15
5 12 7 2.6 2.37
-6 -12 -7 3 2.05
6 12 7 0.66 1.78
6 12 7 2.77 2.47
5 11 -8 2.72 2.3
-5 -11 8 0.37 1.89
4 11 -8 24.66 2.95
4 11 -8 22.52 3.67
-4 -11 8 16.12 3.31
3 11 -8 12.07 3
3 11 -8 6.99 2.05
-3 -11 8 13.29 2.43
-3 -11 8 9.69 2.64
2 11 -8 5.95 2.02
2 11 -8 4.67 2.16
-2 -11 8 0.34 1.43
-2 -11 8 6.77 2.28
1 11 -8 3.5 1.99
1 11 -8 3.5 1.85
-1 -11 8 7.02 2.33
-1 -11 8 4.35 1.82
0 11 -8 -0.4 1.44
0 11 -8 2.27 1.73
0 -11 8 0.12 1.49
0 -11 8 0.37 1.6
-1 11 -8 23.29 3.19
-1 11 -8 23.24 3.42
1 -11 8 20.24 3.11
1 -11 8 22.29 3.59
-2 11 -8 5.65 2.18
-2 11 -8 1.2 1.78
2 -11 8 2.9 2.02
2 -11 8 5.04 1.82
7 10 -8 3.52 2.11
7 10 -8 0.63 1.41
-7 -10 8 3.51 2.3
6 10 -8 18.49 3.56
6 10 -8 18.62 2.54
-6 -10 8 17.05 3.25
5 10 -8 0.72 1.96
-5 -10 8 2.97 2.05
4 10 -8 16.97 2.34
4 10 -8 16.67 3.42
-4 -10 8 19.57 2.66
-4 -10 8 14.61 2.99
3 10 -8 6.24 2.33
3 10 -8 8.05 1.9
-3 -10 8 7.33 1.88
-3 -10 8 8.4 2.6
2 10 -8 0.15 1.27
2 10 -8 0.91 1.77
-2 -10 8 -1.03 1.28
-2 -10 8 0.63 1.57
1 10 -8 17.57 2.72
1 10 -8 20.6 3.36
-1 -10 8 18.89 2.96
-1 -10 8 20.28 2.96
0 10 -8 -0.65 1.39
0 10 -8 1.05 1.57
0 -10 8 0.7 1.61
0 -10 8 0.88 1.53
-1 10 -8 6.18 2.14
-1 10 -8 6.62 2.34
1 -10 8 0.74 1.79
1 -10 8 8.08 2.29
-2 10 -8 4.85 2.1
-2 10 -8 6.68 2.17
2 -10 8 6.86 2.22
2 -10 8 9.73 2.66
-3 10 -8 -0.63 1.51
-3 10 -8 1.07 1.67
3 -10 8 -0.49 1.47
3 -10 8 1 1.66
8 9 -8 15.63 2.96
8 9 -8 12.41 3.12
-8 -9 8 16.54 3.39
7 9 -8 3.25 2.37
7 9 -8 0.71 1.68
-7 -9 8 1.08 1.97
6 9 -8 19.1 3.55
6 9 -8 16.52 2.61
-6 -9 8 21.26 3.48
5 9 -8 2.71 1.33
5 9 -8 3.45 2.11
-5 -9 8 4.13 1.69
-5 -9 8 2.44 1.72
4 9 -8 8.78 1.66
4 9 -8 10.51 2.75
4 9 -8 6.53 1.62
-4 -9 8 12.62 2.73
-4 -9 8 7.34 1.99
3 9 -8 13.65 2.2
3 9 -8 18.75 3.36
-3 -9 8 16.26 2.93
-3 -9 8 17.7 2.56
2 9 -8 4.47 1.46
2 9 -8 4.34 2.08
-2 -9 8 2.64 1.74
-2 -9 8 -0.08 1.44
1 9 -8 26.44 3.37
1 9 -8 32.27 3.11
-1 -9 8 33.45 3.38
-1 -9 8 33.74 3.39
0 9 -8 1.53 1.57
0 9 -8 1.55 1.43
0 -9 8 -0.24 1.46
0 -9 8 -0.37 1.52
-1 9 -8 -2 1
-1 9 -8 -0.57 1.4
1 -9 8 0.69 1.66
1 -9 8 -0.39 1.35
-2 9 -8 36.25 3.81
-2 9 -8 33.67 3.78
2 -9 8 33.42 3.25
2 -9 8 33.83 3.78
-3 9 -8 2.11 1.65
-3 9 -8 2.23 1.83
3 -9 8 -1.2 1.37
3 -9 8 0.23 1.36
-4 9 -8 3.38 1.74
-4 9 -8 2.62 2.04
4 -9 8 3.97 2.15
4 -9 8 0.12 1.17
-5 9 -8 -0.23 1.69
-5 9 -8 1.47 1.73
5 -9 8 0.61 1.9
5 -9 8 2.32 1.56
8 8 -8 6.56 2.55
8 8 -8 8.4 2.4
-8 -8 8 12 3.12
7 8 -8 6.08 2.57
7 8 -8 4.25 1.87
-7 -8 8 1.77 2.14
6 8 -8 21.21 3.4
6 8 -8 21.61 2.73
-6 -8 8 20.07 3.17
-6 -8 8 23.08 2.77
5 8 -8 19.41 3.35
5 8 -8 16.23 2.3
-5 -8 8 17.44 3.06
-5 -8 8 15.52 2.56
4 8 -8 24.01 3.4
4 8 -8 27.97 2.21
4 8 -8 27.32 2.48
-4 -8 8 33.64 3.61
-4 -8 8 32.2 3.01
3 8 -8 11.65 1.84
3 8 -8 8.33 2.41
3 8 -8 9.94 1.57
-3 -8 8 12.08 2.41
-3 -8 8 7.23 1.96
2 8 -8 0.4 1.03
2 8 -8 -0.6 0.54
2 8 -8 2.73 1.83
-2 -8 8 -0.6 1.29
-2 -8 8 0.2 1.33
1 8 -8 12.91 2.63
1 8 -8 14.92 2.32
-1 -8 8 15.66 2.54
-1 -8 8 18.46 2.75
0 8 -8 29.43 3
0 8 -8 29.59 3.44
0 -8 8 31.84 3.16
0 -8 8 27.05 3.07
-1 8 -8 2.94 1.67
-1 8 -8 -0.71 1.28
1 -8 8 3.48 1.94
1 -8 8 0.52 1.22
-2 8 -8 6.33 2.15
-2 8 -8 6.22 2.06
2 -8 8 6.73 1.9
2 -8 8 6.21 2.16
-3 8 -8 3.26 1.88
-3 8 -8 0.79 1.56
3 -8 8 1.7 1.78
3 -8 8 1.83 1.43
-4 8 -8 18.74 3.08
-4 8 -8 17.86 3.22
4 -8 8 16.83 2.57
4 -8 8 22.6 3.45
-5 8 -8 30.04 3.9
-5 8 -8 26.44 3.6
5 -8 8 39.17 4.18
5 -8 8 29.78 3.07
-6 8 -8 3.69 1.83
-6 8 -8 2.5 2.02
6 -8 8 4.86 1.67
6 -8 8 2 2.17
9 7 -8 -1.42 1.82
9 7 -8 3.74 1.89
-9 -7 8 3.56 2.28
8 7 -8 -1.23 1.8
8 7 -8 5.85 2.3
-8 -7 8 3.99 2.48
7 7 -8 7.12 2.15
7 7 -8 3.35 2.23
-7 -7 8 5.55 1.65
-7 -7 8 8.97 2.77
6 7 -8 24.23 2.89
6 7 -8 19.99 3.44
-6 -7 8 24.88 2.84
-6 -7 8 19.39 3.16
5 7 -8 12.81 2.36
5 7 -8 9.97 2.61
-5 -7 8 7.08 2.19
-5 -7 8 7.68 1.91
4 7 -8 -0.07 1.45
4 7 -8 -0.64 0.71
4 7 -8 0.65 1.11
-4 -7 8 0.49 1.36
-4 -7 8 1.41 1.41
3 7 -8 56.64 2.96
3 7 -8 62.47 3.02
3 7 -8 63.12 4.35
-3 -7 8 61.93 3.77
-3 -7 8 60.61 4
2 7 -8 0.91 1.51
2 7 -8 3.75 1.33
2 7 -8 0.28 0.75
-2 -7 8 4.99 1.77
-2 -7 8 1.75 1.42
1 7 -8 3.46 1.44
1 7 -8 2.91 1.7
1 7 -8 1.58 0.74
-1 -7 8 2.17 1.47
-1 -7 8 1.62 1.56
0 7 -8 1.17 1.38
0 7 -8 0.05 1.17
0 -7 8 1.35 1.48
0 -7 8 2.9 1.43
-1 7 -8 -0.23 1.17
-1 7 -8 -0.81 1.24
1 -7 8 0.11 1.41
1 -7 8 1.5 1.31
-2 7 -8 21.37 2.82
-2 7 -8 21.71 2.96
2 -7 8 15.8 2.37
2 -7 8 18.07 3
-3 7 -8 75.1 4.59
-3 7 -8 77.05 4.82
3 -7 8 73.18 4.68
3 -7 8 71.23 3.89
-4 7 -8 1.43 1.76
-4 7 -8 0.76 1.41
4 -7 8 0.86 1.19
4 -7 8 -0.91 1.24
-5 7 -8 0.38 1.57
-5 7 -8 6.09 2.24
5 -7 8 5.58 2.26
5 -7 8 0.92 1.3
-6 7 -8 1.31 1.56
-6 7 -8 2.56 2.25
6 -7 8 3.91 1.64
6 -7 8 5.34 2.54
-7 7 -8 0.86 1.93
-7 7 -8 -0.95 1.49
7 -7 8 -0.88 1.62
9 6 -8 -0.04 1.93
9 6 -8 -1.52 1.74
-9 -6 8 -1.29 1.98
8 6 -8 42.13 4.09
8 6 -8 50.95 4.56
-8 -6 8 50.06 4.46
-8 -6 8 43.65 3.38
7 6 -8 16.63 3.26
7 6 -8 18.82 3.05
-7 -6 8 15.39 3.09
-7 -6 8 15.8 2.59
6 6 -8 0.87 1.49
6 6 -8 -1.55 1.61
-6 -6 8 2.39 1.59
-6 -6 8 1.42 1.62
5 6 -8 24.35 3.19
5 6 -8 28.07 2.9
-5 -6 8 23.46 3.18
-5 -6 8 21.36 2.68
4 6 -8 7.62 2.18
4 6 -8 4.99 1.48
4 6 -8 4.08 0.97
-4 -6 8 4.85 1.7
-4 -6 8 3.31 1.65
3 6 -8 24.49 2.19
3 6 -8 24.26 2.92
3 6 -8 25.19 1.89
-3 -6 8 20.87 2.7
-3 -6 8 24.63 2.78
2 6 -8 13.82 1.6
2 6 -8 12.39 2.32
2 6 -8 11.53 1.72
-2 -6 8 11.5 2.18
-2 -6 8 13.54 2.19
1 6 -8 0.4 0.68
1 6 -8 -1.16 0.86
1 6 -8 0.57 1.29
-1 -6 8 1.38 1.29
-1 -6 8 0.68 1.26
0 6 -8 104.19 5
0 6 -8 107.63 2.72
0 6 -8 108.45 4.35
0 -6 8 110.59 4.97
0 -6 8 106.13 4.33
-1 6 -8 40.19 3.04
-1 6 -8 45.78 3.49
1 -6 8 38.96 3.34
1 -6 8 38.58 2.83
-2 6 -8 1.51 1.39
-2 6 -8 2.94 1.46
2 -6 8 1.12 1.53
2 -6 8 4.22 1.39
-3 6 -8 41.94 3.42
-3 6 -8 36.64 3.54
3 -6 8 36.62 2.79
3 -6 8 38.04 3.6
-4 6 -8 -0.48 1.41
-4 6 -8 -0.31 1.23
4 -6 8 -1.32 1.27
4 -6 8 0.58 1.06
-5 6 -8 11.1 2.66
-5 6 -8 12.38 2.84
5 -6 8 17.32 3.04
5 -6 8 14.53 2.15
-6 6 -8 3.64 2.03
-6 6 -8 7.77 2.44
6 -6 8 5.32 2.21
6 -6 8 3.03 1.48
-7 6 -8 0.75 1.54
-7 6 -8 5.69 2.33
7 -6 8 1.82 2.03
9 5 -8 2.73 2.18
9 5 -8 6.42 2.55
-9 -5 8 5.47 2.36
8 5 -8 0.58 1.94
8 5 -8 -1.01 1.64
-8 -5 8 -1.06 1.82
-8 -5 8 4.23 1.77
7 5 -8 36.9 3.89
7 5 -8 39.14 3.71
-7 -5 8 45.05 4.16
-7 -5 8 38.51 3.43
6 5 -8 3.8 1.9
6 5 -8 4.84 1.87
-6 -5 8 2.46 1.78
-6 -5 8 0.65 1.43
5 5 -8 39.52 3.65
5 5 -8 36.88 3.1
-5 -5 8 41.82 3.34
-5 -5 8 40.7 3.65
4 5 -8 8.35 1.06
4 5 -8 5.06 1.59
4 5 -8 5.67 2
-4 -5 8 5.58 1.76
-4 -5 8 6.66 1.94
3 5 -8 1.11 1.13
3 5 -8 1.06 0.82
3 5 -8 0.99 1.45
-3 -5 8 1.29 1.36
-3 -5 8 3.06 1.6
2 5 -8 34.7 2.18
2 5 -8 29.25 2.95
2 5 -8 28.79 2.11
-2 -5 8 31.93 2.72
-2 -5 8 29.3 2.79
1 5 -8 119.14 3.51
1 5 -8 120.08 4.02
1 5 -8 122.17 5.06
-1 -5 8 121.39 4.94
-1 -5 8 122.06 4.49
0 5 -8 2.91 1.21
0 5 -8 3.01 0.63
0 5 -8 1.97 0.76
0 5 -8 2.8 1.53
0 -5 8 3.16 1.51
0 -5 8 3.89 1.36
-1 5 -8 5.14 0.82
-1 5 -8 4.83 1.6
-1 5 -8 4.22 1.49
-1 5 -8 7.76 0.77
1 -5 8 6.14 1.48
1 -5 8 7.21 1.98
-2 5 -8 2.23 1.19
-2 5 -8 0.78 1.37
2 -5 8 1.09 1
2 -5 8 0.77 1.34
-3 5 -8 38.47 3.41
-3 5 -8 32.79 3.19
3 -5 8 44.8 2.64
3 -5 8 35.87 3.47
-4 5 -8 9.65 2.24
-4 5 -8 11.53 2.48
4 -5 8 10.26 1.74
4 -5 8 9.51 2.4
-5 5 -8 0.89 1.58
-5 5 -8 1.35 1.56
5 -5 8 1.88 1.13
5 -5 8 -0.71 1.49
-6 5 -8 12.32 2.82
-6 5 -8 11.39 2.75
6 -5 8 11.68 1.9
6 -5 8 14.99 3.05
-7 5 -8 0.38 1.52
-7 5 -8 -2.44 1.4
7 -5 8 -0.23 1.71
-8 5 -8 5.69 2.22
-8 5 -8 3.72 1.96
8 -5 8 6.78 2.67
9 4 -8 12.16 2.9
9 4 -8 15.21 3.16
-9 -4 8 17.78 2.67
-9 -4 8 14.54 3.17
8 4 -8 -1.43 1.74
8 4 -8 -0.75 1.7
-8 -4 8 -1.73 1.53
-8 -4 8 -0.12 1.49
7 4 -8 39.42 3.67
7 4 -8 39.43 3.81
-7 -4 8 44.14 3.58
-7 -4 8 43.29 3.93
6 4 -8 1.79 1.64
6 4 -8 3.7 1.89
-6 -4 8 2.32 1.62
-6 -4 8 1.98 1.54
5 4 -8 6.71 1.98
5 4 -8 4.35 1.67
-5 -4 8 5.52 1.83
-5 -4 8 6.62 1.97
4 4 -8 125.59 4.75
4 4 -8 136.33 5.43
-4 -4 8 134.84 5.23
-4 -4 8 134.76 5.22
3 4 -8 4.25 0.94
3 4 -8 3.44 1.34
3 4 -8 4.61 1.68
-3 -4 8 0.63 1.28
-3 -4 8 5.3 1.7
-3 -4 8 3.2 0.65
2 4 -8 14.78 2.27
2 4 -8 11.89 1.67
2 4 -8 11.04 1.39
-2 -4 8 12.62 2.14
-2 -4 8 13.22 2.06
1 4 -8 78.98 3.01
1 4 -8 78.1 3.14
1 4 -8 74.62 3.91
-1 -4 8 83.93 3.63
-1 -4 8 77.31 3.91
0 4 -8 5.38 1.33
0 4 -8 5.19 1.7
0 4 -8 4.32 1.02
0 -4 8 5.28 1.42
0 -4 8 7.24 1.8
-1 4 -8 68.16 3.82
-1 4 -8 68.56 2.34
-1 4 -8 69.93 3.47
1 -4 8 72.82 3.91
1 -4 8 69.81 2.24
1 -4 8 69.04 3.08
-2 4 -8 10.99 2.01
-2 4 -8 11.24 0.99
-2 4 -8 12.8 2.28
2 -4 8 9.65 0.89
2 -4 8 13.93 1.7
2 -4 8 10.12 2.06
-3 4 -8 -1.54 1.02
-3 4 -8 1.04 1.25
3 -4 8 0.7 0.93
3 -4 8 0.38 1.41
-4 4 -8 8.13 1.96
-4 4 -8 8.42 2.14
4 -4 8 6.45 1.97
4 -4 8 8.46 1.48
-5 4 -8 3.61 1.8
-5 4 -8 3.54 1.84
5 -4 8 3.38 1.16
5 -4 8 5.28 2.12
-6 4 -8 4.79 1.98
-6 4 -8 6.25 2.26
6 -4 8 5.22 1.25
6 -4 8 4.3 1.94
-7 4 -8 0.45 1.6
-7 4 -8 -1.55 1.41
7 -4 8 -0.85 1.58
-8 4 -8 21.7 3.4
-8 4 -8 16.02 3.26
8 -4 8 21.89 3.45
-9 4 -8 1.7 1.76
9 -4 8 2 1.96
9 3 -8 28.66 3.49
9 3 -8 24.47 3.77
-9 -3 8 31.46 3.38
-9 -3 8 28.23 3.86
8 3 -8 0.51 1.67
8 3 -8 1.64 1.92
-8 -3 8 0.45 1.63
-8 -3 8 2.88 1.99
7 3 -8 2.82 1.91
7 3 -8 9.17 2.42
-7 -3 8 6.71 2.3
-7 -3 8 4.81 2.03
6 3 -8 37.6 3.39
6 3 -8 40.8 3.51
-6 -3 8 35.78 3.55
-6 -3 8 38.99 3.58
5 3 -8 0.24 1.41
5 3 -8 1.03 1.48
-5 -3 8 0.36 1.41
-5 -3 8 1.49 1.49
4 3 -8 20.5 2.68
4 3 -8 20.65 2.45
-4 -3 8 20.55 2.48
-4 -3 8 19.35 2.67
3 3 -8 3.72 1.35
3 3 -8 2.68 1.46
-3 -3 8 1.77 0.53
-3 -3 8 3.77 1.51
-3 -3 8 4.2 0.81
-3 -3 8 4.07 1.53
2 3 -8 4.9 1.36
2 3 -8 10.89 2.05
-2 -3 8 5.7 1.51
-2 -3 8 7.76 1.22
-2 -3 8 7.71 0.99
-2 -3 8 8.38 1.86
1 3 -8 117.3 3.61
1 3 -8 118.61 4.71
1 3 -8 111.86 3.65
-1 -3 8 118.42 3.95
-1 -3 8 114.18 4.54
0 3 -8 14.8 1.69
0 3 -8 13.36 2.19
0 3 -8 12.86 1.53
0 -3 8 12.69 1.69
0 -3 8 13.22 2.11
-1 3 -8 2.94 1.14
-1 3 -8 1.53 0.82
-1 3 -8 -1.41 0.89
1 -3 8 0.83 0.87
1 -3 8 2.08 1.3
1 -3 8 1.76 0.65
-2 3 -8 16.39 1.34
-2 3 -8 13.63 1.99
-2 3 -8 14.76 2.27
2 -3 8 12.39 2.24
2 -3 8 18.06 1.61
2 -3 8 15.55 1.19
-3 3 -8 33.08 1.63
-3 3 -8 34.87 2.79
-3 3 -8 31.03 2.95
3 -3 8 33.49 3.02
3 -3 8 32.78 2.01
3 -3 8 33.9 1.55
-4 3 -8 11.46 1.17
-4 3 -8 12.37 2.16
-4 3 -8 9.98 2.26
4 -3 8 15.61 2.59
4 -3 8 13.88 1.46
-5 3 -8 0.85 1.59
-5 3 -8 1.67 0.64
-5 3 -8 -0.26 1.15
5 -3 8 0.5 1.47
5 -3 8 1 0.83
-6 3 -8 2.78 1.81
-6 3 -8 2.54 1.9
6 -3 8 2.1 0.93
6 -3 8 5.02 2.02
-7 3 -8 4.44 2.07
7 -3 8 3.19 1.77
-8 3 -8 0.68 1.69
8 -3 8 4.18 2.07
-9 3 -8 -0.42 1.65
9 -3 8 2.39 2
9 -3 8 0.23 2.39
9 2 -8 13.8 3.16
9 2 -8 9.78 2.47
-9 -2 8 18.44 3.06
-9 -2 8 6.21 2.6
8 2 -8 16.51 2.81
8 2 -8 13.42 2.86
-8 -2 8 16.92 2.89
-8 -2 8 13.42 3.06
7 2 -8 5.92 2.17
7 2 -8 9.27 2.21
-7 -2 8 6.99 2.15
-7 -2 8 3.87 1.83
6 2 -8 5.27 1.95
6 2 -8 9.78 2.32
-6 -2 8 6.43 2.09
-6 -2 8 13.72 2.48
5 2 -8 5.08 1.69
5 2 -8 5.94 1.92
-5 -2 8 4.78 1.83
-5 -2 8 2.62 1.6
4 2 -8 12.74 2.18
4 2 -8 17.89 2.25
-4 -2 8 13.88 2.24
-4 -2 8 12.35 2.35
3 2 -8 64.1 3.37
3 2 -8 69.34 3.68
-3 -2 8 68.34 1.87
-3 -2 8 68.11 3.84
-3 -2 8 64.68 1.79
-3 -2 8 69.61 3.55
2 2 -8 12.58 2.03
2 2 -8 9.79 1.77
-2 -2 8 9.11 0.99
-2 -2 8 9.19 1.7
-2 -2 8 9.2 1.84
-2 -2 8 10.24 1.23
1 2 -8 3.89 1.38
1 2 -8 6.18 1.35
-1 -2 8 4.08 1.11
-1 -2 8 5.28 1.58
-1 -2 8 4.41 1.29
0 2 -8 0.81 0.88
0 2 -8 -0.11 0.95
0 -2 8 0.47 0.99
0 -2 8 0.4 0.84
0 -2 8 0.07 1.11
-1 2 -8 99.46 3.3
-1 2 -8 93.29 4.25
-1 2 -8 94.99 2.94
1 -2 8 97.45 3.03
1 -2 8 93.8 3.76
1 -2 8 103.97 4.42
-2 2 -8 9.61 1.36
-2 2 -8 7.11 1.67
-2 2 -8 11.42 1.11
2 -2 8 10.49 1.2
2 -2 8 11.38 1.27
2 -2 8 13.59 2.06
-3 2 -8 -0.35 1.08
-3 2 -8 1.66 0.86
-3 2 -8 0.36 0.48
3 -2 8 1.86 1.39
3 -2 8 1.34 0.64
3 -2 8 0.79 0.7
-4 2 -8 6.85 0.86
-4 2 -8 8.79 1.32
-4 2 -8 7.36 2
4 -2 8 9.99 1.12
4 -2 8 5.4 1.75
4 -2 8 8.83 1.06
-5 2 -8 -1.3 1.27
-5 2 -8 -0.23 0.7
5 -2 8 0.73 1.47
5 -2 8 -0.47 0.57
-6 2 -8 25.05 1.89
-6 2 -8 20.19 3.17
6 -2 8 21.54 3.03
6 -2 8 25.28 3.52
6 -2 8 27.46 1.66
-7 2 -8 13.36 2.8
-7 2 -8 10.35 1.68
7 -2 8 17.81 3.1
7 -2 8 17.38 3.19
-8 2 -8 -1.54 1.58
8 -2 8 2.62 2.23
8 -2 8 -1.46 1.4
-9 2 -8 21.32 3.62
9 -2 8 25.63 3.47
9 -2 8 21.33 3.65
-10 2 -8 1.63 1.99
10 -2 8 3.5 1.99
10 -2 8 -1.01 2.21
9 1 -8 10.34 2.79
9 1 -8 16.19 2.65
-9 -1 8 10.65 2.93
-9 -1 8 13.49 2.91
8 1 -8 0.06 1.31
8 1 -8 2 1.99
-8 -1 8 -0.52 1.82
-8 -1 8 3.13 1.83
7 1 -8 1.1 1.71
7 1 -8 5.92 1.79
-7 -1 8 1.8 1.86
-7 -1 8 3.88 2.16
6 1 -8 9.87 2.45
6 1 -8 15.41 2.45
-6 -1 8 8.54 2.32
-6 -1 8 9.5 2.38
5 1 -8 13.85 2.47
5 1 -8 15.3 2.38
-5 -1 8 16.18 2.41
-5 -1 8 14.98 2.67
4 1 -8 21.08 2.46
4 1 -8 24.22 2.64
-4 -1 8 24.45 2.79
-4 -1 8 25.98 2.58
3 1 -8 0.96 1.17
3 1 -8 0.05 1.07
-3 -1 8 0.04 0.37
-3 -1 8 0.54 0.5
-3 -1 8 0.44 1.31
-3 -1 8 -0.63 0.93
2 1 -8 0.18 1.08
2 1 -8 -0.24 0.96
-2 -1 8 0.39 1.19
-2 -1 8 0.29 0.44
-2 -1 8 0.13 1
-2 -1 8 0.89 0.58
1 1 -8 64.25 3.08
1 1 -8 71.8 3.55
-1 -1 8 64.48 2.45
-1 -1 8 68.97 2.56
-1 -1 8 66.98 2.91
-1 -1 8 66.15 3.58
0 1 -8 8.19 1.12
0 1 -8 6.49 1.53
0 1 -8 8.55 1.58
0 -1 8 10.22 1.54
0 -1 8 8.73 1.39
0 -1 8 9.11 1.88
-1 1 -8 -0.49 0.84
-1 1 -8 -0.84 0.47
-1 1 -8 -0.28 1.04
1 -1 8 -0.3 1.01
1 -1 8 0.58 1.05
1 -1 8 0.16 0.68
-2 1 -8 3.68 0.69
-2 1 -8 3.33 1.38
-2 1 -8 5.39 1.26
2 -1 8 4.27 1.44
2 -1 8 3.51 0.77
2 -1 8 3.73 1.43
-3 1 -8 12.58 2.16
-3 1 -8 15.04 0.94
-3 1 -8 16.57 1.74
3 -1 8 12.86 1
3 -1 8 18.21 2.4
3 -1 8 14.9 2.17
-4 1 -8 43.72 3.36
-4 1 -8 48.39 2.46
4 -1 8 47.6 1.49
4 -1 8 50.28 3.46
4 -1 8 51.83 3.39
-5 1 -8 1.1 1.5
-5 1 -8 3.96 1.2
5 -1 8 2.46 0.6
5 -1 8 1.76 1.54
5 -1 8 -0.09 1.45
-6 1 -8 11.27 2.49
-6 1 -8 10.57 1.77
6 -1 8 13.37 2.66
6 -1 8 10.2 1.01
6 -1 8 8.43 2.03
-7 1 -8 31.51 2.36
-7 1 -8 32.02 3.55
7 -1 8 33.54 3.56
7 -1 8 33.55 3.41
-8 1 -8 2.29 1.91
-8 1 -8 0.44 1.21
8 -1 8 -0.62 1.49
8 -1 8 -0.58 1.95
-9 1 -8 4.41 2.22
9 -1 8 1.29 1.98
9 -1 8 1.31 1.71
-10 1 -8 -1.81 1.84
10 -1 8 3.14 1.66
10 -1 8 -2.63 1.91
9 0 -8 -0.25 1.81
-9 0 8 2.82 2.28
-9 0 8 -3.27 1.47
8 0 -8 11.13 2.78
8 0 -8 7.83 2.02
-8 0 8 10.96 2.85
-8 0 8 8.7 2.47
7 0 -8 -1.32 1.43
7 0 -8 -0.51 1.11
-7 0 8 -0.73 1.61
-7 0 8 2.47 1.72
6 0 -8 39.24 3.03
6 0 -8 40.72 3.67
-6 0 8 35.91 3.59
-6 0 8 39.31 3.61
5 0 -8 0.37 1.45
5 0 -8 0.24 1.06
-5 0 8 1.74 1.43
-5 0 8 1 1.49
4 0 -8 2.8 1.33
4 0 -8 4.89 1.71
-4 0 8 4.6 1.67
-4 0 8 3.27 1.68
3 0 -8 41.02 2.96
3 0 -8 39.47 2.81
-3 0 8 37.48 2.77
-3 0 8 40.52 1.59
-3 0 8 35.22 1.4
-3 0 8 40.91 3.33
2 0 -8 -0.56 0.89
2 0 -8 1.69 1.15
-2 0 8 -0.34 1.25
-2 0 8 0.31 0.64
-2 0 8 0.58 0.48
-2 0 8 -0.98 0.86
1 0 -8 10.67 1.81
1 0 -8 9.71 1.82
-1 0 8 8.3 1.03
-1 0 8 9.32 1.52
-1 0 8 10.77 1.92
-1 0 8 7.87 1.23
0 0 -8 4.56 0.89
0 0 -8 5.26 1.39
0 0 -8 1.72 1.16
0 0 8 4.83 1.16
0 0 8 3.76 1.43
0 0 8 5.28 1.07
-1 0 -8 38.95 1.62
-1 0 -8 37.68 2.82
-1 0 -8 42.86 2.6
1 0 8 44.45 2.61
1 0 8 40.07 1.74
1 0 8 39.57 2.87
-2 0 -8 57.31 1.62
-2 0 -8 62.25 3.01
-2 0 -8 59.47 3.47
2 0 8 57.9 3.09
2 0 8 59.33 1.64
2 0 8 56.52 3.28
-3 0 -8 4.44 1.47
-3 0 -8 5.49 1.37
3 0 8 3.95 1.52
3 0 8 2.71 1.35
-4 0 -8 14.47 2.45
-4 0 -8 16.11 1.94
4 0 8 18.2 2.31
4 0 8 16.51 2.48
-5 0 -8 7.47 1.99
-5 0 -8 9.77 1.79
5 0 8 7.35 1.91
5 0 8 8.21 2.05
-6 0 -8 14.43 2.71
-6 0 -8 13.1 2.02
6 0 8 19.33 2.96
6 0 8 15.22 2.52
-7 0 -8 7.64 1.84
-7 0 -8 9.04 2.47
7 0 8 10.92 2.33
7 0 8 8.46 2.3
-8 0 -8 1.29 1.79
-8 0 -8 1.36 1.22
8 0 8 -2.29 1.38
8 0 8 -0.02 1.77
-9 0 -8 13.35 2.41
-9 0 -8 10.73 2.71
9 0 8 14.62 2.72
9 0 8 13.13 2.88
-10 0 -8 27.79 4.07
10 0 8 38.97 3.69
10 0 8 46.23 4.42
9 -1 -8 -0.85 2.08
-9 1 8 1.79 1.99
-9 1 8 -0.33 1.82
8 -1 -8 19.8 3.29
-8 1 8 15.5 3.23
-8 1 8 17.32 3.35
7 -1 -8 7.22 2.32
7 -1 -8 1.76 1.09
-7 1 8 -0.85 1.57
-7 1 8 4 2.11
6 -1 -8 11.53 2.6
6 -1 -8 13.74 2.08
-6 1 8 11.45 2.49
-6 1 8 10.02 2.44
5 -1 -8 22.6 2.28
5 -1 -8 20.79 2.85
-5 1 8 14.39 2.7
-5 1 8 15.12 2.56
4 -1 -8 2.94 1.33
4 -1 -8 1.46 1.46
-4 1 8 1.05 1.43
-4 1 8 2 1.43
3 -1 -8 22.24 2.24
3 -1 -8 22.89 2.59
-3 1 8 25.35 2.85
-3 1 8 23.74 1.26
-3 1 8 24.69 1.47
-3 1 8 24.85 2.45
2 -1 -8 0.5 0.98
2 -1 -8 -0.26 1.05
-2 1 8 1.32 1.07
-2 1 8 0.52 0.46
-2 1 8 -0.88 1.14
-2 1 8 0.96 0.71
1 -1 -8 39.54 2.62
1 -1 -8 43.47 2.9
-1 1 8 41.59 2.23
-1 1 8 41.6 2.35
-1 1 8 45.74 3.19
0 -1 -8 79.16 3.6
0 -1 -8 76.91 2.54
0 -1 -8 80.74 3.62
0 1 8 76.3 2.67
0 1 8 74.54 3
0 1 8 72.2 3.6
-1 -1 -8 -0.39 1.03
-1 -1 -8 1.33 1.13
-1 -1 -8 -0.08 0.47
1 1 8 0.12 0.99
1 1 8 0.54 0.61
1 1 8 1.05 1.19
-2 -1 -8 35.7 2.8
-2 -1 -8 41.18 2.73
2 1 8 39.78 2.65
2 1 8 33.99 2.73
-3 -1 -8 6.49 1.62
-3 -1 -8 5.55 1.53
3 1 8 4.13 1.48
3 1 8 4.28 1.46
-4 -1 -8 60.17 3.83
-4 -1 -8 60.89 3.22
4 1 8 59.31 3.51
4 1 8 55.42 3.37
-5 -1 -8 6.92 1.7
-5 -1 -8 6.27 1.96
5 1 8 4 1.6
5 1 8 4.93 1.75
-6 -1 -8 1.04 1.46
-6 -1 -8 2.38 1.44
6 1 8 1.06 1.55
6 1 8 -0.03 1.41
-7 -1 -8 54.39 4.27
-7 -1 -8 56.6 3.52
7 1 8 59.91 4.24
7 1 8 57.38 3.78
-8 -1 -8 9.69 2.11
-8 -1 -8 7.39 2.39
8 1 8 9.72 2.18
8 1 8 9.33 2.51
-9 -1 -8 -1.33 1.8
-9 -1 -8 2.82 1.75
9 1 8 -0.58 1.32
9 1 8 1.92 2.03
-10 -1 -8 1.82 1.71
-10 -1 -8 1.55 2.08
10 1 8 3.27 1.71
10 1 8 1.71 2.07
9 -2 -8 2.44 2.13
-9 2 8 -1.77 1.65
-9 2 8 0.74 1.79
8 -2 -8 1.78 1.93
-8 2 8 2.85 2.04
-8 2 8 -1.77 1.83
7 -2 -8 5.88 2.27
-7 2 8 6.39 2.3
-7 2 8 5.89 2.24
6 -2 -8 1.74 1.73
6 -2 -8 -0.18 1.03
-6 2 8 2.69 1.92
-6 2 8 -0.76 1.42
5 -2 -8 19.15 2.92
5 -2 -8 19.09 2.04
-5 2 8 15.96 2.76
-5 2 8 19.4 3.09
4 -2 -8 0.51 0.91
4 -2 -8 -1.28 1.24
-4 2 8 -0.14 1.4
-4 2 8 -0.46 0.58
-4 2 8 0.65 1.56
3 -2 -8 41.67 2.54
3 -2 -8 37.86 1.82
3 -2 -8 36.23 3.01
-3 2 8 42.66 3.02
-3 2 8 34.44 3.13
-3 2 8 36.79 1.93
2 -2 -8 24.84 2.1
2 -2 -8 20.1 2.36
-2 2 8 18.82 1.71
-2 2 8 23.13 2.61
-2 2 8 23.8 2.27
1 -2 -8 6.21 1.49
1 -2 -8 4.42 1.59
-1 2 8 2.65 1.18
-1 2 8 3.2 1.53
-1 2 8 3.72 1.12
0 -2 -8 37.09 2.57
0 -2 -8 37.53 2.76
0 -2 -8 38.65 1.9
0 2 8 40.89 3.04
0 2 8 40.37 2.13
0 2 8 36.63 2.38
-1 -2 -8 3.78 1.38
-1 -2 -8 4.09 1.36
-1 -2 -8 3.22 0.68
-1 -2 -8 4.36 0.82
1 2 8 4.81 1.34
1 2 8 5.27 1.57
-2 -2 -8 87.46 3.89
-2 -2 -8 92.03 4.09
2 2 8 87.83 3.68
2 2 8 90.32 4.01
-3 -2 -8 9.28 1.98
-3 -2 -8 5.25 1.57
3 2 8 7.56 1.68
3 2 8 6.5 1.7
-4 -2 -8 -0.39 1.11
-4 -2 -8 0.89 1.16
4 2 8 0.85 1.23
4 2 8 -0.19 1.26
-5 -2 -8 94.92 4.79
-5 -2 -8 90.73 4.1
5 2 8 95.66 4.37
5 2 8 97.48 4.24
-6 -2 -8 8.6 2.04
-6 -2 -8 4.41 1.94
6 2 8 6.37 1.91
6 2 8 4.94 1.61
-7 -2 -8 0.61 1.41
-7 -2 -8 1.39 1.63
7 2 8 0.14 1.61
7 2 8 1.21 1.33
-8 -2 -8 -0.13 1.6
-8 -2 -8 6.08 2.04
8 2 8 3.22 1.61
8 2 8 1.97 1.95
-9 -2 -8 -2.05 1.34
-9 -2 -8 2.23 2.11
9 2 8 1.59 1.98
9 2 8 2.61 1.5
-10 -2 -8 23.95 3.3
-10 -2 -8 30.99 3.97
10 2 8 34.42 3.08
10 2 8 26.82 3.91
8 -3 -8 9.74 2.91
8 -3 -8 6.57 2.41
-8 3 8 0.87 2.1
7 -3 -8 10.81 2.88
-7 3 8 8.38 2.65
6 -3 -8 0.58 1.8
-6 3 8 -0.02 1.7
5 -3 -8 13.53 2.65
5 -3 -8 15.77 1.72
-5 3 8 16.5 2.95
4 -3 -8 6.38 1.3
4 -3 -8 9.16 2.09
-4 3 8 8.34 1.29
-4 3 8 6.82 2.25
-4 3 8 9.3 2.17
3 -3 -8 2 1.01
3 -3 -8 -0.49 1.3
-3 3 8 -0.1 1.43
-3 3 8 1.29 0.88
2 -3 -8 3.73 1.66
2 -3 -8 4.75 1.29
-2 3 8 3.32 1.65
-2 3 8 4.32 1.23
1 -3 -8 3.73 1.17
1 -3 -8 3.17 1.57
1 -3 -8 4.25 1.23
-1 3 8 3.1 1.52
-1 3 8 2.8 1.25
0 -3 -8 41.41 3.03
0 -3 -8 47.71 2.83
0 -3 -8 41 2.2
0 3 8 39.73 3.11
0 3 8 42.18 2.67
-1 -3 -8 6.11 0.96
-1 -3 -8 7.22 1.58
-1 -3 -8 7.61 1.82
-1 -3 -8 7.46 1.09
1 3 8 7.79 1.65
1 3 8 8.61 1.91
-2 -3 -8 0.68 0.44
-2 -3 -8 0.74 0.4
-2 -3 -8 1.04 1.13
-2 -3 -8 0.41 1.27
2 3 8 -1.14 1.1
2 3 8 -1.16 1.02
-3 -3 -8 112.52 4.63
-3 -3 -8 117.93 4.76
3 3 8 119.36 4.47
3 3 8 114.87 4.44
-4 -3 -8 6.61 1.78
-4 -3 -8 8.5 1.95
4 3 8 5.24 1.57
4 3 8 4.18 1.48
-5 -3 -8 11.65 2.22
-5 -3 -8 12.21 2.39
5 3 8 9.26 1.99
5 3 8 10.1 2.01
-6 -3 -8 21.67 2.99
-6 -3 -8 18.08 2.69
6 3 8 15.36 2.48
6 3 8 16.01 2.31
-7 -3 -8 2.79 1.89
-7 -3 -8 4.58 1.89
7 3 8 5.7 1.96
7 3 8 4.92 1.56
-8 -3 -8 16.6 2.86
-8 -3 -8 12.61 2.77
8 3 8 17.37 2.36
8 3 8 15.51 2.81
-9 -3 -8 -2.04 1.6
-9 -3 -8 2.31 1.97
9 3 8 2.13 1.23
9 3 8 3.91 2.2
-10 -3 -8 2.64 1.83
-10 -3 -8 1.91 2.13
10 3 8 4.52 2.34
8 -4 -8 -0.09 1.82
8 -4 -8 1.02 2.15
-8 4 8 -1 1.73
7 -4 -8 10.98 2.82
7 -4 -8 7.3 2.43
-7 4 8 5.6 2.52
6 -4 -8 0.66 1.71
6 -4 -8 -1.72 1.58
-6 4 8 -1.59 1.74
5 -4 -8 1.26 1.69
5 -4 -8 2.25 1.66
-5 4 8 1.7 1.73
4 -4 -8 2.02 1.49
4 -4 -8 5.55 1.93
4 -4 -8 5.6 1.09
-4 4 8 7.87 2.31
-4 4 8 6.93 1.41
3 -4 -8 2.94 1.6
3 -4 -8 2.61 0.98
3 -4 -8 1.36 1.58
-3 4 8 1.55 1.83
-3 4 8 1.76 1.09
2 -4 -8 54.35 2.65
2 -4 -8 53.85 3.18
2 -4 -8 53.43 3.74
-2 4 8 53.96 2.88
-2 4 8 55.84 3.9
1 -4 -8 9.77 1.57
1 -4 -8 6.09 1.87
1 -4 -8 6.58 1.53
-1 4 8 8.35 1.71
-1 4 8 5.12 1.89
0 -4 -8 4.52 1.31
0 -4 -8 6.65 1.84
0 -4 -8 4.91 1.17
0 4 8 3.52 1.59
0 4 8 3.96 1.46
-1 -4 -8 83.44 4.21
-1 -4 -8 82.37 2.72
-1 -4 -8 78.35 2.62
-1 -4 -8 84.91 3.68
1 4 8 89.62 3.77
1 4 8 80.65 4.06
-2 -4 -8 41.19 1.66
-2 -4 -8 36.19 1.5
-2 -4 -8 36.74 2.77
-2 -4 -8 41.84 3.09
2 4 8 36.74 2.98
2 4 8 36.77 2.87
-3 -4 -8 1.67 1.46
-3 -4 -8 7.07 1.81
3 4 8 2.26 1.33
3 4 8 4.51 1.65
-4 -4 -8 17.62 2.57
-4 -4 -8 15.51 2.53
4 4 8 17.27 2.41
4 4 8 17.48 2.25
-5 -4 -8 7.51 2.05
-5 -4 -8 6.1 1.91
5 4 8 8.56 2
5 4 8 6.6 1.75
-6 -4 -8 31.02 3.36
-6 -4 -8 38.9 3.42
6 4 8 31.49 2.67
6 4 8 31.63 3.21
-7 -4 -8 11.45 2.55
-7 -4 -8 11.15 2.62
7 4 8 13.96 2.53
7 4 8 9.67 1.87
-8 -4 -8 19.34 3.16
-8 -4 -8 13.74 2.79
8 4 8 17.05 2.25
8 4 8 18.51 3.05
-9 -4 -8 10.6 2.86
-9 -4 -8 8.74 2.56
9 4 8 11.12 2.85
9 4 8 14.72 1.99
-10 -4 -8 16.2 3.14
-10 -4 -8 26.93 3.77
10 4 8 16.64 3.23
7 -5 -8 3.8 2.03
7 -5 -8 1.56 2.01
-7 5 8 -2.65 1.52
6 -5 -8 -0.82 1.74
6 -5 -8 2.08 1.98
-6 5 8 -2.84 1.5
5 -5 -8 6.52 2.37
5 -5 -8 3.63 1.95
-5 5 8 4.67 2.23
4 -5 -8 1.31 1.55
4 -5 -8 -0.94 1.54
-4 5 8 3.87 1.91
-4 5 8 -0.61 0.95
3 -5 -8 4.39 1.77
3 -5 -8 3.96 0.9
3 -5 -8 7.36 2.19
-3 5 8 2.89 1.35
-3 5 8 5.52 2.07
2 -5 -8 8.15 1.33
2 -5 -8 10.1 2.01
2 -5 -8 10.18 2.3
-2 5 8 9.83 2.38
-2 5 8 7.18 1.74
1 -5 -8 15.94 2.08
1 -5 -8 18.07 1.75
1 -5 -8 15.85 2.68
-1 5 8 14.27 2.2
-1 5 8 17.98 2.83
0 -5 -8 6.87 1.92
0 -5 -8 8.55 1.51
0 -5 -8 7.07 1.43
0 5 8 7.24 1.76
0 5 8 7.51 2
-1 -5 -8 13.68 1.95
-1 -5 -8 17.63 2.46
-1 -5 -8 17.33 1.68
1 5 8 14.87 2.34
1 5 8 12.5 2.25
-2 -5 -8 5.27 1.59
-2 -5 -8 6.14 1.07
-2 -5 -8 6.16 0.85
-2 -5 -8 6.86 1.9
2 5 8 4.7 1.68
2 5 8 6.55 1.87
-3 -5 -8 5.22 0.84
-3 -5 -8 6.09 1.73
-3 -5 -8 6.74 2.05
-3 -5 -8 5.63 0.69
3 5 8 4.47 1.77
3 5 8 6.89 1.81
-4 -5 -8 3.62 1.64
-4 -5 -8 3.73 1.8
4 5 8 6.79 1.71
4 5 8 6.87 2.03
-5 -5 -8 11.49 2.5
-5 -5 -8 12.43 2.26
5 5 8 12.53 1.98
5 5 8 14.01 2.48
-6 -5 -8 7.89 2.17
-6 -5 -8 7.88 2.19
6 5 8 6.96 2.18
6 5 8 9.1 1.85
-7 -5 -8 -1.09 1.77
-7 -5 -8 0.45 1.54
7 5 8 -0.26 1.06
7 5 8 -1.73 1.31
-8 -5 -8 21.72 3.64
-8 -5 -8 13.36 2.92
8 5 8 18.13 3.1
8 5 8 17.93 2.15
-9 -5 -8 19.33 3.67
-9 -5 -8 17.77 3.44
9 5 8 24.17 3.75
-10 -5 -8 -0.19 2.13
-10 -5 -8 8.97 2.71
10 5 8 3.03 2.39
7 -6 -8 5.54 2.54
7 -6 -8 5.57 2.22
-7 6 8 8.83 2.58
6 -6 -8 4.55 2.13
6 -6 -8 5.51 2.41
-6 6 8 1.91 2.13
5 -6 -8 -2.55 1.4
5 -6 -8 0.49 2.02
-5 6 8 1.03 1.98
4 -6 -8 2.12 1.91
4 -6 -8 1.11 1.94
-4 6 8 3.4 1.3
-4 6 8 2.51 2.02
3 -6 -8 5.85 1.9
3 -6 -8 5.92 2.11
-3 6 8 6.65 2.24
-3 6 8 4.43 1.63
2 -6 -8 8.35 2.05
2 -6 -8 13.11 2.68
-2 6 8 14.32 2.87
-2 6 8 6.73 1.82
1 -6 -8 1.53 0.88
1 -6 -8 0.04 1.46
1 -6 -8 1.29 1.27
-1 6 8 2.98 1.72
-1 6 8 0.79 1.38
0 -6 -8 12.06 1.9
0 -6 -8 10.68 2.39
0 -6 -8 10.17 1.61
0 6 8 14.95 2.56
0 6 8 14.71 2.41
-1 -6 -8 2.62 1.1
-1 -6 -8 2.4 1.03
-1 -6 -8 2.82 1.57
1 6 8 2.13 1.49
1 6 8 0.93 1.4
-2 -6 -8 0.31 0.77
-2 -6 -8 3.52 1.74
-2 -6 -8 1.64 1.18
2 6 8 -0.12 1.35
2 6 8 0.03 1.46
-3 -6 -8 47.07 2.11
-3 -6 -8 54.01 3.87
-3 -6 -8 51.73 3.31
3 6 8 49.18 3.73
3 6 8 49.56 3.28
-4 -6 -8 8.85 1
-4 -6 -8 8.85 2.27
-4 -6 -8 8.99 2.05
4 6 8 8.82 1.8
4 6 8 7.11 2.13
-5 -6 -8 7.04 2.33
-5 -6 -8 9.97 2.22
5 6 8 11.49 1.99
5 6 8 9.83 2.47
-6 -6 -8 30.15 3.38
-6 -6 -8 29.26 3.56
6 6 8 29.3 2.54
6 6 8 27.25 3.51
-7 -6 -8 3.27 2.1
-7 -6 -8 4.43 2.16
7 6 8 3.19 2.07
7 6 8 4.25 1.43
-8 -6 -8 10.56 2.73
-8 -6 -8 8.17 2.64
8 6 8 16.61 3.06
-9 -6 -8 -0.13 1.8
-9 -6 -8 -2.39 1.68
9 6 8 2.49 2.12
-10 -6 -8 2.19 2.18
10 6 8 -2 2.07
6 -7 -8 7.35 2.41
6 -7 -8 11.01 3.04
-6 7 8 11.33 2.88
5 -7 -8 0.79 1.75
5 -7 -8 0.7 1.97
-5 7 8 5.04 2.42
4 -7 -8 3.82 1.95
4 -7 -8 10.44 2.74
-4 7 8 7.8 1.93
-4 7 8 1.02 2.09
3 -7 -8 2.49 1.68
3 -7 -8 -0.22 1.71
-3 7 8 -0.3 1.38
-3 7 8 1.82 1.86
2 -7 -8 6.38 2.4
2 -7 -8 6.97 1.88
-2 7 8 6.17 2.11
-2 7 8 8.67 2.09
1 -7 -8 -0.69 1.32
1 -7 -8 0.62 1.26
-1 7 8 3.32 1.86
-1 7 8 -0.41 1.5
0 -7 -8 0.77 0.87
0 -7 -8 -0.05 1.13
0 -7 -8 -1.06 1.26
0 7 8 -1.37 1.44
0 7 8 -0.84 1.42
-1 -7 -8 46.83 2.71
-1 -7 -8 47.7 2.8
-1 -7 -8 40.15 3.59
1 7 8 38.85 3.38
1 7 8 44.23 3.52
-2 -7 -8 1.43 1.51
-2 -7 -8 1.2 0.99
-2 -7 -8 1.68 1.22
2 7 8 0.74 1.42
2 7 8 2.14 1.71
-3 -7 -8 0.22 1.09
-3 -7 -8 2.86 1.7
-3 -7 -8 -0.47 0.71
3 7 8 0.27 1.71
3 7 8 0.93 1.29
-4 -7 -8 14.69 2.72
-4 -7 -8 14.58 1.35
-4 -7 -8 10.27 2.12
4 7 8 14.75 2.33
4 7 8 12.78 2.55
-5 -7 -8 0.88 1.72
-5 -7 -8 3.26 1.78
5 7 8 2.3 1.78
5 7 8 0.96 1.22
-6 -7 -8 28.98 3.55
-6 -7 -8 25.06 3.13
6 7 8 23.3 3.61
6 7 8 23.4 2.38
-7 -7 -8 -0.35 1.69
-7 -7 -8 2.29 1.88
7 7 8 2.19 2.09
-8 -7 -8 -0.27 1.89
8 7 8 0.38 2.08
-9 -7 -8 27.77 3.92
9 7 8 34.62 4.18
9 7 8 23.66 3.9
-10 -7 -8 -3.6 1.85
10 7 8 0.34 2.38
10 7 8 1.19 2.13
5 -8 -8 5.19 2.23
5 -8 -8 8.12 2.68
-5 8 8 3.77 1.94
4 -8 -8 2.56 1.96
4 -8 -8 5.76 2.25
-4 8 8 3.28 2.03
-4 8 8 2.14 1.67
3 -8 -8 5.01 2.07
3 -8 -8 4.19 2.3
-3 8 8 6.69 2.19
-3 8 8 1.7 1.77
2 -8 -8 5.91 2.12
2 -8 -8 3.25 1.83
-2 8 8 5.61 2.51
-2 8 8 5.48 2.04
1 -8 -8 43.11 3.36
1 -8 -8 43.75 3.87
-1 8 8 42.1 3.68
-1 8 8 44.91 3.94
0 -8 -8 0.57 1.23
0 -8 -8 0.19 1.55
0 8 8 0.54 1.52
0 8 8 1.21 1.68
-1 -8 -8 2.14 1.33
-1 -8 -8 4.94 2.03
1 8 8 3.99 1.7
1 8 8 1.58 1.81
-2 -8 -8 17.12 2.16
-2 -8 -8 20.66 3.09
-2 -8 -8 21.36 2.18
2 8 8 22.75 2.91
2 8 8 26.36 3.17
-3 -8 -8 1.16 1.73
-3 -8 -8 1.14 1.25
-3 -8 -8 0.21 0.95
3 8 8 4.13 1.99
3 8 8 0.65 1.43
-4 -8 -8 21.38 1.89
-4 -8 -8 19.85 2.72
-4 -8 -8 22.28 3.42
4 8 8 20.39 2.47
4 8 8 22.39 3.24
-5 -8 -8 4.65 1.92
-5 -8 -8 4.45 2.24
5 8 8 4.74 2.21
5 8 8 1.7 1.33
-6 -8 -8 1.06 1.95
6 8 8 0.71 1.95
-7 -8 -8 37.39 4.19
7 8 8 36.19 4.03
-8 -8 -8 3.61 2.27
8 8 8 -0.83 2.1
8 8 8 6.87 2.57
-9 -8 -8 0.96 1.99
9 8 8 1.77 2.07
9 8 8 2.82 2.39
4 -9 -8 1.64 2.06
4 -9 -8 2.17 2.03
-4 9 8 5.2 1.91
-4 9 8 4.06 2.18
3 -9 -8 22.38 3.28
3 -9 -8 21.65 3.39
-3 9 8 21.22 3.55
-3 9 8 22.84 3.1
2 -9 -8 7.93 2.46
2 -9 -8 3.9 1.9
-2 9 8 4.48 1.97
-2 9 8 1.57 1.89
1 -9 -8 -1.35 1.33
1 -9 -8 -0.01 1.62
-1 9 8 -0.3 1.57
-1 9 8 0.58 1.8
0 -9 -8 17.88 3.24
0 -9 -8 18.36 2.7
0 9 8 21.56 3.29
0 9 8 23.69 3.4
-1 -9 -8 21.18 3.36
-1 -9 -8 18.8 2.5
1 9 8 23.75 3.08
1 9 8 14.39 2.82
-2 -9 -8 17.72 3.08
-2 -9 -8 17.11 2.2
2 9 8 21.03 2.77
2 9 8 24.78 2.26
2 9 8 16.33 2.92
-3 -9 -8 -1.11 1.55
-3 -9 -8 0.73 1.14
3 9 8 3.91 2.06
3 9 8 1.49 1.33
3 9 8 2.75 1.54
-4 -9 -8 1.37 1.86
4 9 8 1.64 1.37
4 9 8 3.41 1.99
4 9 8 5.62 1.95
-5 -9 -8 18.05 3.28
5 9 8 22.87 2.74
5 9 8 19.45 3.05
5 9 8 24.84 3.73
-6 -9 -8 1.31 2.03
6 9 8 -1.54 1.64
6 9 8 -2.43 1.97
-7 -9 -8 1.41 2.11
7 9 8 1.67 1.86
7 9 8 4.16 2.43
-8 -9 -8 0.2 1.99
8 9 8 -0.81 1.93
8 9 8 -0.41 2
-9 -9 -8 2.7 2.4
9 9 8 -2.45 1.84
9 9 8 1.2 2.14
3 -10 -8 -0.95 1.54
3 -10 -8 1.03 1.74
-3 10 8 4.05 1.93
-3 10 8 0.16 2.01
2 -10 -8 14.58 3.05
2 -10 -8 8.64 2.43
-2 10 8 13.95 2.85
-2 10 8 16.09 3.14
1 -10 -8 13.82 3.07
1 -10 -8 10.33 2.5
-1 10 8 15.52 2.98
-1 10 8 12.65 2.66
0 -10 -8 20.39 3.39
0 -10 -8 18.94 2.75
0 10 8 26.26 3.3
0 10 8 20.26 3.32
-1 -10 -8 1.05 1.68
-1 -10 -8 1.18 1.48
1 10 8 0.29 1.81
1 10 8 3.8 1.78
-2 -10 -8 6.01 1.69
-2 -10 -8 5.34 2.43
2 10 8 7.79 2.36
2 10 8 8.8 2.15
-3 -10 -8 21.39 3.76
-3 -10 -8 12.15 2.24
3 10 8 20.42 2.66
3 10 8 12.18 2.93
-4 -10 -8 4.34 2.19
4 10 8 0.81 1.43
4 10 8 3.26 1.42
4 10 8 4.68 2.33
-5 -10 -8 10.59 2.97
5 10 8 4.68 1.99
5 10 8 7.16 2.51
-6 -10 -8 10.38 3.33
6 10 8 11.53 2.73
6 10 8 8.61 2.65
-7 -10 -8 4.61 2.48
7 10 8 0.47 2.29
7 10 8 1.79 2.06
-8 -10 -8 7.3 2.82
8 10 8 3.04 2.57
8 10 8 2.65 2.56
1 -11 -8 4.83 2.26
1 -11 -8 6.44 2.22
-1 11 8 3.48 2.01
-1 11 8 0.77 2
0 -11 -8 14.74 2.81
0 -11 -8 17.52 3.39
0 11 8 19.65 2.81
0 11 8 17.05 3.14
-1 -11 -8 8.67 2.51
-1 -11 -8 4.32 1.75
1 11 8 11.14 2.38
1 11 8 11.63 2.81
-2 -11 -8 2.83 2.08
-2 -11 -8 3.94 1.47
2 11 8 4.41 1.49
2 11 8 1.63 2
-3 -11 -8 -2.17 1.59
3 11 8 1.91 1.86
-4 -11 -8 10.05 2.82
4 11 8 3.91 2.52
-5 -11 -8 -2.04 1.72
5 11 8 -0.27 2.05
5 11 8 0.02 1.46
-6 -11 -8 5.23 2.49
6 11 8 9.76 3.12
6 11 8 -0.21 1.65
-2 -12 -8 3.27 2.32
2 12 8 3.01 2.45
-3 -12 -8 0.86 2.2
3 12 8 2.72 2.11
4 12 8 0.74 2.02
3 11 -9 3.34 1.18
3 11 -9 -1.75 1.58
-3 -11 9 3.38 2.18
-3 -11 9 0.38 1.13
2 11 -9 2.34 1.16
2 11 -9 0.26 1.72
-2 -11 9 0.98 1.59
-2 -11 9 1.09 1.36
1 11 -9 20.17 2.81
1 11 -9 11.71 2.85
-1 -11 9 17.98 3.31
-1 -11 9 9.44 2.52
0 11 -9 4.97 1.95
0 11 -9 4.21 1.77
0 -11 9 4.88 2.08
0 -11 9 5.01 1.92
5 10 -9 -1.7 1.85
-5 -10 9 2.03 1.79
4 10 -9 3.22 2.4
-4 -10 9 2.77 2.01
-4 -10 9 1.56 1.48
3 10 -9 28.64 3.78
3 10 -9 30.78 2.71
-3 -10 9 25.84 3.21
-3 -10 9 22.67 3.49
2 10 -9 -0.96 1.5
2 10 -9 2.38 1.33
-2 -10 9 0.56 1.6
-2 -10 9 0.86 1.64
1 10 -9 3.55 1.6
1 10 -9 1.62 1.71
-1 -10 9 3.66 1.9
-1 -10 9 5.35 2.08
0 10 -9 28.34 3.41
0 10 -9 21.71 3.4
0 -10 9 20.3 3.27
0 -10 9 24.14 3.17
-1 10 -9 2.25 1.64
-1 10 -9 6.28 2.32
1 -10 9 1.62 1.79
1 -10 9 4 1.88
-2 10 -9 6.02 2.29
-2 10 -9 4.14 2.17
2 -10 9 1.03 1.91
2 -10 9 6.42 1.93
7 9 -9 2.66 1.93
7 9 -9 8.01 2.8
-7 -9 9 2.68 2.03
6 9 -9 1.34 2.08
6 9 -9 4.31 1.7
-6 -9 9 2.1 2.06
5 9 -9 22.97 3.8
5 9 -9 14.37 2.36
-5 -9 9 14.56 2.52
-5 -9 9 16.96 2.99
4 9 -9 2.97 2.01
-4 -9 9 3.27 1.55
-4 -9 9 0.86 1.63
3 9 -9 -0.75 1.04
3 9 -9 3.09 1.89
-3 -9 9 0.02 1.61
-3 -9 9 -1.36 1.33
2 9 -9 17.91 3.17
2 9 -9 16.06 2.49
-2 -9 9 16.87 2.82
-2 -9 9 17.91 3.02
1 9 -9 14.04 2.5
1 9 -9 15.3 2.93
-1 -9 9 15.71 2.86
-1 -9 9 6.74 2.13
0 9 -9 14.49 2.74
0 9 -9 15.57 2.99
0 -9 9 14.82 2.69
0 -9 9 16.41 2.97
-1 9 -9 3.11 1.94
-1 9 -9 4.11 2
1 -9 9 0.03 1.53
1 -9 9 2.7 1.59
-2 9 -9 2.31 1.71
-2 9 -9 2.07 1.92
2 -9 9 4.82 1.76
2 -9 9 3.32 2
-3 9 -9 21.31 3.36
-3 9 -9 12.92 3.02
3 -9 9 18.91 2.59
3 -9 9 15.75 3.26
-4 9 -9 10.96 2.77
-4 9 -9 6.69 2.22
4 -9 9 6.89 1.96
4 -9 9 7.08 2.42
7 8 -9 17.4 3.54
7 8 -9 21.08 3.12
-7 -8 9 15.48 3.39
6 8 -9 -0.87 1.72
6 8 -9 -0.09 1.35
-6 -8 9 3.56 2.03
-6 -8 9 0.09 1.59
5 8 -9 -0.3 1.03
5 8 -9 2.99 2.08
-5 -8 9 1.8 1.48
-5 -8 9 -1.39 1.41
4 8 -9 3.59 1.37
4 8 -9 4.39 2.19
-4 -8 9 5.81 1.86
-4 -8 9 7.01 2.17
3 8 -9 23.84 2.31
3 8 -9 25.04 3.46
-3 -8 9 20.58 2.96
-3 -8 9 28.68 3.16
2 8 -9 14.85 2.94
2 8 -9 10.81 2.02
-2 -8 9 9.75 2.23
-2 -8 9 9.6 2.2
1 8 -9 -1.69 1
1 8 -9 -0.69 1.42
-1 -8 9 -0.57 1.3
-1 -8 9 3.22 1.65
0 8 -9 12.75 2.42
0 8 -9 11.57 2.7
0 -8 9 13.33 2.48
0 -8 9 14.5 2.83
-1 8 -9 12.78 2.53
-1 8 -9 12.01 2.6
1 -8 9 12.66 2.65
1 -8 9 11.56 2.34
-2 8 -9 42.85 3.76
-2 8 -9 48.95 4.38
2 -8 9 44.01 3.29
2 -8 9 40.95 4.02
-3 8 -9 0.81 1.86
-3 8 -9 2.07 1.75
3 -8 9 0.49 1.89
3 -8 9 1.47 1.32
-4 8 -9 8.45 2.55
-4 8 -9 16.11 3.11
4 -8 9 7.1 1.97
4 -8 9 9.02 2.69
-5 8 -9 21.21 3.65
-5 8 -9 14.8 3.08
5 -8 9 21.44 3.86
5 -8 9 26.2 2.66
8 7 -9 -2.73 1.5
8 7 -9 3.63 2.24
-8 -7 9 0.17 1.79
7 7 -9 0.69 1.63
7 7 -9 -0.14 1.89
-7 -7 9 1.26 2.11
-7 -7 9 0.97 1.46
6 7 -9 2.94 1.81
6 7 -9 -0.35 1.8
-6 -7 9 1.39 1.48
-6 -7 9 -0.02 1.58
5 7 -9 30.98 2.98
5 7 -9 29.41 3.69
-5 -7 9 30.99 3.26
-5 -7 9 27.69 3.33
4 7 -9 13.27 3
4 7 -9 11.48 2.03
-4 -7 9 9.82 2.41
-4 -7 9 11.17 2.47
3 7 -9 3.83 1.25
3 7 -9 2.04 1.83
3 7 -9 3.03 1.14
-3 -7 9 3.34 1.62
-3 -7 9 2.39 1.68
2 7 -9 2.53 1.12
2 7 -9 3 0.96
2 7 -9 0.3 1.58
-2 -7 9 2.35 1.58
-2 -7 9 3.2 1.66
1 7 -9 5.32 2.04
1 7 -9 3.62 1.27
-1 -7 9 2.22 1.36
-1 -7 9 7.22 2.02
0 7 -9 48.95 4.1
0 7 -9 51.61 3.4
0 -7 9 48.1 3.38
0 -7 9 45.53 3.76
-1 7 -9 0.21 1.36
-1 7 -9 -0.09 1.27
1 -7 9 2.29 1.66
1 -7 9 0.16 1.14
-2 7 -9 1.43 1.83
-2 7 -9 2.46 1.55
2 -7 9 0.53 1.12
2 -7 9 -0.44 1.36
-3 7 -9 32.09 3.74
-3 7 -9 38.26 3.63
3 -7 9 38.23 2.96
3 -7 9 30.09 3.66
-4 7 -9 2.86 1.72
-4 7 -9 -1.2 1.46
4 -7 9 0.03 1.76
4 -7 9 1.65 1.24
-5 7 -9 36.67 4.11
-5 7 -9 35.21 4.15
5 -7 9 32.89 3.99
5 -7 9 33.31 2.77
-6 7 -9 2.1 1.86
-6 7 -9 0.16 1.82
6 -7 9 1.48 1.76
8 6 -9 -4.21 1.27
8 6 -9 4.15 2.08
-8 -6 9 1.47 1.98
7 6 -9 15.25 2.89
7 6 -9 23.24 3.61
-7 -6 9 17.71 2.79
-7 -6 9 17.59 3.35
6 6 -9 0.15 1.42
6 6 -9 -1.4 1.75
-6 -6 9 0.93 1.6
-6 -6 9 -0.34 1.66
5 6 -9 1.26 1.46
5 6 -9 5.69 2.18
-5 -6 9 1.66 1.63
-5 -6 9 5 1.98
4 6 -9 5.71 2.18
4 6 -9 12.43 2.12
-4 -6 9 10.54 2.26
-4 -6 9 7.26 2.07
3 6 -9 2.83 1.08
3 6 -9 1.82 1.16
3 6 -9 2.32 1.67
-3 -6 9 1.63 1.48
-3 -6 9 -0.57 1.3
2 6 -9 77.3 3.21
2 6 -9 75.22 3.39
2 6 -9 84.28 4.76
-2 -6 9 80.46 4.28
-2 -6 9 82.6 4.42
1 6 -9 9.7 1.79
1 6 -9 6.46 1.95
1 6 -9 6.88 1.13
-1 -6 9 7.43 2.1
-1 -6 9 10.14 2.11
0 6 -9 12.68 2.63
0 6 -9 16.07 2.23
0 -6 9 16.22 2.62
0 -6 9 15.47 2.37
-1 6 -9 31.15 2.91
-1 6 -9 30.25 3.25
1 -6 9 34.27 2.75
1 -6 9 30.09 3.28
-2 6 -9 1.47 1.65
-2 6 -9 0.05 1.27
2 -6 9 1.53 1.27
2 -6 9 3.08 1.8
-3 6 -9 45.52 3.98
-3 6 -9 42.57 3.78
3 -6 9 46.63 3.03
3 -6 9 45.38 3.96
-4 6 -9 -1.02 1.45
-4 6 -9 -0.2 1.51
4 -6 9 -1.29 1.62
4 -6 9 0.85 1.08
-5 6 -9 10.49 2.56
-5 6 -9 4.52 2.24
5 -6 9 10.79 1.86
5 -6 9 12.83 2.86
-6 6 -9 48.45 4.44
-6 6 -9 45.25 4.25
6 -6 9 46.81 4.49
-7 6 -9 0.14 1.53
-7 6 -9 -4 1.37
7 -6 9 0.97 1.71
9 5 -9 8.46 2.45
9 5 -9 15.78 3.26
-9 -5 9 10.84 3.07
8 5 -9 -0.3 1.61
8 5 -9 2.01 2.02
-8 -5 9 -2.76 1.5
-8 -5 9 1.81 1.48
7 5 -9 0.11 1.65
7 5 -9 2.73 2.18
-7 -5 9 0.48 1.73
-7 -5 9 4.17 1.94
6 5 -9 4.84 2.21
6 5 -9 0.09 1.54
-6 -5 9 4.59 2.12
-6 -5 9 3.71 1.82
5 5 -9 26.83 3.37
5 5 -9 23.5 2.74
-5 -5 9 25.47 3.1
-5 -5 9 19.94 2.95
4 5 -9 70.44 4.42
4 5 -9 64.3 3.64
-4 -5 9 64.87 4.05
-4 -5 9 72.58 4.21
3 5 -9 8.49 2.26
3 5 -9 6.92 1.58
3 5 -9 6.42 1.13
-3 -5 9 7.4 1.91
-3 -5 9 6.95 1.98
2 5 -9 1.62 0.96
2 5 -9 2.97 1.17
2 5 -9 4.29 1.68
-2 -5 9 0.15 1.29
-2 -5 9 2.27 1.49
1 5 -9 7.36 1.54
1 5 -9 3.58 1.63
1 5 -9 5.59 1.15
-1 -5 9 2.97 1.47
-1 -5 9 6.38 1.94
0 5 -9 14.81 2.55
0 5 -9 15.22 2.04
0 5 -9 16.04 1.47
0 -5 9 13.49 2.15
0 -5 9 20.79 2.73
-1 5 -9 91.58 4.83
-1 5 -9 94.33 2.67
-1 5 -9 98.4 4.39
1 -5 9 99.7 4
1 -5 9 104.1 4.98
-2 5 -9 -0.9 1.32
-2 5 -9 0.92 1.33
2 -5 9 0.71 0.91
2 -5 9 -2.01 1.06
-3 5 -9 6.32 2.13
-3 5 -9 8.31 2.08
3 -5 9 7.07 1.47
3 -5 9 3.71 1.85
-4 5 -9 119.86 6.04
-4 5 -9 111.84 5.37
4 -5 9 117.02 4.13
4 -5 9 117.6 5.68
-5 5 -9 0.11 1.71
-5 5 -9 2.09 1.66
5 -5 9 3.57 1.3
5 -5 9 -1.39 1.51
-6 5 -9 2.07 1.82
-6 5 -9 1.9 1.84
6 -5 9 1.91 1.83
-7 5 -9 -2.4 1.61
-7 5 -9 2.71 1.98
7 -5 9 3.99 2.13
9 4 -9 0.79 1.97
9 4 -9 3.03 2.09
-9 -4 9 0.89 1.28
-9 -4 9 0.82 1.92
8 4 -9 -0.75 1.55
8 4 -9 -0.31 1.6
-8 -4 9 -0.34 1.87
-8 -4 9 1.35 1.71
7 4 -9 33.87 3.6
7 4 -9 31.57 3.64
-7 -4 9 26.48 3.5
-7 -4 9 29.13 3.3
6 4 -9 24.17 3.27
6 4 -9 24.87 3.12
-6 -4 9 28.12 3.3
-6 -4 9 22.83 3.38
5 4 -9 13.46 2.6
5 4 -9 10.48 2.31
-5 -4 9 9.75 2.25
-5 -4 9 11.37 2.5
4 4 -9 3.39 1.44
4 4 -9 2.55 1.79
-4 -4 9 1.95 1.62
-4 -4 9 2.38 1.54
3 4 -9 5.87 1.92
3 4 -9 5.99 1.61
-3 -4 9 5.7 1.82
-3 -4 9 6.48 1.72
-3 -4 9 5.79 1.02
2 4 -9 73 3.4
2 4 -9 74.05 4.21
-2 -4 9 84.05 3.95
-2 -4 9 71.89 4.13
1 4 -9 56.69 3.81
1 4 -9 54.35 2.66
1 4 -9 51.83 2.72
-1 -4 9 52.61 3.06
-1 -4 9 48.68 3.5
0 4 -9 0.74 1.28
0 4 -9 1.82 0.95
0 4 -9 0.31 0.99
0 -4 9 0.84 1.38
0 -4 9 2.05 1.22
-1 4 -9 64.22 2.53
-1 4 -9 68.57 3.53
-1 4 -9 68.62 4.1
1 -4 9 69.42 3.15
1 -4 9 70.72 4.11
-2 4 -9 87.62 2.56
-2 4 -9 85.46 4.67
-2 4 -9 86.19 4.15
2 -4 9 74.91 4.33
2 -4 9 88.61 3.36
-3 4 -9 16.98 2.51
-3 4 -9 16.17 2.7
3 -4 9 25.22 2.9
3 -4 9 25.71 2
-4 4 -9 4.85 2.06
-4 4 -9 5.4 1.79
4 -4 9 6.94 2.23
4 -4 9 4.87 1.21
-5 4 -9 0.72 1.42
-5 4 -9 0.36 1.57
5 -4 9 0.11 1.66
5 -4 9 -0.88 0.76
-6 4 -9 10.87 2.45
-6 4 -9 10.27 2.7
6 -4 9 10.17 2.6
-7 4 -9 36.96 3.96
-7 4 -9 29.92 3.83
7 -4 9 35.14 3.89
-8 4 -9 -0.63 1.39
8 -4 9 1.57 1.71
9 3 -9 8.37 2.34
9 3 -9 12.37 2.96
-9 -3 9 7.63 2.82
-9 -3 9 8.84 2.29
8 3 -9 10.77 2.59
8 3 -9 12.21 2.75
-8 -3 9 12.9 2.84
-8 -3 9 6.41 2.36
7 3 -9 13.94 2.8
7 3 -9 8.56 2.45
-7 -3 9 15.55 3.01
-7 -3 9 14.83 3
6 3 -9 0.6 1.5
6 3 -9 1.67 1.83
-6 -3 9 2.02 1.69
-6 -3 9 3.16 1.91
5 3 -9 -1.79 1.32
5 3 -9 -0.32 1.34
-5 -3 9 1.2 1.62
-5 -3 9 2.45 1.76
4 3 -9 71.75 3.94
4 3 -9 75.83 4.4
-4 -3 9 67.13 3.99
-4 -3 9 71.84 4.34
3 3 -9 23.75 2.47
3 3 -9 30.22 3.09
-3 -3 9 26.58 1.49
-3 -3 9 26.9 2.92
-3 -3 9 24.46 2.6
2 3 -9 -0.72 1.18
2 3 -9 2.52 1.29
-2 -3 9 0.92 1.19
-2 -3 9 0.02 0.86
-2 -3 9 3.08 1.55
1 3 -9 21.11 2.53
1 3 -9 25.14 2.15
-1 -3 9 23.63 2.09
-1 -3 9 26.4 2.81
-1 -3 9 26.54 2.34
0 3 -9 131.96 5.27
0 3 -9 137.81 4.18
0 -3 9 140.8 4.24
0 -3 9 141.96 5.44
-1 3 -9 63.05 3.9
-1 3 -9 65.27 2.76
1 -3 9 67.11 2.91
1 -3 9 61.76 3.91
-2 3 -9 11.09 1.39
-2 3 -9 10.34 1.93
-2 3 -9 9.37 2.23
2 -3 9 8.1 1.93
2 -3 9 8.81 1.41
-3 3 -9 5.04 1.81
-3 3 -9 8.11 1.17
-3 3 -9 5.75 1.69
3 -3 9 5.32 1.83
3 -3 9 5.08 1.12
-4 3 -9 60.6 2.3
-4 3 -9 63.56 4.44
-4 3 -9 59.74 3.87
4 -3 9 63.83 2.52
4 -3 9 60.2 4.09
-5 3 -9 17.35 3.09
5 -3 9 19.56 1.55
5 -3 9 13.62 2.65
-6 3 -9 9.65 2.62
6 -3 9 14.54 2.92
-7 3 -9 1.07 1.76
7 -3 9 0.5 1.74
7 -3 9 2.81 2.41
-8 3 -9 6.22 2.36
8 -3 9 6.85 2.45
8 -3 9 11.67 3.13
-9 3 -9 7.2 2.45
9 -3 9 12.98 2.92
9 -3 9 15.46 3.45
9 2 -9 1.2 2
9 2 -9 2.03 1.53
-9 -2 9 1.31 1.59
-9 -2 9 0.59 1.88
8 2 -9 0.77 1.88
8 2 -9 0.99 1.8
-8 -2 9 1.31 1.93
-8 -2 9 -0.47 1.98
7 2 -9 0.33 1.5
7 2 -9 5.96 2.28
-7 -2 9 2.99 1.91
-7 -2 9 0.56 1.87
6 2 -9 101.46 4.99
6 2 -9 90.17 4.99
-6 -2 9 96.18 5.15
-6 -2 9 98.53 5.34
5 2 -9 12.14 2.45
5 2 -9 5.55 1.86
-5 -2 9 6.56 2.14
-5 -2 9 8.74 2.22
4 2 -9 0.05 1.28
4 2 -9 1.18 1.45
-4 -2 9 2.08 1.49
-4 -2 9 -1.62 1.32
3 2 -9 51.24 3.29
3 2 -9 53.51 3.54
-3 -2 9 52.11 3.75
-3 -2 9 49.7 3.31
-3 -2 9 55.04 1.86
2 2 -9 2.49 1.3
2 2 -9 1.48 1.24
-2 -2 9 0.47 0.75
-2 -2 9 1.7 0.58
-2 -2 9 1.73 1.19
-2 -2 9 -0.02 1.25
1 2 -9 25.06 2.73
1 2 -9 22.47 2.15
-1 -2 9 26.61 2.23
-1 -2 9 23.64 1.95
-1 -2 9 27.98 2.79
0 2 -9 4.64 1.57
0 2 -9 6.17 1.44
0 -2 9 4.16 1.24
0 -2 9 5.39 1.49
0 -2 9 4.84 1.6
-1 2 -9 0.1 0.89
-1 2 -9 -0.11 1.06
1 -2 9 -0.22 0.75
1 -2 9 0.84 1.23
1 -2 9 -0.71 1.03
-2 2 -9 79.79 3.11
-2 2 -9 78.55 4.29
-2 2 -9 69.43 2.48
2 -2 9 78.76 3.92
2 -2 9 78.21 4.18
2 -2 9 84.23 2.7
-3 2 -9 13.18 1.58
-3 2 -9 11.57 2.29
3 -2 9 14.22 2.33
3 -2 9 15.32 2.47
3 -2 9 12.44 1.25
-4 2 -9 33.56 2.09
-4 2 -9 36.21 3.5
4 -2 9 29.53 3.3
4 -2 9 34.82 3.32
4 -2 9 32.4 1.6
-5 2 -9 0.86 0.88
-5 2 -9 -1.27 1.18
5 -2 9 -0.48 1.65
5 -2 9 -0.29 1.31
-6 2 -9 1.31 0.91
-6 2 -9 6.61 2.22
6 -2 9 3.57 2.12
6 -2 9 -1.61 1.41
-7 2 -9 8 2.38
7 -2 9 13.18 2.78
7 -2 9 11.26 2.87
-8 2 -9 3.12 2.04
8 -2 9 -2.42 1.64
8 -2 9 -1.19 1.62
-9 2 -9 0 1.74
9 -2 9 0.79 1.94
9 -2 9 -3.33 1.88
9 1 -9 -0.31 1.99
9 1 -9 4.89 1.83
-9 -1 9 0.72 1.92
-9 -1 9 0.81 1.6
8 1 -9 47.19 3.71
8 1 -9 52.67 4.48
-8 -1 9 51.71 4.45
-8 -1 9 51.17 4.55
7 1 -9 5.48 2.29
7 1 -9 3.61 1.84
-7 -1 9 1.54 1.71
-7 -1 9 5.72 2.38
6 1 -9 -0.04 1.38
6 1 -9 -3.14 1.18
-6 -1 9 -0.29 1.69
-6 -1 9 -1.4 1.59
5 1 -9 23.61 2.83
5 1 -9 20.04 2.74
-5 -1 9 22.52 2.98
-5 -1 9 32.26 3.45
4 1 -9 1.86 1.52
4 1 -9 3.62 1.59
-4 -1 9 2.03 1.48
-4 -1 9 2.59 1.74
3 1 -9 75.23 3.94
3 1 -9 66.13 3.78
-3 -1 9 74.01 3.71
-3 -1 9 73.68 4.26
-3 -1 9 69.3 2.07
2 1 -9 1.19 1.32
2 1 -9 1.24 1.17
-2 -1 9 1.03 0.79
-2 -1 9 0.47 0.47
-2 -1 9 2.58 1.29
-2 -1 9 2.85 1.45
1 1 -9 7.68 1.64
1 1 -9 10.34 2.02
-1 -1 9 7.95 1.31
-1 -1 9 5.87 1.75
-1 -1 9 8.38 1.55
0 1 -9 129.14 5.05
0 1 -9 130.89 4.5
0 -1 9 133.72 5.21
0 -1 9 134.23 3.84
0 -1 9 137.32 4.2
-1 1 -9 -1.27 1.02
-1 1 -9 -0.39 0.44
-1 1 -9 -0.88 0.91
1 -1 9 -0.34 1.07
1 -1 9 -0.73 0.6
1 -1 9 -0.78 1.01
-2 1 -9 48.2 1.81
-2 1 -9 48.57 2.76
-2 1 -9 47.39 3.42
2 -1 9 49.34 1.91
2 -1 9 53.14 3.53
2 -1 9 52.08 3.19
-3 1 -9 10.64 1.73
-3 1 -9 7.92 0.73
-3 1 -9 11.43 2.41
3 -1 9 13.01 2.2
3 -1 9 8.86 0.89
3 -1 9 12.32 2.25
-4 1 -9 9.91 2.22
-4 1 -9 12.09 1.76
4 -1 9 11.1 2.21
4 -1 9 13.6 2.47
-5 1 -9 32.78 3.54
-5 1 -9 34.24 2.44
5 -1 9 31.84 3.47
5 -1 9 37.92 3.33
-6 1 -9 1.44 1.08
-6 1 -9 -1.25 1.33
6 -1 9 3.12 1.73
6 -1 9 0.1 1.8
-7 1 -9 1.09 1.04
-7 1 -9 0.39 1.62
7 -1 9 1.47 1.76
7 -1 9 -3.66 1.66
-8 1 -9 2.01 2.16
8 -1 9 6.8 2.68
8 -1 9 6.42 1.98
-9 1 -9 3.81 2.29
9 -1 9 10.54 2.98
9 -1 9 7.09 2.33
8 0 -9 -0.12 1.18
8 0 -9 1.29 2.17
-8 0 9 1.15 1.71
-8 0 9 0.48 1.67
7 0 -9 12.01 2.7
7 0 -9 19.49 2.67
-7 0 9 10.66 2.81
-7 0 9 19.17 3.22
6 0 -9 9.09 2.49
6 0 -9 8.23 1.92
-6 0 9 7.8 2.29
-6 0 9 7.71 2.41
5 0 -9 26.86 3.05
5 0 -9 26.97 2.79
-5 0 9 26.06 3.05
-5 0 9 30.6 3.5
4 0 -9 -1.74 1.07
4 0 -9 1.65 1.43
-4 0 9 0.22 1.56
-4 0 9 0.42 1.51
3 0 -9 -1.96 1.1
3 0 -9 1.8 1.35
-3 0 9 -0.85 0.56
-3 0 9 1.75 1.58
-3 0 9 3.23 1.5
2 0 -9 37.54 2.89
2 0 -9 35.47 2.92
-2 0 9 37.32 2.62
-2 0 9 37.62 1.79
-2 0 9 38.01 3.34
-2 0 9 36.97 1.99
1 0 -9 6.38 1.67
1 0 -9 3 1.43
-1 0 9 7.96 1.49
-1 0 9 7.79 1.34
-1 0 9 6.65 1.81
0 0 -9 63.58 3.63
0 0 -9 59.91 3.26
0 0 9 59.61 2.81
0 0 9 55.91 3.57
0 0 9 58.69 2.52
-1 0 -9 10.38 2.03
-1 0 -9 8.26 0.97
-1 0 -9 10.64 1.86
1 0 9 10.37 1.2
1 0 9 14.35 2.39
1 0 9 12.25 1.93
-2 0 -9 2.48 0.56
-2 0 -9 0.52 1.14
-2 0 -9 1.42 1.33
2 0 9 2.48 0.61
2 0 9 1.99 1.33
2 0 9 2.3 1.27
-3 0 -9 21.31 2.23
-3 0 -9 24.8 2.86
3 0 9 24.33 2.66
3 0 9 21.09 2.52
-4 0 -9 8.35 1.75
-4 0 -9 5.81 1.92
4 0 9 4.47 1.83
4 0 9 7.76 2
-5 0 -9 4.58 1.45
-5 0 -9 5.44 2
5 0 9 4.49 1.79
5 0 9 5.7 1.82
-6 0 -9 0.62 1.57
-6 0 -9 -0.22 1.14
6 0 9 -0.95 1.4
6 0 9 1.83 1.64
-7 0 -9 15.95 3.04
-7 0 -9 16.81 2.36
7 0 9 23.91 3.03
7 0 9 18.08 3.1
-8 0 -9 9.46 1.95
-8 0 -9 7.86 2.5
8 0 9 2.1 2.23
8 0 9 17.72 2.88
-9 0 -9 -1.65 1.61
9 0 9 1.46 2.06
9 0 9 -0.63 1.42
-10 0 -9 10.18 3.1
10 0 9 8.49 2.84
10 0 9 9.25 2.24
8 -1 -9 4.25 2.26
-8 1 9 6.62 2.32
-8 1 9 3.23 2.34
7 -1 -9 16.33 3.05
7 -1 -9 17.7 2.32
-7 1 9 17.42 3.26
-7 1 9 19.07 3.39
6 -1 -9 10.19 2.65
6 -1 -9 7.58 1.67
-6 1 9 7.17 2.51
-6 1 9 6.71 2.3
5 -1 -9 -2.56 1.23
5 -1 -9 1.39 1.22
-5 1 9 -1.57 1.54
-5 1 9 1.73 1.64
4 -1 -9 20.67 2.34
4 -1 -9 17.96 2.66
-4 1 9 21.56 3.11
-4 1 9 24.1 2.79
3 -1 -9 32.6 2.65
3 -1 -9 29.94 2.82
-3 1 9 28.33 2.62
-3 1 9 30.14 3.24
-3 1 9 27.53 1.64
2 -1 -9 25.81 2.73
2 -1 -9 24.94 2.39
-2 1 9 23.05 1.77
-2 1 9 26.65 2.34
-2 1 9 22.3 2.94
1 -1 -9 -0.09 1.07
1 -1 -9 -1.16 1.11
-1 1 9 2.7 1.43
-1 1 9 -0.27 0.89
-1 1 9 0.11 0.9
0 -1 -9 0.66 1.13
0 -1 -9 1.6 1.3
0 1 9 0.46 1.04
0 1 9 1.33 1.29
0 1 9 0.15 0.77
-1 -1 -9 7.61 1.75
-1 -1 -9 7.63 1.84
-1 -1 -9 7.68 0.95
1 1 9 9.42 1.19
1 1 9 8.74 1.93
1 1 9 7.72 1.61
-2 -1 -9 23.22 2.45
-2 -1 -9 23.28 2.67
2 1 9 19.1 2.59
2 1 9 23.45 2.39
-3 -1 -9 39.46 3.27
-3 -1 -9 38.41 2.96
3 1 9 40.05 2.93
3 1 9 36.54 3.01
-4 -1 -9 1.73 1.29
-4 -1 -9 1.92 1.51
4 1 9 4.01 1.59
4 1 9 1.59 1.43
-5 -1 -9 13.03 2.14
-5 -1 -9 12.35 2.59
5 1 9 12 2.3
5 1 9 12.11 2.28
-6 -1 -9 20.67 3.1
-6 -1 -9 22.46 2.58
6 1 9 18.38 2.87
6 1 9 24.08 2.84
-7 -1 -9 -0.8 1.63
-7 -1 -9 -0.44 1.4
7 1 9 0.08 1.8
7 1 9 2.05 1.67
-8 -1 -9 -1.66 1.22
-8 -1 -9 1.72 1.83
8 1 9 1.09 2.08
8 1 9 1.81 1.5
-9 -1 -9 2.55 1.81
-9 -1 -9 2.87 1.57
9 1 9 1.62 1.39
9 1 9 2.01 2.01
-10 -1 -9 4.86 2.52
10 1 9 0.69 2.25
10 1 9 5.16 1.68
8 -2 -9 10.35 2.8
-8 2 9 13.3 3.13
-8 2 9 15.35 3.37
7 -2 -9 0.54 1.93
-7 2 9 -1.63 1.65
-7 2 9 -1.22 1.78
6 -2 -9 7.95 1.67
6 -2 -9 8.47 2.51
-6 2 9 8.07 2.63
-6 2 9 10.59 2.66
5 -2 -9 37.78 3.73
5 -2 -9 40.92 2.74
-5 2 9 47.12 3.87
-5 2 9 40.9 4.03
4 -2 -9 4.53 1.87
4 -2 -9 6.61 1.59
-4 2 9 2.32 1.85
-4 2 9 3.33 1.79
3 -2 -9 10 1.77
3 -2 -9 6.04 1.99
-3 2 9 9.2 1.95
-3 2 9 6.23 1.13
-3 2 9 6.9 2.11
2 -2 -9 13.63 2.07
2 -2 -9 14.16 2.46
-2 2 9 10.39 1.62
-2 2 9 9.62 1.86
-2 2 9 10.71 2.23
1 -2 -9 3.56 1.57
1 -2 -9 2.82 1.32
-1 2 9 3.03 1.24
-1 2 9 1.18 1.05
-1 2 9 1.23 1.52
0 -2 -9 44.63 3.16
0 -2 -9 42.12 2.97
0 2 9 43.03 2.26
0 2 9 40.94 3.31
0 2 9 39.54 2.65
-1 -2 -9 14.18 2.25
-1 -2 -9 14.42 1.24
-1 -2 -9 13.86 2.24
-1 -2 -9 13.27 1.09
1 2 9 14.07 2.07
1 2 9 14.41 2.37
-2 -2 -9 16.03 2.33
-2 -2 -9 16.29 2.42
2 2 9 13.1 2.24
2 2 9 18.64 2.3
-3 -2 -9 25.34 2.84
-3 -2 -9 26.35 2.71
3 2 9 30.88 2.69
3 2 9 27.2 2.76
-4 -2 -9 9.55 2.02
-4 -2 -9 10.95 2.35
4 2 9 9.32 2.02
4 2 9 9.7 1.93
-5 -2 -9 1.46 1.51
-5 -2 -9 1.57 1.58
5 2 9 -0.34 1.36
5 2 9 0.24 1.37
-6 -2 -9 2.45 1.95
-6 -2 -9 5.32 1.79
6 2 9 1.59 1.45
6 2 9 2.44 1.81
-7 -2 -9 -0.13 1.75
-7 -2 -9 0.51 1.58
7 2 9 2.38 1.81
7 2 9 1.83 1.53
-8 -2 -9 18.9 2.72
-8 -2 -9 16.48 3.15
8 2 9 22.37 2.79
8 2 9 17.98 3.06
-9 -2 -9 7.66 2.19
-9 -2 -9 1.73 2.14
9 2 9 4.92 1.85
9 2 9 5.09 2.42
-10 -2 -9 2.15 2.14
-10 -2 -9 3.71 1.62
10 2 9 5.52 1.83
10 2 9 2.31 2.49
8 -3 -9 -0.25 2.06
8 -3 -9 -1.76 2.04
-8 3 9 -0.4 1.97
7 -3 -9 19.18 3.55
-7 3 9 23.32 3.78
6 -3 -9 0.73 1.65
-6 3 9 2.06 2.12
5 -3 -9 6.36 2.18
-5 3 9 9 2.42
4 -3 -9 0.15 0.83
4 -3 -9 0.3 1.62
-4 3 9 3.19 1.96
3 -3 -9 -0.77 0.85
3 -3 -9 -0.33 1.37
-3 3 9 0.09 0.76
-3 3 9 0.82 1.51
2 -3 -9 36.8 3.27
2 -3 -9 40.21 2.7
-2 3 9 36.83 3.5
-2 3 9 39.45 2.49
1 -3 -9 6.93 1.63
1 -3 -9 5.37 1.71
1 -3 -9 6.08 1.45
-1 3 9 5.88 1.41
-1 3 9 2.96 1.74
0 -3 -9 4.05 1.69
0 -3 -9 5.15 1.51
0 -3 -9 2.02 0.98
0 3 9 1.67 1.19
0 3 9 2.01 1.57
-1 -3 -9 46.43 3.12
-1 -3 -9 44.31 3.33
-1 -3 -9 41.57 1.94
-1 -3 -9 39.61 1.75
1 3 9 44.3 3.01
1 3 9 39.56 3.32
-2 -3 -9 9.72 0.77
-2 -3 -9 12.33 2.33
-2 -3 -9 12.1 2.27
2 3 9 9.76 1.92
2 3 9 10.69 2.1
-3 -3 -9 1.46 1.49
-3 -3 -9 0.69 1.51
3 3 9 1.66 1.39
3 3 9 1.33 1.34
-4 -3 -9 14.05 2.5
-4 -3 -9 8.91 2.12
4 3 9 9.19 2.12
4 3 9 7.94 1.95
-5 -3 -9 0.67 1.47
-5 -3 -9 2.4 1.69
5 3 9 5.68 1.83
5 3 9 2.27 1.57
-6 -3 -9 13.68 2.61
-6 -3 -9 16.72 2.71
6 3 9 13.58 2.29
6 3 9 15.51 2.63
-7 -3 -9 7.97 2.25
-7 -3 -9 5.1 2.19
7 3 9 5.53 1.75
7 3 9 6.11 2.19
-8 -3 -9 6.39 2.25
-8 -3 -9 6.72 2.33
8 3 9 6.52 1.72
8 3 9 10.24 2.57
-9 -3 -9 -0.58 1.73
-9 -3 -9 5.77 2.31
9 3 9 3.2 1.57
9 3 9 0.43 1.87
-10 -3 -9 -0.46 1.83
-10 -3 -9 3.25 1.65
10 3 9 -0.53 1.9
7 -4 -9 8.79 2.58
7 -4 -9 9.26 2.73
-7 4 9 6.13 2.53
6 -4 -9 3.13 2.02
6 -4 -9 0.72 1.76
-6 4 9 6.47 2.55
5 -4 -9 3.96 1.85
5 -4 -9 3.1 2.06
-5 4 9 0.1 1.74
4 -4 -9 58.01 4.04
4 -4 -9 66.63 4.47
-4 4 9 63.4 4.68
3 -4 -9 1.59 0.96
3 -4 -9 3.25 1.94
3 -4 -9 0.47 1.39
-3 4 9 0.94 1.07
-3 4 9 1.13 1.72
2 -4 -9 0.92 1.58
2 -4 -9 -0.19 0.86
2 -4 -9 -0.13 1.08
-2 4 9 -1.28 1.32
-2 4 9 -0.97 0.95
1 -4 -9 8.71 1.73
1 -4 -9 10.9 2.33
1 -4 -9 8.81 1.7
-1 4 9 9.03 2.23
-1 4 9 8.83 1.85
0 -4 -9 -0.74 0.93
0 -4 -9 0.15 0.83
0 -4 -9 -0.84 1.4
0 4 9 -0.64 1.3
0 4 9 -1.91 1.07
-1 -4 -9 2.36 1.6
-1 -4 -9 4.2 1.47
-1 -4 -9 4.15 1
1 4 9 5.77 1.69
1 4 9 4.91 1.87
-2 -4 -9 5.27 1.93
-2 -4 -9 7.06 0.95
-2 -4 -9 3.5 1.57
2 4 9 7.74 2.07
2 4 9 6.21 1.89
-3 -4 -9 10.51 2.13
-3 -4 -9 10.36 2.29
3 4 9 12.24 2.17
3 4 9 9.46 2.09
-4 -4 -9 39.38 3.39
-4 -4 -9 41.27 3.5
4 4 9 41.79 3.16
4 4 9 46.31 3.59
-5 -4 -9 -2.16 1.21
-5 -4 -9 0.6 1.62
5 4 9 -2.03 1.17
5 4 9 2.76 1.71
-6 -4 -9 4.47 2.03
-6 -4 -9 2.45 1.82
6 4 9 -0.68 1.62
6 4 9 1.37 1.34
-7 -4 -9 1 1.81
-7 -4 -9 3.02 1.94
7 4 9 3.73 2.1
7 4 9 2.56 1.41
-8 -4 -9 0.21 1.73
-8 -4 -9 8.97 2.63
8 4 9 5.89 1.71
8 4 9 2.22 2.1
-9 -4 -9 -1.16 1.64
-9 -4 -9 0.13 1.92
9 4 9 0.54 2.15
9 4 9 0.2 1.44
-10 -4 -9 -3.9 1.69
-10 -4 -9 2.56 2.11
10 4 9 -2.62 1.92
7 -5 -9 1.15 1.86
6 -5 -9 33.8 3.84
6 -5 -9 27.72 3.67
-6 5 9 22.17 3.97
5 -5 -9 -0.22 1.7
5 -5 -9 0.62 1.56
-5 5 9 2.79 2.01
4 -5 -9 0.27 1.94
4 -5 -9 -0.04 1.53
-4 5 9 1.51 1.84
3 -5 -9 24.93 2.85
3 -5 -9 32.57 3.62
-3 5 9 24.48 2.37
-3 5 9 26.32 3.53
2 -5 -9 2.05 1.78
2 -5 -9 0.17 0.84
2 -5 -9 -1.98 1.05
-2 5 9 0.6 1.66
-2 5 9 -1.61 0.96
1 -5 -9 17.15 2.79
1 -5 -9 12.42 1.74
1 -5 -9 16.16 2.11
-1 5 9 10.9 2.41
-1 5 9 17.48 2.39
0 -5 -9 1.74 1.53
0 -5 -9 2.07 1.14
0 -5 -9 1.51 1.05
0 5 9 0.45 1.38
0 5 9 3.66 1.79
-1 -5 -9 1.54 1.64
-1 -5 -9 3.67 1.28
-1 -5 -9 3.89 1.1
1 5 9 2.31 1.73
1 5 9 4.3 1.66
-2 -5 -9 26.99 2.96
-2 -5 -9 25.34 1.61
-2 -5 -9 22.48 2.57
2 5 9 24.14 2.88
2 5 9 22.07 2.93
-3 -5 -9 1.32 1.68
-3 -5 -9 0.55 1.33
3 5 9 -0.26 1.51
3 5 9 -0.08 1.44
-4 -5 -9 5.05 1.96
-4 -5 -9 9.09 2.21
4 5 9 9.32 1.93
4 5 9 8.49 2.14
-5 -5 -9 1.35 1.59
-5 -5 -9 2.9 1.81
5 5 9 2.38 1.87
5 5 9 7.28 1.81
-6 -5 -9 4.58 1.99
-6 -5 -9 5.95 2.32
6 5 9 7.15 2.16
6 5 9 7.06 1.8
-7 -5 -9 5.92 2.44
-7 -5 -9 3.17 2.11
7 5 9 4.82 2.2
7 5 9 2.97 1.57
-8 -5 -9 -0.54 1.61
-8 -5 -9 0.65 1.96
8 5 9 2.14 1.2
8 5 9 1.49 2.07
-9 -5 -9 0.23 1.92
-9 -5 -9 -2.51 1.45
9 5 9 -1.98 1.88
-10 -5 -9 8.48 2.69
-10 -5 -9 3.57 2.39
10 5 9 0.41 2.14
6 -6 -9 -4.5 1.45
6 -6 -9 -3.12 1.59
-6 6 9 0.27 1.97
5 -6 -9 5.62 2.26
5 -6 -9 9.62 2.85
-5 6 9 8.76 2.72
4 -6 -9 0.5 1.98
4 -6 -9 1.18 1.87
-4 6 9 2.49 1.92
3 -6 -9 0.92 1.67
3 -6 -9 3.75 1.72
-3 6 9 3.62 1.45
-3 6 9 3.18 2.08
2 -6 -9 0.98 1.35
2 -6 -9 2.31 1.73
-2 6 9 -2.47 1.46
-2 6 9 0.08 1.36
1 -6 -9 17.43 2.3
1 -6 -9 18.59 1.83
1 -6 -9 19.84 3.1
-1 6 9 18.43 2.55
-1 6 9 24.57 3.29
0 -6 -9 19.98 2.94
0 -6 -9 19.53 2.08
0 -6 -9 21.61 2.18
0 6 9 22.42 3.11
0 6 9 21.78 2.75
-1 -6 -9 3.04 1.36
-1 -6 -9 3.47 1.19
-1 -6 -9 4.82 2.06
1 6 9 3.42 1.81
1 6 9 1.32 1.57
-2 -6 -9 5.18 2.07
-2 -6 -9 -1.19 0.94
-2 -6 -9 0.34 0.78
2 6 9 2.71 1.87
2 6 9 2.75 1.76
-3 -6 -9 1.47 1.29
-3 -6 -9 0.54 1.54
3 6 9 0.33 1.61
3 6 9 0.62 1.51
-4 -6 -9 0.63 1.75
-4 -6 -9 4.41 1.59
4 6 9 1.13 1.81
4 6 9 2.67 1.58
-5 -6 -9 0.76 1.84
-5 -6 -9 1.57 1.77
5 6 9 -2.68 1.72
5 6 9 -0.64 1.09
-6 -6 -9 1.13 1.91
-6 -6 -9 2.84 1.88
6 6 9 4 1.4
6 6 9 -1.55 1.84
-7 -6 -9 5.81 2.29
-7 -6 -9 9.6 2.62
7 6 9 5.36 2.45
7 6 9 8.82 1.72
-8 -6 -9 2.09 2.03
-8 -6 -9 0.49 1.89
8 6 9 -3.56 1.67
-9 -6 -9 11.21 3.15
-9 -6 -9 3.21 2.21
9 6 9 9.61 2.85
5 -7 -9 4.92 2.5
5 -7 -9 9.35 2.57
-5 7 9 4.7 2.43
4 -7 -9 1.4 1.79
4 -7 -9 -3.68 1.7
-4 7 9 0.5 2.06
3 -7 -9 4.2 2.13
3 -7 -9 0.49 1.42
-3 7 9 -0.41 1.91
-3 7 9 0.87 1.41
2 -7 -9 10.88 2.7
2 -7 -9 13.56 2.45
-2 7 9 9.96 2.22
-2 7 9 12.34 2.82
1 -7 -9 5.53 2.23
1 -7 -9 4.91 1.76
-1 7 9 8.04 2.09
-1 7 9 5.65 2.26
0 -7 -9 -1.53 1.31
0 -7 -9 -0.02 0.83
0 -7 -9 0.79 1.19
0 7 9 3.31 1.81
0 7 9 -1.47 1.48
-1 -7 -9 0.06 0.96
-1 -7 -9 0.16 0.95
-1 -7 -9 0.64 1.84
1 7 9 -1.04 1.5
1 7 9 -0.29 1.53
-2 -7 -9 31.7 3.59
-2 -7 -9 27.1 2.06
-2 -7 -9 27.61 2.63
2 7 9 28.59 3.38
2 7 9 28.37 3.05
-3 -7 -9 6.52 2.29
-3 -7 -9 9.25 2.03
3 7 9 7.68 2.4
3 7 9 3.34 1.71
-4 -7 -9 11.71 2.36
-4 -7 -9 10.48 2.73
4 7 9 4.79 2.11
4 7 9 3.33 1.69
-5 -7 -9 -0.74 1.41
-5 -7 -9 -0.29 1.86
5 7 9 0.09 1.88
5 7 9 4.08 1.43
-6 -7 -9 2.13 1.86
-6 -7 -9 -1.76 1.68
6 7 9 -2.24 1.69
6 7 9 -3.28 0.84
-7 -7 -9 16.74 3.45
-7 -7 -9 10.69 2.72
7 7 9 12.38 2.94
-8 -7 -9 -0.06 1.73
-8 -7 -9 -3.24 1.73
8 7 9 -2.5 2.03
-9 -7 -9 1.6 2.17
9 7 9 -0.42 2.4
4 -8 -9 -3.04 1.44
4 -8 -9 3.78 2.1
-4 8 9 -1.62 1.72
3 -8 -9 1.42 1.69
3 -8 -9 0.06 2.03
-3 8 9 -0.13 1.58
-3 8 9 -1.82 1.82
2 -8 -9 -1.42 1.34
2 -8 -9 1.12 1.93
-2 8 9 -0.45 1.44
-2 8 9 1.17 1.72
1 -8 -9 0.5 1.31
1 -8 -9 4.45 2.04
-1 8 9 0.47 1.61
-1 8 9 -0.22 1.75
0 -8 -9 -1.41 1.77
0 -8 -9 3.25 1.42
0 8 9 1.15 1.78
0 8 9 3.59 1.95
-1 -8 -9 0.14 1.12
-1 -8 -9 1.53 0.9
-1 -8 -9 0.47 1.76
1 8 9 1.53 1.71
1 8 9 0.53 1.49
-2 -8 -9 2.24 1.15
-2 -8 -9 2.39 1.21
-2 -8 -9 0.11 1.71
2 8 9 4.05 2.07
2 8 9 6.61 2.02
-3 -8 -9 1.34 1.22
-3 -8 -9 1.96 2.01
3 8 9 -1.49 1.61
3 8 9 -0.99 1.27
-4 -8 -9 13.01 2.35
-4 -8 -9 9.8 2.69
4 8 9 12.75 2.3
4 8 9 11.07 2.81
-5 -8 -9 9.26 2.82
-5 -8 -9 16.63 2.67
5 8 9 10.85 2.84
5 8 9 9.3 1.94
-6 -8 -9 10.19 3.08
-6 -8 -9 5.08 1.93
6 8 9 8.57 2.71
-7 -8 -9 0.54 2.01
7 8 9 0.38 2.17
-8 -8 -9 0.46 2.06
8 8 9 -1.37 1.75
3 -9 -9 3.55 2.13
3 -9 -9 0.9 1.45
-3 9 9 1.64 1.64
-3 9 9 -0.69 1.77
2 -9 -9 -1.59 1.37
2 -9 -9 2.12 1.88
-2 9 9 4.09 2.2
-2 9 9 1.16 1.71
1 -9 -9 8.63 2.73
1 -9 -9 4.84 1.88
-1 9 9 3.88 2.24
-1 9 9 2.83 1.95
0 -9 -9 2.94 2.13
0 -9 -9 0.66 1.32
0 9 9 2.93 1.88
0 9 9 3.11 1.9
-1 -9 -9 2.15 1.35
-1 -9 -9 3.9 2.17
1 9 9 2.96 2.07
1 9 9 2.28 1.65
-2 -9 -9 6.89 1.64
-2 -9 -9 9.63 2.78
2 9 9 10.07 2.34
2 9 9 6.97 2.42
-3 -9 -9 -0.33 1.71
3 9 9 2.38 1.52
3 9 9 0.14 1.52
3 9 9 -1.28 1.74
-4 -9 -9 4.8 2.48
4 9 9 6.91 1.83
4 9 9 5.95 2.28
-5 -9 -9 -2.32 1.72
5 9 9 -0.72 2.1
5 9 9 0.55 1.64
-6 -9 -9 2.16 2.22
6 9 9 -1.34 2.14
6 9 9 -0.32 1.73
-7 -9 -9 16.42 3.47
7 9 9 13.68 2.84
7 9 9 14.03 3.23
-8 -9 -9 3.18 2.4
8 9 9 11.83 3.07
8 9 9 14.57 3.31
1 -10 -9 0.64 1.88
1 -10 -9 -0.1 1.68
-1 10 9 3.94 2.01
-1 10 9 5.52 2.18
0 -10 -9 2.67 2.07
0 -10 -9 -0.34 1.43
0 10 9 4.93 2.25
0 10 9 -1.08 1.81
-1 -10 -9 0 1.23
-1 -10 -9 2.49 1.95
1 10 9 -3.19 1.48
1 10 9 -0.88 1.6
-2 -10 -9 18.43 3.45
2 10 9 15.99 3.13
2 10 9 20.22 2.87
-3 -10 -9 -0.59 1.88
3 10 9 -0.17 2.19
3 10 9 0.98 1.24
-4 -10 -9 0.49 2.12
4 10 9 5.73 2.35
4 10 9 2.55 1.5
-5 -10 -9 20.61 3.81
5 10 9 16.48 3.19
5 10 9 25.41 3.13
-6 -10 -9 3.16 2.37
6 10 9 2.98 2.39
6 10 9 4.68 2.11
-7 -10 -9 2.81 2.23
7 10 9 0.39 2.22
7 10 9 1.4 1.82
-1 -11 -9 2.46 1.88
1 11 9 0.95 1.5
1 11 9 2.51 2.24
-2 -11 -9 -3.03 1.53
2 11 9 -1.01 1.83
2 11 9 3.3 1.65
-3 -11 -9 33.94 4.2
3 11 9 32.24 3.96
-4 -11 -9 4.29 2.29
4 11 9 -2.5 1.81
-5 -11 -9 -0.34 2.02
5 11 9 3.58 2.46
3 10 -10 1.73 1.82
-3 -10 10 1.69 1.72
-3 -10 10 6.72 2.35
2 10 -10 8.86 2.58
2 10 -10 6.3 1.74
-2 -10 10 3.13 1.63
-2 -10 10 3.33 2.04
1 10 -10 -0.55 1.24
1 10 -10 -1.81 1.35
-1 -10 10 1.12 1.45
-1 -10 10 0.11 1.39
0 10 -10 9.58 2.24
0 10 -10 14.18 3
0 -10 10 21.29 2.91
0 -10 10 11.12 2.88
5 9 -10 7.49 2.71
-5 -9 10 8.02 2.61
-5 -9 10 10.41 2.23
4 9 -10 2.63 1.93
-4 -9 10 6.13 2.36
-4 -9 10 5.17 1.89
3 9 -10 4.58 2.12
-3 -9 10 9.7 2.51
-3 -9 10 6.78 2.08
2 9 -10 6.75 1.7
2 9 -10 5.7 2.31
-2 -9 10 8.2 2.45
-2 -9 10 4.55 1.8
1 9 -10 0.04 1.09
1 9 -10 1.51 1.71
-1 -9 10 2.11 1.7
-1 -9 10 -1.06 1.31
0 9 -10 12.87 2.53
0 9 -10 21.21 3.67
0 -9 10 12.08 2.66
0 -9 10 16.79 2.58
-1 9 -10 23.03 3.68
-1 9 -10 18.28 2.96
1 -9 10 16.53 3.09
1 -9 10 24.67 2.9
-2 9 -10 -2.36 1.4
-2 9 -10 3.84 1.76
2 -9 10 2.2 1.56
2 -9 10 1.35 1.73
-3 9 -10 4.73 2.16
-3 9 -10 1.72 1.79
3 -9 10 4.93 1.54
3 -9 10 2.69 2
6 8 -10 2.91 1.49
6 8 -10 6.85 2.57
-6 -8 10 2.42 1.75
-6 -8 10 2.71 1.65
5 8 -10 23.01 3.78
5 8 -10 19.06 2.31
-5 -8 10 20.36 3.32
-5 -8 10 12.51 2.6
4 8 -10 14.49 3.1
-4 -8 10 11.96 2.54
-4 -8 10 18.29 2.95
3 8 -10 0.98 1.83
-3 -8 10 0.25 1.61
-3 -8 10 1.72 1.67
2 8 -10 20.16 3.34
2 8 -10 20.85 2.27
-2 -8 10 17.8 2.91
-2 -8 10 23.26 3.3
1 8 -10 10.92 2.8
1 8 -10 5.92 1.65
-1 -8 10 7.88 2.36
-1 -8 10 4.68 1.9
0 8 -10 3.56 1.45
0 8 -10 2.6 1.93
0 -8 10 2.59 1.77
0 -8 10 0.96 1.51
-1 8 -10 -1.65 1.03
-1 8 -10 1.37 1.8
1 -8 10 -0.09 1.48
1 -8 10 1.04 1.4
-2 8 -10 4.37 1.91
-2 8 -10 8.69 2.63
2 -8 10 1.24 1.54
2 -8 10 4.1 1.45
-3 8 -10 10.48 2.64
-3 8 -10 5.29 2.42
3 -8 10 10.01 2.13
3 -8 10 5.14 2.29
-4 8 -10 3.99 1.95
-4 8 -10 3.57 2.2
4 -8 10 0.19 2.05
7 7 -10 14.8 3.2
7 7 -10 11.11 2.69
-7 -7 10 15.9 2.9
-7 -7 10 21.24 3.52
6 7 -10 17.55 2.64
6 7 -10 18.63 3.64
-6 -7 10 10.38 2.44
-6 -7 10 18.32 3.39
5 7 -10 1.12 1.27
5 7 -10 2.12 2.07
-5 -7 10 -0.47 1.42
-5 -7 10 1.29 1.57
4 7 -10 24.6 3.43
4 7 -10 18.82 2.36
-4 -7 10 25.92 3.29
-4 -7 10 22.94 3.07
3 7 -10 4.03 1.34
3 7 -10 5.23 2.05
-3 -7 10 2.57 1.76
-3 -7 10 5.73 1.95
2 7 -10 10.63 2.71
2 7 -10 13.33 2.02
-2 -7 10 13.59 2.71
-2 -7 10 11.55 2.37
1 7 -10 -0.25 1.15
1 7 -10 0.68 1.75
-1 -7 10 -2.11 1.15
-1 -7 10 2.15 1.65
0 7 -10 10.71 2.56
0 7 -10 10.81 2.15
0 -7 10 11.61 2.61
0 -7 10 8.25 1.98
-1 7 -10 25.45 3.41
-1 7 -10 27.5 3.05
1 -7 10 23.84 3.28
1 -7 10 25.94 2.74
-2 7 -10 -0.59 1.48
-2 7 -10 -0.06 1.69
2 -7 10 1 1.62
2 -7 10 3.08 1.41
-3 7 -10 1.49 1.76
-3 7 -10 3.75 1.94
3 -7 10 4.26 1.59
3 -7 10 2.05 1.83
-4 7 -10 8.57 2.49
-4 7 -10 5.68 2.38
4 -7 10 4.11 2.15
4 -7 10 4.32 1.52
-5 7 -10 5.6 2.3
-5 7 -10 1.45 1.92
5 -7 10 -0.02 1.83
7 6 -10 1.79 1.92
7 6 -10 1.23 1.63
-7 -6 10 -0.39 1.33
-7 -6 10 1.85 1.82
6 6 -10 13.38 2.62
6 6 -10 13.47 3.02
-6 -6 10 9.02 2.58
-6 -6 10 14.4 2.81
5 6 -10 3.92 2.17
5 6 -10 2.13 1.5
-5 -6 10 -0.57 1.45
-5 -6 10 -0.44 1.44
4 6 -10 10.72 2.67
4 6 -10 8.28 1.98
-4 -6 10 11.01 2.43
-4 -6 10 11.88 2.49
3 6 -10 1.77 1.11
3 6 -10 -0.15 1.47
-3 -6 10 -0.34 1.26
-3 -6 10 1.91 1.6
2 6 -10 16.95 2.89
2 6 -10 14.34 1.82
2 6 -10 16.09 1.92
-2 -6 10 17.03 2.55
-2 -6 10 17.4 2.86
1 6 -10 9.65 1.8
1 6 -10 11.13 2.48
-1 -6 10 8.37 2.22
-1 -6 10 12.08 2.31
0 6 -10 3.09 1.85
0 6 -10 2.68 1.35
0 -6 10 -0.02 1.06
0 -6 10 -0.34 1.54
-1 6 -10 2.52 1.82
-1 6 -10 2.48 1.58
1 -6 10 -0.09 0.99
1 -6 10 5.22 2.07
-2 6 -10 3.02 1.98
-2 6 -10 5.4 1.85
2 -6 10 4.6 1.45
2 -6 10 1.59 1.59
-3 6 -10 11.74 2.77
-3 6 -10 10.37 2.33
3 -6 10 9.05 2.56
3 -6 10 9.02 1.83
-4 6 -10 16.82 3.24
-4 6 -10 15.45 2.88
4 -6 10 15.5 3.11
4 -6 10 16.43 2.01
-5 6 -10 3.22 1.95
-5 6 -10 5.06 2.54
5 -6 10 1.98 2.06
-6 6 -10 0.82 1.75
-6 6 -10 -2.91 1.38
6 -6 10 -1 1.67
8 5 -10 0.02 1.51
8 5 -10 5.86 2.32
-8 -5 10 2.04 2.13
-8 -5 10 0.25 1.27
7 5 -10 -0.52 1.83
7 5 -10 3.99 1.89
-7 -5 10 -0.96 1.53
-7 -5 10 -0.28 1.84
6 5 -10 11.08 2.47
6 5 -10 10.63 2.78
-6 -5 10 8.74 2.43
-6 -5 10 11.32 2.53
5 5 -10 4.25 1.75
5 5 -10 3.37 1.97
-5 -5 10 0.63 1.74
-5 -5 10 1.88 1.9
4 5 -10 5.22 1.98
4 5 -10 6.84 1.83
-4 -5 10 6.17 2.16
-4 -5 10 12.33 2.58
3 5 -10 7.98 1.67
3 5 -10 12.36 2.6
-3 -5 10 7.2 1.9
-3 -5 10 7.51 2.17
2 5 -10 11.41 1.88
2 5 -10 15.13 2.74
2 5 -10 10.87 1.7
-2 -5 10 10.4 2.11
-2 -5 10 16.52 2.86
1 5 -10 9.89 2.33
1 5 -10 10.94 1.77
1 5 -10 10.25 1.53
-1 -5 10 9.58 2.06
-1 -5 10 12.6 2.54
0 5 -10 0.6 1.31
0 5 -10 1.89 0.81
0 5 -10 -0.02 0.9
0 -5 10 1.91 1.54
0 -5 10 0.5 1.2
-1 5 -10 23.94 3.16
-1 5 -10 24.06 2.56
1 -5 10 26.72 3.19
1 -5 10 23.97 2.36
-2 5 -10 10.79 2.18
-2 5 -10 10.82 2.62
2 -5 10 12.19 1.87
2 -5 10 11.98 2.57
-3 5 -10 5.47 1.91
-3 5 -10 3.21 1.99
3 -5 10 5.29 1.28
3 -5 10 5.63 2.05
-4 5 -10 1.33 1.75
-4 5 -10 2.55 1.55
4 -5 10 0.44 0.95
4 -5 10 -0.31 1.54
-5 5 -10 3.27 1.82
-5 5 -10 4.84 2.33
5 -5 10 2.16 1.86
-6 5 -10 41.45 4.37
-6 5 -10 37.69 4.03
6 -5 10 42.14 4.33
-7 5 -10 9.7 2.91
-7 5 -10 2.29 2
7 -5 10 11.99 3.12
8 4 -10 10 2.7
8 4 -10 9.23 2.61
-8 -4 10 14.06 2.96
-8 -4 10 12.19 2.99
7 4 -10 3.9 2.19
7 4 -10 4.72 2.26
-7 -4 10 2.63 1.67
-7 -4 10 3.54 2.08
6 4 -10 1.18 1.92
6 4 -10 -0.87 1.42
-6 -4 10 -0.2 1.62
-6 -4 10 1.33 1.62
5 4 -10 3.15 1.84
5 4 -10 -0.69 1.4
-5 -4 10 2.32 1.85
-5 -4 10 5.28 2.12
4 4 -10 8.34 2.06
4 4 -10 10.99 2.57
-4 -4 10 4.81 1.92
-4 -4 10 7.8 2.28
3 4 -10 7.41 1.78
3 4 -10 7.75 2.1
-3 -4 10 5.88 2.15
-3 -4 10 4.76 1.69
2 4 -10 -0.13 1.01
2 4 -10 0.27 1.4
-2 -4 10 1.91 1
-2 -4 10 0.9 1.18
-2 -4 10 -0.63 1.39
1 4 -10 52.31 2.89
1 4 -10 46.08 3.74
-1 -4 10 50.62 3.82
-1 -4 10 52.11 3.19
-1 -4 10 53.18 3.15
0 4 -10 5.47 1.29
0 4 -10 5.92 1.92
0 -4 10 5.3 1.98
0 -4 10 2.98 1.34
-1 4 -10 8.28 2.13
-1 4 -10 9.14 1.34
-1 4 -10 8.52 1.8
1 -4 10 8.37 2.23
1 -4 10 7.89 1.59
-2 4 -10 1.06 1.28
-2 4 -10 1.66 1.55
2 -4 10 1.16 1.01
2 -4 10 1.41 1.57
-3 4 -10 2.32 1.73
-3 4 -10 3.57 1.67
3 -4 10 0.9 0.86
3 -4 10 1.47 1.66
-4 4 -10 44.9 3.81
-4 4 -10 54.97 4.52
4 -4 10 52.21 4.22
-5 4 -10 27.73 3.76
-5 4 -10 34.25 3.74
5 -4 10 29.92 3.66
-6 4 -10 3.27 2.3
6 -4 10 -0.49 1.64
-7 4 -10 11.41 3.17
7 -4 10 12.44 2.99
8 3 -10 1.6 1.83
8 3 -10 1.51 1.84
-8 -3 10 2.96 2.28
-8 -3 10 -2.56 1.25
7 3 -10 0.68 1.91
7 3 -10 0.46 1.7
-7 -3 10 -0.49 1.53
-7 -3 10 3.76 2.13
6 3 -10 6.19 2.23
6 3 -10 10.02 2.52
-6 -3 10 8.23 2.37
-6 -3 10 10.86 2.61
5 3 -10 11.88 2.39
5 3 -10 13.94 2.73
-5 -3 10 13.53 2.77
-5 -3 10 12.98 2.63
4 3 -10 3.2 1.85
4 3 -10 0.65 1.22
-4 -3 10 1.02 1.43
-4 -3 10 -0.02 1.51
3 3 -10 16.3 2.75
3 3 -10 16 2.51
-3 -3 10 16.36 2.46
-3 -3 10 18.43 3.09
2 3 -10 1.78 1.47
2 3 -10 1.67 1.19
-2 -3 10 0.37 1.06
-2 -3 10 -1.67 1.28
-2 -3 10 -0.27 0.68
1 3 -10 10.58 2.3
1 3 -10 13.56 1.9
-1 -3 10 10.79 1.74
-1 -3 10 9.27 2.24
-1 -3 10 13.42 1.92
0 3 -10 -0.27 1.04
0 3 -10 0.23 0.89
0 -3 10 -0.7 0.79
0 -3 10 -0.08 1.37
0 -3 10 0.62 1.22
-1 3 -10 -1.2 1.17
-1 3 -10 -0.01 0.83
1 -3 10 -1.22 1.24
1 -3 10 -0.43 1.24
1 -3 10 0.97 0.97
-2 3 -10 86.72 3.25
-2 3 -10 90.68 5
2 -3 10 87.39 3.17
2 -3 10 83.49 4.7
2 -3 10 85.58 4.4
-3 3 -10 8.54 1.29
-3 3 -10 10.67 2.48
3 -3 10 10.58 2.31
3 -3 10 8.16 1.3
3 -3 10 11.2 2.47
-4 3 -10 0.3 1.58
4 -3 10 3.82 1.84
4 -3 10 1.45 1.94
-5 3 -10 42.62 4.11
5 -3 10 45.19 3.87
5 -3 10 51.77 4.33
-6 3 -10 -0.91 1.73
6 -3 10 1.94 1.86
6 -3 10 1.7 2.25
-7 3 -10 36.38 4.24
7 -3 10 29.05 4.06
7 -3 10 36 3.98
-8 3 -10 5.69 2.57
8 -3 10 6.55 2.33
8 -3 10 17.42 3.56
8 2 -10 7.06 2.05
8 2 -10 6.64 2.53
-8 -2 10 2.56 2.33
-8 -2 10 3.92 2.21
7 2 -10 4.73 1.92
7 2 -10 8.89 2.57
-7 -2 10 6.87 2.48
-7 -2 10 2.28 2.03
6 2 -10 2.41 1.68
6 2 -10 2.16 1.73
-6 -2 10 3.3 2.01
-6 -2 10 4.2 1.97
5 2 -10 19.87 2.99
5 2 -10 18.24 2.9
-5 -2 10 17.28 3.09
-5 -2 10 18.9 2.94
4 2 -10 9.57 2.15
4 2 -10 11.11 2.39
-4 -2 10 9.44 2.42
-4 -2 10 11.46 2.38
3 2 -10 23.48 2.72
3 2 -10 25.55 2.99
-3 -2 10 31.64 2.85
-3 -2 10 26.89 3.13
2 2 -10 -0.41 1.23
2 2 -10 0.48 1.03
-2 -2 10 -0.23 1.07
-2 -2 10 0.37 0.67
-2 -2 10 2.51 1.57
1 2 -10 31.76 3.06
1 2 -10 28.78 2.59
-1 -2 10 30.2 3.23
-1 -2 10 38.2 2.43
-1 -2 10 26.3 2.31
0 2 -10 24.43 2.33
0 2 -10 24.43 2.83
0 -2 10 22.46 2.8
0 -2 10 24.06 2.06
0 -2 10 26.09 2.38
-1 2 -10 15.69 1.92
-1 2 -10 10.97 2.23
1 -2 10 13.39 1.57
1 -2 10 14.4 2.51
1 -2 10 16.02 2.4
-2 2 -10 2.13 1.57
-2 2 -10 1.18 1.04
2 -2 10 0.34 0.64
2 -2 10 1.78 1.39
2 -2 10 -1.43 1.28
-3 2 -10 7.33 2.19
-3 2 -10 7.57 1.46
3 -2 10 8.61 2.16
3 -2 10 9.06 2.1
3 -2 10 7.39 1.05
-4 2 -10 8.14 2.33
-4 2 -10 4.44 1.2
4 -2 10 5.67 2
4 -2 10 5.33 2.01
-5 2 -10 46.61 4.23
5 -2 10 55.56 4.38
5 -2 10 56.09 4.24
-6 2 -10 0.5 1.72
6 -2 10 1.05 2.07
6 -2 10 -0.1 1.55
-7 2 -10 -0.13 1.86
7 -2 10 -3.29 1.92
7 -2 10 -3.26 1.27
-8 2 -10 23.49 3.87
8 -2 10 22.24 3.8
8 -2 10 29.28 3.86
8 1 -10 -1.67 1.78
8 1 -10 2.12 1.53
-8 -1 10 0.51 2.01
-8 -1 10 4.78 2.3
7 1 -10 5.38 1.78
7 1 -10 1.7 1.97
-7 -1 10 4.98 2.28
-7 -1 10 0.04 1.64
6 1 -10 7.61 2.4
6 1 -10 5.01 1.86
-6 -1 10 1.49 1.98
-6 -1 10 7.74 2.49
5 1 -10 24.48 2.85
5 1 -10 22.36 3.05
-5 -1 10 21.39 3.36
-5 -1 10 21.03 2.92
4 1 -10 -0.51 1.25
4 1 -10 1.32 1.55
-4 -1 10 2.14 1.41
-4 -1 10 -0.73 1.56
3 1 -10 32.2 2.99
3 1 -10 36.15 3.19
-3 -1 10 34.07 2.84
-3 -1 10 33.37 3.4
2 1 -10 70.76 3.84
2 1 -10 71.26 4.05
-2 -1 10 67.31 2.59
-2 -1 10 70.85 4.32
-2 -1 10 70.28 3.5
1 1 -10 4.4 1.52
1 1 -10 4.5 1.6
-1 -1 10 3.65 1.28
-1 -1 10 3.11 1.11
-1 -1 10 3.57 1.76
0 1 -10 3.02 1.33
0 1 -10 0.04 1.28
0 -1 10 -0.15 0.83
0 -1 10 1.87 1.54
0 -1 10 1.22 1.18
-1 1 -10 19.07 2.19
-1 1 -10 16.01 2.56
1 -1 10 15.13 2.49
1 -1 10 18.71 2.26
1 -1 10 17.01 1.57
-2 1 -10 48.55 3.68
-2 1 -10 47.05 2.94
2 -1 10 47.26 3.28
2 -1 10 43.99 3.51
2 -1 10 46.33 1.91
-3 1 -10 68.98 4.43
-3 1 -10 79.04 3.58
3 -1 10 71.45 4.26
3 -1 10 77.77 4.18
-4 1 -10 1.02 1.51
-4 1 -10 0.66 1.04
4 -1 10 -0.4 1.51
4 -1 10 0.84 1.43
-5 1 -10 0.16 1.44
-5 1 -10 0.77 1.06
5 -1 10 0.46 1.54
5 -1 10 0.34 1.63
-6 1 -10 16.06 3.05
-6 1 -10 21.04 2.15
6 -1 10 21.09 3.18
6 -1 10 22.16 3.28
-7 1 -10 0.02 1.75
7 -1 10 -1.67 1.59
7 -1 10 2.1 2.17
-8 1 -10 13.27 3.01
8 -1 10 11.49 2.73
8 -1 10 13.32 3.21
-9 1 -10 2.88 2.27
9 -1 10 -2.01 2.12
9 -1 10 1.5 1.7
8 0 -10 0.85 1.75
-8 0 10 -0.67 1.75
-8 0 10 2.82 2.17
7 0 -10 22.16 3.38
7 0 -10 19.72 2.63
-7 0 10 11.05 2.9
-7 0 10 14.4 3.14
6 0 -10 0.02 1.18
6 0 -10 -1.43 1.62
-6 0 10 -2.3 1.4
-6 0 10 1.52 1.79
5 0 -10 20.73 3.17
5 0 -10 20.68 2.67
-5 0 10 21.98 3.46
-5 0 10 30.94 3.35
4 0 -10 16.37 2.8
4 0 -10 19.19 2.56
-4 0 10 17.98 2.6
-4 0 10 18.25 3.14
3 0 -10 2.75 1.56
3 0 -10 4.71 1.73
-3 0 10 3.98 1.94
-3 0 10 3.9 1.53
2 0 -10 1.45 1.33
2 0 -10 1.14 1.26
-2 0 10 1.7 1.69
-2 0 10 0.2 1.14
-2 0 10 -0.22 0.79
1 0 -10 5.67 1.82
1 0 -10 8.03 1.92
-1 0 10 6.2 1.91
-1 0 10 5.43 1.26
-1 0 10 6.47 1.5
0 0 -10 24.67 2.73
0 0 -10 24.54 2.57
0 0 10 27.23 1.98
0 0 10 26.23 2.28
0 0 10 23.37 2.82
-1 0 -10 131.08 4.82
-1 0 -10 128.36 5.38
1 0 10 127.92 3.35
1 0 10 126.67 5.45
1 0 10 124.84 4.45
-2 0 -10 15.93 2.41
-2 0 -10 15 2.69
2 0 10 13.29 1.06
2 0 10 14.8 2.37
2 0 10 14.6 2.6
-3 0 -10 10.06 2.3
-3 0 -10 6.63 1.68
3 0 10 7.27 1.92
3 0 10 9.1 2.3
-4 0 -10 41.29 2.98
-4 0 -10 43.61 3.85
4 0 10 46.66 3.64
4 0 10 42.09 3.54
-5 0 -10 33.54 2.78
-5 0 -10 34.92 3.77
5 0 10 38.01 3.54
5 0 10 39.5 3.55
-6 0 -10 8.7 2.63
-6 0 -10 9.43 1.9
6 0 10 8.11 2.16
6 0 10 9.12 2.37
-7 0 -10 3.07 2.03
-7 0 -10 2.45 1.42
7 0 10 3.58 2.03
7 0 10 7.37 2.1
-8 0 -10 -2.63 1.61
8 0 10 4.65 1.97
8 0 10 1.31 2.1
-9 0 -10 3.74 2.1
9 0 10 3.84 1.76
9 0 10 3.99 2.49
7 -1 -10 6.4 2.5
-7 1 10 5.73 2.43
-7 1 10 2.02 2.09
6 -1 -10 3.17 2.08
6 -1 -10 4.84 1.59
-6 1 10 -0.12 1.83
-6 1 10 -0.7 1.69
5 -1 -10 8.78 2.47
5 -1 -10 9.73 1.92
-5 1 10 8.34 2.42
-5 1 10 8.89 2.5
4 -1 -10 -0.53 1.36
4 -1 -10 1.51 1.33
-4 1 10 -1.11 1.38
-4 1 10 1.67 1.61
3 -1 -10 2.59 1.64
3 -1 -10 3.2 1.43
-3 1 10 4.08 1.51
-3 1 10 3.41 1
-3 1 10 4.36 1.99
2 -1 -10 50.68 3.32
2 -1 -10 43.7 3.5
-2 1 10 44.49 2.37
-2 1 10 47.12 3.02
-2 1 10 40.17 3.63
1 -1 -10 26.82 2.88
1 -1 -10 24.52 2.81
-1 1 10 27.36 2.25
-1 1 10 28.64 3.15
-1 1 10 30.29 2.29
0 -1 -10 28.64 2.85
0 -1 -10 33.62 3.01
0 1 10 25.62 1.99
0 1 10 30.06 2.45
0 1 10 26.67 2.96
-1 -1 -10 22.83 2.71
-1 -1 -10 26.16 2.75
1 1 10 25.9 2.99
1 1 10 27.58 2.6
1 1 10 23.11 1.63
-2 -1 -10 23.76 2.69
-2 -1 -10 24.21 2.92
2 1 10 20.96 2.44
2 1 10 22.45 2.93
-3 -1 -10 85.27 4.75
-3 -1 -10 80.03 4.09
3 1 10 84.08 4.52
3 1 10 78.22 4.11
-4 -1 -10 0.96 1.34
-4 -1 -10 0.04 1.43
4 1 10 1.03 1.52
4 1 10 -1.47 1.28
-5 -1 -10 18.7 2.53
-5 -1 -10 12.34 2.57
5 1 10 17.05 2.76
5 1 10 14.62 2.66
-6 -1 -10 9.91 2.59
-6 -1 -10 6.19 1.87
6 1 10 6.55 2.21
6 1 10 6.76 2.12
-7 -1 -10 -0.07 1.41
-7 -1 -10 1.27 1.76
7 1 10 -1.83 1.56
7 1 10 -0.57 1.51
-8 -1 -10 10.5 2.77
-8 -1 -10 11.63 2.3
8 1 10 7.89 2.65
8 1 10 13.26 2.7
-9 -1 -10 5.89 2.55
9 1 10 11.59 2.79
9 1 10 8.69 2.87
7 -2 -10 5.65 2.71
-7 2 10 14.82 3.22
-7 2 10 5.05 2.44
6 -2 -10 -0.31 1.83
-6 2 10 -0.42 1.9
-6 2 10 -0.4 1.71
5 -2 -10 -0.21 1.48
5 -2 -10 0.07 0.95
-5 2 10 0.13 1.77
-5 2 10 0.74 1.76
4 -2 -10 30.11 2.61
4 -2 -10 28.75 3.18
-4 2 10 22.36 2.96
-4 2 10 23.98 3.27
3 -2 -10 16.92 2.91
3 -2 -10 19.01 2.37
-3 2 10 20.09 2.71
-3 2 10 14.73 2.84
-3 2 10 14.14 1.47
2 -2 -10 31.5 3.3
2 -2 -10 32.15 2.86
-2 2 10 28.43 2.12
-2 2 10 27.04 3.26
-2 2 10 34.41 2.82
1 -2 -10 9.14 1.98
1 -2 -10 6.26 1.92
-1 2 10 8.53 1.64
-1 2 10 5.6 2
-1 2 10 7.76 1.6
0 -2 -10 9.47 2.21
0 -2 -10 9.48 2.09
0 2 10 8.48 1.75
0 2 10 11.24 2.4
-1 -2 -10 88.58 4.38
-1 -2 -10 85.26 4.4
-1 -2 -10 83.96 2.59
1 2 10 85.25 3.89
1 2 10 89.23 4.57
-2 -2 -10 -0.14 1.38
-2 -2 -10 0.12 1.26
2 2 10 0.91 1.41
2 2 10 1.06 1.49
-3 -2 -10 28.94 3.14
-3 -2 -10 33.61 3.11
3 2 10 39.19 3.46
3 2 10 35.84 3.2
-4 -2 -10 26.84 2.89
-4 -2 -10 29.62 3.35
4 2 10 22.65 2.88
4 2 10 30.13 3.17
-5 -2 -10 3.44 1.84
-5 -2 -10 6.5 1.95
5 2 10 10.05 2.29
5 2 10 7.51 2.17
-6 -2 -10 71.68 4.22
-6 -2 -10 63.89 4.76
6 2 10 60.95 4.41
6 2 10 66.28 4.17
-7 -2 -10 -1.75 1.28
-7 -2 -10 0.65 1.91
7 2 10 3.04 1.61
7 2 10 5.82 2.29
-8 -2 -10 -0.2 1.87
-8 -2 -10 1.17 1.47
8 2 10 1.06 2.11
8 2 10 -2.48 1.3
-9 -2 -10 5.67 2.58
-9 -2 -10 4.05 1.91
9 2 10 -0.85 1.92
9 2 10 3.33 1.72
7 -3 -10 1.96 2.05
7 -3 -10 -2.87 1.69
-7 3 10 6.42 2.6
6 -3 -10 23.28 3.54
-6 3 10 22.55 3.73
5 -3 -10 3.63 2.08
-5 3 10 0.45 1.92
4 -3 -10 18.61 3.01
4 -3 -10 16 2.06
-4 3 10 17.59 3.28
3 -3 -10 17.12 3.04
3 -3 -10 23.85 2.35
-3 3 10 21.34 1.87
-3 3 10 24.01 3.35
2 -3 -10 -0.02 0.92
2 -3 -10 0.65 1.19
2 -3 -10 0.56 1.8
-2 3 10 0.49 1.04
-2 3 10 -2.04 1.49
1 -3 -10 51.14 3.35
1 -3 -10 49.61 3.68
1 -3 -10 51.79 2.88
-1 3 10 49.26 3.02
-1 3 10 43.74 3.89
0 -3 -10 5.23 1.66
0 -3 -10 6.04 1.23
0 -3 -10 6.05 2.03
0 3 10 5.89 2.13
0 3 10 7.89 1.76
-1 -3 -10 59.25 2.27
-1 -3 -10 62.67 3.83
-1 -3 -10 57.86 3.96
1 3 10 54.32 3.87
1 3 10 63.75 3.62
-2 -3 -10 22.56 2.88
-2 -3 -10 26.13 3.05
2 3 10 23.97 2.96
2 3 10 20.07 2.7
-3 -3 -10 25.15 2.98
-3 -3 -10 23.72 2.96
3 3 10 17.1 2.72
3 3 10 24.14 2.99
-4 -3 -10 58.72 4.15
-4 -3 -10 54.38 3.88
4 3 10 53.48 3.86
4 3 10 63.15 4.14
-5 -3 -10 -1.03 1.39
-5 -3 -10 2.92 1.75
5 3 10 0.42 1.44
5 3 10 -0.25 1.52
-6 -3 -10 0.71 1.73
-6 -3 -10 5.25 2.15
6 3 10 3.99 1.8
6 3 10 5.69 2.25
-7 -3 -10 7.78 2.44
-7 -3 -10 11.1 2.48
7 3 10 9.15 2.17
7 3 10 10.94 2.69
-8 -3 -10 2.18 1.93
-8 -3 -10 3.26 1.98
8 3 10 0.23 1.35
8 3 10 0.21 1.91
-9 -3 -10 10.83 2.64
-9 -3 -10 4.74 2.54
9 3 10 13.51 3.03
6 -4 -10 0.49 1.75
6 -4 -10 1.09 1.94
-6 4 10 2.71 2.13
5 -4 -10 7.9 2.5
5 -4 -10 4.71 2.3
-5 4 10 12 2.88
4 -4 -10 5.62 2.02
4 -4 -10 6.35 2.35
-4 4 10 5.72 2.43
3 -4 -10 7.38 2.38
3 -4 -10 7.39 1.59
3 -4 -10 10.47 2.19
-3 4 10 5.3 2.23
-3 4 10 7.27 1.55
2 -4 -10 29.72 2.52
2 -4 -10 35.31 3.59
2 -4 -10 29.81 2.84
-2 4 10 29.1 2.5
-2 4 10 29.5 3.38
1 -4 -10 29.1 3.35
1 -4 -10 24.78 2.47
1 -4 -10 26.63 2.36
-1 4 10 19.97 2.95
-1 4 10 25.18 2.52
0 -4 -10 18.09 2.75
0 -4 -10 16.53 2.25
0 -4 -10 16.54 1.8
0 4 10 15.35 2.5
0 4 10 18.9 3
-1 -4 -10 21.23 2.59
-1 -4 -10 24.84 3.13
-1 -4 -10 24.14 1.67
1 4 10 20.99 3.03
1 4 10 23.29 2.76
-2 -4 -10 54.53 3.72
-2 -4 -10 55.97 3.89
2 4 10 46.38 3.63
2 4 10 52.88 3.92
-3 -4 -10 1.79 1.41
-3 -4 -10 2.48 1.75
3 4 10 3.16 1.73
3 4 10 -0.29 1.43
-4 -4 -10 1.63 1.76
-4 -4 -10 2.51 1.66
4 4 10 1.89 1.81
4 4 10 0.51 1.44
-5 -4 -10 -1.69 1.32
-5 -4 -10 3.31 1.85
5 4 10 2.13 1.61
5 4 10 1.14 1.78
-6 -4 -10 3.45 2.04
-6 -4 -10 0.89 1.82
6 4 10 2.24 1.54
6 4 10 -1.7 1.86
-7 -4 -10 10.33 2.5
-7 -4 -10 8.6 2.45
7 4 10 10.57 2.17
7 4 10 9.16 2.72
-8 -4 -10 3.59 2.1
-8 -4 -10 0.58 2.04
8 4 10 0.64 2.25
8 4 10 2.21 1.49
-9 -4 -10 7.67 2.52
-9 -4 -10 8.95 2.46
9 4 10 0.01 2.22
6 -5 -10 7.56 2.46
6 -5 -10 2.57 2.11
-6 5 10 5.28 2.72
5 -5 -10 4.24 2
5 -5 -10 0.08 1.89
-5 5 10 2.82 1.99
4 -5 -10 16.71 2.82
4 -5 -10 17.92 3.39
-4 5 10 14.15 3.19
3 -5 -10 7.34 2.47
3 -5 -10 10.8 2.38
-3 5 10 10.68 1.85
-3 5 10 5.25 2.48
2 -5 -10 3.84 1.99
2 -5 -10 2.2 1.08
2 -5 -10 3.66 1.63
-2 5 10 6.09 2.36
-2 5 10 3.54 1.43
1 -5 -10 50.86 3.17
1 -5 -10 57.04 4.37
1 -5 -10 46.11 2.84
-1 5 10 52.13 3.97
-1 5 10 53.71 3.49
0 -5 -10 28.76 2.56
0 -5 -10 26.51 3.21
0 -5 -10 25.38 2.15
0 5 10 29.96 2.97
0 5 10 29.55 3.44
-1 -5 -10 13.71 2.22
-1 -5 -10 17.95 2.98
-1 -5 -10 12.81 1.5
1 5 10 13.92 2.47
1 5 10 15.83 2.73
-2 -5 -10 11.2 2.25
-2 -5 -10 9.12 2.42
2 5 10 7.49 2.19
2 5 10 9 2.22
-3 -5 -10 11.93 2.7
-3 -5 -10 5.48 2.01
3 5 10 9.9 2.4
3 5 10 8.79 2.22
-4 -5 -10 36.9 3.5
-4 -5 -10 38.25 3.77
4 5 10 39.75 3.69
4 5 10 37.75 3.4
-5 -5 -10 31.14 3.53
-5 -5 -10 28.89 3.6
5 5 10 30.15 3.08
5 5 10 29.72 3.68
-6 -5 -10 4.31 2.15
-6 -5 -10 0.42 1.79
6 5 10 3.32 2.05
6 5 10 1.88 1.44
-7 -5 -10 5.47 2.45
-7 -5 -10 2.45 2.07
7 5 10 3.66 1.62
7 5 10 6.7 2.34
-8 -5 -10 -1.06 1.68
-8 -5 -10 1.94 2.16
8 5 10 3.46 2.54
8 5 10 1.5 1.55
-9 -5 -10 3.4 2.23
-9 -5 -10 1.71 2.2
9 5 10 -0.92 2.06
5 -6 -10 -0.51 1.94
5 -6 -10 2.58 2.15
-5 6 10 -0.77 1.99
4 -6 -10 -0.68 1.99
4 -6 -10 3.83 1.96
-4 6 10 0.95 1.73
3 -6 -10 21.87 3.39
3 -6 -10 23.65 2.88
-3 6 10 25.15 3.63
-3 6 10 20.28 2.58
2 -6 -10 4.62 2.31
2 -6 -10 5.8 1.79
-2 6 10 2.06 1.94
-2 6 10 3.81 1.69
1 -6 -10 -0.66 1.1
1 -6 -10 2.35 1.88
-1 6 10 -0.48 1.37
-1 6 10 -0.94 1.59
0 -6 -10 -0.22 0.94
0 -6 -10 -1.33 0.97
0 -6 -10 0.62 1.78
0 6 10 2.7 1.63
0 6 10 0.78 1.79
-1 -6 -10 -0.24 0.81
-1 -6 -10 -3.49 1.48
-1 -6 -10 -0.98 1.11
1 6 10 -0.67 1.46
1 6 10 -1.58 1.41
-2 -6 -10 14.98 2.82
-2 -6 -10 14.62 2.29
2 6 10 11.13 2.6
2 6 10 18.95 3
-3 -6 -10 23.6 2.76
-3 -6 -10 19.91 3.25
3 6 10 21.67 3.25
3 6 10 22.39 2.88
-4 -6 -10 -1.44 1.67
-4 -6 -10 0.34 1.35
4 6 10 -1.14 1.69
4 6 10 -0.2 1.55
-5 -6 -10 18.03 3.07
-5 -6 -10 18.93 3.36
5 6 10 21.16 3.36
5 6 10 16.99 2.72
-6 -6 -10 2.27 1.97
-6 -6 -10 -0.07 1.59
6 6 10 4.03 1.68
6 6 10 0.37 2.17
-7 -6 -10 -0.18 1.84
-7 -6 -10 2.63 1.94
7 6 10 2.95 2.21
7 6 10 3.53 1.42
-8 -6 -10 0.15 1.81
-8 -6 -10 1.56 2.08
8 6 10 3.84 2.41
-9 -6 -10 6 2.49
-9 -6 -10 0.58 1.97
9 6 10 3.74 2.39
4 -7 -10 -0.94 1.91
4 -7 -10 -1.04 1.38
-4 7 10 1.88 2.09
3 -7 -10 20.32 3.38
3 -7 -10 13.05 2.59
-3 7 10 15.61 3.22
2 -7 -10 9.11 2.14
2 -7 -10 4.71 2.63
-2 7 10 8.86 2.6
-2 7 10 5.45 1.9
1 -7 -10 -1.03 1.26
1 -7 -10 0.6 1.76
-1 7 10 0.78 1.91
-1 7 10 -0.01 1.42
0 -7 -10 19.14 3.31
0 -7 -10 18.7 2.21
0 7 10 18.58 2.89
0 7 10 16.23 2.93
-1 -7 -10 3.6 1.3
-1 -7 -10 6.25 2.4
-1 -7 -10 5.05 1.33
1 7 10 2.77 1.9
1 7 10 3.28 1.95
-2 -7 -10 -0.38 0.99
-2 -7 -10 0.79 1.8
2 7 10 0.75 1.72
2 7 10 1 1.5
-3 -7 -10 13.34 2.84
-3 -7 -10 8.49 1.97
3 7 10 10.99 2.34
3 7 10 7.05 2.44
-4 -7 -10 -1.04 1.36
-4 -7 -10 -2.74 1.36
4 7 10 2.36 1.96
4 7 10 -1.86 1.32
-5 -7 -10 4.43 2.1
-5 -7 -10 0.09 1.72
5 7 10 -0.15 1.31
5 7 10 0.46 2.08
-6 -7 -10 3.38 2.11
-6 -7 -10 -0.48 1.58
6 7 10 1.08 1.36
6 7 10 -2.81 1.9
-7 -7 -10 3.79 2.24
-7 -7 -10 1.65 2.17
7 7 10 -0.23 2.08
-8 -7 -10 -1.73 1.97
-8 -7 -10 2.56 2.11
8 7 10 0.17 2.26
3 -8 -10 -0.21 2.02
3 -8 -10 0.02 1.51
-3 8 10 -2.57 1.57
2 -8 -10 14.69 3.19
2 -8 -10 16.09 2.6
-2 8 10 11.95 2.88
-2 8 10 12.64 2.42
1 -8 -10 0.28 1.86
1 -8 -10 -0.56 1.06
-1 8 10 0.13 1.66
-1 8 10 4.15 2.13
0 -8 -10 0.95 1.31
0 -8 -10 -2.17 1.7
0 8 10 0.88 1.76
0 8 10 -0.39 1.64
-1 -8 -10 4.51 2.34
1 8 10 6.3 2.33
1 8 10 3.39 2.12
-2 -8 -10 -1.8 0.96
-2 -8 -10 1.18 2.05
2 8 10 0.6 1.55
2 8 10 -0.77 1.76
-3 -8 -10 3.72 1.57
-3 -8 -10 2.62 2.2
3 8 10 5.4 1.77
3 8 10 1.01 2.01
-4 -8 -10 -0.23 1.82
-4 -8 -10 -0.3 1.3
4 8 10 4.15 1.47
4 8 10 0.35 2
-5 -8 -10 -0.77 1.64
-5 -8 -10 5.14 1.76
5 8 10 1.01 1.38
5 8 10 3.64 2.37
-6 -8 -10 3.61 1.69
-6 -8 -10 3.2 2.19
6 8 10 -0.25 2.1
-7 -8 -10 2.68 1.95
-7 -8 -10 1.56 1.92
7 8 10 1 2.28
2 -9 -10 -1.2 1.83
2 -9 -10 -0.08 1.39
-2 9 10 0.59 1.87
-2 9 10 1.08 1.42
1 -9 -10 8.32 2.12
1 -9 -10 13 2.99
-1 9 10 7.1 2.29
-1 9 10 8.84 2.73
0 -9 -10 -3.63 1.64
0 -9 -10 2.64 1.5
0 9 10 0.01 1.69
0 9 10 3.6 2.01
-1 -9 -10 2.98 2.22
1 9 10 -0.88 1.7
1 9 10 1.69 1.72
-2 -9 -10 0.75 2.03
2 9 10 -0.88 1.39
2 9 10 -2.36 1.68
-3 -9 -10 -2.72 1.78
3 9 10 -2.86 1.24
3 9 10 0.8 2.1
-4 -9 -10 3.12 2.33
4 9 10 -1.06 1.16
4 9 10 2.87 2.28
-5 -9 -10 0.23 2.11
5 9 10 -2.22 1.84
-6 -9 -10 4.15 2.48
6 9 10 0.55 2.24
-7 -9 -10 0.05 2.11
7 9 10 -0.45 1.89
7 9 10 -2.85 2.11
0 -10 -10 3.74 2.53
0 10 10 -0.1 1.73
0 10 10 1.3 1.77
-1 -10 -10 -1.76 1.73
1 10 10 5.22 2.38
1 10 10 0.55 1.67
-2 -10 -10 -3.83 1.41
2 10 10 3.15 1.52
2 10 10 2.38 2.06
-3 -10 -10 2.54 2.31
3 10 10 0.29 2.25
3 10 10 4.52 1.69
-4 -10 -10 0.47 2.11
4 10 10 4.53 2.43
-5 -10 -10 3.66 2.38
5 10 10 0.74 1.43
5 10 10 -1.55 1.89
3 9 -11 6.84 2.41
-3 -9 11 5.5 1.9
-3 -9 11 4.1 2.09
2 9 -11 27.72 3.9
-2 -9 11 29.84 3.64
-2 -9 11 29.49 3.48
1 9 -11 10.23 2.84
1 9 -11 13.56 2.39
-1 -9 11 8.83 2.3
-1 -9 11 13.44 2.92
0 9 -11 3.88 2
0 9 -11 6.72 1.97
0 -9 11 7.27 2.4
0 -9 11 8.95 2.17
5 8 -11 7.57 2.67
-5 -8 11 3.74 2.03
-5 -8 11 4.83 2.13
4 8 -11 28.7 3.95
-4 -8 11 30.44 3.45
-4 -8 11 39.08 3.84
3 8 -11 21.52 3.73
-3 -8 11 13.27 2.63
-3 -8 11 15.79 2.9
2 8 -11 11.09 2.77
-2 -8 11 7.92 2.49
-2 -8 11 13.31 2.58
1 8 -11 0.78 1.15
1 8 -11 2.75 2.03
-1 -8 11 1.49 1.66
-1 -8 11 5.46 1.87
0 8 -11 4.38 1.75
0 8 -11 6.66 2.38
0 -8 11 0.8 1.84
0 -8 11 7.38 2.03
-1 8 -11 37.54 3.6
-1 8 -11 43.6 4.39
1 -8 11 29.84 3.77
1 -8 11 37.4 3.28
-2 8 -11 12.3 2.6
-2 8 -11 6.66 2.5
2 -8 11 18.8 2.34
2 -8 11 12.1 2.91
-3 8 -11 4.26 2.04
-3 8 -11 3.13 1.84
3 -8 11 1.58 1.76
6 7 -11 11.42 2.47
6 7 -11 18.1 3.6
-6 -7 11 18.86 3.21
-6 -7 11 15.1 3.18
5 7 -11 -3.41 1.52
5 7 -11 4.13 1.62
-5 -7 11 4.41 1.82
-5 -7 11 -0.73 1.82
4 7 -11 11.47 2.82
-4 -7 11 3.46 2.02
-4 -7 11 13.02 2.73
3 7 -11 1.12 1.71
-3 -7 11 0.32 1.59
-3 -7 11 1.31 1.51
2 7 -11 1.47 1.78
-2 -7 11 -0.58 1.45
-2 -7 11 2.95 1.67
1 7 -11 71.5 5.17
1 7 -11 80.23 4.04
-1 -7 11 67.75 4.78
-1 -7 11 68.09 4.18
0 7 -11 20.59 3.37
0 7 -11 14.99 2.49
0 -7 11 14.61 2.28
0 -7 11 18.51 3.29
-1 7 -11 3.11 1.99
-1 7 -11 1.29 1.38
1 -7 11 -0.4 1.15
1 -7 11 1.88 1.84
-2 7 -11 27.84 3.89
-2 7 -11 26.01 3.19
2 -7 11 22.34 3.42
2 -7 11 28.08 2.58
-3 7 -11 -0.25 1.49
-3 7 -11 2.15 1.88
3 -7 11 0.96 1.51
-4 7 -11 5.43 2.19
-4 7 -11 7.55 2.54
4 -7 11 8.77 2.55
6 6 -11 18.17 2.99
6 6 -11 17.65 3.46
-6 -6 11 16.86 3.06
-6 -6 11 27.72 3.75
5 6 -11 -0.56 1.17
5 6 -11 4.43 2.15
-5 -6 11 -1.16 1.55
-5 -6 11 1.39 1.77
4 6 -11 5.88 1.77
4 6 -11 7.36 2.45
-4 -6 11 5.16 2.15
-4 -6 11 4.14 1.89
3 6 -11 71.25 4.9
3 6 -11 59.95 3.55
-3 -6 11 63.4 4.2
-3 -6 11 62.34 4.51
2 6 -11 5.22 2.34
-2 -6 11 1.6 1.74
-2 -6 11 4.26 1.73
1 6 -11 -0.18 1.72
1 6 -11 2.06 1.06
-1 -6 11 -0.02 1.21
-1 -6 11 1.04 1.85
0 6 -11 21.46 3.64
0 6 -11 25.45 2.66
0 -6 11 30.27 3.53
0 -6 11 25.44 2.67
-1 6 -11 11.89 2.24
-1 6 -11 8.6 2.53
1 -6 11 9.66 1.86
1 -6 11 11.51 2.73
-2 6 -11 24.79 3.65
-2 6 -11 23.89 2.92
2 -6 11 23.3 2.35
2 -6 11 21.39 3.27
-3 6 -11 2.98 1.97
-3 6 -11 0.51 1.4
3 -6 11 0.29 1.76
-4 6 -11 0.09 1.89
-4 6 -11 0.47 1.5
4 -6 11 -0.25 1.67
-5 6 -11 9.83 2.98
-5 6 -11 11.58 2.76
5 -6 11 12.04 2.79
7 5 -11 -0.22 1.52
7 5 -11 0.22 1.68
-7 -5 11 -0.72 1.59
-7 -5 11 -0.57 1.5
6 5 -11 6.89 2.33
6 5 -11 8.04 2.3
-6 -5 11 7.66 2.54
-6 -5 11 8.99 2.54
5 5 -11 68.37 4.96
5 5 -11 62.32 4.21
-5 -5 11 71.44 4.8
-5 -5 11 68.4 4.8
4 5 -11 2.17 1.3
4 5 -11 0.09 1.57
-4 -5 11 0.96 1.59
-4 -5 11 -0.29 1.51
3 5 -11 4.98 1.72
3 5 -11 7.45 2.5
-3 -5 11 8.15 2.17
-3 -5 11 6.56 2.25
2 5 -11 18.26 3.19
2 5 -11 16.11 1.99
-2 -5 11 20.32 3.07
-2 -5 11 17.28 2.43
1 5 -11 8.24 2.34
1 5 -11 8.18 1.61
-1 -5 11 5.13 1.56
-1 -5 11 12.77 2.71
0 5 -11 9.81 2.37
0 -5 11 9.51 2.56
0 -5 11 12.43 2.04
-1 5 -11 -1.48 0.97
-1 5 -11 -1.55 1.31
1 -5 11 -1.58 0.83
1 -5 11 0.31 1.43
-2 5 -11 1.79 1.9
-2 5 -11 3.72 1.68
2 -5 11 4.36 1.35
2 -5 11 1.45 1.75
-3 5 -11 6.04 2.34
-3 5 -11 1.94 1.56
3 -5 11 1.9 1.97
-4 5 -11 8.07 2.27
-4 5 -11 7.88 2.78
4 -5 11 8.12 2.43
-5 5 -11 1.45 1.69
-5 5 -11 -1.5 1.59
5 -5 11 -2.1 1.4
-6 5 -11 1.7 1.83
6 -5 11 2.91 2.03
7 4 -11 21.48 3.38
7 4 -11 20.8 3.32
-7 -4 11 23.89 3.42
-7 -4 11 23.23 3.51
6 4 -11 8.08 2.45
6 4 -11 6.97 2.28
-6 -4 11 4.89 2.19
-6 -4 11 7.9 2.45
5 4 -11 4.35 2.02
5 4 -11 0.31 1.74
-5 -4 11 -1.54 1.31
-5 -4 11 2.58 1.8
4 4 -11 5.7 2.18
4 4 -11 7.1 1.93
-4 -4 11 6.84 2.34
-4 -4 11 3.75 1.86
3 4 -11 27.92 2.75
3 4 -11 29.6 3.47
-3 -4 11 30.36 3.1
-3 -4 11 35.06 3.6
2 4 -11 31.53 3.56
2 4 -11 36.87 2.84
-2 -4 11 31.19 2.42
-2 -4 11 31.32 3.41
-2 -4 11 37.51 3.03
1 4 -11 11.88 1.85
1 4 -11 9.49 2.48
-1 -4 11 7.94 2.39
-1 -4 11 6.04 1.65
-1 -4 11 8.27 1.71
0 4 -11 3.92 1.27
0 4 -11 2.62 1.72
0 -4 11 4.57 1.95
0 -4 11 4.42 1.42
0 -4 11 3.9 1.67
-1 4 -11 7.19 2.18
1 -4 11 10.45 2.29
1 -4 11 5.3 1.44
1 -4 11 6.07 2.13
-2 4 -11 19.23 3.23
2 -4 11 30.21 2.13
2 -4 11 26.68 3.41
2 -4 11 21.76 3.24
-3 4 -11 1.27 1.65
3 -4 11 1.2 1.63
-4 4 -11 1.88 1.97
4 -4 11 -1.31 1.51
4 -4 11 1.19 2.12
-5 4 -11 7.25 2.55
5 -4 11 13.22 3.22
5 -4 11 8.08 2.54
-6 4 -11 2.93 2.05
6 -4 11 3.74 2.39
6 -4 11 0.08 1.61
7 3 -11 0.3 1.46
7 3 -11 0.85 1.7
-7 -3 11 0.69 1.59
-7 -3 11 0.96 1.95
6 3 -11 0.47 1.66
6 3 -11 1.19 1.71
-6 -3 11 0.78 1.83
-6 -3 11 1.46 1.95
5 3 -11 19.75 3.15
5 3 -11 23.01 3.06
-5 -3 11 21.09 3.65
-5 -3 11 24.07 3.26
4 3 -11 10.88 2.64
4 3 -11 10.19 2.38
-4 -3 11 5.99 2.07
-4 -3 11 4.66 2.15
3 3 -11 5.8 2.2
3 3 -11 6.08 1.84
-3 -3 11 9.67 2.13
-3 -3 11 7.98 2.36
2 3 -11 2.61 1.39
2 3 -11 5.48 2.19
-2 -3 11 3.91 1.41
-2 -3 11 3.33 1.07
-2 -3 11 2.61 1.89
1 3 -11 -0.73 1.02
1 3 -11 0.98 1.49
-1 -3 11 -1.2 1.3
-1 -3 11 2.02 1.18
-1 -3 11 0.73 1.03
0 3 -11 58.03 4.19
0 3 -11 58.86 3.25
0 -3 11 58.49 4.24
0 -3 11 58.52 3.06
0 -3 11 61.95 3.49
-1 3 -11 -0.94 0.86
-1 3 -11 0.67 1.48
1 -3 11 -2.4 1.58
1 -3 11 0.27 1.39
1 -3 11 -0.9 0.72
-2 3 -11 -0.98 1.32
-2 3 -11 -0.2 0.77
2 -3 11 -0.39 0.66
2 -3 11 2.19 1.55
2 -3 11 1.12 1.54
-3 3 -11 7.16 2.35
3 -3 11 10.04 2.5
3 -3 11 7.61 2.27
-4 3 -11 2.9 1.95
4 -3 11 -0.3 1.65
4 -3 11 -0.35 1.53
-5 3 -11 3.36 1.92
5 -3 11 6.68 2.32
5 -3 11 10.68 2.76
-6 3 -11 1.09 2.11
6 -3 11 3.02 1.96
6 -3 11 1.41 2.17
-7 3 -11 14.12 3.38
7 -3 11 23.42 3.91
7 -3 11 18.56 3.36
7 2 -11 12.07 2.97
7 2 -11 10.27 2.37
-7 -2 11 12.8 3.13
-7 -2 11 7.23 2.72
6 2 -11 1.02 1.5
6 2 -11 4.58 2.04
-6 -2 11 5.12 2.27
-6 -2 11 2.46 2.03
5 2 -11 15.73 2.85
5 2 -11 17.99 2.91
-5 -2 11 13.72 2.86
-5 -2 11 10.23 2.42
4 2 -11 0.1 1.44
4 2 -11 -0.77 1.44
-4 -2 11 0.58 1.76
-4 -2 11 0.32 1.44
3 2 -11 4.91 1.91
3 2 -11 0.88 1.28
-3 -2 11 -0.15 1.68
-3 -2 11 1.43 1.38
2 2 -11 49 3.84
2 2 -11 40.99 3.2
-2 -2 11 42.34 2.29
-2 -2 11 49.33 3.17
-2 -2 11 45.86 3.91
1 2 -11 2.34 1.37
1 2 -11 2.03 1.62
-1 -2 11 0.65 1.01
-1 -2 11 0.54 1.13
-1 -2 11 0.83 1.47
0 2 -11 0.33 1.39
0 2 -11 0.17 0.97
0 -2 11 -0.02 0.88
0 -2 11 -0.12 1.15
0 -2 11 -0.22 1.49
-1 2 -11 5.07 1.55
-1 2 -11 2.1 1.74
1 -2 11 0 1.63
1 -2 11 4.26 1.1
1 -2 11 3.37 1.46
-2 2 -11 3.84 1.99
-2 2 -11 3.84 1.36
2 -2 11 1.49 1.7
2 -2 11 3.07 1.61
-3 2 -11 30.91 2.34
-3 2 -11 28.1 3.43
3 -2 11 26.1 3.2
3 -2 11 34.56 3.47
-4 2 -11 0 1.51
4 -2 11 1.51 1.76
4 -2 11 3.52 1.94
-5 2 -11 4.83 2.23
5 -2 11 6.63 2.53
5 -2 11 3.83 2.02
-6 2 -11 29.11 3.97
6 -2 11 28.91 3.64
6 -2 11 25.53 3.72
-7 2 -11 6.68 2.59
7 -2 11 7.1 2.28
7 -2 11 6.51 2.59
7 1 -11 8.29 1.97
7 1 -11 10.56 2.84
-7 -1 11 14.87 3.38
-7 -1 11 12.16 2.85
6 1 -11 1.69 1.77
6 1 -11 1.19 1.47
-6 -1 11 -0.42 1.75
-6 -1 11 -0.19 1.69
5 1 -11 4.23 1.78
5 1 -11 5.39 2.25
-5 -1 11 5.55 2.13
-5 -1 11 6.96 2.4
4 1 -11 17.43 2.88
4 1 -11 20.55 2.87
-4 -1 11 20.98 3.4
-4 -1 11 18.38 2.88
3 1 -11 2.58 1.69
3 1 -11 1.02 1.51
-3 -1 11 1.57 1.65
-3 -1 11 1.23 1.27
2 1 -11 0.17 1.36
2 1 -11 2.93 1.56
-2 -1 11 0.23 1.09
-2 -1 11 -0.61 1.47
-2 -1 11 0.64 0.79
1 1 -11 -1.46 1.13
1 1 -11 0.79 1.37
-1 -1 11 0.62 1.5
-1 -1 11 0.22 0.94
-1 -1 11 1.67 1
0 1 -11 41.6 3.11
0 1 -11 32.66 3.44
0 -1 11 35.79 2.31
0 -1 11 36.22 3.61
0 -1 11 40.77 2.86
-1 1 -11 7.06 1.72
-1 1 -11 6.44 2.05
1 -1 11 7.98 2.33
1 -1 11 6.93 1.84
1 -1 11 7.83 1.31
-2 1 -11 0.33 1.2
-2 1 -11 3.06 1.7
2 -1 11 -0.17 1.36
2 -1 11 -0.28 1.31
-3 1 -11 52.46 3.18
-3 1 -11 39.06 3.91
3 -1 11 45.98 3.61
3 -1 11 44.2 3.91
-4 1 -11 12.86 1.97
-4 1 -11 7.82 2.46
4 -1 11 9.01 2.32
4 -1 11 9.09 2.37
-5 1 -11 29.69 2.43
-5 1 -11 28.82 3.79
5 -1 11 27.18 3.53
5 -1 11 28.55 3.46
-6 1 -11 -1.18 1.84
6 -1 11 0.83 1.57
6 -1 11 0.85 1.86
-7 1 -11 -1.71 1.82
7 -1 11 0.19 1.98
7 -1 11 0.61 1.79
-8 1 -11 15.1 3.29
8 -1 11 21.98 3.74
8 -1 11 22.75 3.42
7 0 -11 5.61 2.61
-7 0 11 5.63 2.77
-7 0 11 7.09 2.23
6 0 -11 18 2.55
6 0 -11 10.18 2.94
-6 0 11 11.71 2.91
-6 0 11 16.03 3.06
5 0 -11 1.74 1.32
5 0 -11 -0.51 1.59
-5 0 11 1.48 1.84
-5 0 11 3.4 2.02
4 0 -11 -0.2 1.4
4 0 -11 2.64 1.64
-4 0 11 2.78 1.61
-4 0 11 3.14 2.03
3 0 -11 2.66 1.56
3 0 -11 4.52 1.87
-3 0 11 2.92 1.49
-3 0 11 5.18 2.11
2 0 -11 18.34 2.76
2 0 -11 21.12 2.76
-2 0 11 19.04 3.15
-2 0 11 22.11 2.42
-2 0 11 15.5 1.67
1 0 -11 10.06 2.25
1 0 -11 5.47 2.09
-1 0 11 5.66 1.99
-1 0 11 5.96 1.41
-1 0 11 9.62 1.68
0 0 -11 10.69 2.29
0 0 -11 15.66 2.52
0 0 11 15.33 1.71
0 0 11 15.36 2.17
0 0 11 14.09 2.55
-1 0 -11 2.77 1.64
-1 0 -11 5.17 1.78
1 0 11 4.17 1.42
1 0 11 3.37 1.82
1 0 11 3.08 0.98
-2 0 -11 15.88 2.52
-2 0 -11 14.33 2.74
2 0 11 16.19 2.49
2 0 11 17.83 2.95
-3 0 -11 23.47 2.66
-3 0 -11 19 3.25
3 0 11 21.05 2.94
3 0 11 23.75 3.22
-4 0 -11 1.71 1.59
-4 0 -11 8.15 1.88
4 0 11 9.99 2.45
4 0 11 7.14 2.11
-5 0 -11 -1.85 1.43
-5 0 -11 0.05 1.13
5 0 11 -0.64 1.49
5 0 11 2.72 1.77
-6 0 -11 75.56 3.95
-6 0 -11 72.94 5.28
6 0 11 66.34 4.7
6 0 11 69.57 4.78
-7 0 -11 4.53 2.21
7 0 11 6.32 2.12
7 0 11 8.33 2.65
-8 0 -11 3.44 2.48
8 0 11 5.75 2.23
8 0 11 3.57 2.36
7 -1 -11 1.28 2.03
-7 1 11 1.72 1.97
-7 1 11 -0.55 1.83
6 -1 -11 1.13 1.79
-6 1 11 -2.68 1.5
-6 1 11 4.45 2.2
5 -1 -11 1.6 1.24
5 -1 -11 3.98 2.07
-5 1 11 -1.86 1.4
-5 1 11 0.42 1.85
4 -1 -11 44.52 3.36
4 -1 -11 47.98 4.07
-4 1 11 55.16 3.9
-4 1 11 54 4.59
3 -1 -11 -0.27 1.52
3 -1 -11 0.71 1.22
-3 1 11 -0.86 1.21
-3 1 11 3.03 2.07
2 -1 -11 1.19 1.64
2 -1 -11 0.59 1.43
-2 1 11 -0.16 0.84
-2 1 11 0.53 1.21
-2 1 11 4.72 2.18
1 -1 -11 13.3 2.52
1 -1 -11 15.8 2.6
-1 1 11 15.82 1.94
-1 1 11 21.62 3.2
-1 1 11 15.8 2.07
0 -1 -11 14.26 2.63
0 -1 -11 15.33 2.58
0 1 11 9.99 2.31
0 1 11 10.71 1.64
0 1 11 8.47 1.76
-1 -1 -11 0.35 1.47
-1 -1 -11 0.79 1.5
1 1 11 0.84 0.77
1 1 11 -0.16 1.31
1 1 11 -3.39 1.09
-2 -1 -11 7.54 2.12
-2 -1 -11 5.83 1.91
2 1 11 5.95 2.15
2 1 11 8.45 1.95
-3 -1 -11 17.65 2.99
-3 -1 -11 19.32 2.66
3 1 11 20.51 2.78
3 1 11 16.59 2.88
-4 -1 -11 30.08 3.59
-4 -1 -11 26.5 2.98
4 1 11 31.09 3.4
4 1 11 30.99 3.26
-5 -1 -11 2.38 1.61
-5 -1 -11 2.06 1.96
5 1 11 3.47 1.92
5 1 11 1.59 1.81
-6 -1 -11 5.23 1.85
-6 -1 -11 2.27 1.93
6 1 11 5.8 2.25
6 1 11 2.92 1.94
-7 -1 -11 8.66 2.45
-7 -1 -11 10.4 2.34
7 1 11 9.54 2.82
-8 -1 -11 1.8 2.06
8 1 11 1.99 1.83
8 1 11 0.08 1.91
6 -2 -11 12.36 2.86
-6 2 11 18.61 3.49
-6 2 11 18.41 3.12
5 -2 -11 -0.66 1.57
-5 2 11 -0.99 1.59
-5 2 11 -1.98 1.68
4 -2 -11 3.63 2.01
4 -2 -11 6.13 1.55
-4 2 11 3.97 2.03
-4 2 11 2.91 1.67
3 -2 -11 5.99 2.33
3 -2 -11 3.09 1.53
-3 2 11 4.86 1.81
-3 2 11 5.16 2.31
2 -2 -11 13.45 2.75
2 -2 -11 11.96 2.29
-2 2 11 13.28 2.21
-2 2 11 11.1 1.72
-2 2 11 10.15 2.5
1 -2 -11 17.96 2.91
1 -2 -11 15.92 2.55
-1 2 11 15.81 2.96
-1 2 11 16.25 2.03
-1 2 11 20.95 2.24
0 -2 -11 0.53 1.52
0 -2 -11 0.12 1.48
0 2 11 1.24 1.62
0 2 11 1.77 1.44
-1 -2 -11 3.47 1.71
-1 -2 -11 0.38 1.32
1 2 11 0.58 1.62
1 2 11 3.48 1.52
-2 -2 -11 46.95 3.72
-2 -2 -11 38.03 3.47
2 2 11 43.01 3.45
2 2 11 41.95 3.74
-3 -2 -11 2.18 1.68
-3 -2 -11 3.23 1.68
3 2 11 -0.2 1.44
3 2 11 1.47 1.7
-4 -2 -11 3.43 1.9
-4 -2 -11 4.91 2.12
4 2 11 8 2.1
4 2 11 9.79 2.3
-5 -2 -11 4.82 2.14
-5 -2 -11 3.39 1.83
5 2 11 4.78 1.96
5 2 11 3.21 1.85
-6 -2 -11 4.15 2.2
-6 -2 -11 5.49 1.96
6 2 11 5.01 2.24
6 2 11 8.25 2.24
-7 -2 -11 8.39 2.22
-7 -2 -11 9.58 2.92
7 2 11 6.08 2.35
7 2 11 6.16 2.4
-8 -2 -11 1.46 2
-8 -2 -11 2.67 1.65
8 2 11 0.76 2.05
8 2 11 6.03 2.01
6 -3 -11 0.07 1.9
6 -3 -11 1.14 1.92
-6 3 11 -1.81 1.62
5 -3 -11 1.64 1.76
5 -3 -11 7.53 2.55
-5 3 11 1.64 2.11
4 -3 -11 3.07 1.76
4 -3 -11 0.71 1.82
-4 3 11 4.16 2.29
3 -3 -11 2.05 1.95
3 -3 -11 3.55 1.37
3 -3 -11 2.63 1.54
-3 3 11 3.72 2.13
2 -3 -11 -1.29 1.56
2 -3 -11 2.63 1.28
2 -3 -11 0.81 1.26
-2 3 11 -0.37 1.68
-2 3 11 4.21 1.39
1 -3 -11 19.52 2.54
1 -3 -11 21.69 3.08
1 -3 -11 19.73 2.12
-1 3 11 20.8 2.45
-1 3 11 19.1 3.11
0 -3 -11 11.08 2.35
0 -3 -11 11.79 1.55
0 -3 -11 10.87 2.24
0 3 11 11.9 2.1
0 3 11 8.83 2.55
-1 -3 -11 4.13 1.85
-1 -3 -11 3.88 1.94
1 3 11 4.84 1.82
1 3 11 4.87 2.18
-2 -3 -11 5.65 1.98
-2 -3 -11 10.43 2.5
2 3 11 5.78 2.05
2 3 11 7.22 2.07
-3 -3 -11 16.03 2.94
-3 -3 -11 16.3 2.86
3 3 11 14.84 2.76
3 3 11 15.44 2.65
-4 -3 -11 8.72 2.43
-4 -3 -11 7.28 2.34
4 3 11 2.45 1.89
4 3 11 8.91 2.38
-5 -3 -11 22.31 3.17
-5 -3 -11 23.36 3.38
5 3 11 18.03 3.12
5 3 11 21.64 3.14
-6 -3 -11 23.26 3.66
-6 -3 -11 17.54 2.96
6 3 11 16.45 3.08
6 3 11 20.91 3.2
-7 -3 -11 3.14 2.01
-7 -3 -11 -0.15 1.66
7 3 11 2.93 2.12
7 3 11 9.03 2.22
-8 -3 -11 -1.12 1.78
-8 -3 -11 3.87 2.18
8 3 11 4.38 1.79
8 3 11 -1.53 1.65
5 -4 -11 2.73 2.01
5 -4 -11 0.12 2.18
-5 4 11 2.92 2.29
4 -4 -11 -1.42 1.8
4 -4 -11 -0.65 1.57
-4 4 11 -3.17 1.43
3 -4 -11 5.42 1.83
3 -4 -11 2.97 2.1
-3 4 11 9.71 2.63
2 -4 -11 7.91 1.66
2 -4 -11 7.62 1.78
2 -4 -11 7.14 2.48
-2 4 11 6.95 2.46
-2 4 11 10.05 1.84
1 -4 -11 5.79 1.57
1 -4 -11 7.27 2.44
1 -4 -11 5.93 1.62
-1 4 11 5.59 2.34
-1 4 11 4.79 1.62
0 -4 -11 1.82 1.35
0 -4 -11 2 0.93
0 -4 -11 -0.41 1.69
0 4 11 0.6 1.81
0 4 11 3.45 1.66
-1 -4 -11 0.96 1.35
-1 -4 -11 0.14 1.64
1 4 11 -0.16 1.58
1 4 11 1.31 1.51
-2 -4 -11 6.19 1.91
-2 -4 -11 8.18 2.3
2 4 11 4.55 1.94
2 4 11 7.78 2.21
-3 -4 -11 4.38 1.88
-3 -4 -11 -0.16 1.57
3 4 11 3.23 1.91
3 4 11 1.66 1.74
-4 -4 -11 25.38 3.31
-4 -4 -11 32.45 3.63
4 4 11 34.3 3.68
4 4 11 31.54 3.36
-5 -4 -11 1.32 1.79
-5 -4 -11 -2.17 1.48
5 4 11 -0.96 1.3
5 4 11 1.84 1.9
-6 -4 -11 6.23 2.31
-6 -4 -11 1.89 1.91
6 4 11 2.85 2.16
6 4 11 3.37 1.76
-7 -4 -11 20.53 3.18
-7 -4 -11 24.81 3.78
7 4 11 21.8 2.88
7 4 11 22.98 3.84
-8 -4 -11 2.68 1.96
-8 -4 -11 1.02 1.81
8 4 11 4.57 1.73
8 4 11 0.06 2.17
5 -5 -11 2.07 1.78
5 -5 -11 0.39 2.06
-5 5 11 5.71 2.39
4 -5 -11 -2.12 1.83
4 -5 -11 -0.11 1.45
-4 5 11 -2.74 1.5
3 -5 -11 10.73 2.87
3 -5 -11 7.36 2.17
-3 5 11 11.92 3.05
2 -5 -11 -1.94 1.75
2 -5 -11 1.21 1.32
-2 5 11 4.22 2.26
-2 5 11 1.05 1.28
1 -5 -11 14.58 3.03
1 -5 -11 11.35 1.92
1 -5 -11 9.74 1.99
-1 5 11 13.25 2.31
-1 5 11 13.39 2.71
0 -5 -11 3.87 1.17
0 -5 -11 3.62 1.69
0 -5 -11 0.94 1.63
0 5 11 1.43 1.88
0 5 11 2.86 1.65
-1 -5 -11 2.94 1.59
-1 -5 -11 3.26 2
1 5 11 0.71 1.74
1 5 11 -4.24 1.31
-2 -5 -11 48.42 3.55
-2 -5 -11 47.4 4.1
2 5 11 45.61 3.94
2 5 11 43.28 3.75
-3 -5 -11 2.26 1.88
-3 -5 -11 1.26 1.61
3 5 11 0.59 1.69
3 5 11 1.46 1.94
-4 -5 -11 2.34 1.77
-4 -5 -11 1.62 1.93
4 5 11 -0.33 1.89
4 5 11 1.03 1.74
-5 -5 -11 24.3 3.37
-5 -5 -11 26.91 3.68
5 5 11 28.94 3.26
5 5 11 17.85 3.15
-6 -5 -11 0.16 1.68
-6 -5 -11 -2.36 1.69
6 5 11 0.81 1.94
6 5 11 0.87 1.42
-7 -5 -11 7.08 2.39
-7 -5 -11 6.32 2.3
7 5 11 10.24 3.04
7 5 11 10.06 2.17
-8 -5 -11 -2.49 1.63
-8 -5 -11 1.77 2.23
8 5 11 -0.1 2.18
4 -6 -11 4.74 2.26
4 -6 -11 -2.05 1.27
-4 6 11 1.73 2
3 -6 -11 3.72 2.05
3 -6 -11 3.38 1.71
-3 6 11 2.44 1.87
2 -6 -11 -1.82 1.91
2 -6 -11 0.08 1.38
-2 6 11 -0.14 1.87
-2 6 11 0.46 1.24
1 -6 -11 -0.89 1.12
1 -6 -11 2.44 2.11
-1 6 11 4.79 2.31
-1 6 11 -0.57 1.43
0 -6 -11 42.25 4.22
0 -6 -11 41.92 2.94
0 6 11 42.88 3.59
0 6 11 41.26 3.95
-1 -6 -11 2.3 1.38
-1 -6 -11 1.11 2.07
1 6 11 4.3 2.1
1 6 11 0.61 1.71
-2 -6 -11 1.33 1.34
-2 -6 -11 0 1.79
2 6 11 1.41 2
2 6 11 0.8 1.7
-3 -6 -11 38.53 3.48
-3 -6 -11 39.6 4.13
3 6 11 38.06 3.65
3 6 11 41.03 4.03
-4 -6 -11 3.23 1.7
-4 -6 -11 2.6 2.09
4 6 11 -0.46 1.5
4 6 11 0.71 1.94
-5 -6 -11 8.87 2.39
-5 -6 -11 14.88 3.04
5 6 11 9.25 2.31
5 6 11 6.85 2.46
-6 -6 -11 -1.06 1.85
-6 -6 -11 2.69 1.95
6 6 11 2.01 1.43
6 6 11 0.82 2.13
-7 -6 -11 3.45 2.23
-7 -6 -11 1.08 1.97
7 6 11 2.81 2.48
7 6 11 5.09 1.76
-8 -6 -11 19.18 3.53
-8 -6 -11 18.37 3.41
8 6 11 16.03 3.49
3 -7 -11 0.22 2.04
3 -7 -11 5.66 1.97
-3 7 11 4.41 2.08
2 -7 -11 15.37 3.46
2 -7 -11 16.49 2.73
-2 7 11 10.42 2.75
1 -7 -11 1.51 1.42
1 -7 -11 1.77 2.07
-1 7 11 2.3 2.2
-1 7 11 4.89 1.78
0 -7 -11 0.06 1.88
0 7 11 0.81 1.94
0 7 11 3 1.89
-1 -7 -11 9.09 2.69
1 7 11 15.6 2.8
1 7 11 11.82 2.78
-2 -7 -11 3.36 2.13
-2 -7 -11 1.37 1.14
2 7 11 7.37 2.35
2 7 11 3.4 2.08
-3 -7 -11 7.88 1.93
-3 -7 -11 10.29 2.93
3 7 11 11.35 2.68
3 7 11 8.59 2.73
-4 -7 -11 -1.41 1.97
-4 -7 -11 0.4 1.51
4 7 11 -0.61 1.29
4 7 11 0.46 1.85
-5 -7 -11 2.77 1.96
-5 -7 -11 0.47 1.99
5 7 11 1.17 1.49
5 7 11 -1.21 1.99
-6 -7 -11 25.38 3.95
-6 -7 -11 30.87 3.77
6 7 11 25.25 4.02
6 7 11 29.42 2.98
-7 -7 -11 -1.5 1.57
-7 -7 -11 -0.24 1.84
7 7 11 4.73 2.77
2 -8 -11 2.03 2.17
2 -8 -11 1.22 1.47
-2 8 11 4.92 2.02
1 -8 -11 9.42 2.68
-1 8 11 9.45 2.7
-1 8 11 8.38 2.26
0 -8 -11 10.35 2.92
0 8 11 12.06 2.59
0 8 11 12.86 2.98
-1 -8 -11 6.82 2.7
1 8 11 9.25 2.42
1 8 11 12.36 2.69
-2 -8 -11 1.82 2.04
2 8 11 0.64 1.62
2 8 11 2.83 2.16
-3 -8 -11 4.13 2.38
-3 -8 -11 4.32 1.51
3 8 11 0.43 1.71
3 8 11 7.8 2.55
-4 -8 -11 33.02 3.3
-4 -8 -11 32.03 4.18
4 8 11 27.05 3.84
4 8 11 28.44 3.01
-5 -8 -11 3.28 2.39
-5 -8 -11 2.26 1.5
5 8 11 7.31 2.55
5 8 11 1.35 1.41
-6 -8 -11 5.34 1.89
-6 -8 -11 0.61 2.43
6 8 11 1.11 2.11
0 -9 -11 -0.74 1.78
0 9 11 3.46 1.72
0 9 11 -0.12 1.61
-1 -9 -11 25.42 3.88
1 9 11 23.71 3.33
1 9 11 18.26 3.07
-2 -9 -11 16.89 3.55
2 9 11 15.26 3.12
2 9 11 17.89 3.06
-3 -9 -11 1.36 2.11
3 9 11 1.5 1.56
3 9 11 -0.67 1.88
-4 -9 -11 -0.81 1.79
-4 -9 -11 1.84 1.33
4 9 11 -1.02 2.04
4 9 11 3.21 1.64
-5 -9 -11 4.08 2.38
-5 -9 -11 -0.96 1.25
5 9 11 3.81 2.59
-2 -8 12 1.58 1.34
1 8 -12 20.45 3.72
-1 -8 12 21.35 3.56
-1 -8 12 19.88 2.71
0 8 -12 4.85 2.35
0 8 -12 3.86 1.61
0 -8 12 6.17 2.19
0 -8 12 4.46 1.66
4 7 -12 0.24 1.69
-4 -7 12 -1.43 1.51
-4 -7 12 0.93 1.57
3 7 -12 46.2 4.42
-3 -7 12 34.39 3.85
-3 -7 12 35.47 3.5
2 7 -12 -0.15 1.86
-2 -7 12 -1.8 1.32
-2 -7 12 -1.18 1.03
1 7 -12 3.19 2.25
-1 -7 12 1.16 1.82
-1 -7 12 0.15 1.24
0 7 -12 2.27 1.39
0 7 -12 1.83 1.85
0 -7 12 4.53 2.04
0 -7 12 0.46 0.93
-1 7 -12 2.77 1.98
-1 7 -12 4.84 1.61
1 -7 12 4.11 2.25
-2 7 -12 19.44 2.77
-2 7 -12 18.35 3.78
2 -7 12 16.5 3.43
5 6 -12 12.4 3.24
5 6 -12 15.19 2.39
-5 -6 12 9.69 2.54
-5 -6 12 7.41 2.49
4 6 -12 -0.12 1.29
4 6 -12 2.64 1.97
-4 -6 12 1.04 1.84
-4 -6 12 5.68 1.97
3 6 -12 10.72 2.81
-3 -6 12 12.77 2.82
-3 -6 12 10.32 2.44
2 6 -12 8.98 2.64
-2 -6 12 10.25 2.62
-2 -6 12 11.07 2.17
1 6 -12 25.58 3.65
-1 -6 12 27.25 3.56
-1 -6 12 24.08 2.72
0 6 -12 40.06 4.14
0 -6 12 42.52 4.24
0 -6 12 37.66 3.05
-1 6 -12 -1.05 1.21
-1 6 -12 4.67 2.4
1 -6 12 4.01 2
-2 6 -12 17.01 2.8
-2 6 -12 12.04 3.15
2 -6 12 21.06 3.36
-3 6 -12 37.96 3.75
-3 6 -12 46.11 4.48
3 -6 12 38.37 4.13
-4 6 -12 2.7 1.92
-4 6 -12 4.78 2.55
4 -6 12 6.75 2.47
5 5 -12 10.05 2.74
5 5 -12 8.76 2.13
-5 -5 12 10.46 2.82
-5 -5 12 8.98 2.39
4 5 -12 2.23 1.89
4 5 -12 -0.77 1.28
-4 -5 12 4.97 2.22
-4 -5 12 3.16 1.74
3 5 -12 45.03 3.23
3 5 -12 38.77 4.19
-3 -5 12 46.01 3.7
-3 -5 12 41.26 4.05
2 5 -12 14.33 2
2 5 -12 16.14 3.31
-2 -5 12 6.6 2.43
-2 -5 12 13.09 2.43
1 5 -12 0.32 1.64
-1 -5 12 -0.18 1
-1 -5 12 1.39 1.31
-1 -5 12 1.44 1.94
0 5 -12 47.66 4.36
0 -5 12 53.9 3.79
0 -5 12 46.82 3.13
0 -5 12 55.48 4.57
-1 5 -12 41.26 4.26
1 -5 12 38.39 4
1 -5 12 42.5 3.84
-2 5 -12 17.5 3.46
2 -5 12 14.8 2.87
2 -5 12 16.19 3.14
-3 5 -12 0.72 1.59
3 -5 12 -1.82 1.37
-4 5 -12 3.94 2.11
4 -5 12 0.61 1.91
4 -5 12 5.81 2.45
-5 5 -12 25.27 3.88
5 -5 12 18.6 3.64
5 -5 12 11.78 2.99
6 4 -12 1.61 1.78
6 4 -12 1.07 1.57
-6 -4 12 4.66 1.92
-6 -4 12 1.49 1.74
5 4 -12 27.43 3.67
5 4 -12 30.92 3.49
-5 -4 12 37.88 4.24
-5 -4 12 38.57 3.78
4 4 -12 8.76 2.23
4 4 -12 5.09 2.17
-4 -4 12 17.25 2.79
-4 -4 12 10.16 2.83
3 4 -12 2.82 1.96
3 4 -12 1.63 1.25
-3 -4 12 2.78 2.03
-3 -4 12 2.07 1.43
2 4 -12 50.25 3.4
2 4 -12 46.27 4.24
-2 -4 12 45.05 3.32
-2 -4 12 54.33 4.39
1 4 -12 5.59 2.27
1 4 -12 5.9 1.61
-1 -4 12 6.94 2.3
-1 -4 12 3.79 1.38
-1 -4 12 5.85 1.62
0 4 -12 30.09 3.64
0 -4 12 22.68 2.35
0 -4 12 23.09 2.76
0 -4 12 26.9 3.42
-1 4 -12 0.16 1.65
1 -4 12 1.53 1.44
1 -4 12 -1.33 1.61
-2 4 -12 0.17 1.53
2 -4 12 1.19 1.75
2 -4 12 -0.27 1.49
-3 4 -12 37.63 4.19
3 -4 12 43.91 4.23
3 -4 12 35.34 3.8
-4 4 -12 8.23 2.76
4 -4 12 12.87 2.88
4 -4 12 8.73 2.63
-5 4 -12 18.49 3.64
5 -4 12 14.57 3.3
5 -4 12 20.6 3.52
6 3 -12 2.3 1.81
6 3 -12 5.84 2.1
-6 -3 12 2.96 2.15
-6 -3 12 2.76 1.68
5 3 -12 -0.3 1.8
5 3 -12 2.69 1.81
-5 -3 12 3.36 2.17
-5 -3 12 1.44 1.58
4 3 -12 30.37 3.27
4 3 -12 33.64 3.83
-4 -3 12 41.31 3.67
-4 -3 12 35.17 4.01
3 3 -12 -0.3 1.56
3 3 -12 1.47 1.51
-3 -3 12 1.62 1.46
-3 -3 12 2.35 1.97
2 3 -12 23.1 2.72
2 3 -12 29.48 3.48
-2 -3 12 32.46 3.73
-2 -3 12 33.18 2.91
1 3 -12 3.64 1.79
1 3 -12 1.39 1.27
-1 -3 12 0.76 1.84
-1 -3 12 1.55 1.23
-1 -3 12 2.57 1.28
0 3 -12 9.17 1.97
0 3 -12 7.51 2.4
0 -3 12 8.86 1.65
0 -3 12 8.78 2.5
0 -3 12 5.82 1.63
-1 3 -12 29.13 2.47
-1 3 -12 39.12 4
1 -3 12 32.79 3.16
1 -3 12 33.8 3.65
-2 3 -12 0.56 1.59
2 -3 12 0.61 1.78
2 -3 12 -1.4 1.38
-3 3 -12 11.67 2.76
3 -3 12 12.71 2.68
3 -3 12 14.02 2.94
-4 3 -12 2.94 2.19
4 -3 12 0.54 1.76
4 -3 12 1.25 1.92
-5 3 -12 2.78 1.93
5 -3 12 2.45 2.03
5 -3 12 -0.24 1.91
-6 3 -12 15.62 3.56
6 -3 12 14.02 3.22
6 -3 12 11.63 2.9
6 2 -12 14.66 3.21
6 2 -12 19.67 2.98
-6 -2 12 20.36 3.43
-6 -2 12 17.17 3.36
5 2 -12 3.54 2.08
5 2 -12 2.63 1.62
-5 -2 12 2.74 1.91
-5 -2 12 4.71 1.93
4 2 -12 19.59 2.83
4 2 -12 19.6 3.28
-4 -2 12 20.45 3.62
-4 -2 12 20.77 2.73
3 2 -12 3.05 1.8
3 2 -12 1.9 1.36
-3 -2 12 2.13 2.06
-3 -2 12 2.93 1.43
2 2 -12 0.69 1.58
2 2 -12 -0.91 1.35
-2 -2 12 2.32 1.3
-2 -2 12 3.28 1.96
1 2 -12 25.08 2.71
1 2 -12 23.32 3.24
-1 -2 12 23.25 3.25
-1 -2 12 25.99 2.29
-1 -2 12 27.23 2.45
0 2 -12 2.18 1.48
0 2 -12 4.69 2.2
0 -2 12 3.94 1.53
0 -2 12 2.48 1.1
0 -2 12 5.64 2.32
-1 2 -12 10.4 2.58
-1 2 -12 12.44 2.08
1 -2 12 14.78 2.92
1 -2 12 13.5 2.33
-2 2 -12 5.65 1.59
-2 2 -12 4.81 2.19
2 -2 12 6.31 1.97
2 -2 12 6.18 2.09
-3 2 -12 4.35 2.2
3 -2 12 4.17 2.06
3 -2 12 4.43 1.95
-4 2 -12 10.25 2.74
4 -2 12 12.82 2.81
4 -2 12 12.27 2.82
-5 2 -12 0.88 1.88
5 -2 12 0.6 1.91
5 -2 12 -1.01 1.84
-6 2 -12 2.88 2.17
6 -2 12 -1.95 1.68
6 -2 12 3.31 2.35
6 1 -12 9.77 2.25
6 1 -12 8.26 2.65
-6 -1 12 15.86 3.21
-6 -1 12 11.35 2.6
5 1 -12 8.4 2.56
5 1 -12 3.62 1.68
-5 -1 12 4.81 2.31
-5 -1 12 0.98 1.66
4 1 -12 2.33 1.72
4 1 -12 1.37 1.61
-4 -1 12 3.74 2.23
-4 -1 12 -2.23 1.32
3 1 -12 28.25 3.15
3 1 -12 26.71 3.18
-3 -1 12 28.38 3.78
-3 -1 12 23.71 2.85
2 1 -12 20.24 2.87
2 1 -12 23.96 3.08
-2 -1 12 15.08 2.25
-2 -1 12 21.32 3.46
1 1 -12 19.88 2.63
1 1 -12 17.9 3.15
-1 -1 12 15.22 2.9
-1 -1 12 19.65 2.16
-1 -1 12 17.78 2.08
0 1 -12 9.19 2.11
0 1 -12 7.88 2.4
0 -1 12 6.25 1.62
0 -1 12 10.2 1.59
0 -1 12 9.87 2.47
-1 1 -12 1.61 1.58
-1 1 -12 5.7 1.89
1 -1 12 7.15 2.24
1 -1 12 2.36 1.54
-2 1 -12 4.42 2.09
-2 1 -12 -0.6 1.2
2 -1 12 0.43 1.65
2 -1 12 -0.94 1.58
-3 1 -12 3.05 2.02
-3 1 -12 3.74 1.59
3 -1 12 3.64 2.18
3 -1 12 2.18 1.76
-4 1 -12 2.38 1.25
-4 1 -12 -2.3 1.28
4 -1 12 1.25 1.78
4 -1 12 2.12 2.06
-5 1 -12 0.08 1.76
5 -1 12 -0.9 1.6
5 -1 12 -1.39 1.61
-6 1 -12 5.84 2.48
6 -1 12 8.86 2.62
6 -1 12 6.16 2.39
-7 1 -12 13.75 3.12
7 -1 12 11.37 2.87
7 -1 12 8.12 2.71
6 0 -12 -0.33 1.83
6 0 -12 1.74 1.28
-6 0 12 1.39 1.68
-6 0 12 -1.11 1.87
5 0 -12 6.98 1.99
5 0 -12 11.57 2.66
-5 0 12 9.88 2.5
-5 0 12 7.13 2.66
4 0 -12 15.09 2.64
4 0 -12 14.58 2.93
-4 0 12 20.15 3.48
-4 0 12 16.16 2.73
3 0 -12 13.44 2.62
3 0 -12 14.39 2.86
-3 0 12 13.28 2.96
-3 0 12 16.3 2.59
2 0 -12 6.12 2.17
2 0 -12 8.81 2.26
-2 0 12 6.96 1.62
-2 0 12 5.89 2.43
1 0 -12 18.58 2.93
1 0 -12 14.98 2.67
-1 0 12 13.1 1.91
-1 0 12 8.07 2.46
-1 0 12 15.36 1.98
0 0 -12 4.85 2.03
0 0 -12 2.32 1.85
0 0 12 0.31 1.67
0 0 12 2.03 1.44
-1 0 -12 44.47 3.46
-1 0 -12 46.68 3.97
1 0 12 46.2 3.31
1 0 12 38.61 3.89
-2 0 -12 9.01 2.5
-2 0 -12 5.91 1.92
2 0 12 2.27 1.59
2 0 12 5.79 2.21
-3 0 -12 -1.38 1.46
-3 0 -12 0.52 1.35
3 0 12 0.33 1.62
3 0 12 0.3 1.43
-4 0 -12 31.28 3.82
-4 0 -12 26.26 2.81
4 0 12 26.68 3.49
4 0 12 26.91 3.58
-5 0 -12 10.61 2.88
-5 0 -12 6.07 1.78
5 0 12 1.87 2.15
5 0 12 6.46 2.34
-6 0 -12 1.2 1.94
6 0 12 3.24 2.06
6 0 12 0.51 1.68
-7 0 -12 4.35 2.17
7 0 12 5.37 2.21
7 0 12 0.9 2.09
5 -1 -12 5.64 1.78
5 -1 -12 9.18 2.52
-5 1 12 3.11 2.08
-5 1 12 6.06 2.52
4 -1 -12 8.63 2.53
4 -1 -12 7.06 1.82
-4 1 12 11.08 2.4
-4 1 12 8.47 2.6
3 -1 -12 3.73 2.06
3 -1 -12 3.34 1.6
-3 1 12 3.31 2.02
-3 1 12 6.41 1.91
2 -1 -12 4.68 1.87
2 -1 -12 4.28 2.05
-2 1 12 7.08 2.45
-2 1 12 3.5 1.57
1 -1 -12 39.2 3.62
1 -1 -12 35.84 3.46
-1 1 12 40.11 3.98
-1 1 12 39.78 2.76
-1 1 12 41.26 2.83
0 -1 -12 1.84 1.73
0 -1 -12 0.02 1.36
0 1 12 1.33 1.79
0 1 12 1.46 1.23
-1 -1 -12 3.62 1.77
-1 -1 -12 -1.11 1.44
1 1 12 4.38 1.73
1 1 12 2.98 1.92
-2 -1 -12 22.07 3.02
-2 -1 -12 20.85 3.26
2 1 12 24.11 3
2 1 12 27.15 3.49
-3 -1 -12 11.88 2.77
-3 -1 -12 10 2.29
3 1 12 8.18 2.07
3 1 12 10.75 2.6
-4 -1 -12 1.57 1.6
-4 -1 -12 0.79 1.79
4 1 12 2.28 1.82
4 1 12 -1.39 1.57
-5 -1 -12 3.62 2.11
-5 -1 -12 2.5 1.74
5 1 12 1.3 1.88
5 1 12 0.43 1.73
-6 -1 -12 4.45 1.84
-6 -1 -12 3.51 2.08
6 1 12 -0.09 1.84
6 1 12 -3.32 1.65
-7 -1 -12 6.78 2.48
7 1 12 10 2.81
7 1 12 15.03 2.93
5 -2 -12 1.33 1.75
-5 2 12 3.19 1.65
-5 2 12 5.08 2.48
4 -2 -12 -0.98 1.8
4 -2 -12 1.85 1.39
-4 2 12 1.4 1.4
-4 2 12 2.65 1.86
3 -2 -12 55.43 3.69
3 -2 -12 53.35 4.51
-3 2 12 45.57 4.5
-3 2 12 52.93 3.61
2 -2 -12 1.36 1.34
2 -2 -12 -1.45 1.47
-2 2 12 1.78 1.84
-2 2 12 -0.74 0.91
1 -2 -12 0.77 1.42
1 -2 -12 2.65 1.68
-1 2 12 -2.52 1.57
-1 2 12 1.59 1.13
0 -2 -12 34.98 3.52
0 -2 -12 31.2 3.39
0 2 12 26.54 3.62
0 2 12 23.61 2.68
-1 -2 -12 0.37 1.51
-1 -2 -12 1.37 1.64
1 2 12 0.81 1.42
1 2 12 -3.1 1.51
-2 -2 -12 3.66 1.94
-2 -2 -12 0.99 1.66
2 2 12 0.61 1.62
2 2 12 -1.8 1.35
-3 -2 -12 0.92 1.86
-3 -2 -12 3.52 2
3 2 12 3.01 1.9
3 2 12 2.31 1.91
-4 -2 -12 15.44 3.18
-4 -2 -12 18.98 3.05
4 2 12 26.58 3.46
4 2 12 21.06 3.27
-5 -2 -12 12.36 2.58
-5 -2 -12 15.65 3.2
5 2 12 16.88 3.07
5 2 12 16.1 2.91
-6 -2 -12 0.24 1.82
-6 -2 -12 -2.12 1.42
6 2 12 1.86 2.03
6 2 12 0.19 1.78
-7 -2 -12 4.02 1.76
-7 -2 -12 5.29 2.57
7 2 12 2.97 2.06
7 2 12 5.5 2.02
5 -3 -12 33.61 3.65
5 -3 -12 28.49 4.06
-5 3 12 28.06 3.92
4 -3 -12 -3 1.27
4 -3 -12 -0.84 1.69
-4 3 12 1.29 2
3 -3 -12 3.2 1.74
3 -3 -12 1.57 2.04
-3 3 12 2.37 2.14
2 -3 -12 11.08 2.25
2 -3 -12 10.89 2.08
2 -3 -12 11.23 2.7
-2 3 12 8.42 2.61
1 -3 -12 1.2 1.42
1 -3 -12 -0.42 1.89
-1 3 12 -0.69 1.14
-1 3 12 -1.95 1.5
0 -3 -12 2.73 1.9
0 -3 -12 5.93 2
0 3 12 4.12 1.67
0 3 12 2.01 2.02
-1 -3 -12 4.23 2.13
-1 -3 -12 2.15 1.65
1 3 12 3.72 2.22
1 3 12 0.1 1.54
-2 -3 -12 -2.06 1.28
-2 -3 -12 3.43 2
2 3 12 0.94 1.68
2 3 12 2.47 1.93
-3 -3 -12 45.64 3.96
-3 -3 -12 42.12 3.99
3 3 12 34.59 3.73
3 3 12 42.93 3.8
-4 -3 -12 1.91 1.98
-4 -3 -12 2.51 1.89
4 3 12 0.29 1.86
4 3 12 0.21 1.79
-5 -3 -12 4.61 1.95
-5 -3 -12 -0.54 1.44
5 3 12 1.58 1.86
5 3 12 -2.32 1.81
-6 -3 -12 -1 1.77
-6 -3 -12 2.88 1.92
6 3 12 2.93 1.72
6 3 12 0.94 2.04
-7 -3 -12 8.14 2.39
-7 -3 -12 7.74 2.78
7 3 12 9.53 2.48
7 3 12 12.51 3.1
4 -4 -12 10.89 2.85
4 -4 -12 10.96 2.27
-4 4 12 14.57 3.47
3 -4 -12 0.3 1.9
3 -4 -12 1.41 1.23
-3 4 12 -0.06 1.86
2 -4 -12 4.78 1.42
2 -4 -12 5.48 2.15
-2 4 12 6.51 2.45
1 -4 -12 -0.55 1.16
1 -4 -12 0.16 1.96
-1 4 12 0.41 1.73
-1 4 12 2.13 1.32
0 -4 -12 10.22 2.15
0 -4 -12 15.71 3.15
0 4 12 7.69 2
0 4 12 9.97 2.48
-1 -4 -12 9.18 2.22
-1 -4 -12 6.89 2.35
1 4 12 9.16 2.24
1 4 12 3.29 2.09
-2 -4 -12 1.84 1.92
-2 -4 -12 -0.77 1.5
2 4 12 -1.26 1.63
2 4 12 -1.36 1.51
-3 -4 -12 1.21 1.75
-3 -4 -12 5.81 2.2
3 4 12 5.74 2.2
3 4 12 6.25 2.31
-4 -4 -12 -0.02 1.85
-4 -4 -12 1.87 1.79
4 4 12 3.85 2.13
4 4 12 2.32 1.89
-5 -4 -12 11.99 2.8
-5 -4 -12 5.9 2.23
5 4 12 7.81 2.56
5 4 12 14.47 2.67
-6 -4 -12 -0.01 1.9
-6 -4 -12 1.23 1.88
6 4 12 2.61 2.33
6 4 12 -1.03 1.5
-7 -4 -12 0.7 1.95
-7 -4 -12 2.66 1.81
7 4 12 -1.55 2.07
7 4 12 -1.09 1.52
3 -5 -12 2.02 2.18
3 -5 -12 0.68 1.44
-3 5 12 0.69 2.02
2 -5 -12 -0.42 2.13
2 -5 -12 1.1 1.36
-2 5 12 6.77 2.51
1 -5 -12 6.74 2.46
-1 5 12 0.64 1.44
-1 5 12 2.73 2.08
0 -5 -12 5.84 2.3
0 -5 -12 1.43 1.38
0 5 12 1.58 2
0 5 12 3.06 1.52
-1 -5 -12 1.06 1.36
-1 -5 -12 -0.58 1.78
1 5 12 -3.23 1.49
1 5 12 -0.57 1.66
-2 -5 -12 3.24 1.38
-2 -5 -12 0.39 1.87
2 5 12 -3.56 1.56
2 5 12 0.95 1.83
-3 -5 -12 7.76 2.52
-3 -5 -12 1.06 1.55
3 5 12 3.68 2.07
3 5 12 6.12 2.29
-4 -5 -12 -1.95 1.83
-4 -5 -12 1.19 1.76
4 5 12 2.5 2.2
4 5 12 2.44 2
-5 -5 -12 -0.29 1.73
-5 -5 -12 0.19 1.89
5 5 12 0.09 2.08
5 5 12 4.87 1.98
-6 -5 -12 7.71 2.64
-6 -5 -12 17.3 3.45
6 5 12 9.09 2.93
6 5 12 11.64 2.4
-7 -5 -12 9.39 2.71
-7 -5 -12 6.23 2.18
7 5 12 6.64 1.75
7 5 12 7.46 2.71
2 -6 -12 -0.6 2
-2 6 12 4.37 2.29
1 -6 -12 0.8 1.87
-1 6 12 0.82 1.97
-1 6 12 0.07 1.35
0 -6 -12 0.62 1.92
0 6 12 3.93 1.61
0 6 12 -1.38 1.51
-1 -6 -12 5.11 1.69
-1 -6 -12 2.98 2.27
1 6 12 2.51 1.86
1 6 12 -0.6 1.72
-2 -6 -12 -0.89 1.58
-2 -6 -12 -0.24 1.43
2 6 12 -0.43 1.84
2 6 12 0.92 1.96
-3 -6 -12 11.61 2.48
-3 -6 -12 13.89 3.1
3 6 12 11.9 2.62
3 6 12 9.26 2.46
-4 -6 -12 5.81 2.7
-4 -6 -12 6.52 1.95
4 6 12 5.76 2.31
4 6 12 9.14 2.71
-5 -6 -12 10.52 2.85
-5 -6 -12 10.93 2.69
5 6 12 6.94 2.06
5 6 12 13.95 3.1
-6 -6 -12 3.92 2.16
-6 -6 -12 2.93 2.46
6 6 12 5.33 2.78
6 6 12 5.44 1.92
1 -7 -12 -0.22 1.85
-1 7 12 -0.88 1.83
0 -7 -12 3.7 2.38
0 7 12 3.48 2.3
0 7 12 2.18 1.75
-1 -7 -12 1.85 2.16
1 7 12 1.42 1.84
1 7 12 -0.08 1.87
-2 -7 -12 6.89 2.5
-2 -7 -12 7.22 1.7
2 7 12 3.86 2.18
2 7 12 6.33 2.22
-3 -7 -12 14.02 3.08
-3 -7 -12 24.74 2.78
3 7 12 13.2 2.86
3 7 12 15.2 3.17
-4 -7 -12 2.18 1.5
-4 -7 -12 -0.25 2.01
4 7 12 3 2.2
4 7 12 4.59 1.71
-5 -7 -12 6.11 2.16
-5 -7 -12 6.91 3.01
5 7 12 3.36 1.64
5 7 12 4.67 2.61
-1 -8 -12 8.56 2.77
1 8 12 4.59 2.29
1 8 12 11.95 2.49
-2 -8 -12 3.09 1.95
2 8 12 1.8 1.72
2 8 12 3.5 2.15
-3 -8 -12 16.92 3.5
3 8 12 9.24 2.65
3 8 12 9.8 2.4
-4 -8 -12 8.21 2.21
-4 -8 -12 8.83 2.77
4 8 12 11.21 2.29
4 8 12 7.13 2.69
2 6 -13 4.46 2.21
-2 -6 13 3.15 1.58
-2 -6 13 2.02 1.95
1 6 -13 0.72 1.67
-1 -6 13 -0.84 1.62
0 6 -13 28.77 3.9
0 -6 13 35.19 4.09
-1 6 -13 0.28 1.81
1 -6 13 -1.74 1.6
1 -6 13 4.08 1.96
3 5 -13 1.62 1.88
-3 -5 13 2.29 1.26
-3 -5 13 -1.76 1.58
2 5 -13 37.35 4.08
-2 -5 13 38.34 3.24
-2 -5 13 33.79 3.87
1 5 -13 -1.07 1.52
-1 -5 13 0.29 1.76
0 5 -13 6.64 2.31
0 -5 13 8.91 2.63
-1 5 -13 -3.83 1.27
1 -5 13 0.54 2.05
1 -5 13 3.37 1.72
-2 5 -13 1.54 1.77
2 -5 13 0.16 1.6
2 -5 13 0.45 1.74
-3 5 -13 50.27 4.77
3 -5 13 50.41 4.69
3 -5 13 47.6 4.36
4 4 -13 5.3 2.26
4 4 -13 1.78 1.43
-4 -4 13 6.41 1.84
-4 -4 13 2.99 2.28
3 4 -13 2.14 1.74
3 4 -13 1.49 1.23
-3 -4 13 1.74 1.36
-3 -4 13 1.72 1.95
2 4 -13 4.72 2.23
2 4 -13 5.67 1.69
-2 -4 13 6.75 2.59
-2 -4 13 6.47 1.69
1 4 -13 3.17 2.04
-1 -4 13 -2.24 1.58
0 4 -13 12.15 2.9
0 -4 13 5.05 2.34
0 -4 13 8.38 2.13
-1 4 -13 33.49 4.06
1 -4 13 36.28 3.48
1 -4 13 35.16 4.07
-2 4 -13 3.43 2.03
2 -4 13 -2.05 1.51
2 -4 13 -0.84 1.83
-3 4 -13 -0.52 1.74
3 -4 13 1.98 2.04
3 -4 13 -2.71 1.39
-4 4 -13 27.64 4.01
4 -4 13 30.16 4.06
4 -4 13 16.62 3.58
4 3 -13 8.51 2.09
4 3 -13 13.39 3.02
-4 -3 13 11.28 2.26
-4 -3 13 10.26 2.91
3 3 -13 -0.83 1.37
3 3 -13 2.54 1.59
-3 -3 13 0.08 1.77
-3 -3 13 0.35 1.17
2 3 -13 13.79 2.56
2 3 -13 10.34 2.67
-2 -3 13 12.03 2.18
-2 -3 13 12.75 3.04
1 3 -13 47.8 3.44
1 3 -13 59.06 4.7
-1 -3 13 42.66 4.21
0 3 -13 5.42 2.43
0 -3 13 2.78 1.56
0 -3 13 1.63 1.93
-1 3 -13 0.3 1.65
1 -3 13 -0.39 1.43
1 -3 13 0.8 1.65
-2 3 -13 20.52 3.63
2 -3 13 9.9 2.75
2 -3 13 13.27 2.65
-3 3 -13 22.34 3.94
3 -3 13 31.51 3.63
3 -3 13 22.97 3.76
-4 3 -13 18.6 3.83
4 -3 13 21.01 3.39
4 -3 13 21.54 3.45
-5 3 -13 -1.25 1.61
5 -3 13 0.34 1.99
5 -3 13 2.84 1.99
4 2 -13 15.51 2.92
4 2 -13 13.97 2.64
-4 -2 13 16.69 2.7
-4 -2 13 12.85 3.17
3 2 -13 35.39 3.82
3 2 -13 34.13 3.49
-3 -2 13 40 3.22
-3 -2 13 29.77 3.98
2 2 -13 4.22 1.87
2 2 -13 3.06 1.97
-2 -2 13 0.45 1.97
-2 -2 13 6.05 1.6
1 2 -13 0.75 1.72
1 2 -13 0.58 1.14
-1 -2 13 1.32 1.94
0 2 -13 6.43 2.35
0 2 -13 9.29 2.12
0 -2 13 7.82 2.55
0 -2 13 8.19 1.9
-1 2 -13 51.27 3.49
-1 2 -13 42.6 4.23
1 -2 13 46.5 4.24
1 -2 13 43.02 3.52
-2 2 -13 25.56 3.61
2 -2 13 28.16 3.69
2 -2 13 32.52 3.33
-3 2 -13 9.11 2.63
3 -2 13 7.24 2.57
3 -2 13 2.81 1.93
-4 2 -13 17.44 3.53
4 -2 13 18 3.46
4 -2 13 20.07 3.23
-5 2 -13 13.07 3.27
5 -2 13 10.7 2.81
5 -2 13 9.62 2.64
4 1 -13 6.72 2.23
4 1 -13 7.07 2.15
-4 -1 13 7.27 2.55
-4 -1 13 4.9 1.81
3 1 -13 1.18 1.94
3 1 -13 2.55 1.67
-3 -1 13 1.05 1.97
-3 -1 13 0.92 1.22
2 1 -13 -0.56 1.47
2 1 -13 2.14 1.63
-2 -1 13 2.33 1.34
-2 -1 13 3.31 2.19
1 1 -13 32.96 3.89
1 1 -13 36.8 3.43
-1 -1 13 33.35 3.92
0 1 -13 12.34 2.77
0 1 -13 11.89 2.38
0 -1 13 11.45 2.83
0 -1 13 14.56 2.36
-1 1 -13 5.22 1.82
-1 1 -13 1.2 1.66
1 -1 13 0.36 1.79
1 -1 13 -1.07 1.29
-2 1 -13 3.41 2.21
-2 1 -13 3.03 1.72
2 -1 13 11.44 2.79
2 -1 13 1.29 1.72
-3 1 -13 18.51 3.38
-3 1 -13 16.09 2.58
3 -1 13 22.32 3.74
3 -1 13 17.42 3.07
-4 1 -13 22.12 3.51
4 -1 13 22.17 3.42
4 -1 13 24.28 3.74
-5 1 -13 1.62 1.9
5 -1 13 1.98 1.92
5 -1 13 0.56 1.95
6 -1 13 7.66 2.61
4 0 -13 1.99 1.39
4 0 -13 1.93 1.89
-4 0 13 1.44 1.32
-4 0 13 1.79 1.9
3 0 -13 50.04 3.89
3 0 -13 38.77 3.94
-3 0 13 50.78 4.77
-3 0 13 46.47 3.42
2 0 -13 1.11 1.67
2 0 -13 0.04 1.75
-2 0 13 -1.55 1.42
1 0 -13 5.61 1.98
1 0 -13 4.82 2.2
-1 0 13 6.87 2.47
0 0 -13 15.88 2.96
0 0 -13 19.43 2.82
0 0 13 14.69 2.33
0 0 13 15.76 3.08
-1 0 -13 0.16 1.47
-1 0 -13 0.52 1.63
1 0 13 -0.28 1.5
1 0 13 0.25 1.86
-2 0 -13 30.91 3.78
-2 0 -13 27.61 3.09
2 0 13 28.73 3.12
2 0 13 28.17 3.75
-3 0 -13 3.09 1.68
-3 0 -13 -2.14 1.46
3 0 13 5.18 2.26
3 0 13 2.87 1.85
-4 0 -13 7.25 1.97
-4 0 -13 8.9 2.68
4 0 13 4.43 2.17
4 0 13 5.95 2.39
-5 0 -13 3.59 2.26
5 0 13 2.66 2.12
5 0 13 2.38 2.22
-6 0 -13 1.19 1.86
6 0 13 -3.79 1.55
6 0 13 -0.38 1.97
4 -1 -13 5.17 2.39
4 -1 -13 2.64 1.52
-4 1 13 1.16 1.63
-4 1 13 1.96 2.1
3 -1 -13 2.47 1.93
3 -1 -13 -1.34 1.27
-3 1 13 1.96 1.53
-3 1 13 -0.19 1.77
2 -1 -13 17.34 2.93
2 -1 -13 19.27 3.06
-2 1 13 18.1 3.51
1 -1 -13 6.24 2.42
1 -1 -13 6.33 2.1
-1 1 13 5.63 2.58
0 -1 -13 20.58 3.06
0 -1 -13 25.31 3.26
0 1 13 20.15 3.52
0 1 13 22.6 2.73
-1 -1 -13 12.66 2.61
-1 -1 -13 9.91 2.69
1 1 13 11.68 2.86
1 1 13 4.8 1.82
-2 -1 -13 4.62 2.12
-2 -1 -13 8.69 2.35
2 1 13 6.18 2.24
2 1 13 5.62 2.13
-3 -1 -13 2.44 1.93
-3 -1 -13 8.62 2.09
3 1 13 11.89 2.5
3 1 13 3.41 2.27
-4 -1 -13 -1.73 1.32
-4 -1 -13 -1 1.65
4 1 13 -2.67 1.48
4 1 13 0.59 1.77
-5 -1 -13 24.39 3.81
-5 -1 -13 25.49 3.07
5 1 13 30.49 3.79
5 1 13 27.45 3.62
-6 -1 -13 5.14 2.2
6 1 13 7.32 2.38
6 1 13 1.95 1.93
4 -2 -13 14.48 3.28
-4 2 13 9.54 2.9
3 -2 -13 8.48 2.64
3 -2 -13 6.27 1.8
-3 2 13 5.51 2.33
2 -2 -13 9.1 2.49
2 -2 -13 9.71 2.1
-2 2 13 4.86 2.22
1 -2 -13 21.9 3.52
1 -2 -13 17 2.98
-1 2 13 14.22 3.41
0 -2 -13 0.21 1.5
0 -2 -13 4.68 2.22
0 2 13 1.73 1.45
0 2 13 2.07 2.13
-1 -2 -13 7.88 2.28
-1 -2 -13 7.99 2.53
1 2 13 6.64 2.29
1 2 13 6.62 1.92
-2 -2 -13 34.65 3.58
-2 -2 -13 26.37 3.55
2 2 13 25.41 3.63
2 2 13 30.77 3.42
-3 -2 -13 10.93 2.81
-3 -2 -13 14.84 2.91
3 2 13 13.47 3.05
3 2 13 17.19 2.91
-4 -2 -13 1.32 1.69
-4 -2 -13 1.27 1.83
4 2 13 2.96 2.12
4 2 13 0.54 1.89
-5 -2 -13 3.76 2.02
-5 -2 -13 3.67 1.69
5 2 13 4.22 2.33
5 2 13 4.96 2.03
-6 -2 -13 16.13 3.48
-6 -2 -13 23 3.05
6 2 13 19.44 3.18
6 2 13 14.83 2.93
3 -3 -13 21.33 3.42
-3 3 13 18.57 3.44
2 -3 -13 7.33 2.59
2 -3 -13 2.39 1.52
-2 3 13 0.15 1.91
1 -3 -13 0.88 2.18
1 -3 -13 -1.06 1.17
-1 3 13 -0.1 1.71
0 -3 -13 32.9 3.76
0 -3 -13 37.47 3.45
0 3 13 23.06 3.66
0 3 13 32.23 3.03
-1 -3 -13 14.58 3.04
-1 -3 -13 8.27 2.09
1 3 13 11.29 2.41
1 3 13 9.33 2.76
-2 -3 -13 -0.79 1.43
-2 -3 -13 -0.09 1.57
2 3 13 0.44 2.03
2 3 13 0.97 1.68
-3 -3 -13 -1.56 1.58
-3 -3 -13 2.04 1.95
3 3 13 1.73 1.79
3 3 13 -0.16 1.63
-4 -3 -13 4.12 1.98
-4 -3 -13 13.42 3.03
4 3 13 7.84 2.47
4 3 13 6.57 2.37
-5 -3 -13 13.29 2.73
-5 -3 -13 10.64 2.66
5 3 13 19.92 3.24
5 3 13 10.49 2.91
-6 -3 -13 10.52 2.5
-6 -3 -13 8.83 2.82
6 3 13 8.38 3.03
6 3 13 5.09 2.17
2 -4 -13 40.69 4.42
-2 4 13 49.05 4.67
1 -4 -13 2.59 2.17
1 -4 -13 5.7 1.73
-1 4 13 7.61 2.56
0 -4 -13 4.3 1.66
0 -4 -13 3.57 2.34
0 4 13 11.28 2.87
0 4 13 2.78 1.78
-1 -4 -13 9.91 2.83
-1 -4 -13 3.64 1.71
1 4 13 5.25 2.36
1 4 13 7.72 2.23
-2 -4 -13 1.02 1.57
-2 -4 -13 -0.17 1.86
2 4 13 0.59 1.88
2 4 13 -0.55 1.8
-3 -4 -13 6.41 1.98
-3 -4 -13 6.04 2.24
3 4 13 5.51 2.45
3 4 13 0.44 1.77
-4 -4 -13 11.81 3.04
-4 -4 -13 21.53 3.42
4 4 13 17.64 3.3
4 4 13 16.25 3.12
-5 -4 -13 0.73 1.9
-5 -4 -13 1.72 2
5 4 13 -0.47 1.94
5 4 13 3.51 2.03
-6 -4 -13 5.79 2.26
-6 -4 -13 4.39 2.08
6 4 13 3.49 1.97
6 4 13 1.56 2.12
1 -5 -13 15.14 3.41
-1 5 13 8.66 2.39
0 -5 -13 -1.55 1.79
0 5 13 3.09 1.67
0 5 13 1.98 2.02
-1 -5 -13 14.64 3.32
-1 -5 -13 14.09 2.37
1 5 13 15.01 3.07
1 5 13 15.86 2.78
-2 -5 -13 4.81 1.68
-2 -5 -13 -2.28 1.55
2 5 13 2.89 2.21
2 5 13 1.11 1.75
-3 -5 -13 6.08 2.12
-3 -5 -13 4.88 2.2
3 5 13 2.82 2.07
3 5 13 -0.44 1.88
-4 -5 -13 11.89 2.73
-4 -5 -13 20.26 3.77
4 5 13 10.01 2.67
4 5 13 17.09 3.32
-5 -5 -13 1.71 2.07
-5 -5 -13 2.76 1.96
5 5 13 3.19 1.79
5 5 13 -1.95 1.9
0 -6 -13 0.14 1.97
0 6 13 5.64 2.3
0 6 13 -1.42 1.47
-1 -6 -13 2.22 2.09
1 6 13 2.4 2.05
1 6 13 -1.29 1.52
-2 -6 -13 1.71 1.49
-2 -6 -13 3.06 2.4
2 6 13 -1.65 1.73
2 6 13 -0.55 1.62
-3 -6 -13 0.62 1.46
-3 -6 -13 3.96 2.17
3 6 13 3.85 1.88
3 6 13 0.16 1.87
-4 -6 -13 2.24 2.04
-4 -6 -13 5.12 2.01
4 6 13 5.9 2.13
4 6 13 2.5 2.05
0 4 -14 -1.57 1.64
2 3 -14 -0.52 1.61
2 3 -14 0.93 1.07
-2 -3 14 2.22 1.93
1 3 -14 -2.41 1.56
-1 -3 14 2.72 2.14
0 3 -14 2.42 2.03
0 -3 14 -0.06 1.98
-1 3 -14 4.29 2.02
1 -3 14 8.66 2.36
1 -3 14 9.83 2.91
-2 3 -14 11.42 3.02
2 -3 14 9.88 3.01
2 -3 14 8.71 2.3
2 2 -14 2.99 1.85
2 2 -14 2.77 1.68
-2 -2 14 6.13 2.36
1 2 -14 18.18 3.1
1 2 -14 14.87 3.15
-1 -2 14 20.27 3.66
0 2 -14 8.56 2.44
0 2 -14 8.11 2.02
0 -2 14 12.9 3.25
-1 2 -14 -0.58 1.6
1 -2 14 -0.06 1.73
1 -2 14 -0.09 1.37
-2 2 -14 11.21 2.95
2 -2 14 13.71 3.11
2 -2 14 13.11 2.6
-3 2 -14 2.94 2.05
3 -2 14 3.51 2.04
3 -2 14 5.97 2.65
2 1 -14 6.92 2.13
2 1 -14 10.53 2.76
-2 -1 14 6.19 2.51
1 1 -14 -1.1 1.49
1 1 -14 -0.8 1.51
-1 -1 14 -1.32 1.65
0 1 -14 23.97 3.34
0 1 -14 25.68 3.06
0 -1 14 20.81 3.66
-1 1 -14 3.32 1.93
-1 1 -14 -1.03 1.25
1 -1 14 -0.05 1.22
1 -1 14 0.8 1.78
-2 1 -14 13.78 3.25
2 -1 14 11.69 2.97
2 -1 14 12.96 2.57
-3 1 -14 -0.89 1.6
3 -1 14 2.34 1.89
3 -1 14 -1.2 1.7
2 0 -14 3.17 1.83
2 0 -14 2.15 1.65
-2 0 14 0.16 2.04
1 0 -14 2.1 1.71
1 0 -14 -0.62 1.7
-1 0 14 -1.27 1.78
0 0 -14 11.9 2.63
0 0 -14 16.3 3.13
0 0 14 11.12 2.9
-1 0 -14 1.26 1.46
-1 0 -14 1.72 1.98
1 0 14 1.83 1.79
1 0 14 0.03 1.82
-2 0 -14 6.43 2.09
-2 0 -14 16.63 3.47
2 0 14 6.65 2.15
2 0 14 12.97 3.03
-3 0 -14 26.34 3.17
-3 0 -14 23.46 4.07
3 0 14 23.01 3.12
3 0 14 23.47 3.69
-4 0 -14 5.46 2.28
4 0 14 6.97 2.48
4 0 14 4.64 2.13
2 -1 -14 16.13 3.08
2 -1 -14 27.11 3.15
-2 1 14 14.94 3.34
1 -1 -14 0.55 1.84
1 -1 -14 1.3 1.32
-1 1 14 3.73 2.5
0 -1 -14 2.18 1.68
0 -1 -14 4.83 2.04
0 1 14 8 2.75
-1 -1 -14 20.67 3.42
-1 -1 -14 18.52 3.19
1 1 14 13.1 2.43
1 1 14 15.53 3.32
-2 -1 -14 9.11 2.58
-2 -1 -14 5.75 2.29
2 1 14 7.27 2.62
2 1 14 4.37 2.02
-3 -1 -14 4.45 1.7
-3 -1 -14 0.72 1.72
3 1 14 3.68 2.2
3 1 14 -0.89 1.76
-4 -1 -14 15.78 3.34
-4 -1 -14 18.31 2.8
4 1 14 14.99 3.48
4 1 14 12.48 2.71
1 -2 -14 11.45 2.61
1 -2 -14 5.98 2.54
-1 2 14 7.44 2.64
0 -2 -14 8.33 2.47
0 -2 -14 3.94 2.31
0 2 14 2.78 2.38
-1 -2 -14 0.61 1.39
-1 -2 -14 -1.82 1.46
1 2 14 -0.85 1.86
1 2 14 2.46 1.93
-2 -2 -14 1.89 1.9
-2 -2 -14 2.86 1.88
2 2 14 0.18 1.59
2 2 14 -0.55 1.55
-3 -2 -14 6.04 2.52
-3 -2 -14 6.11 2.14
3 2 14 5.97 2.22
3 2 14 -1.85 1.7
-4 -2 -14 -0.79 1.76
-4 -2 -14 -0.61 1.6
4 2 14 1.47 2.12
4 2 14 -2.1 1.78
1 -3 -14 6.11 1.77
1 -3 -14 4.67 2.21
-1 3 14 2.93 1.93
0 -3 -14 8.02 2.15
0 -3 -14 6.41 2.32
0 3 14 5.81 2.58
-1 -3 -14 15.41 3.06
-1 -3 -14 9.12 2.87
1 3 14 17.6 3.56
1 3 14 14.02 2.55
-2 -3 -14 0.04 1.57
-2 -3 -14 0.61 1.75
2 3 14 -2.93 1.56
2 3 14 -2.7 1.6
-3 -3 -14 32.19 3.59
-3 -3 -14 33.16 3.83
3 3 14 34.56 4.08
3 3 14 35.37 3.9
-1 -4 -14 19.24 2.97
-1 -4 -14 13.99 3.32
1 4 14 22.04 2.97
1 4 14 12.36 3.12
-2 -4 -14 10.56 2.86
-2 -4 -14 5.35 2.29
2 4 14 -0.17 2.21
2 4 14 4.35 2.12
#BEGIN Loops that were not found in dictionaries:
loop_
_smtbx_masks_void_nr
_smtbx_masks_void_average_x
_smtbx_masks_void_average_y
_smtbx_masks_void_average_z
_smtbx_masks_void_volume
_smtbx_masks_void_count_electrons
1 0.000 0.500 0.000 45.6 40.9
#END Loops that were not found in dictionaries
