#------------------------------------------------------------------------------
#$Date: 2016-03-26 13:42:56 +0200 (Sat, 26 Mar 2016) $
#$Revision: 180233 $
#$URL: svn://www.crystallography.net/cod/cif/7/11/19/7111934.cif $
#------------------------------------------------------------------------------
#
# This file is available in the Crystallography Open Database (COD),
# http://www.crystallography.net/
#
# All data on this site have been placed in the public domain by the
# contributors.
#
data_7111934
loop_
_publ_author_name
'Dinesh G. (Dan) Patel'
'Ian M. Walton'
'Jordan M. Cox'
'Cody J. Gleason'
'David R. Butzer'
'Jason B. Benedict'
_publ_section_title
;
 Photoresponsive porous materials: the design and synthesis of
 photochromic diarylethene-based linkers and a metal-organic framework
;
_journal_name_full               Chem.Commun.
_journal_page_first              2653
_journal_paper_doi               10.1039/c3cc49666j
_journal_volume                  50
_journal_year                    2014
_chemical_formula_moiety         'C26 H18 O4 S2'
_chemical_formula_sum            'C26 H18 O4 S2'
_chemical_formula_weight         458.52
_space_group_crystal_system      monoclinic
_space_group_IT_number           13
_space_group_name_Hall           '-P 2yc'
_space_group_name_H-M_alt        'P 1 2/c 1'
_symmetry_space_group_name_Hall  '-P 2yc'
_symmetry_space_group_name_H-M   'P 1 2/c 1'
_atom_sites_solution_hydrogens   geom
_atom_sites_solution_primary     direct
_audit_creation_date             2013-11-15
_audit_creation_method
;
Olex2 1.2
(compiled 2013.11.15 svn.r2834 for OlexSys, GUI svn.r4707)
;
_cell_angle_alpha                90
_cell_angle_beta                 96.2569(14)
_cell_angle_gamma                90
_cell_formula_units_Z            2
_cell_length_a                   7.3757(3)
_cell_length_b                   11.0027(5)
_cell_length_c                   17.9502(8)
_cell_measurement_reflns_used    9945
_cell_measurement_temperature    90
_cell_measurement_theta_max      28.682
_cell_measurement_theta_min      2.175
_cell_volume                     1448.03(11)
_computing_molecular_graphics    'Olex2 (Dolomanov et al., 2009)'
_computing_publication_material  'Olex2 (Dolomanov et al., 2009)'
_computing_structure_refinement  'XL (Sheldrick, 2008)'
_computing_structure_solution    'ShelXS (Sheldrick, 2008)'
_diffrn_ambient_temperature      90
_diffrn_detector                 'Bruker APEX2 area detector'
_diffrn_detector_area_resol_mean 7.9
_diffrn_detector_type            'CCD area detector'
_diffrn_measured_fraction_theta_full 1.000
_diffrn_measured_fraction_theta_max 1.000
_diffrn_measurement_device       'three-circle diffractometer'
_diffrn_measurement_device_type  'Bruker SMART APEX2 area detector'
_diffrn_measurement_method       '\w and \f scans'
_diffrn_radiation_monochromator  'mirror optics'
_diffrn_radiation_probe          x-ray
_diffrn_radiation_type           MoK\a
_diffrn_radiation_wavelength     0.71073
_diffrn_reflns_av_R_equivalents  0.0390
_diffrn_reflns_av_unetI/netI     0.0241
_diffrn_reflns_Laue_measured_fraction_full 1.000
_diffrn_reflns_Laue_measured_fraction_max 1.000
_diffrn_reflns_limit_h_max       9
_diffrn_reflns_limit_h_min       -9
_diffrn_reflns_limit_k_max       14
_diffrn_reflns_limit_k_min       -14
_diffrn_reflns_limit_l_max       24
_diffrn_reflns_limit_l_min       -24
_diffrn_reflns_number            31209
_diffrn_reflns_point_group_measured_fraction_full 1.000
_diffrn_reflns_point_group_measured_fraction_max 1.000
_diffrn_reflns_theta_full        26.000
_diffrn_reflns_theta_max         28.723
_diffrn_reflns_theta_min         1.851
_diffrn_source                   'microfocus rotating anode'
_diffrn_source_type              'Incoatec I\ms'
_exptl_absorpt_coefficient_mu    0.208
_exptl_absorpt_correction_T_max  0.7458
_exptl_absorpt_correction_T_min  0.7119
_exptl_absorpt_correction_type   multi-scan
_exptl_absorpt_process_details
'SADABS-2012/1 (Bruker,2012) was used for absorption correction. wR2(int) was 0.0649 before and 0.0446 after correction. The Ratio of minimum to maximum transmission is 0.9545. The \l/2 correction factor is 0.0015.'
_exptl_crystal_colour            'clear colourless'
_exptl_crystal_colour_lustre     clear
_exptl_crystal_colour_primary    colourless
_exptl_crystal_density_diffrn    1.052
_exptl_crystal_F_000             476
_exptl_crystal_preparation       'Grown by slow evaporation of ethyl acetate'
_exptl_crystal_recrystallization_method
'grown by slow evaporation of ethyl acetate'
_exptl_crystal_size_max          0.2
_exptl_crystal_size_mid          0.1
_exptl_crystal_size_min          0.025
_refine_diff_density_max         0.831
_refine_diff_density_min         -0.209
_refine_diff_density_rms         0.067
_refine_ls_extinction_method     none
_refine_ls_goodness_of_fit_ref   1.083
_refine_ls_hydrogen_treatment    riding
_refine_ls_matrix_type           full
_refine_ls_number_parameters     147
_refine_ls_number_reflns         3746
_refine_ls_number_restraints     0
_refine_ls_restrained_S_all      1.083
_refine_ls_R_factor_all          0.0530
_refine_ls_R_factor_gt           0.0423
_refine_ls_shift/su_max          0.001
_refine_ls_shift/su_mean         0.000
_refine_ls_structure_factor_coef Fsqd
_refine_ls_weighting_details
'w=1/[\s^2^(Fo^2^)+(0.0634P)^2^+0.6911P] where P=(Fo^2^+2Fc^2^)/3'
_refine_ls_weighting_scheme      calc
_refine_ls_wR_factor_gt          0.1136
_refine_ls_wR_factor_ref         0.1189
_reflns_Friedel_coverage         0.000
_reflns_number_gt                3137
_reflns_number_total             3746
_reflns_threshold_expression     'I > 2\s(I)'
_iucr_refine_instructions_details
;
TITL IMW_091301_0m in P2/c #13
CELL 0.71073 7.3757 11.0027 17.9502 90 96.2569 90
ZERR 2 0.0003 0.0005 0.0008 0 0.0014 0
LATT 1
SYMM -X,+Y,0.5-Z
 
SFAC C H O S
UNIT 52 36 8 4
 
L.S. 10 0 0
PLAN  20
TEMP -183.15
REM reset to P2/c #13
BOND
MORE -1
fmap 2
acta 52
CONF
REM <HKL>C:/Users/Jason%20Benedict/Dropbox/Org%20Lett%20(or%20JACS)%20-%20Phen
REM anthrene%20DAE/X-ray%20data/ThioCOOH/IMW_091301_0m-mask.hkl</HKL>
 
WGHT    0.063400    0.691100
FVAR       0.15104
S1    4    0.466839    0.876761    0.388357    11.00000    0.01671    0.01077 =
         0.01371   -0.00264   -0.00038    0.00107
O1    3    0.783023    0.991053    0.478100    11.00000    0.01928    0.02208 =
         0.02981   -0.01274   -0.00310    0.00148
O2    3    0.989598    0.849830    0.454128    11.00000    0.01768    0.02871 =
         0.04151   -0.02224   -0.00568    0.00106
AFIX 147
H2    2    1.062761    0.898844    0.477260    11.00000   -1.50000
AFIX   0
C7    1    0.517922    0.553609    0.288398    11.00000    0.01153    0.00959 =
         0.01185    0.00017   -0.00082   -0.00004
C6    1    0.533109    0.439944    0.329489    11.00000    0.01474    0.01074 =
         0.01204    0.00062   -0.00038    0.00127
C8    1    0.536896    0.670019    0.331073    11.00000    0.01520    0.01069 =
         0.00790    0.00055   -0.00109   -0.00064
C9    1    0.702682    0.710336    0.371327    11.00000    0.01442    0.01505 =
         0.01326   -0.00266   -0.00121    0.00027
AFIX  43
H9    2    0.813140    0.665274    0.374686    11.00000   -1.20000
AFIX   0
C1    1    0.514112    0.328043    0.290743    11.00000    0.01748    0.01089 =
         0.01331    0.00048    0.00052    0.00151
C5    1    0.561815    0.438926    0.408965    11.00000    0.02500    0.01338 =
         0.01197   -0.00030   -0.00012    0.00205
AFIX  43
H5    2    0.576359    0.513643    0.435465    11.00000   -1.20000
AFIX   0
C12   1    0.396753    0.751101    0.336039    11.00000    0.01504    0.01187 =
         0.01079   -0.00004    0.00010   -0.00047
C13   1    0.201871    0.741473    0.303479    11.00000    0.01354    0.02170 =
         0.02333   -0.00716   -0.00250    0.00183
AFIX 137
H13A  2    0.122182    0.761949    0.341906    11.00000   -1.50000
H13B  2    0.176547    0.658224    0.285920    11.00000   -1.50000
H13C  2    0.179158    0.797937    0.261270    11.00000   -1.50000
AFIX   0
C4    1    0.568885    0.331249    0.448195    11.00000    0.03362    0.01694 =
         0.01155    0.00309    0.00048    0.00410
AFIX  43
H4    2    0.589696    0.332102    0.501362    11.00000   -1.20000
AFIX   0
C10   1    0.686074    0.821194    0.404775    11.00000    0.01501    0.01575 =
         0.01466   -0.00353   -0.00081   -0.00027
C2    1    0.519219    0.219336    0.332828    11.00000    0.03278    0.01103 =
         0.01490    0.00069    0.00115    0.00175
AFIX  43
H2A   2    0.504188    0.143731    0.307343    11.00000   -1.20000
AFIX   0
C11   1    0.824436    0.894847    0.449218    11.00000    0.01838    0.01859 =
         0.02022   -0.00803    0.00062   -0.00102
C3    1    0.545520    0.220543    0.410020    11.00000    0.03842    0.01419 =
         0.01709    0.00437    0.00243    0.00471
AFIX  43
H3    2    0.547778    0.146407    0.437234    11.00000   -1.20000
AFIX   0
HKLF 4
 
REM  IMW_091301_0m in P2/c #13
REM R1 =  0.0423 for    3137 Fo > 4sig(Fo)  and  0.0530 for all    3746 data
REM    147 parameters refined using      0 restraints
 
END  
     
WGHT      0.0634      0.6915 

REM Highest difference peak  0.831,  deepest hole -0.209,  1-sigma level  0.067
Q1    1   1.0544  0.5780  0.4102  11.00000  0.05    0.83
Q2    1   0.0301  0.5132  0.2776  11.00000  0.05    0.43
Q3    1   0.8905  0.8579  0.4702  11.00000  0.05    0.42
Q4    1   0.7634  0.8561  0.4235  11.00000  0.05    0.42
Q5    1   0.5780  0.8601  0.3958  11.00000  0.05    0.39
Q6    1   0.5279  0.3809  0.3102  11.00000  0.05    0.38
Q7    1   0.5322  0.4948  0.3070  11.00000  0.05    0.35
Q8    1   0.6175  0.6859  0.3504  11.00000  0.05    0.35
Q9    1   0.5193  0.6127  0.3123  11.00000  0.05    0.34
Q10   1   0.5466  0.3787  0.4237  11.00000  0.05    0.33
Q11   1   0.5179  0.2770  0.3113  11.00000  0.05    0.33
Q12   1   0.5000  0.3329  0.2500  10.50000  0.05    0.33
Q13   1   0.5310  0.2246  0.3722  11.00000  0.05    0.33
Q14   1   0.4211  0.8130  0.3638  11.00000  0.05    0.32
Q15   1   0.4733  0.7206  0.3237  11.00000  0.05    0.32
Q16   1   0.5308  0.2755  0.4259  11.00000  0.05    0.31
Q17   1   0.5000  0.5588  0.2500  10.50000  0.05    0.31
Q18   1   0.4555  0.6979  0.3412  11.00000  0.05    0.30
Q19   1   0.4384  0.9434  0.3775  11.00000  0.05    0.29
Q20   1   0.7065  0.7807  0.3735  11.00000  0.05    0.28

REM The information below was added by Olex2.
REM
REM R1 = 0.0423 for 3137 Fo > 4sig(Fo) and 0.0530 for all 3746 data
REM n/a parameters refined using n/a restraints
REM Highest difference peak 0.83, deepest hole -0.21
REM Mean Shift 0, Max Shift 0.

REM +++ Tabular Listing of Refinement Information +++
REM R1_all = 0.0530
REM R1_gt = 0.0423
REM wR_ref = 0.1189
REM GOOF = 1.083
REM Shift_max = 0
REM Shift_mean = 0
REM Reflections_all = 3746
REM Reflections_gt = 3137
REM Parameters = n/a
REM Hole = -0.21
REM Peak = 0.83
REM Flack = n/a

;
_cod_data_source_file            c3cc49666j.txt
_cod_data_source_block           7b
_cod_database_code               7111934
#BEGIN Tags that were not found in dictionaries:
_shelxl_version_number           2013-3
_shelx_space_group_comment
;
The symmetry employed for this shelxl refinement is uniquely defined
by the following loop, which should always be used as a source of
symmetry information in preference to the above space-group names.
They are only intended as comments.
;
_olex2_refinement_description
;
1. Fixed Uiso
 At 1.2 times of:
  All C(H) groups
 At 1.5 times of:
  All C(H,H,H) groups, All O(H) groups
2.a Aromatic/amide H refined with riding coordinates:
 C9(H9), C5(H5), C4(H4), C2(H2A), C3(H3)
2.b Idealised Me refined as rotating group:
 C13(H13A,H13B,H13C)
2.c Idealised tetrahedral OH refined as rotating group:
 O2(H2)
;
#END Tags that were not found in dictionaries
loop_
_space_group_symop_operation_xyz
'x, y, z'
'-x, y, -z+1/2'
'-x, -y, -z'
'x, -y, z-1/2'
loop_
_atom_site_label
_atom_site_type_symbol
_atom_site_fract_x
_atom_site_fract_y
_atom_site_fract_z
_atom_site_U_iso_or_equiv
_atom_site_adp_type
_atom_site_occupancy
_atom_site_site_symmetry_order
_atom_site_calc_flag
_atom_site_refinement_flags_posn
S1 S 0.46684(5) 0.87676(3) 0.38836(2) 0.01388(11) Uani 1 1 d .
O1 O 0.78302(16) 0.99105(11) 0.47810(7) 0.0241(3) Uani 1 1 d .
O2 O 0.98960(16) 0.84983(12) 0.45413(8) 0.0300(3) Uani 1 1 d .
H2 H 1.0628 0.8988 0.4773 0.045 Uiso 1 1 calc GR
C7 C 0.51792(19) 0.55361(12) 0.28840(7) 0.0111(3) Uani 1 1 d .
C6 C 0.53311(19) 0.43994(12) 0.32949(8) 0.0126(3) Uani 1 1 d .
C8 C 0.53690(19) 0.67002(12) 0.33107(7) 0.0114(3) Uani 1 1 d .
C9 C 0.7027(2) 0.71034(13) 0.37133(8) 0.0144(3) Uani 1 1 d .
H9 H 0.8131 0.6653 0.3747 0.017 Uiso 1 1 calc R
C1 C 0.5141(2) 0.32804(13) 0.29074(8) 0.0140(3) Uani 1 1 d .
C5 C 0.5618(2) 0.43893(13) 0.40896(8) 0.0169(3) Uani 1 1 d .
H5 H 0.5764 0.5136 0.4355 0.020 Uiso 1 1 calc R
C12 C 0.39675(19) 0.75110(13) 0.33604(8) 0.0127(3) Uani 1 1 d .
C13 C 0.2019(2) 0.74147(15) 0.30348(9) 0.0199(3) Uani 1 1 d .
H13A H 0.1222 0.7619 0.3419 0.030 Uiso 1 1 calc GR
H13B H 0.1765 0.6582 0.2859 0.030 Uiso 1 1 calc GR
H13C H 0.1792 0.7979 0.2613 0.030 Uiso 1 1 calc GR
C4 C 0.5689(2) 0.33125(14) 0.44820(9) 0.0208(3) Uani 1 1 d .
H4 H 0.5897 0.3321 0.5014 0.025 Uiso 1 1 calc R
C10 C 0.6861(2) 0.82119(13) 0.40477(8) 0.0153(3) Uani 1 1 d .
C2 C 0.5192(2) 0.21934(14) 0.33283(8) 0.0197(3) Uani 1 1 d .
H2A H 0.5042 0.1437 0.3073 0.024 Uiso 1 1 calc R
C11 C 0.8244(2) 0.89485(14) 0.44922(9) 0.0192(3) Uani 1 1 d .
C3 C 0.5455(3) 0.22054(14) 0.41002(9) 0.0233(4) Uani 1 1 d .
H3 H 0.5478 0.1464 0.4372 0.028 Uiso 1 1 calc R
loop_
_atom_site_aniso_label
_atom_site_aniso_U_11
_atom_site_aniso_U_22
_atom_site_aniso_U_33
_atom_site_aniso_U_23
_atom_site_aniso_U_13
_atom_site_aniso_U_12
S1 0.01671(19) 0.01077(17) 0.01371(18) -0.00264(12) -0.00038(13) 0.00107(13)
O1 0.0193(6) 0.0221(6) 0.0298(6) -0.0127(5) -0.0031(5) 0.0015(4)
O2 0.0177(6) 0.0287(7) 0.0415(8) -0.0222(6) -0.0057(5) 0.0011(5)
C7 0.0115(6) 0.0096(6) 0.0118(7) 0.0002(5) -0.0008(5) 0.0000(5)
C6 0.0147(7) 0.0107(6) 0.0120(6) 0.0006(5) -0.0004(5) 0.0013(5)
C8 0.0152(7) 0.0107(6) 0.0079(6) 0.0005(5) -0.0011(5) -0.0006(5)
C9 0.0144(7) 0.0151(7) 0.0133(6) -0.0027(5) -0.0012(5) 0.0003(5)
C1 0.0175(7) 0.0109(6) 0.0133(7) 0.0005(5) 0.0005(5) 0.0015(5)
C5 0.0250(8) 0.0134(7) 0.0120(7) -0.0003(5) -0.0001(6) 0.0020(6)
C12 0.0150(7) 0.0119(6) 0.0108(6) 0.0000(5) 0.0001(5) -0.0005(5)
C13 0.0135(7) 0.0217(8) 0.0233(8) -0.0072(6) -0.0025(6) 0.0018(6)
C4 0.0336(9) 0.0169(7) 0.0115(7) 0.0031(6) 0.0005(6) 0.0041(6)
C10 0.0150(7) 0.0158(7) 0.0147(7) -0.0035(5) -0.0008(5) -0.0003(5)
C2 0.0328(9) 0.0110(7) 0.0149(7) 0.0007(5) 0.0012(6) 0.0017(6)
C11 0.0184(7) 0.0186(7) 0.0202(7) -0.0080(6) 0.0006(6) -0.0010(6)
C3 0.0384(10) 0.0142(7) 0.0171(7) 0.0044(6) 0.0024(7) 0.0047(7)
loop_
_atom_type_symbol
_atom_type_description
_atom_type_scat_dispersion_real
_atom_type_scat_dispersion_imag
_atom_type_scat_source
C C 0.0033 0.0016 'International Tables Vol C Tables 4.2.6.8 and 6.1.1.4'
H H 0.0000 0.0000 'International Tables Vol C Tables 4.2.6.8 and 6.1.1.4'
O O 0.0106 0.0060 'International Tables Vol C Tables 4.2.6.8 and 6.1.1.4'
S S 0.1246 0.1234 'International Tables Vol C Tables 4.2.6.8 and 6.1.1.4'
loop_
_geom_angle_atom_site_label_1
_geom_angle_atom_site_label_2
_geom_angle_atom_site_label_3
_geom_angle
_geom_angle_site_symmetry_1
_geom_angle_site_symmetry_3
C12 S1 C10 91.65(7) . .
C7 C7 C6 120.38(8) 2_655 .
C7 C7 C8 120.80(7) 2_655 .
C6 C7 C8 118.80(12) . .
C1 C6 C7 120.20(12) . .
C1 C6 C5 118.92(13) . .
C5 C6 C7 120.86(13) . .
C9 C8 C7 123.81(13) . .
C12 C8 C7 124.14(13) . .
C12 C8 C9 112.05(12) . .
C10 C9 C8 112.78(13) . .
C6 C1 C1 119.36(8) . 2_655
C2 C1 C6 118.61(13) . .
C2 C1 C1 122.01(8) . 2_655
C4 C5 C6 120.95(14) . .
C8 C12 S1 111.94(11) . .
C8 C12 C13 128.74(13) . .
C13 C12 S1 119.31(11) . .
C5 C4 C3 120.20(14) . .
C9 C10 S1 111.57(11) . .
C9 C10 C11 129.71(14) . .
C11 C10 S1 118.72(11) . .
C3 C2 C1 121.47(14) . .
O1 C11 O2 124.64(14) . .
O1 C11 C10 120.88(14) . .
O2 C11 C10 114.47(13) . .
C2 C3 C4 119.82(14) . .
loop_
_geom_bond_atom_site_label_1
_geom_bond_atom_site_label_2
_geom_bond_distance
_geom_bond_site_symmetry_2
S1 C12 1.7190(14) .
S1 C10 1.7238(15) .
O1 C11 1.2317(19) .
O2 C11 1.309(2) .
C7 C7 1.375(3) 2_655
C7 C6 1.4501(18) .
C7 C8 1.4911(19) .
C6 C1 1.4135(19) .
C6 C5 1.419(2) .
C8 C9 1.4218(19) .
C8 C12 1.376(2) .
C9 C10 1.371(2) .
C1 C1 1.455(3) 2_655
C1 C2 1.413(2) .
C5 C4 1.376(2) .
C12 C13 1.495(2) .
C4 C3 1.399(2) .
C10 C11 1.469(2) .
C2 C3 1.378(2) .
loop_
_geom_torsion_atom_site_label_1
_geom_torsion_atom_site_label_2
_geom_torsion_atom_site_label_3
_geom_torsion_atom_site_label_4
_geom_torsion
_geom_torsion_site_symmetry_1
_geom_torsion_site_symmetry_4
S1 C10 C11 O1 4.3(2) . .
S1 C10 C11 O2 -175.16(12) . .
C7 C7 C6 C1 1.0(2) 2_655 .
C7 C7 C6 C5 -177.11(17) 2_655 .
C7 C7 C8 C9 -113.56(19) 2_655 .
C7 C7 C8 C12 66.3(2) 2_655 .
C7 C6 C1 C1 2.2(2) . 2_655
C7 C6 C1 C2 -176.39(14) . .
C7 C6 C5 C4 177.34(14) . .
C7 C8 C9 C10 178.86(13) . .
C7 C8 C12 S1 -179.04(10) . .
C7 C8 C12 C13 1.6(2) . .
C6 C7 C8 C9 68.07(18) . .
C6 C7 C8 C12 -112.10(16) . .
C6 C1 C2 C3 -1.2(2) . .
C6 C5 C4 C3 -0.8(3) . .
C8 C7 C6 C1 179.42(13) . .
C8 C7 C6 C5 1.3(2) . .
C8 C9 C10 S1 0.71(17) . .
C8 C9 C10 C11 -178.29(15) . .
C9 C8 C12 S1 0.81(16) . .
C9 C8 C12 C13 -178.52(14) . .
C9 C10 C11 O1 -176.75(16) . .
C9 C10 C11 O2 3.8(3) . .
C1 C6 C5 C4 -0.8(2) . .
C1 C1 C2 C3 -179.81(18) 2_655 .
C1 C2 C3 C4 -0.4(3) . .
C5 C6 C1 C1 -179.58(17) . 2_655
C5 C6 C1 C2 1.8(2) . .
C5 C4 C3 C2 1.4(3) . .
C12 S1 C10 C9 -0.21(12) . .
C12 S1 C10 C11 178.91(13) . .
C12 C8 C9 C10 -0.98(18) . .
C10 S1 C12 C8 -0.35(11) . .
C10 S1 C12 C13 179.05(12) . .
loop_
_refln_index_h
_refln_index_k
_refln_index_l
_refln_F_squared_meas
_refln_F_squared_sigma
1 0 0 252.2 4.47
-1 0 0 247.25 4.28
1 0 0 261 4.39
1 0 0 250.41 4.28
-1 0 0 254.65 4.48
-1 0 0 239.81 4.7
2 0 0 990.71 17.37
2 0 0 997.48 16.64
-2 0 0 985.61 17.41
2 0 0 977.93 17.83
2 0 0 1000 16.9
2 0 0 986.85 18.02
2 0 0 980.05 16.61
3 0 0 94.77 1.92
3 0 0 97.31 1.85
3 0 0 94.11 1.97
-3 0 0 94.89 1.75
-3 0 0 93.38 1.97
3 0 0 94.25 1.66
3 0 0 92.22 1.66
-3 0 0 96.39 1.83
3 0 0 99.06 1.76
4 0 0 284.27 4.84
4 0 0 291.5 4.96
-4 0 0 280.85 5.13
4 0 0 296.54 5.35
4 0 0 285.8 4.83
-4 0 0 283.12 5.4
4 0 0 282.84 5.15
5 0 0 1.68 0.13
-5 0 0 1.54 0.32
-5 0 0 1.54 0.23
5 0 0 1.51 0.31
5 0 0 1.96 0.26
5 0 0 1.79 0.16
6 0 0 36.76 1.16
6 0 0 34.09 0.73
6 0 0 37.65 0.76
6 0 0 37.68 0.98
-6 0 0 36.39 1.01
-6 0 0 39.46 1.26
-7 0 0 1.54 0.27
7 0 0 1.55 0.28
7 0 0 1.61 0.37
-7 0 0 2.58 0.45
8 0 0 3.2 0.42
8 0 0 2.73 0.5
-8 0 0 3.29 0.42
-8 0 0 4.37 0.66
9 0 0 2.55 0.4
9 0 0 2.41 0.53
-9 0 0 2.6 0.56
0 -1 0 0.36 0.07
0 -1 0 0.32 0.05
0 1 0 0.34 0.08
0 1 0 0.28 0.05
1 -1 0 46.25 0.81
-1 -1 0 47.51 0.94
-1 -1 0 47.6 0.89
-1 -1 0 46.05 0.83
1 -1 0 46.29 0.85
1 -1 0 45.34 0.91
1 -1 0 46.98 0.94
1 -1 0 46.88 0.86
-1 -1 0 45.99 0.81
-1 1 0 47.07 0.86
1 1 0 46.04 0.93
-1 1 0 45.25 0.93
1 1 0 45.63 0.89
-1 1 0 45.11 0.81
1 1 0 47.55 0.89
1 1 0 47.24 0.83
-1 1 0 46.38 0.91
-1 1 0 44.72 0.85
1 1 0 46.82 0.81
-2 -1 0 75.67 1.46
-2 -1 0 75.02 1.54
2 -1 0 75.52 1.42
2 -1 0 77.88 1.56
2 -1 0 77.57 1.41
2 -1 0 74.96 1.31
-2 -1 0 73.55 1.34
2 -1 0 75.77 1.51
-2 1 0 77.46 1.52
2 1 0 74.13 1.49
-2 1 0 71.99 1.31
-2 1 0 75.42 1.4
2 1 0 75.6 1.5
2 1 0 79.28 1.47
2 1 0 75.02 1.54
-2 1 0 74.71 1.41
2 1 0 77.47 1.35
2 1 0 75.81 1.34
2 1 0 77.65 1.36
-2 1 0 76.45 1.56
-3 -1 0 0.55 0.1
3 -1 0 0.75 0.1
-3 -1 0 0.64 0.16
3 -1 0 0.74 0.16
3 -1 0 0.67 0.08
-3 -1 0 0.51 0.19
3 -1 0 0.65 0.18
3 -1 0 0.61 0.14
3 1 0 0.6 0.15
-3 1 0 0.23 0.19
-3 1 0 0.54 0.14
3 1 0 0.47 0.16
3 1 0 0.55 0.18
-3 1 0 0.45 0.13
-3 1 0 0.27 0.17
3 1 0 0.73 0.19
3 1 0 0.63 0.09
3 1 0 0.45 0.11
3 1 0 0.58 0.12
-4 -1 0 2.15 0.31
4 -1 0 1.74 0.13
4 -1 0 1.99 0.24
4 -1 0 2.09 0.28
4 -1 0 2.17 0.26
4 -1 0 1.76 0.13
-4 -1 0 1.89 0.27
-4 -1 0 1.71 0.16
4 1 0 1.69 0.27
-4 1 0 1.87 0.29
4 1 0 1.9 0.15
-4 1 0 1.75 0.24
4 1 0 1.72 0.2
4 1 0 1.85 0.2
-5 -1 0 5.53 0.48
-5 -1 0 5.65 0.38
5 -1 0 4.82 0.19
5 -1 0 5.14 0.45
5 -1 0 4.8 0.18
5 -1 0 5.38 0.36
-5 1 0 5.28 0.35
5 1 0 5.13 0.22
5 1 0 4.46 0.43
5 1 0 4.93 0.24
-5 1 0 5.23 0.5
5 1 0 5.36 0.31
-6 -1 0 1.33 0.34
6 -1 0 2.53 0.38
6 -1 0 1.79 0.14
6 -1 0 2.11 0.13
6 -1 0 2.33 0.31
-6 -1 0 2.22 0.34
-6 1 0 3.29 0.48
6 1 0 2.09 0.2
6 1 0 2.16 0.37
6 1 0 2.56 0.29
6 1 0 2.11 0.16
-6 1 0 2.71 0.33
-7 -1 0 0.63 0.33
7 -1 0 -0.12 0.2
7 -1 0 -0.31 0.24
-7 -1 0 0.53 0.24
7 1 0 0.33 0.2
-7 1 0 0.18 0.21
7 1 0 0.29 0.3
-7 1 0 0.91 0.37
-8 -1 0 0.14 0.34
8 -1 0 -0.67 0.28
-8 -1 0 -0.15 0.23
8 -1 0 -0.46 0.2
-8 1 0 -0.15 0.33
8 1 0 0.58 0.24
8 1 0 0.64 0.37
-8 1 0 0.05 0.19
-9 -1 0 0.78 0.45
9 -1 0 1.54 0.38
-9 -1 0 1.28 0.35
9 -1 0 0.7 0.43
-9 1 0 0.56 0.44
9 1 0 1.21 0.31
9 1 0 1.42 0.48
0 -2 0 119.65 2.06
0 -2 0 119.59 2.04
0 -2 0 121 2.2
0 -2 0 117.71 2.11
0 2 0 117.37 2.2
0 2 0 121.92 2.06
0 2 0 121.56 2.13
0 2 0 114.82 2.11
0 2 0 120.36 2.03
-1 -2 0 51.5 0.97
-1 -2 0 49.6 0.94
-1 -2 0 51.17 1
1 -2 0 48.79 0.93
-1 -2 0 48.18 0.89
1 -2 0 50.81 1.06
1 -2 0 49.14 0.96
-1 -2 0 52.32 1.04
1 -2 0 50.6 0.92
1 2 0 51.99 1.04
1 2 0 49.84 0.97
1 2 0 50.53 0.94
-1 2 0 51.31 0.99
-1 2 0 49.69 0.96
1 2 0 49.59 0.89
-1 2 0 48.02 0.94
-1 2 0 50.46 1.06
1 2 0 49.58 0.99
2 -2 0 2.96 0.23
-2 -2 0 2.98 0.16
2 -2 0 2.78 0.24
2 -2 0 2.75 0.15
-2 -2 0 2.89 0.19
2 -2 0 2.95 0.18
-2 -2 0 3.39 0.25
2 -2 0 2.97 0.28
-2 2 0 3.03 0.26
-2 2 0 2.78 0.19
2 2 0 3.07 0.27
2 2 0 3.21 0.17
2 2 0 3.04 0.23
2 2 0 2.9 0.23
-2 2 0 2.84 0.3
2 2 0 2.97 0.16
-2 2 0 3.22 0.22
-2 2 0 2.85 0.15
-3 -2 0 5.02 0.38
3 -2 0 4.98 0.25
3 -2 0 4.77 0.3
-3 -2 0 4.68 0.3
3 -2 0 5.48 0.18
-3 -2 0 4.96 0.23
3 2 0 4.91 0.22
-3 2 0 4.85 0.26
3 2 0 4.83 0.22
3 2 0 4.97 0.32
3 2 0 4.73 0.33
-3 2 0 4.65 0.33
-3 2 0 5.34 0.39
3 2 0 5.2 0.24
-3 2 0 4.77 0.18
3 2 0 4.75 0.3
-4 -2 0 0.27 0.2
4 -2 0 0.17 0.14
-4 -2 0 0.27 0.11
-4 -2 0 0.44 0.17
4 -2 0 0.34 0.17
4 -2 0 0.26 0.07
-4 2 0 0.44 0.08
4 2 0 0.17 0.11
-4 2 0 0.29 0.14
-4 2 0 0.21 0.21
4 2 0 0.26 0.09
4 2 0 0.42 0.12
4 2 0 0.11 0.17
-5 -2 0 0.72 0.14
5 -2 0 0.88 0.26
5 -2 0 1.11 0.12
5 -2 0 0.91 0.12
5 -2 0 0.73 0.2
-5 -2 0 0.58 0.2
-5 -2 0 1.06 0.29
-5 2 0 1.13 0.2
5 2 0 0.57 0.15
5 2 0 0.61 0.11
5 2 0 0.71 0.23
-5 2 0 0.59 0.26
6 -2 0 1.14 0.32
-6 -2 0 1.42 0.28
-6 -2 0 1.37 0.35
6 -2 0 1.61 0.28
6 2 0 1.66 0.34
-6 2 0 1.91 0.38
6 2 0 1.56 0.19
-6 2 0 1.44 0.25
6 2 0 1.3 0.21
-7 -2 0 2.97 0.42
-7 -2 0 4.61 0.59
7 -2 0 2.76 0.44
7 -2 0 3.2 0.43
7 2 0 3.28 0.33
-7 2 0 2.58 0.49
7 2 0 2.97 0.46
7 2 0 3.12 0.26
-7 2 0 2.93 0.35
8 -2 0 -0.09 0.35
-8 -2 0 -0.12 0.31
8 -2 0 0.04 0.26
-8 -2 0 -0.05 0.23
-8 2 0 0.53 0.38
8 2 0 0.13 0.21
8 2 0 -0.22 0.32
-8 2 0 -0.02 0.2
-9 -2 0 0.85 0.41
9 -2 0 0.42 0.43
-9 -2 0 0.48 0.29
9 -2 0 0.18 0.31
9 2 0 -0.27 0.36
-9 2 0 0.82 0.46
0 -3 0 31.29 0.65
0 -3 0 29.64 0.62
0 -3 0 31.29 0.73
0 -3 0 30.96 0.63
0 3 0 31.5 0.67
0 3 0 32.05 0.74
0 3 0 30.05 0.63
0 3 0 30.26 0.65
0 3 0 29.91 0.62
0 3 0 31.15 0.66
-1 -3 0 3.26 0.25
1 -3 0 3.34 0.27
-1 -3 0 3.15 0.16
1 -3 0 3.08 0.18
-1 -3 0 3.41 0.25
1 -3 0 3.25 0.23
-1 -3 0 3.3 0.18
1 -3 0 3.2 0.2
1 -3 0 3.07 0.19
-1 -3 0 3.38 0.21
-1 3 0 3.11 0.19
-1 3 0 3.85 0.24
-1 3 0 2.96 0.21
1 3 0 3.27 0.27
1 3 0 3.69 0.18
1 3 0 2.79 0.15
1 3 0 3.34 0.21
1 3 0 3.02 0.23
-1 3 0 3.25 0.28
2 -3 0 103.42 1.93
2 -3 0 102.7 1.89
-2 -3 0 105.75 2.01
2 -3 0 104.36 1.84
-2 -3 0 103.58 1.8
2 -3 0 102.19 2.09
-2 -3 0 106.31 1.89
-2 -3 0 103.18 1.98
2 -3 0 103.33 2.02
2 3 0 103.25 1.81
2 3 0 107.55 2.08
-2 3 0 100.06 1.92
2 3 0 107.14 1.99
-2 3 0 101.98 2.11
-2 3 0 102.36 2.02
-2 3 0 101.14 1.91
2 3 0 106.54 2.02
-2 3 0 102.11 1.85
2 3 0 103.17 1.89
2 3 0 108.25 2.1
3 -3 0 3.44 0.22
-3 -3 0 3.63 0.3
3 -3 0 4.21 0.3
3 -3 0 3.72 0.19
-3 -3 0 3.83 0.24
-3 3 0 3.66 0.19
3 3 0 3.34 0.2
-3 3 0 3.6 0.38
3 3 0 3.85 0.19
3 3 0 3.95 0.34
-3 3 0 4 0.33
-3 3 0 3.82 0.25
3 3 0 3.66 0.29
3 3 0 3.57 0.26
3 3 0 3.99 0.21
-4 -3 0 8.32 0.33
4 -3 0 8.47 0.26
-4 -3 0 8.9 0.44
4 -3 0 7.89 0.41
-4 -3 0 8.34 0.51
4 -3 0 8.6 0.34
-4 3 0 8.4 0.26
-4 3 0 7.84 0.46
4 3 0 8.47 0.32
-4 3 0 8.75 0.54
-4 3 0 7.72 0.35
4 3 0 8.12 0.45
4 3 0 8.73 0.31
5 -3 0 2.05 0.15
-5 -3 0 1.79 0.28
5 -3 0 1.55 0.26
5 -3 0 1.77 0.31
-5 -3 0 2.03 0.22
-5 -3 0 1.96 0.33
-5 3 0 2.1 0.14
-5 3 0 2.13 0.26
5 3 0 1.89 0.22
5 3 0 2.62 0.39
-5 3 0 2.99 0.46
-6 -3 0 11.01 0.69
6 -3 0 11 0.67
-6 -3 0 11.08 0.43
6 -3 0 11.31 0.57
-6 -3 0 10.71 0.59
6 3 0 11.25 0.45
-6 3 0 12.39 0.75
-6 3 0 10.37 0.47
6 3 0 11.75 0.68
7 -3 0 2.34 0.43
7 -3 0 2.28 0.35
-7 -3 0 2.16 0.37
-7 -3 0 1.68 0.42
-7 3 0 2.85 0.32
7 3 0 2.5 0.26
7 3 0 2.07 0.28
-7 3 0 3.26 0.52
7 3 0 2.51 0.44
8 -3 0 0.11 0.28
8 -3 0 0.01 0.36
-8 -3 0 0.39 0.27
-8 -3 0 0.25 0.35
-8 3 0 -0.51 0.36
8 3 0 -0.21 0.33
8 3 0 0.25 0.19
-9 -3 0 0.69 0.32
9 -3 0 0.51 0.33
-9 -3 0 0.48 0.42
9 -3 0 -0.13 0.38
-9 3 0 0.22 0.42
9 3 0 0.41 0.41
0 -4 0 1.58 0.17
0 -4 0 1.88 0.19
0 -4 0 1.91 0.19
0 -4 0 1.73 0.24
0 4 0 1.95 0.21
0 4 0 2.06 0.2
0 4 0 1.89 0.21
0 4 0 1.93 0.2
0 4 0 1.66 0.16
0 4 0 1.72 0.26
-1 -4 0 7.43 0.26
-1 -4 0 7.86 0.26
1 -4 0 7.85 0.28
1 -4 0 7.53 0.29
-1 -4 0 8.15 0.37
1 -4 0 7.72 0.37
1 -4 0 7.48 0.3
-1 -4 0 7.26 0.34
-1 -4 0 7.84 0.32
1 -4 0 7.43 0.33
-1 4 0 7.28 0.29
1 4 0 8.19 0.39
1 4 0 7.46 0.34
-1 4 0 7.78 0.3
1 4 0 7.37 0.25
-1 4 0 7.69 0.32
-1 4 0 7.18 0.29
1 4 0 8.21 0.28
1 4 0 7.65 0.3
-1 4 0 7.49 0.4
-2 -4 0 82.59 1.61
-2 -4 0 83.01 1.47
2 -4 0 81.5 1.55
-2 -4 0 81.65 1.68
2 -4 0 82.78 1.63
2 -4 0 83.9 1.53
-2 -4 0 84.43 1.58
-2 4 0 83.2 1.67
-2 4 0 78.55 1.57
2 4 0 82.01 1.47
2 4 0 81.82 1.73
-2 4 0 83.53 1.78
2 4 0 84.56 1.63
-2 4 0 80.1 1.53
3 -4 0 7.11 0.27
-3 -4 0 6.85 0.25
-3 -4 0 6.62 0.32
3 -4 0 6.97 0.29
3 -4 0 6.28 0.36
-3 4 0 6.35 0.31
-3 4 0 7.36 0.47
3 4 0 7.72 0.37
3 4 0 7.01 0.25
-3 4 0 6.55 0.38
3 4 0 6.41 0.41
-3 4 0 6.88 0.27
-4 -4 0 4.55 0.37
4 -4 0 4.44 0.35
-4 -4 0 5.4 0.3
4 -4 0 4.62 0.26
4 -4 0 4.75 0.22
-4 4 0 4.69 0.3
-4 4 0 4.36 0.22
-4 4 0 4.49 0.44
4 4 0 5.64 0.4
-4 4 0 4.44 0.4
4 4 0 4.31 0.24
4 4 0 4.94 0.24
4 4 0 4.48 0.4
5 -4 0 9.95 0.31
5 -4 0 9.15 0.49
5 -4 0 10.3 0.41
-5 -4 0 10.18 0.42
-5 -4 0 10.83 0.55
5 4 0 10 0.58
-5 4 0 10.29 0.67
5 4 0 9.9 0.54
5 4 0 10.13 0.37
-5 4 0 9.08 0.42
-5 4 0 9.87 0.31
5 4 0 10.78 0.44
6 -4 0 6.25 0.24
6 -4 0 5.69 0.55
-6 -4 0 6.51 0.51
-6 -4 0 6.35 0.36
6 -4 0 6.48 0.5
6 4 0 6.92 0.57
-6 4 0 5.8 0.38
6 4 0 6.65 0.35
6 4 0 6.8 0.54
-6 4 0 6.82 0.65
7 -4 0 1.37 0.34
-7 -4 0 1.7 0.24
-7 -4 0 1.59 0.33
7 -4 0 1.65 0.41
-7 4 0 1.97 0.29
7 4 0 1.54 0.4
7 4 0 1.72 0.39
-7 4 0 1.38 0.42
7 4 0 1.07 0.21
-8 -4 0 0.26 0.28
8 -4 0 0.31 0.32
8 -4 0 0.12 0.35
-8 4 0 -0.42 0.33
8 4 0 -0.32 0.32
8 4 0 0.21 0.31
-9 -4 0 0.37 0.34
9 -4 0 0.44 0.45
9 -4 0 -0.41 0.3
-9 4 0 -0.14 0.41
9 4 0 0.82 0.42
9 4 0 0.26 0.36
0 -5 0 16.1 0.46
0 -5 0 15.95 0.48
0 -5 0 16.38 0.42
0 5 0 16.8 0.47
0 5 0 16.61 0.49
0 5 0 15.81 0.49
0 5 0 16.35 0.59
0 5 0 16.17 0.42
-1 -5 0 8.01 0.29
-1 -5 0 8.55 0.28
1 -5 0 8.15 0.33
1 -5 0 8.06 0.37
-1 -5 0 8.02 0.35
1 -5 0 8.32 0.32
-1 -5 0 8.11 0.38
-1 5 0 8.41 0.32
1 5 0 8.02 0.43
-1 5 0 8.31 0.45
-1 5 0 8.15 0.33
1 5 0 7.76 0.29
1 5 0 8.26 0.3
-1 5 0 8.11 0.34
-1 5 0 7.84 0.35
-2 -5 0 15.67 0.4
2 -5 0 15.48 0.45
-2 -5 0 15.47 0.46
2 -5 0 15.66 0.52
-2 -5 0 16.52 0.58
-2 -5 0 16.65 0.51
2 -5 0 16.39 0.47
2 -5 0 16.34 0.55
-2 5 0 15.85 0.52
-2 5 0 16.01 0.63
2 5 0 15.87 0.4
2 5 0 15.33 0.47
-2 5 0 15.81 0.48
2 5 0 15.91 0.59
3 -5 0 6.86 0.4
3 -5 0 6.29 0.28
-3 -5 0 5.89 0.24
-3 -5 0 6.04 0.31
-3 -5 0 5.94 0.39
3 -5 0 6.49 0.29
-3 -5 0 6.35 0.33
3 5 0 6.14 0.41
-3 5 0 5.97 0.31
-3 5 0 5.92 0.37
3 5 0 6.06 0.24
-3 5 0 6.22 0.48
-3 5 0 5.68 0.28
3 5 0 5.98 0.34
4 -5 0 1.8 0.28
4 -5 0 1.41 0.18
-4 -5 0 1.33 0.24
4 -5 0 1.55 0.2
-4 -5 0 1.32 0.2
4 5 0 1.47 0.25
4 5 0 1.48 0.18
-4 5 0 1.63 0.32
-4 5 0 1.47 0.17
4 5 0 1.28 0.17
4 5 0 1.34 0.28
-4 5 0 1.67 0.24
-4 5 0 1.92 0.29
-5 -5 0 1.45 0.22
5 -5 0 1.39 0.19
5 -5 0 1.08 0.27
-5 -5 0 1.6 0.28
5 -5 0 1.63 0.23
5 5 0 1.66 0.29
5 5 0 1.39 0.2
5 5 0 1.21 0.31
-5 5 0 1.62 0.17
5 5 0 1.62 0.21
-5 5 0 1.31 0.35
-5 5 0 1.66 0.22
6 -5 0 3.15 0.45
6 -5 0 3.23 0.45
-6 -5 0 3.32 0.34
-6 -5 0 2.63 0.39
6 -5 0 2.55 0.22
6 5 0 2.5 0.26
-6 5 0 2.49 0.45
6 5 0 3.14 0.46
-6 5 0 2.82 0.29
6 5 0 3.15 0.46
7 -5 0 0.48 0.31
-7 -5 0 1.66 0.25
-7 -5 0 1.12 0.34
7 -5 0 1.35 0.42
7 5 0 1.47 0.37
7 5 0 1.32 0.37
-7 5 0 1.35 0.48
8 -5 0 -0.11 0.3
8 -5 0 0.92 0.42
-8 -5 0 0.16 0.31
8 5 0 0.05 0.33
8 5 0 0.22 0.33
-8 5 0 0 0.39
9 -5 0 0.75 0.44
9 -5 0 0.14 0.36
-9 -5 0 0.97 0.39
9 5 0 0.67 0.44
9 5 0 1.42 0.44
-9 5 0 0.33 0.47
0 -6 0 1.1 0.17
0 -6 0 1.08 0.16
0 -6 0 0.86 0.16
0 6 0 0.97 0.18
0 6 0 0.94 0.16
0 6 0 1.27 0.17
0 6 0 0.97 0.24
-1 -6 0 0.02 0.09
-1 -6 0 0.09 0.17
-1 -6 0 0.11 0.14
1 -6 0 0.02 0.12
-1 -6 0 -0.01 0.1
1 -6 0 -0.1 0.11
1 -6 0 -0.05 0.14
-1 6 0 -0.06 0.12
-1 6 0 -0.09 0.13
-1 6 0 -0.07 0.17
1 6 0 -0.26 0.16
1 6 0 0 0.12
1 6 0 0.03 0.11
-2 -6 0 0.62 0.21
-2 -6 0 0.85 0.14
-2 -6 0 0.84 0.18
2 -6 0 0.74 0.16
-2 -6 0 0.83 0.13
2 -6 0 0.5 0.18
2 -6 0 0.94 0.17
-2 6 0 1.08 0.19
-2 6 0 0.79 0.25
2 6 0 0.69 0.16
2 6 0 0.81 0.12
-2 6 0 0.94 0.17
2 6 0 0.73 0.22
-3 -6 0 1.62 0.22
-3 -6 0 1.62 0.27
3 -6 0 1.9 0.24
3 -6 0 2.01 0.28
3 -6 0 1.58 0.2
-3 -6 0 1.72 0.17
3 6 0 1.69 0.15
-3 6 0 1.41 0.3
3 6 0 2.21 0.27
3 6 0 1.23 0.26
-3 6 0 1.83 0.26
-3 6 0 1.54 0.23
4 -6 0 3.22 0.24
4 -6 0 3.38 0.26
4 -6 0 3.88 0.39
-4 -6 0 3.43 0.32
-4 -6 0 3.73 0.4
4 6 0 4.2 0.44
4 6 0 4.19 0.35
-4 6 0 3.15 0.28
-4 6 0 3.17 0.38
4 6 0 3.38 0.21
-4 6 0 4.03 0.51
5 -6 0 0.89 0.16
-5 -6 0 0.72 0.28
-5 -6 0 0.77 0.21
5 -6 0 0.9 0.29
-5 6 0 0.66 0.19
5 6 0 0.82 0.3
-5 6 0 0.63 0.31
5 6 0 0.91 0.27
5 6 0 0.78 0.14
-6 -6 0 -0.15 0.27
6 -6 0 -0.16 0.25
-6 -6 0 0.35 0.19
6 -6 0 0.09 0.29
6 6 0 -0.07 0.25
6 6 0 0.38 0.29
-6 6 0 0.4 0.16
-6 6 0 -0.61 0.31
7 -6 0 0.38 0.34
-7 -6 0 0.01 0.3
-7 -6 0 0.1 0.19
7 -6 0 0.09 0.29
-7 6 0 -0.55 0.35
7 6 0 0.33 0.33
7 6 0 0.34 0.31
8 -6 0 0.08 0.35
8 -6 0 -0.52 0.35
-8 -6 0 0.2 0.33
8 6 0 -0.25 0.32
8 6 0 0.09 0.36
-8 6 0 -0.1 0.41
9 -6 0 2.42 0.52
9 -6 0 2.38 0.54
-9 -6 0 2.42 0.48
-9 6 0 2.23 0.64
9 6 0 2.81 0.59
9 6 0 2.99 0.6
0 -7 0 54.37 1.22
0 -7 0 53.87 1.12
0 -7 0 55.86 1.18
0 7 0 54.38 1.11
0 7 0 55.67 1.4
0 7 0 55.46 1.25
1 -7 0 1.18 0.17
1 -7 0 1.43 0.21
-1 -7 0 1.39 0.15
1 -7 0 1.09 0.19
-1 -7 0 1.16 0.17
-1 -7 0 1.44 0.23
-1 7 0 1.02 0.2
1 7 0 0.92 0.16
-1 7 0 1.13 0.18
1 7 0 1.18 0.27
1 7 0 1.16 0.23
1 7 0 1.3 0.16
-1 7 0 1.33 0.29
-2 -7 0 1.65 0.18
-2 -7 0 1.81 0.27
2 -7 0 1.67 0.25
2 -7 0 2 0.27
-2 -7 0 1.88 0.28
-2 -7 0 1.79 0.19
2 7 0 1.4 0.28
-2 7 0 1.78 0.26
-2 7 0 1.7 0.31
2 7 0 1.56 0.19
2 7 0 1.46 0.23
-2 7 0 1.79 0.24
3 -7 0 1.16 0.2
-3 -7 0 1.16 0.23
-3 -7 0 0.9 0.26
-3 -7 0 1.18 0.17
3 -7 0 0.88 0.25
-3 7 0 1.09 0.24
-3 7 0 1.33 0.32
3 7 0 1.08 0.28
3 7 0 1.54 0.23
-3 7 0 0.84 0.2
3 7 0 0.91 0.14
-4 -7 0 13.43 0.39
-4 -7 0 15.4 0.59
4 -7 0 14.2 0.5
-4 -7 0 14.75 0.7
4 -7 0 14.34 0.65
-4 7 0 13.64 0.52
-4 7 0 13.98 0.76
4 7 0 14.66 0.6
4 7 0 14.21 0.72
-4 7 0 12.9 0.64
-5 -7 0 0 0.18
5 -7 0 -0.35 0.22
5 -7 0 -0.06 0.13
-5 -7 0 0.41 0.27
5 7 0 0.06 0.1
-5 7 0 0.2 0.16
-5 7 0 0.11 0.33
5 7 0 0.18 0.23
5 7 0 0.23 0.25
-6 -7 0 1.15 0.35
6 -7 0 0.73 0.34
-6 -7 0 0.88 0.25
6 -7 0 0.59 0.32
-6 7 0 0.82 0.41
6 7 0 0.74 0.29
6 7 0 1.25 0.36
-7 -7 0 0.19 0.21
7 -7 0 0.01 0.31
7 -7 0 0.49 0.34
-7 -7 0 -0.14 0.29
7 7 0 -0.01 0.28
-7 7 0 -0.5 0.33
7 7 0 0.35 0.34
8 -7 0 0.64 0.43
8 -7 0 0.18 0.38
-8 -7 0 0.23 0.34
-8 7 0 -0.01 0.48
8 7 0 0.88 0.44
8 7 0 0.07 0.35
0 -8 0 7.88 0.4
0 -8 0 8 0.43
0 -8 0 7.37 0.3
0 8 0 8.28 0.56
0 8 0 8.39 0.44
0 8 0 7.3 0.31
1 -8 0 3.24 0.32
1 -8 0 2.81 0.32
-1 -8 0 3.35 0.34
1 -8 0 3.18 0.23
-1 -8 0 2.76 0.19
-1 -8 0 2.9 0.26
1 8 0 2.76 0.22
1 8 0 2.91 0.33
-1 8 0 2.61 0.24
-1 8 0 2.45 0.3
1 8 0 2.76 0.38
-1 8 0 2.63 0.38
-2 -8 0 0.32 0.11
2 -8 0 0.1 0.19
-2 -8 0 0.24 0.18
-2 -8 0 0.3 0.24
2 -8 0 -0.04 0.16
-2 -8 0 0.33 0.13
-2 8 0 0.29 0.17
2 8 0 0.14 0.13
-2 8 0 0.25 0.27
2 8 0 0.3 0.23
-2 8 0 0.1 0.16
2 8 0 0.2 0.15
-3 -8 0 3.44 0.37
3 -8 0 3.17 0.31
3 -8 0 2.85 0.41
-3 -8 0 2.87 0.22
-3 -8 0 2.83 0.4
-3 8 0 3.05 0.36
3 8 0 3.11 0.46
-3 8 0 2.94 0.32
3 8 0 3.02 0.23
-3 8 0 2.58 0.41
3 8 0 3.19 0.32
4 -8 0 0.86 0.2
4 -8 0 0.76 0.28
-4 -8 0 0.88 0.23
-4 -8 0 0.63 0.29
-4 -8 0 0.64 0.12
-4 8 0 0.5 0.19
-4 8 0 0.76 0.27
4 8 0 0.6 0.29
-4 8 0 0.69 0.33
4 8 0 0.85 0.24
-5 -8 0 11.76 0.69
5 -8 0 11.19 0.7
-5 -8 0 11.15 0.59
5 -8 0 11.43 0.47
5 8 0 13.58 0.64
5 8 0 11.68 0.76
-5 8 0 11.65 0.85
-6 -8 0 -0.24 0.26
-6 -8 0 0.12 0.22
6 -8 0 -0.38 0.27
6 -8 0 0.07 0.29
-6 8 0 0.11 0.38
6 8 0 0.55 0.29
6 8 0 0.5 0.34
-7 -8 0 1.65 0.32
7 -8 0 0.65 0.39
-7 -8 0 0.87 0.36
7 -8 0 0.94 0.4
-7 8 0 1.38 0.51
7 8 0 0.48 0.39
7 8 0 1.91 0.41
-8 -8 0 0.14 0.34
8 -8 0 0.71 0.43
8 -8 0 0.28 0.39
-8 8 0 0.92 0.53
8 8 0 0.71 0.4
0 -9 0 112.17 2.16
0 -9 0 111.55 2.3
0 -9 0 115.02 2.24
0 9 0 110.4 2.14
0 9 0 113.23 2.35
0 9 0 116.96 2.61
-1 -9 0 88.09 1.74
-1 -9 0 89.8 1.93
-1 -9 0 90.49 1.79
1 -9 0 91.08 1.9
1 -9 0 85.4 1.8
1 -9 0 90.7 1.89
1 9 0 88.92 1.73
-1 9 0 90.55 2.2
1 9 0 85.1 2.13
1 9 0 91.54 1.98
-1 9 0 88.34 1.79
-1 9 0 90.81 1.93
2 -9 0 68.44 1.52
-2 -9 0 66.65 1.57
2 -9 0 67.66 1.58
-2 -9 0 66.55 1.38
2 9 0 67.02 1.4
2 9 0 69.26 1.8
2 9 0 64.59 1.61
-2 9 0 69.83 1.54
-2 9 0 65.89 1.81
-2 9 0 67.85 1.49
3 -9 0 94.74 1.97
-3 -9 0 93.22 2.19
3 -9 0 92.56 2.09
-3 -9 0 95.19 2.06
-3 -9 0 93.98 1.78
3 9 0 94.98 2.3
3 9 0 95.43 1.96
-3 9 0 96.78 2.39
-3 9 0 93.44 2.05
-3 9 0 96.48 2.01
4 -9 0 19.72 0.85
4 -9 0 18.75 0.67
-4 -9 0 19.86 0.88
-4 -9 0 18.63 0.76
-4 9 0 19.86 0.7
-4 9 0 20.03 1.02
4 9 0 20.31 0.93
-4 9 0 19.76 0.78
4 9 0 21.47 0.74
-5 -9 0 3.39 0.51
-5 -9 0 3.17 0.44
5 -9 0 2.79 0.33
5 -9 0 4.48 0.54
5 9 0 3.75 0.58
-5 9 0 3.54 0.59
5 9 0 3.63 0.46
6 -9 0 0.82 0.36
-6 -9 0 0.62 0.27
-6 -9 0 0.27 0.31
6 -9 0 1.1 0.39
-6 9 0 0.97 0.43
6 9 0 0.64 0.39
7 -9 0 2.23 0.51
-7 -9 0 2.77 0.51
7 -9 0 2.77 0.51
-7 -9 0 2.63 0.39
-7 9 0 2.53 0.62
7 9 0 2.89 0.55
0 -10 0 5.22 0.4
0 -10 0 4.94 0.42
0 10 0 5.12 0.28
0 10 0 5.74 0.45
0 10 0 4.85 0.6
-1 -10 0 3.22 0.38
1 -10 0 3.31 0.38
1 -10 0 3.18 0.39
-1 -10 0 2.92 0.31
-1 10 0 2.9 0.46
-1 10 0 2.88 0.28
-1 10 0 2.87 0.37
1 10 0 2.62 0.44
1 10 0 2.76 0.4
2 -10 0 17.03 0.67
-2 -10 0 17.39 0.56
-2 -10 0 16.63 0.7
2 -10 0 16.34 0.71
2 10 0 16.65 0.85
-2 10 0 17.68 0.91
-2 10 0 16.56 0.6
-2 10 0 16.27 0.67
2 10 0 16.77 0.73
3 -10 0 0.09 0.26
3 -10 0 0 0.2
-3 -10 0 -0.08 0.21
-3 10 0 0 0.22
3 10 0 -0.08 0.3
-3 10 0 -0.15 0.19
-3 10 0 0.02 0.32
3 10 0 0.01 0.24
4 -10 0 0.23 0.2
4 -10 0 0.17 0.28
-4 -10 0 0.02 0.23
4 10 0 -0.05 0.28
-4 10 0 0.2 0.39
5 -10 0 1.52 0.26
5 -10 0 1.38 0.39
5 -10 0 1.41 0.34
-5 -10 0 1.43 0.4
-5 -10 0 1.49 0.33
-5 10 0 1.82 0.51
5 10 0 1.46 0.42
-6 -10 0 -0.08 0.35
6 -10 0 0.33 0.34
6 -10 0 0.04 0.33
-6 -10 0 0.22 0.26
6 10 0 0.18 0.36
-6 10 0 0.23 0.43
-7 -10 0 -0.26 0.25
7 -10 0 0.18 0.35
7 -10 0 0.81 0.42
-7 -10 0 0.1 0.35
7 10 0 0.51 0.36
-7 10 0 0.23 0.47
0 -11 0 1.79 0.33
0 -11 0 2.13 0.3
0 11 0 2.36 0.36
0 11 0 1.93 0.45
-1 -11 0 13.35 0.66
1 -11 0 12.52 0.64
1 -11 0 14.94 0.67
-1 -11 0 13.57 0.56
1 11 0 14.77 0.71
1 11 0 13.55 0.83
-1 11 0 13.8 0.67
-1 11 0 14.91 0.88
-2 -11 0 23.43 0.91
2 -11 0 27.3 0.95
2 -11 0 25.4 0.87
2 11 0 25.85 1.11
-2 11 0 26.98 1.16
-2 11 0 26.17 0.89
2 11 0 25.74 0.96
3 -11 0 5.56 0.46
-3 -11 0 5.02 0.49
3 -11 0 4.38 0.53
-3 11 0 5.36 0.45
3 11 0 5.11 0.53
-3 11 0 4.34 0.62
3 11 0 4.45 0.65
-4 -11 0 2.47 0.39
4 -11 0 1.51 0.38
4 -11 0 2.85 0.38
4 11 0 2.2 0.42
-4 11 0 2.61 0.55
4 11 0 2.01 0.49
5 -11 0 0.29 0.36
-5 -11 0 1.89 0.38
5 11 0 1.19 0.42
-5 11 0 1.32 0.5
-6 -11 0 0.17 0.27
6 -11 0 -0.02 0.33
-6 11 0 -0.22 0.41
6 11 0 -0.15 0.36
0 -12 0 1.87 0.31
0 -12 0 1.51 0.33
0 12 0 1.25 0.33
0 12 0 1.08 0.42
1 -12 0 5.79 0.5
1 -12 0 6.04 0.53
-1 -12 0 6.08 0.55
1 12 0 7.26 0.56
-1 12 0 5.38 0.75
-1 12 0 5.07 0.52
1 12 0 4.32 0.67
2 -12 0 8.25 0.6
-2 -12 0 9.84 0.65
2 -12 0 8.33 0.57
-2 12 0 9.97 0.6
2 12 0 8.33 0.62
2 12 0 9.55 0.8
-2 12 0 8.75 0.82
3 -12 0 3.12 0.43
-3 -12 0 2.95 0.44
3 -12 0 4.11 0.53
3 12 0 3.6 0.56
-3 12 0 3.54 0.61
3 12 0 3.11 0.46
-4 -12 0 6.25 0.6
4 -12 0 4.97 0.49
4 -12 0 7.47 0.66
4 12 0 5.71 0.79
4 12 0 6.07 0.61
-4 12 0 7.25 0.82
5 -12 0 9.26 0.78
-5 -12 0 9.2 0.67
5 12 0 10.57 0.91
5 12 0 10.07 0.78
-5 12 0 11.11 1
0 -13 0 2.65 0.42
0 13 0 2.15 0.52
0 13 0 3.04 0.47
1 -13 0 6.08 0.57
-1 -13 0 5.46 0.58
1 -13 0 7.51 0.56
1 13 0 5.07 0.55
-1 13 0 6.48 0.59
-1 13 0 6.14 0.81
1 13 0 4.72 0.68
-2 -13 0 1 0.34
2 -13 0 1.16 0.33
2 -13 0 1.24 0.33
-2 13 0 1.04 0.46
2 13 0 1.01 0.34
2 13 0 0.39 0.39
3 -13 0 4.8 0.52
-3 -13 0 4.33 0.55
3 -13 0 5.52 0.63
3 13 0 5.17 0.73
3 13 0 4.62 0.58
-3 13 0 5.66 0.82
4 -13 0 0.41 0.32
4 -13 0 0.33 0.26
-4 -13 0 0.12 0.29
-4 13 0 0.15 0.45
4 13 0 -0.22 0.28
4 13 0 -0.43 0.33
0 -14 0 0.8 0.34
0 14 0 0.67 0.32
0 14 0 1.05 0.5
1 -14 0 0.19 0.32
-1 -14 0 0.41 0.31
-1 14 0 0.1 0.3
1 14 0 0.08 0.28
-1 14 0 0.1 0.42
1 14 0 0.51 0.45
-2 -14 0 0.39 0.3
2 -14 0 -0.04 0.25
2 -14 0 -0.05 0.27
2 14 0 0.26 0.44
2 14 0 0.21 0.29
-2 14 0 0.2 0.45
-3 -14 0 -0.15 0.28
3 -14 0 0.14 0.28
3 -14 0 0.89 0.35
3 14 0 0.22 0.42
3 14 0 1.1 0.39
-3 14 0 -0.24 0.44
9 0 -1 -0.09 0.39
9 0 -1 0.06 0.26
-9 0 1 0.48 0.38
-8 0 1 0.33 0.35
-8 0 1 -0.01 0.21
8 0 -1 -0.16 0.33
8 0 -1 0.12 0.23
-7 0 1 0.28 0.33
7 0 -1 -0.09 0.18
7 0 -1 0.21 0.29
-7 0 1 0.01 0.18
6 0 -1 0.18 0.18
6 0 -1 -0.24 0.23
-6 0 1 -0.33 0.25
-6 0 1 0.03 0.17
6 0 -1 -0.07 0.11
6 0 -1 -0.04 0.08
5 0 -1 0.01 0.08
-5 0 1 -0.16 0.21
5 0 -1 0.17 0.14
5 0 -1 -0.01 0.09
5 0 -1 0.18 0.21
-5 0 1 0.03 0.15
4 0 -1 0.09 0.12
-4 0 1 0.1 0.2
4 0 -1 -0.04 0.12
-4 0 1 0.09 0.14
4 0 -1 0.26 0.09
4 0 -1 -0.03 0.09
3 0 -1 -0.13 0.07
3 0 -1 0.15 0.12
3 0 -1 -0.09 0.08
3 0 -1 0.05 0.15
3 0 -1 -0.19 0.09
3 0 -1 0.03 0.14
-3 0 1 -0.1 0.1
-3 0 1 -0.13 0.17
-3 0 1 -0.13 0.15
-3 0 1 0.06 0.12
2 0 -1 19.78 0.47
1 0 -1 -0.33 0.05
1 0 -1 -0.31 0.07
-1 0 1 -0.32 0.06
1 0 -1 -0.46 0.08
-1 0 1 -0.39 0.08
-1 0 1 -0.43 0.09
1 0 -1 -0.36 0.06
1 0 -1 -0.38 0.05
1 0 -1 -0.36 0.08
-1 0 -1 0.14 0.08
1 0 1 -0.11 0.09
-1 0 -1 -0.08 0.08
1 0 1 0.06 0.06
1 0 1 0.05 0.09
1 0 1 0.05 0.09
-1 0 -1 0.04 0.03
-1 0 -1 0.05 0.1
-2 0 -1 0.05 0.05
2 0 1 -0.08 0.14
2 0 1 -0.07 0.13
2 0 1 0.03 0.04
2 0 1 0.12 0.12
-2 0 -1 -0.08 0.15
-2 0 -1 -0.03 0.12
2 0 1 0.23 0.1
3 0 1 -0.01 0.05
3 0 1 0.13 0.13
-3 0 -1 0.03 0.18
3 0 1 -0.07 0.06
3 0 1 -0.12 0.15
-3 0 -1 -0.06 0.14
3 0 1 0.14 0.11
-4 0 -1 -0.09 0.2
-4 0 -1 0.03 0.14
4 0 1 0.15 0.06
4 0 1 0.05 0.06
4 0 1 -0.13 0.18
4 0 1 0.13 0.14
-5 0 -1 0.06 0.17
5 0 1 0.01 0.05
5 0 1 -0.1 0.07
-5 0 -1 -0.02 0.21
5 0 1 0 0.21
5 0 1 0 0.14
6 0 1 0.1 0.17
6 0 1 0.07 0.26
-6 0 -1 0.07 0.26
-6 0 -1 -0.24 0.18
7 0 1 0 0.19
-7 0 -1 -0.47 0.27
7 0 1 -0.25 0.29
-7 0 -1 0.23 0.23
8 0 1 0.22 0.24
8 0 1 0.07 0.33
-8 0 -1 0.63 0.37
-8 0 -1 -0.09 0.21
9 0 1 -0.45 0.24
-9 0 -1 0.01 0.27
9 0 1 -0.67 0.35
-9 0 -1 -0.18 0.35
9 -1 -1 1.72 0.37
-9 -1 1 2.67 0.56
-9 -1 1 1.92 0.36
9 -1 -1 1.41 0.49
9 1 -1 2.06 0.36
9 1 -1 1.47 0.48
-9 1 1 2.21 0.54
-8 -1 1 15.97 0.98
8 -1 -1 15.68 0.92
-8 -1 1 18.74 0.77
8 -1 -1 16.23 0.77
-8 1 1 16.38 0.68
8 1 -1 16.8 0.95
8 1 -1 17.88 0.73
-8 1 1 19.18 1.04
7 -1 -1 0.44 0.31
-7 -1 1 -0.21 0.19
7 -1 -1 0.16 0.23
-7 -1 1 -0.49 0.25
7 1 -1 -0.03 0.12
7 1 -1 -0.09 0.27
-7 1 1 0.42 0.34
7 1 -1 0.22 0.18
-7 1 1 0.41 0.19
6 -1 -1 7.46 0.46
6 -1 -1 7.35 0.26
-6 -1 1 8.79 0.6
6 -1 -1 7.71 0.28
-6 -1 1 7.87 0.46
6 -1 -1 7.59 0.57
6 1 -1 8.45 0.33
6 1 -1 7.88 0.3
6 1 -1 8.62 0.6
-6 1 1 8.42 0.43
-6 1 1 8.64 0.64
6 1 -1 8.4 0.43
5 -1 -1 13.28 0.37
-5 -1 1 14.01 0.53
5 -1 -1 13.78 0.53
-5 -1 1 13.45 0.66
5 -1 -1 13.12 0.62
5 -1 -1 13.25 0.36
-5 1 1 13.56 0.48
5 1 -1 14.87 0.49
5 1 -1 12.39 0.38
5 1 -1 13.52 0.41
5 1 -1 15.06 0.64
-5 1 1 13.45 0.65
4 -1 -1 109.87 2.15
4 -1 -1 111.47 2.13
4 -1 -1 113.14 1.99
4 -1 -1 113.01 1.99
-4 -1 1 113.5 2.18
-4 -1 1 113.95 2.38
-4 1 1 110.53 2.13
-4 1 1 109.81 2.36
-4 1 1 116 2.34
4 1 -1 115.72 2.32
4 1 -1 111.38 2.08
4 1 -1 109.72 2.01
-3 -1 1 24.89 0.62
3 -1 -1 23.88 0.71
3 -1 -1 22.71 0.74
3 -1 -1 24.53 0.61
3 -1 -1 24.11 0.51
-3 -1 1 23.66 0.54
3 -1 -1 23.6 0.58
-3 -1 1 23.83 0.71
3 1 -1 25.22 0.63
-3 1 1 24.04 0.73
3 1 -1 25.12 0.58
3 1 -1 24.52 0.71
3 1 -1 23.95 0.53
-3 1 1 23.15 0.56
3 1 -1 23.72 0.67
3 1 -1 23.66 0.56
3 1 -1 24.42 0.68
-3 1 1 22.97 0.51
-3 1 1 23.94 0.6
-3 1 1 24.72 0.7
2 -1 -1 319.6 5.63
-2 -1 1 332.4 5.75
-2 -1 1 319.76 5.9
2 -1 -1 319.7 5.48
-2 -1 1 320.69 5.46
2 -1 -1 315.66 5.57
-2 -1 1 313.13 5.89
2 -1 -1 318.94 5.76
-2 1 1 314.13 5.38
-2 1 1 308.77 5.98
2 1 -1 332.61 5.75
-2 1 1 307.64 5.75
2 1 -1 324.84 5.68
-2 1 1 313.43 5.35
2 1 -1 329.81 5.49
2 1 -1 325.56 5.75
2 1 -1 316.42 5.37
-2 1 1 313.2 5.57
1 -1 -1 46.14 0.87
-1 -1 1 46.93 0.94
1 -1 -1 47.42 0.95
1 -1 -1 46.76 0.85
1 -1 -1 46.32 0.94
-1 -1 1 48.5 0.91
-1 -1 1 47.34 0.86
-1 -1 1 48.15 0.91
-1 -1 1 46.8 0.86
1 -1 -1 46.31 0.83
1 1 -1 47.63 0.86
1 1 -1 48.81 0.94
-1 1 1 47.52 0.87
1 1 -1 48.72 0.86
-1 1 1 45.46 0.83
-1 1 1 45.74 0.95
-1 1 1 46.51 0.93
1 1 -1 49.25 0.91
1 1 -1 48.55 0.9
0 -1 1 6.97 0.19
0 -1 -1 7.02 0.16
0 -1 1 6.95 0.19
0 -1 1 6.92 0.17
0 -1 -1 7.23 0.18
0 -1 -1 7.15 0.18
0 -1 -1 7.23 0.21
0 1 1 7.19 0.15
0 1 -1 7.21 0.19
0 1 -1 7.03 0.19
0 1 1 6.84 0.2
0 1 1 7.06 0.2
0 1 -1 7.13 0.19
-1 -1 -1 11.42 0.26
-1 -1 -1 11.36 0.33
-1 -1 -1 11.18 0.35
1 -1 1 11.75 0.32
1 -1 1 11.78 0.23
1 -1 1 11.91 0.31
-1 -1 -1 11.45 0.23
1 -1 1 11.8 0.31
-1 -1 -1 11.16 0.33
1 -1 1 11.75 0.32
1 -1 1 12.16 0.36
1 1 1 11.31 0.33
1 1 1 11.71 0.26
1 1 1 11.48 0.33
-1 1 -1 11.79 0.31
-1 1 -1 11.65 0.23
-1 1 -1 11.61 0.37
1 1 1 10.72 0.35
1 1 1 11.42 0.23
-1 1 -1 12.02 0.31
-2 -1 -1 16.45 0.53
2 -1 1 17.68 0.46
2 -1 1 16.43 0.5
2 -1 1 17.29 0.45
2 -1 1 16.37 0.49
-2 -1 -1 17.68 0.49
2 -1 1 16.98 0.53
-2 -1 -1 16.43 0.49
-2 -1 -1 17.2 0.37
-2 -1 -1 17.02 0.38
-2 1 -1 17.02 0.44
-2 1 -1 17.26 0.46
2 1 1 17.08 0.49
-2 1 -1 16.82 0.54
2 1 1 17.96 0.54
2 1 1 17.42 0.39
2 1 1 16.15 0.49
2 1 1 17.5 0.37
3 -1 1 73.42 1.42
-3 -1 -1 72.28 1.59
-3 -1 -1 72.16 1.49
3 -1 1 70.86 1.46
-3 -1 -1 72.46 1.3
-3 -1 -1 72.87 1.34
3 -1 1 70.49 1.54
-3 1 -1 73.31 1.6
-3 1 -1 71.71 1.4
3 1 1 73.02 1.57
3 1 1 72.89 1.29
-3 1 -1 70.85 1.45
3 1 1 74.1 1.35
3 1 1 72.88 1.54
3 1 1 73.53 1.51
-4 -1 -1 32.24 0.67
-4 -1 -1 32.13 0.74
4 -1 1 32.34 0.8
-4 -1 -1 32.88 0.97
4 -1 1 31.75 0.93
-4 -1 -1 32.77 0.86
4 -1 1 32.54 0.85
4 1 1 33.14 0.75
4 1 1 33.1 0.93
-4 1 -1 32.9 0.83
-4 1 -1 31.77 0.97
4 1 1 32.83 0.65
5 -1 1 10.53 0.58
-5 -1 -1 10.73 0.61
-5 -1 -1 10.77 0.5
5 -1 1 11.44 0.49
-5 1 -1 10.99 0.48
-5 1 -1 10.74 0.64
5 1 1 11.56 0.32
5 1 1 11.77 0.59
5 1 1 11.66 0.33
5 1 1 12.44 0.44
6 -1 1 5.96 0.53
6 -1 1 6.16 0.42
-6 -1 -1 6.6 0.58
-6 -1 -1 6.33 0.46
6 1 1 6.17 0.25
6 1 1 6.28 0.38
6 1 1 6.12 0.53
-6 1 -1 5.92 0.59
-6 1 -1 5.67 0.43
6 1 1 6.22 0.25
-7 -1 -1 0.42 0.25
7 -1 1 -0.06 0.28
-7 -1 -1 -0.21 0.28
7 -1 1 0.11 0.2
-7 1 -1 -0.45 0.26
7 1 1 0.59 0.33
7 1 1 0.23 0.18
-7 1 -1 -0.11 0.2
-8 -1 -1 0.71 0.4
8 -1 1 0.14 0.25
8 -1 1 0.57 0.37
-8 -1 -1 1.12 0.3
-8 1 -1 0.55 0.26
8 1 1 1.18 0.28
-8 1 -1 0.88 0.43
8 1 1 1.2 0.41
9 -1 1 0.56 0.31
-9 -1 -1 1.84 0.51
-9 -1 -1 1.03 0.34
9 -1 1 1.64 0.48
9 1 1 1.09 0.47
9 1 1 1.08 0.34
-9 1 -1 1.34 0.47
9 -2 -1 7.54 0.81
-9 -2 1 8.21 0.63
-9 -2 1 7.58 0.8
9 -2 -1 6.61 0.62
-9 2 1 8.51 0.87
9 2 -1 8.85 0.82
-8 -2 1 10.11 0.63
8 -2 -1 9.74 0.63
8 -2 -1 9.57 0.77
-8 -2 1 8.96 0.78
8 2 -1 10.36 0.78
-8 2 1 9.7 0.84
8 2 -1 9.44 0.53
-7 -2 1 2.7 0.41
7 -2 -1 2.87 0.45
7 -2 -1 3.41 0.44
-7 -2 1 2.46 0.46
7 2 -1 2.66 0.3
7 2 -1 2.98 0.26
-7 2 1 2.73 0.32
7 2 -1 3.06 0.45
-7 2 1 3.59 0.53
6 -2 -1 3.26 0.46
6 -2 -1 3.26 0.19
-6 -2 1 3.29 0.38
-6 -2 1 2.65 0.42
6 -2 -1 2.98 0.38
6 2 -1 3.29 0.26
-6 2 1 3.66 0.48
6 2 -1 3.98 0.48
-6 2 1 3.06 0.3
6 2 -1 2.9 0.29
-5 -2 1 6.55 0.42
5 -2 -1 7.17 0.4
5 -2 -1 6.62 0.25
-5 -2 1 6.74 0.31
5 -2 -1 7.32 0.36
5 -2 -1 6.75 0.25
-5 -2 1 5.71 0.5
5 2 -1 6.64 0.31
5 2 -1 7.11 0.47
-5 2 1 8.31 0.54
-5 2 1 6.66 0.34
5 2 -1 6.67 0.33
-4 -2 1 3.18 0.29
4 -2 -1 2.53 0.23
4 -2 -1 2.42 0.27
4 -2 -1 2.24 0.16
-4 -2 1 2.09 0.2
-4 -2 1 2.94 0.37
-4 2 1 2.69 0.33
-4 2 1 2.44 0.35
-4 2 1 2.41 0.22
4 2 -1 2.7 0.22
-4 2 1 2.67 0.16
4 2 -1 2.92 0.34
4 2 -1 2.63 0.23
4 2 -1 2.42 0.19
-3 -2 1 0.35 0.18
3 -2 -1 0.36 0.11
-3 -2 1 0.36 0.12
3 -2 -1 0.5 0.09
3 -2 -1 0.42 0.16
-3 -2 1 0.47 0.16
-3 2 1 0.37 0.12
-3 2 1 0.19 0.19
-3 2 1 0.4 0.17
-3 2 1 0.26 0.1
3 2 -1 0.5 0.12
3 2 -1 0.26 0.11
3 2 -1 0.41 0.16
3 2 -1 0.55 0.16
3 2 -1 0.56 0.11
3 2 -1 0.4 0.17
-2 -2 1 21.36 0.55
2 -2 -1 20.5 0.6
-2 -2 1 21.55 0.5
2 -2 -1 21.3 0.54
2 -2 -1 20.66 0.45
2 -2 -1 20.8 0.57
2 -2 -1 20.33 0.46
-2 -2 1 21.12 0.47
2 2 -1 22.24 0.61
-2 2 1 20.43 0.58
2 2 -1 22.25 0.56
-2 2 1 20.38 0.45
2 2 -1 22.32 0.49
2 2 -1 21.64 0.54
2 2 -1 21.22 0.48
-2 2 1 19.9 0.46
-2 2 1 21.24 0.53
-2 2 1 20.27 0.62
2 2 -1 21.43 0.54
-1 -2 1 37.23 0.72
-1 -2 1 38.84 0.82
1 -2 -1 36.81 0.7
1 -2 -1 37.97 0.84
1 -2 -1 38.68 0.74
-1 -2 1 38.52 0.8
-1 -2 1 38.04 0.75
1 -2 -1 37.5 0.76
1 2 -1 39.27 0.75
1 2 -1 37.32 0.72
-1 2 1 38.18 0.81
-1 2 1 36.2 0.71
1 2 -1 40.27 0.82
1 2 -1 39 0.8
-1 2 1 37.94 0.75
1 2 -1 39.78 0.75
-1 2 1 38.8 0.85
1 2 -1 37.71 0.74
0 -2 -1 67.55 1.3
0 -2 -1 70.76 1.21
0 -2 1 70.19 1.34
0 -2 -1 69.05 1.34
0 -2 1 69.93 1.29
0 -2 1 70.66 1.25
0 -2 -1 70.51 1.25
0 -2 1 72.18 1.25
0 -2 -1 67.25 1.27
0 2 -1 70.09 1.34
0 2 1 70.58 1.21
0 2 -1 68.3 1.29
0 2 1 68.68 1.35
0 2 1 66.27 1.3
0 2 1 70.43 1.25
0 2 -1 70.3 1.25
-1 -2 -1 0.47 0.1
1 -2 1 0.46 0.08
1 -2 1 0.52 0.12
1 -2 1 0.59 0.12
1 -2 1 0.51 0.1
1 -2 1 0.29 0.14
-1 -2 -1 0.54 0.13
-1 -2 -1 0.57 0.14
1 2 1 0.4 0.12
1 2 1 0.36 0.1
-1 2 -1 0.53 0.12
-1 2 -1 0.55 0.08
-1 2 -1 0.44 0.13
1 2 1 0.36 0.12
-1 2 -1 0.28 0.14
-1 2 -1 0.49 0.12
1 2 1 0.42 0.14
2 -2 1 37.05 0.87
2 -2 1 39.28 0.84
-2 -2 -1 39.77 0.88
-2 -2 -1 37.69 0.86
2 -2 1 38.75 0.71
2 -2 1 36.86 0.92
-2 -2 -1 38.36 0.76
2 -2 1 38.59 0.81
2 2 1 38.65 0.71
-2 2 -1 37.54 0.94
-2 2 -1 38.3 0.71
-2 2 -1 39.59 0.83
-2 2 -1 38.9 0.88
2 2 1 37.63 0.93
2 2 1 38.82 0.88
2 2 1 39.12 0.76
-2 2 -1 38.52 0.82
2 2 1 40.51 0.88
2 2 1 39.35 0.71
-3 -2 -1 11.84 0.34
3 -2 1 11.89 0.48
3 -2 1 12.18 0.41
3 -2 1 12.24 0.44
-3 -2 -1 12.02 0.46
3 -2 1 12.06 0.27
-3 -2 -1 12.28 0.51
3 2 1 12.75 0.33
-3 2 -1 12.5 0.42
3 2 1 11.95 0.34
-3 2 -1 11.97 0.28
3 2 1 12.63 0.48
3 2 1 12.76 0.34
-3 2 -1 12.23 0.53
-4 -2 -1 7.42 0.28
-4 -2 -1 7.65 0.49
4 -2 1 7.11 0.38
-4 -2 -1 6.66 0.39
4 -2 1 7.44 0.37
4 -2 1 7.88 0.46
-4 2 -1 7.62 0.38
4 2 1 7.4 0.26
4 2 1 7.62 0.3
-4 2 -1 7.44 0.49
4 2 1 7.35 0.3
4 2 1 6.81 0.44
5 -2 1 12.24 0.53
-5 -2 -1 11.94 0.54
-5 -2 -1 12.55 0.39
5 -2 1 12.71 0.62
-5 -2 -1 12.32 0.66
5 2 1 12.33 0.37
-5 2 -1 13 0.66
5 2 1 12.31 0.43
-5 2 -1 12.02 0.5
5 2 1 12.54 0.61
6 -2 1 13.9 0.72
6 -2 1 13.34 0.6
-6 -2 -1 13 0.75
-6 -2 -1 14.3 0.65
6 2 1 13.55 0.71
-6 2 -1 13.99 0.57
-6 2 -1 14.01 0.77
6 2 1 14.65 0.52
7 -2 1 2.18 0.35
7 -2 1 2.35 0.45
-7 -2 -1 1.57 0.32
-7 -2 -1 1.93 0.44
7 2 1 1.6 0.25
7 2 1 1.56 0.4
-7 2 -1 1.53 0.43
-7 2 -1 1.55 0.28
-8 -2 -1 4.67 0.52
-8 -2 -1 4.51 0.62
8 -2 1 5.47 0.69
8 -2 1 4.38 0.52
8 2 1 5.11 0.64
8 2 1 5.16 0.42
-8 2 -1 4.78 0.46
-8 2 -1 5.07 0.73
-9 -2 -1 2.51 0.43
-9 -2 -1 2.66 0.56
9 -2 1 2.54 0.43
9 -2 1 2.22 0.54
-9 2 -1 2.11 0.57
9 2 1 2.97 0.58
9 -3 -1 1.02 0.48
-9 -3 1 0.87 0.45
-9 -3 1 1.17 0.37
9 -3 -1 1.55 0.41
-9 3 1 1.94 0.54
9 3 -1 1.88 0.48
-8 -3 1 0.25 0.27
8 -3 -1 0.21 0.26
-8 -3 1 0.13 0.34
8 -3 -1 0.21 0.36
8 3 -1 -0.29 0.31
8 3 -1 0.03 0.16
-8 3 1 -0.32 0.39
7 -3 -1 -0.02 0.25
7 -3 -1 -0.18 0.31
-7 -3 1 0.56 0.26
-7 -3 1 0.04 0.3
7 3 -1 0 0.16
7 3 -1 0.29 0.15
-7 3 1 0.04 0.33
-7 3 1 0.44 0.18
7 3 -1 0.49 0.31
-6 -3 1 3.59 0.29
-6 -3 1 3.06 0.38
6 -3 -1 3.2 0.41
-6 -3 1 3.72 0.48
6 -3 -1 3.21 0.2
6 -3 -1 3.51 0.46
-6 3 1 3.16 0.28
6 3 -1 3.12 0.28
-6 3 1 3.49 0.55
6 3 -1 3.71 0.48
5 -3 -1 0.59 0.16
5 -3 -1 0.49 0.11
-5 -3 1 -0.04 0.22
-5 -3 1 0.37 0.14
5 -3 -1 0.39 0.19
-5 -3 1 0.48 0.21
-5 3 1 0.37 0.15
-5 3 1 0.5 0.27
5 3 -1 0.28 0.22
-5 3 1 0.49 0.24
-5 3 1 0.56 0.1
5 3 -1 0.57 0.15
4 -3 -1 13.93 0.38
-4 -3 1 13.67 0.53
-4 -3 1 13.51 0.44
4 -3 -1 13.75 0.53
4 -3 -1 13.46 0.41
4 3 -1 14.3 0.42
-4 3 1 14.28 0.6
-4 3 1 13.34 0.38
-4 3 1 12.37 0.61
4 3 -1 13.19 0.43
-4 3 1 13.64 0.41
4 3 -1 14.96 0.57
-3 -3 1 10.94 0.37
-3 -3 1 10.83 0.34
3 -3 -1 10.29 0.32
-3 -3 1 9.81 0.42
3 -3 -1 11.02 0.43
3 -3 -1 10.55 0.31
3 3 -1 10.66 0.34
-3 3 1 10.27 0.51
3 3 -1 10.97 0.4
3 3 -1 10.64 0.42
3 3 -1 11.04 0.47
3 3 -1 10.96 0.35
-3 3 1 10.29 0.33
-3 3 1 10.71 0.33
-3 3 1 10.41 0.47
2 -3 -1 5.08 0.3
-2 -3 1 3.28 0.23
2 -3 -1 3.9 0.21
2 -3 -1 3.22 0.27
-2 -3 1 3.1 0.2
2 -3 -1 4.88 0.18
-2 3 1 4.7 0.21
2 3 -1 3.5 0.23
2 3 -1 3.6 0.21
2 3 -1 4.32 0.27
2 3 -1 3.29 0.19
2 3 -1 4.91 0.32
-2 3 1 3.37 0.2
2 3 -1 5.38 0.33
-2 3 1 5.46 0.36
2 3 -1 3.57 0.22
-2 3 1 5.28 0.3
-2 3 1 3.77 0.24
-1 -3 1 42.54 0.89
1 -3 -1 39.34 0.93
-1 -3 1 43.11 0.92
-1 -3 1 41.48 0.83
-1 -3 1 41.06 0.79
-1 -3 1 41.65 0.8
1 -3 -1 40.56 0.84
1 -3 -1 41.02 0.82
1 3 -1 41.74 0.92
1 3 -1 41.33 0.79
-1 3 1 40.32 0.83
-1 3 1 39.3 0.79
1 3 -1 41.52 0.79
-1 3 1 40.03 0.8
1 3 -1 41.28 0.84
1 3 -1 40.98 0.89
-1 3 1 39.75 0.82
-1 3 1 40.43 0.95
-1 3 1 40.15 0.87
0 -3 1 3.61 0.25
0 -3 1 3.36 0.14
0 -3 -1 3.52 0.21
0 -3 -1 3.65 0.26
0 -3 1 3.25 0.2
0 -3 1 3.67 0.21
0 -3 -1 3.49 0.21
0 -3 -1 3.46 0.21
0 -3 -1 3.87 0.19
0 3 1 3.49 0.21
0 3 1 3.49 0.18
0 3 -1 3.63 0.27
0 3 1 3.34 0.21
0 3 1 3.54 0.26
0 3 -1 3.48 0.2
0 3 -1 3.12 0.22
0 3 -1 3.38 0.13
0 3 -1 3.42 0.21
-1 -3 -1 7.47 0.32
-1 -3 -1 7.7 0.34
1 -3 1 7.66 0.31
-1 -3 -1 7.26 0.2
1 -3 1 7.54 0.28
1 -3 1 7.36 0.27
-1 -3 -1 7.49 0.27
-1 -3 -1 7.71 0.29
1 -3 1 7.19 0.33
1 -3 1 7.22 0.25
-1 3 -1 7.26 0.27
-1 3 -1 7.75 0.36
1 3 1 7.77 0.28
1 3 1 7.33 0.19
1 3 1 7.09 0.31
-1 3 -1 7.35 0.27
1 3 1 7.68 0.29
1 3 1 7.52 0.35
-1 3 -1 7.53 0.31
-2 -3 -1 111.47 2.07
2 -3 1 107.72 2
-2 -3 -1 107.61 1.82
-2 -3 -1 106.79 1.94
2 -3 1 103.52 1.98
2 -3 1 105.86 2.16
2 -3 1 109.88 1.88
-2 3 -1 105.14 2.16
2 3 1 109.59 2.08
2 3 1 105.84 2.16
-2 3 -1 104.68 1.88
-2 3 -1 103.87 1.98
2 3 1 107.39 2.14
-2 3 -1 107.73 2.01
2 3 1 107.63 2.08
-2 3 -1 107.57 2.08
2 3 1 108.52 1.94
2 3 1 105.22 1.82
-3 -3 -1 28.65 0.66
3 -3 1 29.66 0.76
3 -3 1 29.01 0.59
3 -3 1 28.9 0.71
-3 -3 -1 30.43 0.79
-3 3 -1 27.87 0.72
3 3 1 29.62 0.8
3 3 1 29.55 0.6
3 3 1 29.73 0.67
3 3 1 29.27 0.61
-3 3 -1 29.01 0.87
3 3 1 29.27 0.83
-3 3 -1 29.63 0.6
-4 -3 -1 8.06 0.42
4 -3 1 7.84 0.23
-4 -3 -1 7.46 0.49
4 -3 1 8.78 0.49
-4 -3 -1 7.83 0.32
4 -3 1 7.33 0.39
4 -3 1 8.13 0.35
-4 3 -1 7.69 0.53
4 3 1 7.14 0.29
-4 3 -1 7.34 0.36
4 3 1 7.75 0.28
4 3 1 8.19 0.47
4 3 1 7.82 0.29
-4 3 -1 7.67 0.23
5 -3 1 25.14 0.9
5 -3 1 25.9 0.8
-5 -3 -1 26.13 0.94
-5 -3 -1 26.38 0.84
-5 -3 -1 25.8 0.66
5 3 1 26.53 0.66
-5 3 -1 23.93 0.72
-5 3 -1 26.5 0.99
5 3 1 27.55 0.91
6 -3 1 33.33 1.02
-6 -3 -1 33.25 1.19
-6 -3 -1 33.58 1.04
-6 -3 -1 35.1 0.83
6 -3 1 36.01 1.16
-6 3 -1 33.49 0.94
-6 3 -1 35.01 1.22
6 3 1 34.45 1.13
6 3 1 34.64 0.85
-7 -3 -1 4.43 0.57
-7 -3 -1 4.97 0.49
7 -3 1 3.95 0.47
7 -3 1 4.49 0.58
7 3 1 4.34 0.34
-7 3 -1 4.9 0.65
7 3 1 4.43 0.59
-7 3 -1 4.51 0.42
-8 -3 -1 8.41 0.76
-8 -3 -1 8.27 0.64
8 -3 1 7.18 0.74
8 -3 1 7.53 0.63
-8 3 -1 8.39 0.81
8 3 1 7.36 0.72
9 -3 1 1.48 0.48
-9 -3 -1 1.12 0.36
9 -3 1 0.97 0.35
9 3 1 1.15 0.45
-9 3 -1 0.47 0.45
9 -4 -1 0.18 0.34
-9 -4 1 -0.29 0.3
9 -4 -1 0.18 0.4
-9 4 1 0.35 0.47
9 4 -1 0.06 0.36
9 4 -1 0.23 0.41
8 -4 -1 0.29 0.31
-8 -4 1 0.44 0.3
8 -4 -1 0.7 0.39
8 4 -1 0.25 0.33
8 4 -1 0.36 0.35
-8 4 1 0.61 0.44
-7 -4 1 -0.06 0.15
-7 -4 1 -0.02 0.24
7 -4 -1 0.14 0.31
7 -4 -1 -0.02 0.24
7 4 -1 0.15 0.15
-7 4 1 0.84 0.37
7 4 -1 0.19 0.31
7 4 -1 -0.24 0.23
6 -4 -1 -0.05 0.26
-6 -4 1 0.34 0.16
6 -4 -1 0 0.1
6 -4 -1 -0.12 0.22
-6 -4 1 -0.21 0.22
6 4 -1 -0.07 0.23
6 4 -1 -0.14 0.25
6 4 -1 0.28 0.15
-6 4 1 0.02 0.13
-6 4 1 0.32 0.32
-5 -4 1 0.17 0.15
-5 -4 1 0.33 0.19
5 -4 -1 0.29 0.12
5 -4 -1 0.34 0.11
5 -4 -1 0.19 0.2
5 4 -1 0.68 0.23
-5 4 1 0.18 0.1
-5 4 1 0.24 0.27
5 4 -1 0.15 0.12
-5 4 1 0.24 0.22
-5 4 1 0.25 0.14
5 4 -1 0.27 0.22
4 -4 -1 11.65 0.36
-4 -4 1 11.62 0.51
4 -4 -1 11.29 0.5
-4 -4 1 10.9 0.42
4 -4 -1 11.14 0.36
4 4 -1 11.76 0.37
-4 4 1 10.76 0.36
4 4 -1 12.09 0.56
-4 4 1 11.14 0.59
-4 4 1 11.09 0.37
4 4 -1 10.74 0.38
4 4 -1 11.54 0.49
-4 4 1 11.54 0.55
3 -4 -1 4.09 0.33
-3 -4 1 4.09 0.33
3 -4 -1 4 0.2
-3 -4 1 4.38 0.23
-3 -4 1 3.78 0.27
3 -4 -1 3.85 0.23
3 4 -1 4.52 0.37
-3 4 1 4.36 0.23
3 4 -1 3.74 0.28
3 4 -1 4.65 0.23
-3 4 1 4.05 0.38
-3 4 1 4.15 0.34
-3 4 1 3.79 0.23
3 4 -1 4 0.28
2 -4 -1 0.33 0.12
-2 -4 1 0.23 0.11
-2 -4 1 0.48 0.17
2 -4 -1 0.4 0.16
-2 -4 1 0.15 0.12
-2 4 1 2.06 0.31
-2 4 1 1.07 0.19
2 4 -1 0.33 0.12
2 4 -1 0.46 0.11
-2 4 1 1.33 0.16
2 4 -1 1.93 0.28
1 -4 -1 17.67 0.59
-1 -4 1 18.59 0.47
-1 -4 1 18.15 0.42
1 -4 -1 19.36 0.52
-1 -4 1 19.09 0.55
1 -4 -1 18.57 0.51
-1 -4 1 18.35 0.5
-1 -4 1 19.68 0.58
1 -4 -1 18.99 0.49
1 4 -1 18.78 0.42
-1 4 1 18.66 0.47
1 4 -1 19.44 0.58
-1 4 1 19.54 0.5
1 4 -1 19.12 0.54
-1 4 1 18.93 0.5
-1 4 1 18.72 0.47
1 4 -1 18.25 0.5
-1 4 1 18.55 0.51
-1 4 1 19.31 0.61
1 4 -1 18.73 0.46
0 -4 -1 7.14 0.36
0 -4 1 7.84 0.31
0 -4 1 7.42 0.22
0 -4 1 7.76 0.3
0 -4 -1 8.06 0.31
0 -4 -1 7.79 0.3
0 -4 1 7.98 0.37
0 -4 -1 7.18 0.27
0 -4 -1 7.35 0.29
0 4 1 7.81 0.3
0 4 -1 7.3 0.32
0 4 1 7.27 0.29
0 4 -1 7.27 0.29
0 4 -1 7.33 0.31
0 4 1 8.2 0.39
0 4 1 8.05 0.27
0 4 -1 7.55 0.29
0 4 -1 7.95 0.38
0 4 -1 7.75 0.22
1 -4 1 1.77 0.19
-1 -4 -1 1.65 0.14
1 -4 1 1.99 0.27
1 -4 1 1.89 0.18
-1 -4 -1 1.61 0.23
1 -4 1 1.61 0.22
1 -4 1 1.88 0.18
-1 -4 -1 1.61 0.2
-1 -4 -1 1.64 0.18
-1 -4 -1 1.57 0.25
-1 4 -1 1.68 0.24
-1 4 -1 1.57 0.2
1 4 1 1.96 0.28
1 4 1 1.9 0.2
-1 4 -1 1.77 0.18
-1 4 -1 2.01 0.21
-1 4 -1 1.97 0.18
1 4 1 1.79 0.22
1 4 1 1.57 0.14
1 4 1 1.87 0.21
2 -4 1 0.48 0.12
2 -4 1 0.46 0.16
-2 -4 -1 0.41 0.08
-2 -4 -1 0.39 0.13
-2 -4 -1 0.28 0.12
2 -4 1 0.25 0.1
2 -4 1 0.36 0.14
-2 -4 -1 0.42 0.17
-2 4 -1 0.26 0.11
-2 4 -1 0.26 0.14
2 4 1 0.49 0.16
-2 4 -1 0.09 0.14
2 4 1 0.23 0.13
2 4 1 0.76 0.1
2 4 1 0.48 0.17
-2 4 -1 0.29 0.19
-3 -4 -1 3.04 0.31
3 -4 1 3.56 0.31
-3 -4 -1 2.61 0.23
3 -4 1 2.98 0.22
3 -4 1 3.02 0.19
3 4 1 2.47 0.32
-3 4 -1 3.1 0.3
-3 4 -1 2.53 0.37
-3 4 -1 2.82 0.19
3 4 1 2.75 0.16
3 4 1 2.91 0.3
-3 4 -1 2.96 0.27
3 4 1 2.68 0.15
4 -4 1 6.77 0.44
4 -4 1 6.36 0.41
-4 -4 -1 6.67 0.32
4 -4 1 6.85 0.33
4 -4 1 6.68 0.25
-4 -4 -1 7.44 0.45
4 4 1 6.29 0.26
-4 4 -1 7.02 0.36
4 4 1 6.37 0.44
4 4 1 6.66 0.44
-4 4 -1 6.29 0.5
4 4 1 7.03 0.25
-4 4 -1 6.48 0.25
-5 -4 -1 2.55 0.36
5 -4 1 2.57 0.36
5 -4 1 2.44 0.16
5 -4 1 1.75 0.34
-5 -4 -1 2.09 0.24
5 4 1 3.47 0.42
5 4 1 2.4 0.35
5 4 1 1.99 0.21
-5 4 -1 2.33 0.28
-5 4 -1 2.18 0.38
-5 4 -1 2.33 0.15
5 4 1 2.47 0.22
6 -4 1 4.22 0.53
-6 -4 -1 4.43 0.48
6 -4 1 4 0.47
-6 -4 -1 3.78 0.3
-6 4 -1 3.46 0.35
6 4 1 4.85 0.53
6 4 1 4.15 0.51
-6 4 -1 3.46 0.51
6 4 1 3.93 0.28
7 -4 1 1.26 0.39
-7 -4 -1 1.98 0.25
7 -4 1 2 0.38
-7 -4 -1 1.68 0.37
7 4 1 1.37 0.4
-7 4 -1 1.87 0.28
-7 4 -1 1.99 0.47
7 4 1 1.61 0.4
7 4 1 1.97 0.26
-8 -4 -1 3.65 0.54
8 -4 1 3.65 0.54
8 -4 1 4.41 0.68
8 4 1 3.58 0.55
-8 4 -1 2.97 0.59
8 4 1 4.34 0.61
9 -4 1 1.25 0.5
9 -4 1 0.41 0.33
-9 -4 -1 0.5 0.34
9 4 1 0.99 0.45
9 4 1 0.37 0.38
-9 4 -1 0.45 0.43
-9 -5 1 6.35 0.66
9 -5 -1 6.11 0.67
9 -5 -1 7.43 0.82
-9 5 1 6.59 0.91
9 5 -1 8.68 0.83
9 5 -1 7.7 0.79
-8 -5 1 2.59 0.46
8 -5 -1 2.42 0.52
8 -5 -1 3.94 0.55
8 5 -1 2.79 0.5
8 5 -1 3.88 0.61
-8 5 1 2.96 0.58
7 -5 -1 5.3 0.55
-7 -5 1 4.97 0.39
-7 -5 1 4.1 0.54
7 -5 -1 3.91 0.6
7 5 -1 4.42 0.36
-7 5 1 5.36 0.75
7 5 -1 4.89 0.56
7 5 -1 4.61 0.58
-6 -5 1 0.23 0.25
6 -5 -1 -0.17 0.21
-6 -5 1 -0.15 0.15
6 -5 -1 -0.25 0.1
6 5 -1 -0.16 0.23
6 5 -1 -0.09 0.13
-6 5 1 0.06 0.32
-6 5 1 0.1 0.13
6 5 -1 0.21 0.24
-5 -5 1 0.14 0.22
5 -5 -1 -0.08 0.1
-5 -5 1 -0.05 0.14
5 -5 -1 0.07 0.19
5 -5 -1 0.04 0.12
-5 5 1 -0.2 0.12
-5 5 1 -0.25 0.22
5 5 -1 -0.22 0.2
-5 5 1 0.44 0.3
5 5 -1 0.42 0.22
5 5 -1 0.17 0.13
-4 -5 1 4.31 0.24
-4 -5 1 4 0.31
4 -5 -1 4.26 0.26
-4 -5 1 5.27 0.41
4 -5 -1 4.13 0.36
4 -5 -1 3.67 0.22
4 5 -1 5 0.35
-4 5 1 4.3 0.26
-4 5 1 4.32 0.41
4 5 -1 3.78 0.25
-4 5 1 3.99 0.48
4 5 -1 4.83 0.43
3 -5 -1 0.09 0.11
-3 -5 1 0.29 0.14
3 -5 -1 0.21 0.1
-3 -5 1 0.19 0.19
-3 -5 1 0.17 0.11
3 -5 -1 0.38 0.17
-3 5 1 0.13 0.21
-3 5 1 0.38 0.18
3 5 -1 0.17 0.13
3 5 -1 0.35 0.11
3 5 -1 0.13 0.18
3 5 -1 0.15 0.14
-3 5 1 0.45 0.13
-2 -5 1 30.92 0.71
-2 -5 1 30.91 0.77
-2 -5 1 30.92 0.84
-2 -5 1 32.03 0.7
2 -5 -1 32.17 0.74
2 -5 -1 31.87 0.81
2 -5 -1 31.48 0.81
2 5 -1 32.69 0.89
-2 5 1 32.45 0.93
-2 5 1 31.75 0.82
2 5 -1 30.69 0.69
2 5 -1 33.06 0.74
-2 5 1 31.2 0.72
-1 -5 1 2.02 0.2
1 -5 -1 1.8 0.24
1 -5 -1 2.01 0.22
-1 -5 1 2.03 0.22
1 -5 -1 1.61 0.21
-1 -5 1 2.14 0.14
-1 5 1 1.88 0.23
-1 5 1 1.59 0.24
-1 5 1 2.13 0.22
1 5 -1 2.07 0.3
1 5 -1 2.3 0.2
1 5 -1 1.83 0.15
-1 5 1 1.73 0.2
-1 5 1 2.53 0.21
0 -5 1 15.58 0.37
0 -5 -1 15.43 0.44
0 -5 -1 15.05 0.47
0 -5 1 16.29 0.48
0 -5 -1 16.14 0.44
0 -5 1 14.77 0.46
0 5 -1 15.03 0.48
0 5 1 15.43 0.43
0 5 -1 15.58 0.46
0 5 -1 15.63 0.49
0 5 -1 16.11 0.58
0 5 1 15.14 0.57
0 5 -1 15.81 0.37
0 5 1 15.04 0.48
0 5 1 14.96 0.44
1 -5 1 1.28 0.17
-1 -5 -1 1.27 0.16
-1 -5 -1 1.18 0.19
1 -5 1 1.16 0.17
1 -5 1 1.08 0.19
-1 -5 -1 1.01 0.16
1 -5 1 1.37 0.18
-1 -5 -1 1.08 0.15
1 5 1 1.18 0.17
1 5 1 1.31 0.16
1 5 1 1.11 0.22
-1 5 -1 1.12 0.17
-1 5 -1 1.28 0.24
-1 5 -1 1.33 0.19
2 -5 1 34.32 0.84
2 -5 1 33.7 0.76
2 -5 1 33.44 0.78
2 -5 1 34.76 0.87
-2 -5 -1 34.57 0.9
-2 -5 -1 34.51 0.82
-2 -5 -1 35.09 0.82
-2 -5 -1 33.39 0.67
-2 5 -1 33.92 0.81
-2 5 -1 34.59 0.78
2 5 1 36.1 0.96
2 5 1 34.48 0.84
2 5 1 33.6 0.67
-2 5 -1 34.65 0.99
-2 5 -1 34.24 0.83
3 -5 1 1.25 0.22
-3 -5 -1 1.35 0.19
3 -5 1 1.07 0.15
3 -5 1 1.31 0.19
-3 -5 -1 0.72 0.2
-3 5 -1 1.13 0.17
3 5 1 0.95 0.23
3 5 1 1.36 0.13
-3 5 -1 1.26 0.2
3 5 1 1.08 0.21
-3 5 -1 1.25 0.27
-3 5 -1 1.45 0.23
-4 -5 -1 12.32 0.57
4 -5 1 12.03 0.38
-4 -5 -1 12.44 0.47
4 -5 1 12.26 0.55
-4 5 -1 12.2 0.49
4 5 1 13.94 0.64
4 5 1 12.56 0.34
4 5 1 11.79 0.34
-4 5 -1 11.7 0.38
-4 5 -1 12.66 0.68
4 5 1 13.26 0.57
5 -5 1 2.63 0.38
5 -5 1 2.44 0.19
-5 -5 -1 2.48 0.38
5 -5 1 2.63 0.38
-5 -5 -1 2.67 0.29
-5 5 -1 2.44 0.31
5 5 1 2.83 0.41
5 5 1 2.14 0.2
5 5 1 2.5 0.38
-5 5 -1 2.51 0.42
5 5 1 2.19 0.2
-5 5 -1 1.94 0.17
6 -5 1 2.98 0.4
-6 -5 -1 4.39 0.47
6 -5 1 4.1 0.52
-6 -5 -1 4.4 0.35
6 5 1 5.48 0.54
6 5 1 3.21 0.26
-6 5 -1 4.11 0.36
6 5 1 4.65 0.5
-6 5 -1 3.82 0.53
-7 -5 -1 2.17 0.28
7 -5 1 2.62 0.48
-7 -5 -1 1.88 0.38
7 -5 1 2.1 0.39
-7 5 -1 1.28 0.45
7 5 1 2.17 0.43
7 5 1 2.37 0.45
8 -5 1 -0.22 0.36
-8 -5 -1 0.29 0.31
8 -5 1 0.12 0.31
8 5 1 0.24 0.35
-8 5 -1 0.3 0.41
8 5 1 0.78 0.43
9 -5 1 1.7 0.55
9 -5 1 1.69 0.46
-9 -5 -1 1.84 0.45
9 5 1 1.5 0.47
9 5 1 1.81 0.54
-9 5 -1 1.63 0.59
9 -6 -1 0.98 0.43
9 -6 -1 1.56 0.49
-9 -6 1 1.55 0.42
9 6 -1 0.25 0.41
-9 6 1 1.7 0.57
9 6 -1 1.73 0.48
8 -6 -1 6.21 0.64
8 -6 -1 6.2 0.72
-8 -6 1 6.76 0.66
-8 6 1 6.67 0.87
8 6 -1 7.58 0.72
8 6 -1 6.34 0.72
7 -6 -1 0.57 0.33
-7 -6 1 0.41 0.22
-7 -6 1 0.73 0.33
7 -6 -1 1.1 0.4
-7 6 1 0.47 0.4
7 6 -1 0.78 0.36
7 6 -1 1.08 0.34
-6 -6 1 0.23 0.19
6 -6 -1 0.09 0.25
-6 -6 1 0.17 0.26
6 -6 -1 0.21 0.13
-6 6 1 0.08 0.35
6 6 -1 0.1 0.13
6 6 -1 0.87 0.28
6 6 -1 0.06 0.27
5 -6 -1 0.36 0.15
-5 -6 1 0.71 0.26
-5 -6 1 0.33 0.19
5 -6 -1 0.26 0.24
5 6 -1 0.46 0.27
5 6 -1 0.7 0.23
-5 6 1 0.31 0.29
-5 6 1 0.39 0.15
5 6 -1 0.37 0.14
-5 6 1 -0.07 0.24
4 -6 -1 0.51 0.23
4 -6 -1 0.61 0.13
-4 -6 1 0.93 0.26
-4 -6 1 0.85 0.14
-4 -6 1 0.54 0.19
4 -6 -1 0.57 0.16
-4 6 1 0.51 0.28
-4 6 1 0.81 0.16
-4 6 1 1.02 0.25
4 6 -1 0.57 0.14
4 6 -1 0.51 0.19
4 6 -1 0.49 0.23
3 -6 -1 1.98 0.19
-3 -6 1 2.15 0.27
3 -6 -1 2.17 0.23
3 -6 -1 2.35 0.32
-3 -6 1 1.79 0.28
-3 -6 1 2.11 0.2
3 6 -1 2.25 0.25
3 6 -1 2.22 0.18
-3 6 1 1.92 0.22
3 6 -1 2.56 0.37
3 6 -1 2.36 0.23
-3 6 1 1.96 0.33
-3 6 1 1.66 0.26
-2 -6 1 3.37 0.33
2 -6 -1 3.3 0.27
-2 -6 1 3.35 0.2
2 -6 -1 3.85 0.33
-2 -6 1 3.44 0.23
-2 -6 1 3.17 0.29
2 6 -1 3.65 0.23
2 6 -1 3.56 0.36
-2 6 1 3.12 0.3
-2 6 1 3.65 0.41
-2 6 1 3.3 0.24
2 6 -1 2.7 0.21
-2 6 1 3.63 0.23
1 -6 -1 16.52 0.52
1 -6 -1 15.66 0.49
-1 -6 1 15.3 0.38
-1 -6 1 16.05 0.52
1 -6 -1 15.72 0.52
-1 -6 1 16.13 0.48
-1 6 1 16.27 0.5
-1 6 1 15.85 0.5
1 6 -1 16.15 0.4
-1 6 1 16.56 0.65
1 6 -1 16.35 0.47
1 6 -1 16.78 0.56
-1 6 1 16.48 0.5
1 6 -1 15.48 0.61
0 -6 -1 39.12 0.93
0 -6 1 40.47 0.82
0 -6 1 39.89 0.94
0 -6 1 40.55 0.92
0 -6 -1 40.49 0.89
0 -6 -1 41.38 0.91
0 6 1 39.7 0.89
0 6 -1 40.39 0.96
0 6 1 40.57 1.1
0 6 1 39.8 0.94
0 6 -1 41.71 1.08
0 6 1 39.95 0.88
0 6 -1 40.46 0.8
-1 -6 -1 20.45 0.64
1 -6 1 20.05 0.57
1 -6 1 19.61 0.61
-1 -6 -1 20.79 0.6
-1 -6 -1 19.83 0.5
-1 -6 -1 19.44 0.53
1 -6 1 20.09 0.52
-1 6 -1 19.42 0.72
1 6 1 19.54 0.55
-1 6 -1 19.05 0.52
1 6 1 20.66 0.49
-1 6 -1 19.98 0.6
1 6 1 21.01 0.72
2 -6 1 29.31 0.81
-2 -6 -1 30.09 0.78
-2 -6 -1 30.11 0.63
-2 -6 -1 30.13 0.87
2 -6 1 29.76 0.73
2 -6 1 29.76 0.77
-2 -6 -1 28.69 0.74
-2 6 -1 30.1 0.96
2 6 1 30.61 0.91
-2 6 -1 29.46 0.78
-2 6 -1 29.39 0.77
2 6 1 29.61 0.62
2 6 1 30.06 0.77
3 -6 1 24.22 0.63
-3 -6 -1 23.04 0.79
-3 -6 -1 25.42 0.71
3 -6 1 26.09 0.78
-3 -6 -1 24.02 0.52
-3 6 -1 24.06 0.88
3 6 1 23.17 0.83
-3 6 -1 24.73 0.7
-3 6 -1 24.41 0.75
3 6 1 25.91 0.74
3 6 1 24.14 0.52
-4 -6 -1 35.24 0.91
4 -6 1 33.17 0.99
4 -6 1 33.64 0.79
-4 -6 -1 35.1 1.04
-4 6 -1 33.63 0.89
4 6 1 33.91 0.69
-4 6 -1 34.64 1.16
4 6 1 35.52 1.1
4 6 1 33.84 0.7
4 6 1 34.87 0.99
5 -6 1 22.41 0.58
5 -6 1 21.95 0.86
-5 -6 -1 22.24 0.71
5 -6 1 23.13 0.86
-5 -6 -1 22.77 0.86
5 6 1 22.27 0.53
-5 6 -1 22.38 0.71
5 6 1 23.15 0.84
5 6 1 22.22 0.93
-5 6 -1 21.91 0.98
6 -6 1 14.08 0.72
-6 -6 -1 13.65 0.57
6 -6 1 14.26 0.78
-6 -6 -1 13.38 0.71
6 6 1 13.37 0.79
6 6 1 14.09 0.75
-6 6 -1 12.61 0.87
-6 6 -1 12.27 0.54
7 -6 1 3.85 0.57
-7 -6 -1 3.75 0.37
-7 -6 -1 4.12 0.55
7 -6 1 4.45 0.61
7 6 1 3.98 0.61
-7 6 -1 3.57 0.59
7 6 1 3.59 0.52
-8 -6 -1 7.03 0.71
8 -6 1 6.8 0.75
8 -6 1 6.78 0.7
-8 6 -1 8.56 0.89
8 6 1 6.26 0.73
8 6 1 6.6 0.74
9 -6 1 2.53 0.57
-9 -6 -1 2.23 0.48
9 -6 1 3.01 0.55
9 6 1 2.13 0.54
8 -7 -1 4.05 0.59
-8 -7 1 4.89 0.65
8 -7 -1 5.71 0.7
-8 7 1 3.71 0.7
8 7 -1 4.93 0.73
8 7 -1 4.53 0.66
-7 -7 1 0.43 0.33
-7 -7 1 0.2 0.22
7 -7 -1 0.27 0.36
7 -7 -1 -0.31 0.29
7 7 -1 0.45 0.34
-7 7 1 0.65 0.44
7 7 -1 0.55 0.34
-6 -7 1 3.96 0.42
6 -7 -1 3.76 0.51
-6 -7 1 3.68 0.53
-6 7 1 3.83 0.6
6 7 -1 3.54 0.54
6 7 -1 3.66 0.46
5 -7 -1 6.97 0.37
5 -7 -1 5.8 0.52
-5 -7 1 6.67 0.56
-5 -7 1 5.88 0.44
5 7 -1 6.97 0.31
5 7 -1 8.16 0.5
-5 7 1 7.05 0.58
5 7 -1 7.2 0.58
-5 7 1 6.96 0.35
-5 7 1 5.08 0.63
4 -7 -1 0.13 0.11
4 -7 -1 -0.22 0.22
-4 -7 1 0.15 0.23
-4 -7 1 0 0.11
4 -7 -1 0.01 0.15
-4 -7 1 0.05 0.17
-4 7 1 0.13 0.15
4 7 -1 -0.41 0.2
4 7 -1 -0.01 0.17
-4 7 1 -0.02 0.26
4 7 -1 0 0.09
-4 7 1 -0.18 0.21
-3 -7 1 8.15 0.33
3 -7 -1 7.91 0.47
3 -7 -1 8.01 0.39
-3 -7 1 8.42 0.45
-3 -7 1 8.14 0.49
3 7 -1 7.31 0.35
-3 7 1 8.49 0.34
3 7 -1 7.16 0.31
3 7 -1 7.87 0.38
-3 7 1 7.95 0.46
-3 7 1 8.29 0.38
3 7 -1 8.22 0.52
-3 7 1 7.42 0.56
-2 -7 1 0.46 0.13
-2 -7 1 0.49 0.11
2 -7 -1 0.44 0.16
2 -7 -1 0.12 0.18
-2 -7 1 0.56 0.18
2 7 -1 0.49 0.13
2 7 -1 0.49 0.23
2 7 -1 0.44 0.14
-2 7 1 0.55 0.18
-2 7 1 0.16 0.22
-2 7 1 0.72 0.17
1 -7 -1 1.23 0.18
-1 -7 1 1.2 0.18
-1 -7 1 1.23 0.21
1 -7 -1 0.81 0.18
-1 -7 1 1.11 0.12
1 -7 -1 1.57 0.22
-1 7 1 1.53 0.23
1 7 -1 1.31 0.27
1 7 -1 1.28 0.15
1 7 -1 1.61 0.24
-1 7 1 1.66 0.24
-1 7 1 1.36 0.28
0 -7 -1 9.48 0.39
0 -7 -1 9.76 0.42
0 -7 1 9.41 0.4
0 -7 1 9.06 0.29
0 -7 -1 9.64 0.36
0 -7 1 9.84 0.43
0 7 -1 9.64 0.29
0 7 1 9.42 0.43
0 7 1 9.01 0.54
0 7 -1 9.28 0.43
0 7 1 9.18 0.36
0 7 -1 8.99 0.52
1 -7 1 21.03 0.55
-1 -7 -1 20.27 0.56
-1 -7 -1 22.78 0.66
1 -7 1 21.47 0.64
-1 -7 -1 20.79 0.55
-1 -7 -1 20.52 0.69
1 -7 1 21.1 0.66
-1 7 -1 21.95 0.66
1 7 1 20.89 0.78
1 7 1 21.18 0.55
-1 7 -1 21.1 0.56
1 7 1 21.66 0.59
-1 7 -1 20.8 0.8
-2 -7 -1 11.3 0.53
2 -7 1 10.66 0.43
2 -7 1 10.98 0.51
-2 -7 -1 10.56 0.33
2 -7 1 10.21 0.42
-2 -7 -1 10.74 0.4
-2 -7 -1 11.36 0.48
-2 7 -1 9.92 0.59
2 7 1 11.17 0.44
2 7 1 10.03 0.34
-2 7 -1 10.8 0.44
-2 7 -1 11.52 0.48
2 7 1 10.97 0.57
3 -7 1 12.01 0.45
-3 -7 -1 11.4 0.58
-3 -7 -1 10.65 0.49
3 -7 1 11.49 0.56
-3 -7 -1 11.17 0.32
-3 7 -1 12.15 0.66
3 7 1 10.8 0.61
-3 7 -1 12.1 0.54
3 7 1 12.63 0.53
3 7 1 10.52 0.32
-3 7 -1 11.85 0.49
-4 -7 -1 0.17 0.18
4 -7 1 0.22 0.24
4 -7 1 0.12 0.15
-4 -7 -1 0.13 0.24
4 7 1 0.15 0.21
-4 7 -1 0.04 0.27
-4 7 -1 0.24 0.18
4 7 1 0.41 0.26
5 -7 1 0.87 0.18
-5 -7 -1 1.39 0.25
5 -7 1 1.17 0.32
-5 -7 -1 1.36 0.33
5 -7 1 0.82 0.31
5 7 1 0.61 0.3
-5 7 -1 0.66 0.22
-5 7 -1 0.41 0.33
5 7 1 1.13 0.3
-6 -7 -1 1.44 0.39
6 -7 1 0.77 0.35
6 -7 1 1.42 0.37
-6 -7 -1 1.44 0.27
-6 7 -1 1.14 0.42
6 7 1 1.63 0.36
6 7 1 1.37 0.39
7 -7 1 5.32 0.63
-7 -7 -1 4.57 0.59
-7 -7 -1 4.9 0.44
7 -7 1 4.01 0.56
7 7 1 5.91 0.63
7 7 1 4.67 0.65
-7 7 -1 4.69 0.67
8 -7 1 3.53 0.56
8 -7 1 4.09 0.63
-8 -7 -1 4.65 0.64
8 7 1 5.25 0.69
-8 7 -1 4.07 0.7
8 7 1 3.46 0.61
8 -8 -1 -0.6 0.35
8 -8 -1 0.11 0.39
-8 -8 1 0.21 0.36
-8 8 1 -0.27 0.42
8 8 -1 -0.42 0.32
-7 -8 1 -0.21 0.22
-7 -8 1 0.42 0.34
7 -8 -1 -0.22 0.37
7 -8 -1 0.73 0.37
7 8 -1 0.38 0.3
7 8 -1 0.07 0.34
-7 8 1 -0.13 0.42
6 -8 -1 2.16 0.43
-6 -8 1 2.19 0.43
-6 -8 1 2.88 0.41
-6 8 1 2.8 0.55
6 8 -1 3.4 0.47
6 8 -1 2.76 0.49
-5 -8 1 4.81 0.44
-5 -8 1 5.88 0.58
5 -8 -1 4.77 0.36
5 -8 -1 5.46 0.54
5 8 -1 5.87 0.47
5 8 -1 5.91 0.61
-5 8 1 5.97 0.71
-5 8 1 5.17 0.55
-4 -8 1 1.38 0.32
-4 -8 1 1.68 0.29
4 -8 -1 1.22 0.23
-4 -8 1 1.24 0.17
4 -8 -1 1.12 0.3
4 8 -1 1.64 0.36
-4 8 1 1.94 0.44
4 8 -1 2.2 0.32
-4 8 1 1.42 0.22
-4 8 1 1.4 0.32
3 -8 -1 0.08 0.16
3 -8 -1 0.1 0.21
-3 -8 1 0.22 0.24
-3 -8 1 -0.02 0.11
-3 -8 1 -0.1 0.17
3 8 -1 -0.03 0.11
3 8 -1 0.17 0.13
-3 8 1 0.08 0.16
-3 8 1 -0.17 0.2
-3 8 1 0 0.27
3 8 -1 0.16 0.16
3 8 -1 0.35 0.24
-2 -8 1 8.57 0.47
2 -8 -1 8.04 0.43
2 -8 -1 6.87 0.45
-2 -8 1 7.86 0.36
2 8 -1 7.75 0.47
2 8 -1 7.72 0.32
-2 8 1 7.06 0.57
-2 8 1 7.99 0.41
2 8 -1 7.86 0.54
-2 8 1 7.78 0.41
1 -8 -1 5.42 0.36
1 -8 -1 5.02 0.35
1 -8 -1 4.59 0.29
-1 -8 1 4.73 0.37
-1 -8 1 4.92 0.19
-1 -8 1 4.78 0.32
1 8 -1 4.63 0.47
-1 8 1 5.06 0.47
1 8 -1 4.57 0.38
1 8 -1 4.2 0.2
-1 8 1 4.78 0.3
-1 8 1 5.21 0.35
0 -8 1 8.01 0.43
0 -8 -1 6.75 0.4
0 -8 1 7.45 0.26
0 -8 -1 7.69 0.38
0 -8 -1 7.36 0.33
0 -8 1 7.59 0.41
0 8 -1 7.66 0.44
0 8 -1 8.07 0.55
0 8 1 7.46 0.52
0 8 -1 7.71 0.27
0 8 1 7.35 0.35
0 8 1 8.08 0.43
1 -8 1 1.03 0.22
-1 -8 -1 0.58 0.14
1 -8 1 0.67 0.14
-1 -8 -1 0.94 0.16
-1 -8 -1 0.65 0.2
1 -8 1 0.72 0.21
-1 8 -1 0.67 0.27
-1 8 -1 0.79 0.21
1 8 1 0.8 0.18
-1 8 -1 0.74 0.15
1 8 1 0.62 0.26
-2 -8 -1 1.55 0.19
-2 -8 -1 1.61 0.26
-2 -8 -1 1.44 0.28
2 -8 1 1.62 0.27
2 -8 1 1.97 0.26
-2 -8 -1 1.58 0.19
2 8 1 1.77 0.19
-2 8 -1 1.74 0.27
-2 8 -1 2.13 0.3
-2 8 -1 2.24 0.37
2 8 1 1.82 0.27
2 8 1 1.37 0.31
3 -8 1 2.36 0.3
-3 -8 -1 3.27 0.36
-3 -8 -1 2.3 0.18
3 -8 1 2.67 0.39
-3 -8 -1 2.12 0.34
-3 8 -1 2.55 0.34
-3 8 -1 2.88 0.35
3 8 1 2.93 0.35
-3 8 -1 2.29 0.39
3 8 1 2.45 0.38
-4 -8 -1 3.22 0.47
-4 -8 -1 2.7 0.34
4 -8 1 2.2 0.37
4 -8 1 2.89 0.3
4 8 1 1.98 0.39
4 8 1 3.23 0.4
-4 8 -1 2.16 0.43
-4 8 -1 2.2 0.29
5 -8 1 2.4 0.4
-5 -8 -1 2.05 0.31
5 -8 1 2.01 0.24
-5 -8 -1 2.27 0.39
5 -8 1 2.4 0.39
-5 8 -1 2.56 0.51
-5 8 -1 2.23 0.34
5 8 1 2.16 0.43
5 8 1 2.97 0.45
6 -8 1 -0.57 0.27
-6 -8 -1 0.17 0.31
-6 -8 -1 -0.26 0.19
6 -8 1 0.33 0.32
6 8 1 -0.06 0.29
-6 8 -1 0.48 0.38
6 8 1 0 0.28
7 -8 1 0.73 0.4
-7 -8 -1 0.67 0.27
-7 -8 -1 0.93 0.4
7 -8 1 1.45 0.43
7 8 1 0.29 0.36
7 8 1 0.99 0.38
-7 8 -1 0.99 0.49
8 -8 1 -0.29 0.33
-8 -8 -1 0.13 0.35
8 -8 1 0.63 0.4
8 8 1 0.13 0.34
8 8 1 0.07 0.37
-8 8 -1 -0.16 0.43
-7 -9 1 0.7 0.28
-7 -9 1 0.05 0.32
7 -9 -1 0.19 0.35
7 -9 -1 -0.04 0.35
7 9 -1 -0.11 0.37
-7 9 1 -0.15 0.45
6 -9 -1 2.49 0.44
6 -9 -1 2.36 0.46
-6 -9 1 1.82 0.45
-6 -9 1 2.1 0.35
-6 9 1 1.83 0.5
6 9 -1 1.65 0.43
-5 -9 1 1.15 0.36
-5 -9 1 1 0.28
5 -9 -1 0.49 0.32
5 -9 -1 0.8 0.21
-5 9 1 1.43 0.36
5 9 -1 0.91 0.36
-5 9 1 1.39 0.47
4 -9 -1 0.08 0.19
4 -9 -1 0.25 0.27
-4 -9 1 0.1 0.28
-4 -9 1 -0.01 0.21
-4 9 1 0.07 0.24
-4 9 1 0.04 0.17
4 9 -1 0.06 0.28
4 9 -1 0.43 0.2
-4 9 1 0.26 0.36
-3 -9 1 2.07 0.33
3 -9 -1 2.47 0.36
-3 -9 1 2.77 0.25
3 -9 -1 2.8 0.38
-3 9 1 2.72 0.37
-3 9 1 3.71 0.57
-3 9 1 2.89 0.33
3 9 -1 3.39 0.5
3 9 -1 3.35 0.43
3 9 -1 2.85 0.29
-2 -9 1 0.36 0.15
-2 -9 1 0.49 0.23
2 -9 -1 0.39 0.23
2 -9 -1 0.33 0.19
2 9 -1 0.54 0.25
2 9 -1 0.71 0.3
-2 9 1 1 0.22
2 9 -1 1.3 0.19
-2 9 1 1.91 0.37
-2 9 1 1.01 0.22
-1 -9 1 2.15 0.29
1 -9 -1 1.89 0.28
1 -9 -1 1.93 0.28
-1 -9 1 1.99 0.26
1 9 -1 2.4 0.4
-1 9 1 2.67 0.34
-1 9 1 2 0.38
-1 9 1 2.67 0.29
1 9 -1 2.29 0.32
0 -9 1 9.58 0.47
0 -9 -1 9.48 0.37
0 -9 -1 9.77 0.45
0 -9 1 8.46 0.29
0 -9 -1 9.23 0.49
0 -9 1 8.42 0.49
0 9 -1 8.45 0.49
0 9 1 9.2 0.63
0 9 -1 8.73 0.3
0 9 -1 9.31 0.65
0 9 1 10.08 0.5
0 9 1 9.6 0.39
1 -9 1 13.94 0.59
-1 -9 -1 13.25 0.48
-1 -9 -1 13.34 0.45
-1 -9 -1 14.71 0.6
1 -9 1 13.38 0.57
1 -9 1 12.56 0.45
1 9 1 14.6 0.73
-1 9 -1 14.76 0.61
1 9 1 13.92 0.6
-1 9 -1 14.54 0.77
1 9 1 14.3 0.48
-1 9 -1 13.6 0.44
2 -9 1 13.13 0.57
-2 -9 -1 13.12 0.6
-2 -9 -1 13.07 0.44
2 -9 1 14.33 0.64
2 9 1 14.61 0.52
-2 9 -1 14.95 0.6
2 9 1 14.85 0.78
-2 9 -1 14.16 0.54
-2 9 -1 14.41 0.79
-3 -9 -1 10.58 0.56
-3 -9 -1 10.56 0.64
3 -9 1 9.96 0.49
3 -9 1 10.09 0.61
-3 -9 -1 10.37 0.35
-3 9 -1 11.38 0.57
3 9 1 11.22 0.52
3 9 1 11.09 0.68
-3 9 -1 10.11 0.52
-3 9 -1 9.75 0.72
-4 -9 -1 2.7 0.4
4 -9 1 2.65 0.33
4 -9 1 3.24 0.41
-4 -9 -1 2.33 0.4
4 -9 1 3.28 0.48
4 9 1 2.76 0.45
4 9 1 2.88 0.41
-4 9 -1 3.21 0.39
-4 9 -1 2.79 0.5
-5 -9 -1 0.34 0.25
5 -9 1 0.07 0.29
5 -9 1 0.53 0.3
5 -9 1 0.28 0.17
-5 -9 -1 0.62 0.31
-5 9 -1 0.87 0.42
5 9 1 0.13 0.31
5 9 1 0.3 0.27
-6 -9 -1 2.6 0.38
6 -9 1 2.61 0.44
-6 -9 -1 2.07 0.44
6 -9 1 2.3 0.45
-6 9 -1 2.35 0.57
6 9 1 2.11 0.4
6 9 1 2.79 0.53
7 -9 1 5.92 0.68
7 -9 1 4.15 0.62
-7 -9 -1 4.21 0.62
-7 -9 -1 4.44 0.49
7 9 1 4.59 0.67
-7 9 -1 4.37 0.73
-7 -10 1 8.42 0.64
7 -10 -1 5.71 0.72
7 -10 -1 7.22 0.78
7 10 -1 7.52 0.8
-7 10 1 7.43 0.94
6 -10 -1 13.54 0.84
6 -10 -1 14.6 0.9
-6 -10 1 16.06 0.78
6 10 -1 14.89 0.96
-6 10 1 15.27 1.07
5 -10 -1 10.82 0.54
5 -10 -1 11.27 0.76
-5 -10 1 11.22 0.64
-5 10 1 11.37 0.69
5 10 -1 11.28 0.83
-5 10 1 11.33 0.92
4 -10 -1 1.89 0.39
4 -10 -1 2.14 0.31
-4 -10 1 1.88 0.34
-4 10 1 1.91 0.34
4 10 -1 1.54 0.35
-4 10 1 1.67 0.47
4 10 -1 1.7 0.4
3 -10 -1 6.71 0.47
3 -10 -1 7.42 0.57
-3 -10 1 7.84 0.54
3 10 -1 6.11 0.53
-3 10 1 7.44 0.45
-3 10 1 7.17 0.72
-3 10 1 6.39 0.48
3 10 -1 7.17 0.67
2 -10 -1 4.17 0.44
-2 -10 1 4.38 0.34
-2 -10 1 3.62 0.41
2 -10 -1 3.61 0.41
-2 10 1 4.12 0.58
-2 10 1 3.62 0.36
-2 10 1 4.28 0.4
2 10 -1 3.83 0.44
2 10 -1 4.13 0.53
1 -10 -1 2.74 0.37
1 -10 -1 2.48 0.35
-1 -10 1 2.49 0.34
-1 -10 1 3.32 0.33
-1 10 1 2.02 0.42
-1 10 1 2.29 0.32
1 10 -1 2.31 0.42
1 10 -1 2.15 0.34
-1 10 1 2.27 0.29
0 -10 -1 0.25 0.19
0 -10 1 -0.19 0.18
0 -10 -1 -0.01 0.21
0 -10 1 -0.17 0.18
0 10 1 -0.06 0.28
0 10 -1 0.21 0.22
0 10 -1 0.24 0.31
0 10 1 -0.19 0.19
0 10 1 0.12 0.14
1 -10 1 1.14 0.26
-1 -10 -1 1.32 0.21
1 -10 1 1.44 0.28
-1 -10 -1 0.92 0.27
-1 10 -1 0.91 0.37
1 10 1 1.11 0.36
1 10 1 1.35 0.2
-1 10 -1 1.39 0.29
-1 10 -1 1.22 0.18
1 10 1 0.82 0.28
2 -10 1 24.51 0.87
2 -10 1 23.53 0.8
-2 -10 -1 21.96 0.82
-2 -10 -1 24.28 0.65
-2 10 -1 24.13 0.83
2 10 1 22.61 0.69
-2 10 -1 23.25 0.69
2 10 1 23.53 0.88
2 10 1 22.88 0.98
-2 10 -1 23.56 1.05
3 -10 1 13.67 0.61
3 -10 1 14.49 0.71
-3 -10 -1 13.85 0.75
-3 -10 -1 13.85 0.68
-3 10 -1 14.43 0.86
-3 10 -1 14.91 0.67
3 10 1 15.01 0.85
4 -10 1 3.99 0.44
-4 -10 -1 4.37 0.46
-4 -10 -1 5.55 0.57
4 -10 1 3.25 0.46
4 -10 1 5.03 0.41
-4 10 -1 4.52 0.42
-4 10 -1 4.74 0.69
4 10 1 4.56 0.62
-5 -10 -1 7.09 0.56
5 -10 1 5.78 0.61
5 -10 1 5.99 0.58
-5 -10 -1 6.42 0.67
5 10 1 5.66 0.69
-5 10 -1 4.45 0.67
6 -10 1 13.87 0.87
-6 -10 -1 11.38 0.67
-6 -10 -1 13.24 0.89
6 -10 1 11.25 0.75
6 10 1 11.48 0.9
-6 10 -1 11.23 0.96
7 -10 1 6.76 0.76
7 -10 1 6.16 0.72
-7 -10 -1 6.51 0.59
-7 -10 -1 4.9 0.68
-7 10 -1 6.34 0.86
7 10 1 4.95 0.74
-6 -11 1 1.04 0.33
6 -11 -1 2.11 0.49
-6 11 1 0.4 0.49
6 11 -1 0.4 0.41
6 11 -1 1.95 0.46
5 -11 -1 0.62 0.24
-5 -11 1 0.49 0.27
5 -11 -1 0.94 0.39
5 11 -1 0.45 0.34
5 11 -1 0.66 0.38
-5 11 1 0.38 0.44
4 -11 -1 1.44 0.38
4 -11 -1 1.68 0.31
-4 -11 1 1.59 0.35
4 11 -1 2.1 0.41
4 11 -1 1.79 0.48
-4 11 1 1.12 0.48
3 -11 -1 0.09 0.28
-3 -11 1 -0.16 0.21
3 -11 -1 0.28 0.25
-3 11 1 0.53 0.22
3 11 -1 0.37 0.28
3 11 -1 0.79 0.37
-3 11 1 0.37 0.39
2 -11 -1 0.38 0.25
-2 -11 1 0.57 0.18
-2 -11 1 1.23 0.32
2 -11 -1 0.48 0.26
2 11 -1 0.34 0.28
-2 11 1 1.49 0.41
-2 11 1 0.61 0.24
2 11 -1 0.55 0.34
1 -11 -1 13.27 0.62
1 -11 -1 13.62 0.65
-1 -11 1 13.06 0.66
-1 -11 1 13.51 0.58
1 11 -1 13.43 0.83
1 11 -1 12.45 0.67
-1 11 1 13.01 0.64
-1 11 1 12.51 0.86
0 -11 1 0.36 0.22
0 -11 -1 0.73 0.26
0 -11 -1 0.79 0.22
0 -11 1 0.4 0.25
0 11 1 0.34 0.35
0 11 -1 0.65 0.37
0 11 1 0.65 0.24
0 11 -1 0.22 0.24
1 -11 1 -0.18 0.2
-1 -11 -1 0.17 0.17
-1 -11 -1 0.27 0.24
1 -11 1 0.2 0.23
1 11 1 0.48 0.27
1 11 1 0.42 0.33
-1 11 -1 0.05 0.23
-1 11 -1 -0.02 0.32
2 -11 1 0.85 0.29
-2 -11 -1 1.17 0.31
2 -11 1 0.99 0.28
-2 11 -1 0.46 0.38
2 11 1 1.12 0.4
-2 11 -1 1.17 0.31
2 11 1 1.86 0.36
3 -11 1 5.45 0.55
3 -11 1 5.46 0.45
-3 -11 -1 5.15 0.49
3 11 1 4.16 0.51
3 11 1 4.46 0.66
-3 11 -1 5.38 0.48
-3 11 -1 6.41 0.73
4 -11 1 0.56 0.24
4 -11 1 1.07 0.34
-4 -11 -1 0.68 0.29
-4 11 -1 0.04 0.39
4 11 1 0.54 0.4
-5 -11 -1 7.72 0.62
-5 -11 -1 8.98 0.76
5 -11 1 7.7 0.7
5 11 1 9.47 0.82
-5 11 -1 8.58 0.91
-6 -11 -1 2.79 0.55
-6 -11 -1 3.68 0.5
6 -11 1 3.16 0.53
-6 11 -1 2.39 0.6
6 11 1 2.95 0.59
-5 -12 1 -0.01 0.25
5 -12 -1 0.44 0.37
-5 12 1 0.36 0.44
5 12 -1 0.58 0.44
5 12 -1 -0.27 0.3
4 -12 -1 1.13 0.36
-4 -12 1 0.52 0.3
4 -12 -1 0.88 0.28
-4 12 1 0.45 0.46
4 12 -1 0.6 0.44
4 12 -1 1.29 0.39
3 -12 -1 0.25 0.27
-3 -12 1 0.04 0.26
3 -12 -1 0.12 0.24
-3 12 1 0.02 0.38
3 12 -1 0.07 0.3
3 12 -1 -0.55 0.3
2 -12 -1 0.41 0.28
2 -12 -1 0.25 0.25
-2 -12 1 0.42 0.28
-2 12 1 0.4 0.39
2 12 -1 0.02 0.35
2 12 -1 0.18 0.26
-2 12 1 0.27 0.24
1 -12 -1 4.53 0.45
1 -12 -1 3.72 0.45
-1 -12 1 4.74 0.4
-1 -12 1 4.38 0.48
1 12 -1 4.13 0.65
1 12 -1 4.42 0.52
-1 12 1 3.95 0.44
-1 12 1 3.42 0.57
0 -12 -1 2.36 0.39
0 -12 -1 1.92 0.32
0 -12 1 2.63 0.35
0 -12 1 2 0.36
0 12 1 2.01 0.36
0 12 -1 2.13 0.37
0 12 1 2.69 0.51
0 12 -1 2.28 0.49
-1 -12 -1 -0.13 0.23
1 -12 1 -0.12 0.23
1 -12 1 -0.16 0.22
1 12 1 0.2 0.38
-1 12 -1 0.43 0.28
-1 12 -1 -0.04 0.39
1 12 1 0.31 0.26
-2 -12 -1 0.01 0.26
2 -12 1 0.12 0.24
2 -12 1 0.04 0.23
2 12 1 0.14 0.27
2 12 1 -0.2 0.34
-2 12 -1 -0.31 0.25
-2 12 -1 -0.29 0.35
3 -12 1 4.79 0.56
-3 -12 -1 4.71 0.52
3 -12 1 4.26 0.46
3 12 1 3.7 0.54
-3 12 -1 4.51 0.68
3 12 1 4.85 0.68
4 -12 1 0.64 0.36
-4 -12 -1 -0.02 0.27
4 -12 1 0.81 0.29
4 12 1 0.59 0.43
-4 12 -1 -0.02 0.42
4 12 1 0.44 0.33
5 -12 1 3.18 0.51
-5 -12 -1 2.03 0.4
5 12 1 1.69 0.44
-5 12 -1 2.8 0.61
5 12 1 2.02 0.55
4 -13 -1 0.72 0.35
4 -13 -1 0.4 0.26
-4 -13 1 -0.24 0.27
4 13 -1 0.6 0.43
4 13 -1 0.03 0.34
-4 13 1 0.61 0.49
3 -13 -1 0.79 0.3
3 -13 -1 0.81 0.32
-3 -13 1 0.25 0.3
-3 13 1 0.46 0.46
3 13 -1 0.49 0.34
3 13 -1 0.69 0.43
2 -13 -1 -0.31 0.23
2 -13 -1 -0.19 0.25
-2 -13 1 0.16 0.29
-2 13 1 -0.69 0.36
2 13 -1 0.44 0.29
2 13 -1 0.09 0.39
-1 -13 1 0.81 0.31
1 -13 -1 1.19 0.31
1 -13 -1 0.94 0.32
1 13 -1 0.21 0.44
1 13 -1 1.1 0.35
-1 13 1 1.11 0.32
-1 13 1 0.67 0.45
0 -13 -1 -0.31 0.26
0 -13 1 0.26 0.29
0 -13 1 0.14 0.23
0 13 1 0.81 0.43
0 13 1 0.16 0.28
0 13 -1 0.38 0.29
0 13 -1 0.06 0.38
1 -13 1 0.61 0.28
1 -13 1 0.65 0.3
-1 -13 -1 0.29 0.29
-1 13 -1 0.51 0.3
-1 13 -1 0.04 0.41
1 13 1 0.61 0.29
1 13 1 1.36 0.48
2 -13 1 0.97 0.31
2 -13 1 0.82 0.32
-2 -13 -1 1.48 0.36
2 13 1 1.33 0.45
2 13 1 1.34 0.36
-2 13 -1 1 0.34
-2 13 -1 1.62 0.51
-3 -13 -1 0.2 0.29
3 -13 1 1.02 0.36
3 -13 1 0.52 0.3
-3 13 -1 1.09 0.48
3 13 1 1.08 0.36
3 13 1 0.35 0.41
4 -13 1 9.68 0.63
4 -13 1 9.22 0.74
-4 -13 -1 9.5 0.71
4 13 1 8.99 0.88
4 13 1 9.07 0.75
-4 13 -1 8.62 0.97
-3 -14 1 2.14 0.43
3 -14 -1 2.61 0.42
3 -14 -1 2.12 0.43
3 14 -1 2.67 0.6
3 14 -1 2.37 0.46
-3 14 1 3.7 0.72
2 -14 -1 1.63 0.37
2 -14 -1 1.58 0.37
-2 -14 1 1.75 0.42
2 14 -1 1.84 0.55
-2 14 1 1.83 0.57
2 14 -1 1.05 0.38
1 -14 -1 1.02 0.36
-1 -14 1 1.68 0.39
-1 14 1 1.39 0.55
1 14 -1 0.9 0.35
1 14 -1 1.13 0.49
0 -14 1 4.55 0.56
0 -14 -1 4.44 0.58
0 14 1 4.41 0.52
0 14 -1 3.27 0.64
0 14 -1 5.25 0.58
0 14 1 4.56 0.71
-1 -14 -1 7.58 0.66
1 -14 1 7.81 0.62
1 -14 1 7.43 0.65
1 14 1 8.69 0.67
-1 14 -1 7 0.85
1 14 1 5.6 0.85
-1 14 -1 7.32 0.65
2 -14 1 3.28 0.47
-2 -14 -1 3.03 0.46
2 -14 1 3.31 0.47
-2 14 -1 3.57 0.66
2 14 1 2.65 0.46
2 14 1 3.15 0.6
3 -14 1 4.5 0.56
-3 -14 -1 4.19 0.56
3 -14 1 2.56 0.42
3 14 1 3.07 0.65
-3 14 -1 3.76 0.67
3 14 1 2.13 0.46
9 0 -2 0.14 0.38
9 0 -2 0.55 0.29
-9 0 2 0.29 0.35
8 0 -2 3.15 0.52
-8 0 2 2.52 0.34
-8 0 2 2.8 0.52
8 0 -2 2.58 0.37
-7 0 2 6.71 0.45
-7 0 2 7.67 0.69
7 0 -2 6.94 0.47
7 0 -2 7.62 0.33
7 0 -2 7.49 0.61
6 0 -2 30.71 0.72
6 0 -2 32.09 0.89
6 0 -2 30.47 0.7
6 0 -2 29.02 1.02
-6 0 2 29.65 1.09
-6 0 2 30.47 0.85
-5 0 2 11.54 0.62
-5 0 2 10.35 0.42
5 0 -2 10.32 0.34
5 0 -2 10.79 0.36
5 0 -2 10.82 0.45
-4 0 2 20.92 0.56
-4 0 2 21.78 0.74
4 0 -2 22.15 0.58
4 0 -2 19.22 0.58
4 0 -2 18.78 0.49
4 0 -2 19.37 0.5
-4 0 2 18.5 0.67
3 0 -2 0.25 0.1
-3 0 2 0.3 0.12
3 0 -2 0.23 0.11
3 0 -2 0.29 0.16
3 0 -2 0.41 0.13
3 0 -2 0.18 0.1
-3 0 2 0.24 0.18
-3 0 2 0.3 0.16
3 0 -2 0.28 0.13
3 0 -2 0.27 0.16
2 0 -2 263.46 4.72
2 0 -2 261.01 4.44
2 0 -2 264.95 4.46
-2 0 2 268.25 4.74
2 0 -2 256.49 4.44
2 0 -2 264.95 4.45
2 0 -2 262.74 4.55
-2 0 2 267.48 5.03
2 0 -2 261.67 4.74
-2 0 2 254.67 4.74
1 0 -2 122.08 2.09
-1 0 2 121.49 2.17
1 0 -2 122.01 2.07
-1 0 2 118.96 2.19
-1 0 2 118.08 2.07
1 0 -2 121.94 2.17
1 0 -2 118.59 2.15
-1 0 2 118.08 2.07
1 0 -2 120.48 2.07
1 0 -2 120.81 2.19
0 0 -2 1.73 0.08
0 0 -2 1.86 0.11
0 0 2 1.99 0.13
0 0 -2 1.95 0.13
0 0 2 1.98 0.11
0 0 2 1.81 0.11
0 0 -2 2 0.12
0 0 2 1.72 0.08
1 0 2 2.83 0.15
-1 0 -2 2.9 0.21
-1 0 -2 2.8 0.2
1 0 2 2.69 0.2
1 0 2 2.96 0.11
-1 0 -2 2.84 0.21
1 0 2 2.99 0.21
1 0 2 3.21 0.21
-1 0 -2 2.85 0.1
2 0 2 0.07 0.14
2 0 2 0.07 0.1
-2 0 -2 0.2 0.16
-2 0 -2 0.13 0.14
2 0 2 -0.04 0.13
-2 0 -2 0.15 0.12
2 0 2 0.22 0.14
3 0 2 26.52 0.61
3 0 2 25.7 0.7
-3 0 -2 25.98 0.78
3 0 2 24.92 0.73
-3 0 -2 24.5 0.68
-4 0 -2 1.34 0.23
4 0 2 1.04 0.24
4 0 2 1.21 0.18
-4 0 -2 1.09 0.26
5 0 2 13.34 0.49
-5 0 -2 13.39 0.56
5 0 2 12.19 0.61
-5 0 -2 13.42 0.67
6 0 2 1.39 0.32
6 0 2 0.87 0.21
-6 0 -2 0.75 0.25
-6 0 -2 0.86 0.33
-7 0 -2 0.3 0.24
-7 0 -2 -0.07 0.3
7 0 2 0.8 0.33
7 0 2 0.49 0.23
8 0 2 5.12 0.49
-8 0 -2 5.24 0.69
-8 0 -2 5.48 0.52
8 0 2 6.73 0.71
9 0 2 10.34 0.88
-9 0 -2 10.1 0.92
-9 0 -2 9.76 0.67
9 0 2 8.93 0.63
9 -1 -2 3.06 0.45
9 -1 -2 4.67 0.67
-9 -1 2 3.93 0.66
-9 1 2 4.91 0.74
9 1 -2 3.61 0.62
9 1 -2 4.45 0.48
-8 -1 2 12.58 0.89
8 -1 -2 12.86 0.7
-8 -1 2 13.63 0.67
8 -1 -2 12.99 0.85
8 1 -2 12.7 0.62
-8 1 2 13.39 0.6
8 1 -2 13.57 0.89
-8 1 2 15.01 0.95
-7 -1 2 18.21 0.69
7 -1 -2 18.35 0.89
7 -1 -2 18.86 0.73
-7 -1 2 16.56 0.89
7 1 -2 17.62 0.54
7 1 -2 18.19 0.68
-7 1 2 18.95 0.94
7 1 -2 18.31 0.88
-7 1 2 17.29 0.64
6 -1 -2 71.41 1.58
-6 -1 2 65.98 1.55
-6 -1 2 70.98 1.81
6 -1 -2 67.06 1.33
6 -1 -2 70.14 1.35
6 -1 -2 69.89 1.76
6 1 -2 69.73 1.75
-6 1 2 68.69 1.48
6 1 -2 68.62 1.5
6 1 -2 68.48 1.39
-6 1 2 69.67 1.83
5 -1 -2 18.3 0.48
-5 -1 2 17.58 0.74
5 -1 -2 17.74 0.47
5 -1 -2 17.27 0.56
-5 -1 2 18.92 0.61
5 -1 -2 18.37 0.61
-5 1 2 17.78 0.71
5 1 -2 17.83 0.7
-5 1 2 17.75 0.54
5 1 -2 18.88 0.58
5 1 -2 17.7 0.49
-5 1 2 18.65 0.75
5 1 -2 18.12 0.51
4 -1 -2 132.19 2.45
4 -1 -2 130.72 2.45
-4 -1 2 125.72 2.68
4 -1 -2 132.6 2.34
-4 -1 2 130.64 2.5
4 -1 -2 134.53 2.34
4 1 -2 135.32 2.41
-4 1 2 131.64 2.43
4 1 -2 128.94 2.35
-4 1 2 129.5 2.67
-4 1 2 131.82 2.7
4 1 -2 134.32 2.37
-3 -1 2 123.97 2.34
3 -1 -2 128.34 2.31
-3 -1 2 125.85 2.46
-3 -1 2 126.72 2.5
3 -1 -2 128.19 2.23
3 -1 -2 126.96 2.28
-3 -1 2 125.75 2.25
3 -1 -2 129.99 2.52
3 1 -2 125.62 2.24
3 1 -2 125.73 2.49
-3 1 2 125.48 2.27
3 1 -2 127.14 2.36
-3 1 2 123.78 2.5
3 1 -2 124.44 2.44
-3 1 2 123.08 2.48
-3 1 2 125.24 2.23
3 1 -2 130.86 2.26
3 1 -2 127.77 2.28
-3 1 2 125.61 2.3
-2 -1 2 72.57 1.33
2 -1 -2 70.33 1.44
2 -1 -2 71.9 1.34
-2 -1 2 72.85 1.37
2 -1 -2 71.85 1.28
-2 -1 2 70.78 1.41
-2 -1 2 70.13 1.31
-2 -1 2 70.62 1.44
2 -1 -2 70.95 1.45
2 -1 -2 70.96 1.29
-2 1 2 71.3 1.33
-2 1 2 70.95 1.45
2 1 -2 72.4 1.42
-2 1 2 68.12 1.43
2 1 -2 73.48 1.33
-2 1 2 70.53 1.27
2 1 -2 73.34 1.31
-2 1 2 70.96 1.3
2 1 -2 70.68 1.44
2 1 -2 72.75 1.36
1 -1 -2 6.34 0.26
1 -1 -2 6.15 0.22
1 -1 -2 6.42 0.21
1 -1 -2 6.65 0.25
-1 -1 2 6.61 0.23
1 1 -2 6.45 0.22
1 1 -2 7.09 0.23
1 1 -2 6.35 0.22
-1 1 2 5.94 0.21
-1 1 2 6.24 0.26
1 1 -2 6.72 0.23
-1 1 2 6.36 0.26
1 1 -2 5.76 0.21
1 1 -2 5.82 0.21
0 -1 -2 145.66 2.51
0 -1 2 137.85 2.48
0 -1 -2 139.54 2.44
0 -1 2 141.34 2.37
0 -1 -2 136.98 2.49
0 -1 -2 138.02 2.33
0 -1 2 144.41 2.46
0 -1 -2 136.95 2.51
0 -1 2 134.19 2.5
0 1 2 139.1 2.33
0 1 -2 141.47 2.38
0 1 2 138.45 2.5
0 1 2 143.83 2.48
0 1 -2 137.27 2.46
0 1 2 133.23 2.51
0 1 -2 139.62 2.39
0 1 -2 141.08 2.48
1 -1 2 11.8 0.35
-1 -1 -2 12.93 0.38
-1 -1 -2 12.16 0.37
-1 -1 -2 12.21 0.37
1 -1 2 11.29 0.33
-1 -1 -2 12.06 0.25
1 -1 2 11.52 0.25
1 -1 2 12.11 0.35
1 -1 2 13.06 0.38
-1 -1 -2 12.16 0.29
1 1 2 11.3 0.25
1 1 2 12.45 0.37
-1 1 -2 11.91 0.34
1 1 2 12.56 0.29
-1 1 -2 11.67 0.32
-1 1 -2 12.73 0.38
-1 1 -2 11.54 0.25
1 1 2 12.7 0.38
2 -1 2 71.85 1.49
-2 -1 -2 71.7 1.45
-2 -1 -2 72.16 1.44
-2 -1 -2 69.31 1.25
2 -1 2 71.44 1.35
-2 -1 -2 72.07 1.49
-2 -1 -2 71.02 1.26
2 -1 2 67.93 1.44
2 -1 2 72.26 1.42
2 1 2 73.41 1.45
2 1 2 71.16 1.46
2 1 2 71.7 1.26
-2 1 -2 72.08 1.41
-2 1 -2 72.99 1.5
2 1 2 71.62 1.5
2 1 2 71.07 1.27
-2 1 -2 71.34 1.34
-3 -1 -2 0.68 0.09
-3 -1 -2 0.83 0.18
-3 -1 -2 0.67 0.21
3 -1 2 0.72 0.19
3 -1 2 0.91 0.16
-3 -1 -2 0.62 0.11
3 -1 2 0.69 0.17
-3 1 -2 0.7 0.17
3 1 2 0.61 0.19
3 1 2 1.05 0.13
3 1 2 0.85 0.1
3 1 2 0.64 0.17
-3 1 -2 0.65 0.2
-3 1 -2 0.78 0.15
-4 -1 -2 1.78 0.13
4 -1 2 1.85 0.28
-4 -1 -2 1.99 0.27
-4 -1 -2 1.51 0.27
4 -1 2 1.6 0.21
-4 -1 -2 1.91 0.19
4 1 2 1.99 0.13
4 1 2 2.22 0.31
-4 1 -2 1.86 0.24
-4 1 -2 1.36 0.27
4 1 2 1.87 0.21
5 -1 2 23.34 0.84
5 -1 2 23.66 0.7
-5 -1 -2 21.86 0.86
-5 -1 -2 22.46 0.76
-5 1 -2 22.66 0.89
5 1 2 23.04 0.49
5 1 2 22.96 0.83
-5 1 -2 23.22 0.75
5 1 2 23.6 0.65
6 -1 2 7.8 0.59
-6 -1 -2 8.33 0.63
6 -1 2 7.77 0.47
-6 -1 -2 8.88 0.53
-6 1 -2 7.46 0.61
-6 1 -2 7.06 0.47
6 1 2 7.38 0.4
6 1 2 7.89 0.25
6 1 2 8.09 0.59
-7 -1 -2 1.41 0.32
7 -1 2 1.17 0.29
7 -1 2 1.56 0.4
-7 -1 -2 1.05 0.37
7 1 2 1.4 0.38
-7 1 -2 0.46 0.35
-7 1 -2 1.02 0.28
7 1 2 0.74 0.23
-8 -1 -2 4.84 0.51
8 -1 2 4.47 0.65
8 -1 2 4.92 0.51
-8 -1 -2 4.43 0.66
-8 1 -2 3.73 0.6
8 1 2 4.86 0.65
-8 1 -2 5.05 0.51
8 1 2 4.38 0.45
9 -1 2 7.71 0.86
-9 -1 -2 7.27 0.84
9 -1 2 7.97 0.62
-9 -1 -2 7.04 0.62
9 1 2 6.85 0.81
-9 1 -2 7.34 0.84
9 -2 -2 0.02 0.39
-9 -2 2 -0.13 0.35
-9 -2 2 -0.2 0.25
9 -2 -2 -0.33 0.25
9 2 -2 0.5 0.39
-9 2 2 -0.73 0.32
9 2 -2 -0.01 0.22
8 -2 -2 -0.07 0.26
8 -2 -2 -0.14 0.33
-8 -2 2 0.23 0.26
-8 -2 2 -0.28 0.31
8 2 -2 0.02 0.18
8 2 -2 0.16 0.35
-8 2 2 0.32 0.37
7 -2 -2 9.8 0.7
-7 -2 2 11.14 0.76
7 -2 -2 9.25 0.58
-7 -2 2 9.89 0.55
7 2 -2 9.1 0.47
7 2 -2 10.57 0.71
-7 2 2 9.47 0.44
-7 2 2 10.23 0.8
7 2 -2 10 0.42
6 -2 -2 7.73 0.48
-6 -2 2 7.01 0.6
6 -2 -2 7.62 0.3
-6 -2 2 8.02 0.48
6 -2 -2 7.42 0.3
6 2 -2 7.98 0.37
-6 2 2 7.41 0.36
6 2 -2 7.87 0.4
-6 2 2 7.84 0.63
6 2 -2 7.51 0.54
5 -2 -2 6.6 0.26
-5 -2 2 6.45 0.38
5 -2 -2 6.2 0.31
5 -2 -2 6.2 0.39
-5 -2 2 7.05 0.52
5 -2 -2 5.98 0.26
-5 2 2 6.23 0.48
-5 2 2 5.84 0.3
5 2 -2 6.15 0.45
5 2 -2 6.58 0.33
-5 2 2 5.75 0.51
4 -2 -2 5.64 0.24
4 -2 -2 5.95 0.27
-4 -2 2 6.27 0.36
-4 -2 2 6.43 0.3
4 -2 -2 6.71 0.36
-4 -2 2 6.88 0.45
-4 2 2 6.04 0.26
4 2 -2 6.06 0.28
4 2 -2 7.25 0.41
4 2 -2 6.25 0.3
-4 2 2 5.73 0.44
-4 2 2 6.33 0.26
-4 2 2 6.24 0.42
-3 -2 2 6.33 0.38
3 -2 -2 6.27 0.24
3 -2 -2 5.47 0.22
-3 -2 2 5.93 0.27
-3 -2 2 6.18 0.29
-3 -2 2 6.12 0.32
3 2 -2 5.95 0.31
-3 2 2 5.8 0.21
3 2 -2 5.39 0.35
3 2 -2 6.1 0.26
-3 2 2 5.18 0.39
-3 2 2 5.56 0.24
3 2 -2 5.96 0.31
-3 2 2 5.64 0.36
3 2 -2 5.68 0.32
3 2 -2 6.04 0.28
2 -2 -2 5.68 0.33
-2 -2 2 6.19 0.27
2 -2 -2 5.98 0.23
-2 -2 2 6.24 0.28
2 -2 -2 5.7 0.32
-2 -2 2 6.26 0.26
-2 -2 2 6.27 0.29
2 2 -2 6.44 0.32
-2 2 2 6.06 0.27
2 2 -2 6.09 0.28
2 2 -2 6.29 0.25
2 2 -2 6.08 0.3
-2 2 2 5.85 0.33
2 2 -2 6.65 0.27
2 2 -2 6.15 0.24
-2 2 2 6.06 0.34
-2 2 2 6.19 0.24
-1 -2 2 7.38 0.22
1 -2 -2 6.94 0.3
1 -2 -2 6.91 0.3
1 -2 -2 7.12 0.25
1 -2 -2 7.4 0.26
-1 -2 2 6.98 0.26
-1 -2 2 6.93 0.25
-1 2 2 6.68 0.25
-1 2 2 6.9 0.31
1 2 -2 7.23 0.27
1 2 -2 7.41 0.27
-1 2 2 7.02 0.32
1 2 -2 7.39 0.25
-1 2 2 7.13 0.17
-1 2 2 6.91 0.24
-1 2 2 6.86 0.18
1 2 -2 7.6 0.22
1 2 -2 7.36 0.28
1 2 -2 7.51 0.25
0 -2 2 58.76 1.1
0 -2 2 61.64 1.15
0 -2 -2 63.35 1.23
0 -2 -2 61.24 1.08
0 -2 2 62.11 1.13
0 -2 -2 62.36 1.14
0 -2 -2 61.24 1.16
0 -2 2 63.31 1.19
0 2 -2 62.72 1.13
0 2 -2 61.51 1.1
0 2 2 61.49 1.21
0 2 -2 63.56 1.15
0 2 2 61.43 1.08
0 2 2 64.04 1.15
0 2 -2 64.3 1.21
0 2 2 59.9 1.22
0 2 -2 63.22 1.19
1 -2 2 3.92 0.23
1 -2 2 3.75 0.22
-1 -2 -2 4.08 0.24
1 -2 2 3.58 0.2
-1 -2 -2 4.15 0.25
1 -2 2 3.78 0.26
1 -2 2 3.8 0.16
-1 -2 -2 3.75 0.19
-1 -2 -2 3.75 0.23
1 -2 2 3.99 0.21
-1 2 -2 3.89 0.27
-1 2 -2 3.58 0.22
1 2 2 3.73 0.24
1 2 2 3.9 0.27
-1 2 -2 3.72 0.16
-1 2 -2 3.7 0.24
1 2 2 3.88 0.24
1 2 2 4.23 0.2
2 -2 2 53.77 0.94
2 -2 2 52.6 1.14
-2 -2 -2 53.06 1.15
2 -2 2 52.01 1.09
2 -2 2 54.78 1.09
-2 -2 -2 53.01 1.01
-2 -2 -2 52.71 1.15
2 -2 2 53.36 1.21
2 -2 2 54.13 1.14
2 2 2 52.07 1.16
-2 2 -2 53.64 1.19
2 2 2 55.42 1.17
2 2 2 51.38 1.19
2 2 2 53.9 0.94
-2 2 -2 54.03 1.12
-2 2 -2 52.43 1.08
2 2 2 54.72 1.01
2 2 2 54.6 0.94
-2 2 -2 53.18 0.95
3 -2 2 17.47 0.53
3 -2 2 18.35 0.55
-3 -2 -2 17.16 0.42
-3 -2 -2 16.95 0.57
3 -2 2 16.9 0.58
-3 -2 -2 17.17 0.62
3 2 2 17.76 0.6
-3 2 -2 16.76 0.54
3 2 2 17.46 0.41
3 2 2 17.3 0.42
-3 2 -2 17.06 0.63
-4 -2 -2 20.4 0.49
4 -2 2 20.02 0.71
-4 -2 -2 18.62 0.73
-4 -2 -2 20.49 0.67
4 -2 2 20.17 0.63
-4 2 -2 19.29 0.75
4 2 2 20.34 0.52
4 2 2 21.11 0.72
4 2 2 19.79 0.51
-4 2 -2 20.3 0.63
4 2 2 19.82 0.48
-5 -2 -2 10.01 0.52
-5 -2 -2 10.77 0.34
5 -2 2 10.74 0.51
-5 -2 -2 10.37 0.62
5 -2 2 12.64 0.62
-5 2 -2 10.5 0.62
5 2 2 10.43 0.32
5 2 2 10.66 0.4
5 2 2 10.69 0.58
-5 2 -2 11.06 0.5
-6 -2 -2 11.31 0.72
6 -2 2 10.83 0.67
6 -2 2 12.14 0.59
-6 -2 -2 10.19 0.6
-6 2 -2 12.12 0.57
-6 2 -2 12.12 0.76
6 2 2 11.35 0.46
6 2 2 11.48 0.67
7 -2 2 -0.31 0.21
-7 -2 -2 0.24 0.31
7 -2 2 -0.08 0.28
-7 -2 -2 -0.12 0.23
-7 2 -2 -0.57 0.29
7 2 2 -0.33 0.29
7 2 2 0.27 0.17
-7 2 -2 0.08 0.22
-8 -2 -2 0.77 0.39
-8 -2 -2 -0.04 0.23
8 -2 2 0.28 0.37
8 -2 2 0.09 0.26
-8 2 -2 0.12 0.36
-8 2 -2 0.17 0.24
8 2 2 -0.3 0.33
8 2 2 0.51 0.22
-9 -2 -2 -0.49 0.25
-9 -2 -2 -0.4 0.34
9 -2 2 0 0.39
9 -2 2 -0.26 0.29
-9 2 -2 0.25 0.42
9 2 2 0.25 0.41
9 -3 -2 1.56 0.39
-9 -3 2 1.7 0.47
-9 -3 2 2.25 0.42
9 -3 -2 1.48 0.48
-9 3 2 2.11 0.56
9 3 -2 1.97 0.49
-8 -3 2 5.17 0.68
8 -3 -2 4.29 0.55
8 -3 -2 4.81 0.66
-8 -3 2 4.64 0.52
8 3 -2 4.97 0.62
-8 3 2 4.47 0.66
8 3 -2 5.05 0.4
-7 -3 2 -0.16 0.22
7 -3 -2 0.08 0.23
7 -3 -2 0.42 0.31
-7 -3 2 0.04 0.3
-7 3 2 0 0.12
7 3 -2 -0.09 0.15
-7 3 2 0.34 0.33
7 3 -2 0.4 0.31
7 3 -2 0.06 0.15
-6 -3 2 23.03 0.95
6 -3 -2 21.2 0.8
-6 -3 2 23.94 0.69
6 -3 -2 21.95 0.57
-6 -3 2 23.96 0.82
6 3 -2 21.87 0.67
-6 3 2 21.63 0.62
-6 3 2 22.79 0.99
-6 3 2 23.95 0.94
6 3 -2 23.73 0.9
5 -3 -2 12.54 0.43
5 -3 -2 14.37 0.57
-5 -3 2 14.2 0.5
-5 -3 2 13.85 0.66
-5 -3 2 14.15 0.57
5 -3 -2 13.98 0.41
-5 3 2 13.76 0.66
-5 3 2 13.64 0.41
-5 3 2 15.37 0.72
-5 3 2 13.56 0.42
5 3 -2 13.76 0.61
5 3 -2 14.74 0.48
-4 -3 2 21.41 0.59
4 -3 -2 21.18 0.53
-4 -3 2 21.98 0.68
4 -3 -2 21.02 0.51
4 -3 -2 22.2 0.67
4 3 -2 20.75 0.58
-4 3 2 20.14 0.72
-4 3 2 21.02 0.53
-4 3 2 21.4 0.79
4 3 -2 21.08 0.67
-4 3 2 20.84 0.51
4 3 -2 22.07 0.57
-3 -3 2 1.62 0.2
-3 -3 2 1.49 0.22
3 -3 -2 1.34 0.17
3 -3 -2 1.58 0.21
-3 -3 2 1.36 0.2
3 -3 -2 1.35 0.12
-3 3 2 1.38 0.14
3 3 -2 1.6 0.22
3 3 -2 1.47 0.23
-3 3 2 1.59 0.26
-3 3 2 1.47 0.17
-3 3 2 1.51 0.26
3 3 -2 1.53 0.19
3 3 -2 1.36 0.21
3 3 -2 1.16 0.16
-2 -3 2 48.32 1.05
2 -3 -2 47.42 1.01
2 -3 -2 46.47 1.08
-2 -3 2 48.69 0.96
2 -3 -2 46.44 0.88
2 -3 -2 49.61 0.97
-2 -3 2 48.28 0.99
2 -3 -2 47.88 1.12
2 3 -2 48.09 1.09
2 3 -2 50.65 1
2 3 -2 49.99 0.99
2 3 -2 49.72 1.07
2 3 -2 49.54 1.09
-2 3 2 48.87 1.09
2 3 -2 47.18 0.95
-2 3 2 47.24 1.12
-2 3 2 46.38 0.89
2 3 -2 48.28 0.99
-2 3 2 47.37 1.01
1 -3 -2 1.14 0.16
-1 -3 2 1.02 0.16
-1 -3 2 1.09 0.14
-1 -3 2 1.06 0.15
1 -3 -2 1.07 0.14
1 -3 -2 1.02 0.17
1 3 -2 1.11 0.11
1 3 -2 0.92 0.11
1 3 -2 0.88 0.13
-1 3 2 1.07 0.13
-1 3 2 1.11 0.13
1 3 -2 1.17 0.16
1 3 -2 1.32 0.19
-1 3 2 1.15 0.19
-1 3 2 1.02 0.14
1 3 -2 1.09 0.14
-1 3 2 0.86 0.14
1 3 -2 1.45 0.22
-1 3 2 1.2 0.17
0 -3 -2 6.94 0.23
0 -3 2 7.35 0.28
0 -3 2 6.86 0.31
0 -3 -2 6.93 0.27
0 -3 2 6.74 0.28
0 -3 -2 7.17 0.3
0 -3 -2 6.97 0.27
0 -3 -2 7 0.33
0 -3 2 6.93 0.26
0 3 -2 7 0.26
0 3 2 6.44 0.27
0 3 2 6.69 0.29
0 3 -2 6.92 0.29
0 3 2 6.98 0.33
0 3 -2 6.57 0.27
0 3 -2 6.93 0.32
0 3 2 6.96 0.22
1 -3 2 5.54 0.26
-1 -3 -2 5.93 0.29
1 -3 2 5.7 0.24
-1 -3 -2 5.88 0.31
1 -3 2 5.32 0.24
1 -3 2 5.41 0.28
-1 -3 -2 5.95 0.26
1 -3 2 5.78 0.32
1 -3 2 5.75 0.22
1 3 2 5.65 0.26
1 3 2 5.74 0.31
1 3 2 5.73 0.29
-1 3 -2 5.69 0.28
-1 3 -2 5.48 0.33
1 3 2 6 0.29
-1 3 -2 5.76 0.28
-1 3 -2 5.49 0.23
2 -3 2 15.3 0.36
2 -3 2 15.62 0.45
2 -3 2 15.57 0.49
-2 -3 -2 15.05 0.48
-2 -3 -2 14.64 0.5
2 -3 2 15.63 0.48
2 -3 2 15.56 0.55
-2 -3 -2 14.7 0.41
2 3 2 14.07 0.49
-2 3 -2 14.48 0.47
2 3 2 14.86 0.5
2 3 2 14.75 0.52
-2 3 -2 15.53 0.36
2 3 2 14.95 0.54
2 3 2 15.28 0.41
-2 3 -2 15.28 0.55
-2 3 -2 14.96 0.48
3 -3 2 11.95 0.47
3 -3 2 11.4 0.48
-3 -3 -2 12.22 0.37
-3 -3 -2 12.06 0.49
3 -3 2 11.42 0.42
3 -3 2 11.6 0.29
3 3 2 11.62 0.36
3 3 2 12.52 0.52
-3 3 -2 12.02 0.46
-3 3 -2 11.66 0.29
3 3 2 12.13 0.3
3 3 2 11.79 0.29
-3 3 -2 12.14 0.54
3 3 2 11.71 0.49
4 -3 2 4 0.38
-4 -3 -2 3.49 0.23
4 -3 2 3.32 0.32
-4 -3 -2 3.5 0.35
-4 3 -2 3.44 0.31
4 3 2 3.31 0.21
-4 3 -2 3.82 0.41
4 3 2 3.46 0.38
4 3 2 3.46 0.2
4 3 2 3.49 0.2
5 -3 2 2.95 0.35
-5 -3 -2 2.94 0.37
-5 -3 -2 2.44 0.37
5 -3 2 2.09 0.34
-5 -3 -2 2.89 0.22
5 3 2 2.79 0.4
-5 3 -2 2.49 0.33
5 3 2 2.39 0.22
5 3 2 2.46 0.22
-5 3 -2 2.55 0.4
-6 -3 -2 0.39 0.24
6 -3 2 0.25 0.23
-6 -3 -2 0.15 0.12
6 -3 2 0.37 0.28
-6 -3 -2 0.27 0.28
6 3 2 0.13 0.27
-6 3 -2 0.1 0.21
6 3 2 0.02 0.13
-6 3 -2 0.3 0.3
7 -3 2 5.69 0.52
-7 -3 -2 4.93 0.62
-7 -3 -2 4.41 0.49
7 -3 2 4.87 0.6
7 3 2 4.47 0.6
-7 3 -2 5.35 0.45
7 3 2 4.89 0.35
-7 3 -2 5.66 0.69
-8 -3 -2 3.13 0.55
8 -3 2 2.58 0.43
8 -3 2 2.44 0.51
-8 -3 -2 2.85 0.44
8 3 2 3.14 0.54
-8 3 -2 2.51 0.54
9 -3 2 0.49 0.45
9 -3 2 1.65 0.41
-9 -3 -2 1.45 0.41
9 3 2 1.78 0.52
-9 3 -2 0.93 0.48
-9 -4 2 8.81 0.68
9 -4 -2 8.02 0.86
9 -4 -2 7.78 0.71
9 4 -2 7.14 0.76
-9 4 2 7.79 0.89
9 4 -2 9.3 0.8
-8 -4 2 10.01 0.69
8 -4 -2 9.06 0.8
8 -4 -2 8.43 0.65
8 4 -2 10.57 0.77
-8 4 2 11.4 0.92
8 4 -2 10.04 0.78
7 -4 -2 4.75 0.53
7 -4 -2 4.51 0.59
-7 -4 2 5.3 0.52
7 4 -2 4.7 0.57
7 4 -2 4.69 0.56
7 4 -2 4.56 0.36
-7 4 2 3.99 0.62
-6 -4 2 40.68 1.18
6 -4 -2 39.42 1.15
-6 -4 2 40.47 1.02
6 -4 -2 40.17 0.89
6 4 -2 40.86 1.26
6 4 -2 40.98 1.22
-6 4 2 41.86 1.29
-6 4 2 38.97 0.9
6 4 -2 40.67 0.99
-6 4 2 41.72 1.37
5 -4 -2 10.65 0.36
-5 -4 2 10.89 0.54
-5 -4 2 10.61 0.45
5 -4 -2 11.63 0.55
5 -4 -2 10.44 0.37
-5 4 2 10.31 0.67
5 4 -2 10.92 0.53
-5 4 2 10.03 0.35
-5 4 2 10.77 0.37
-5 4 2 9.55 0.59
5 4 -2 11.22 0.42
5 4 -2 10.43 0.59
4 -4 -2 3.3 0.18
4 -4 -2 3.6 0.23
-4 -4 2 3.8 0.26
4 -4 -2 3.38 0.33
-4 -4 2 3.33 0.34
-4 -4 2 3.42 0.28
4 4 -2 3.53 0.36
-4 4 2 3.14 0.21
4 4 -2 3.27 0.25
4 4 -2 3.22 0.3
-4 4 2 3.2 0.35
-4 4 2 3.44 0.43
-4 4 2 3.03 0.2
-3 -4 2 0.64 0.15
-3 -4 2 0.81 0.19
3 -4 -2 0.59 0.18
-3 -4 2 0.96 0.17
3 -4 -2 0.85 0.12
3 -4 -2 0.65 0.13
-3 4 2 0.76 0.21
3 4 -2 0.79 0.14
3 4 -2 1.01 0.21
-3 4 2 0.78 0.14
3 4 -2 0.72 0.16
3 4 -2 0.72 0.16
-3 4 2 0.71 0.23
-3 4 2 0.78 0.11
-2 -4 2 43.97 0.94
2 -4 -2 44.16 0.91
2 -4 -2 43.02 1.01
-2 -4 2 45.16 1.05
-2 -4 2 44.31 1.02
2 -4 -2 42.73 0.96
-2 -4 2 43.2 0.89
-2 4 2 41.65 0.85
2 4 -2 43.17 0.89
-2 4 2 41.27 1
-2 4 2 42.17 0.84
2 4 -2 43.68 1.04
-2 4 2 41.48 0.94
2 4 -2 43.67 0.9
-2 4 2 41.73 1.08
2 4 -2 44.52 0.9
1 -4 -2 3.87 0.28
1 -4 -2 4.09 0.25
1 -4 -2 3.55 0.29
-1 -4 2 4.49 0.25
-1 -4 2 3.97 0.25
-1 -4 2 4.37 0.29
1 -4 -2 4.13 0.25
-1 4 2 4.31 0.24
1 4 -2 3.86 0.14
1 4 -2 4.18 0.3
1 4 -2 4.54 0.28
-1 4 2 4.25 0.21
-1 4 2 3.78 0.2
1 4 -2 4.04 0.24
-1 4 2 3.9 0.32
-1 4 2 4.42 0.29
1 4 -2 4.01 0.23
-1 4 2 4.37 0.25
1 4 -2 4.44 0.14
1 4 -2 4.12 0.28
0 -4 2 37.41 0.82
0 -4 2 38.17 0.81
0 -4 -2 38.25 0.76
0 -4 -2 37.18 0.92
0 -4 -2 37.44 0.84
0 -4 -2 38.36 0.84
0 -4 2 38.13 0.91
0 -4 2 38.6 0.85
0 4 2 37.02 0.84
0 4 -2 37.88 0.91
0 4 -2 37.45 0.81
0 4 -2 38.72 0.86
0 4 2 37.96 0.92
0 4 -2 37.4 0.82
0 4 2 38.99 0.84
0 4 2 37.71 0.75
1 -4 2 2.46 0.24
1 -4 2 2.46 0.22
-1 -4 -2 2.36 0.27
-1 -4 -2 2.59 0.22
1 -4 2 2.35 0.28
1 -4 2 2.17 0.18
1 -4 2 2.46 0.2
-1 -4 -2 2.16 0.26
-1 -4 -2 2.29 0.13
-1 -4 -2 2.49 0.23
1 4 2 2.6 0.22
1 4 2 2.55 0.28
1 4 2 2.41 0.25
1 4 2 2.41 0.13
-1 4 -2 2.44 0.23
-1 4 -2 2.5 0.23
1 4 2 2.14 0.24
-1 4 -2 2.53 0.28
-2 -4 -2 3.21 0.26
2 -4 2 3.35 0.26
2 -4 2 3.34 0.2
-2 -4 -2 3.19 0.23
2 -4 2 3.15 0.24
2 -4 2 3.08 0.25
2 -4 2 3.34 0.29
-2 -4 -2 3.22 0.3
-2 4 -2 2.97 0.19
2 4 2 3.03 0.28
-2 4 -2 3.48 0.36
2 4 2 3.51 0.32
-2 4 -2 3.07 0.27
3 -4 2 12.5 0.49
3 -4 2 12.21 0.49
3 -4 2 11.65 0.42
3 -4 2 11.88 0.33
-3 -4 -2 10.84 0.39
-3 -4 -2 11.65 0.5
-3 4 -2 11.68 0.33
3 4 2 11.6 0.5
3 4 2 11.46 0.27
3 4 2 12.13 0.54
-3 4 -2 12.97 0.6
-3 4 -2 11.52 0.46
3 4 2 11.3 0.27
4 -4 2 1.79 0.26
4 -4 2 1.95 0.15
-4 -4 -2 1.94 0.28
4 -4 2 2.47 0.32
-4 -4 -2 2.54 0.24
4 4 2 1.78 0.29
-4 4 -2 2.05 0.29
-4 4 -2 1.87 0.14
4 4 2 1.91 0.16
4 4 2 2.13 0.31
-4 4 -2 2.25 0.35
4 4 2 2.29 0.17
-5 -4 -2 35.14 1.04
5 -4 2 36.09 1.02
5 -4 2 35.41 1.1
-5 -4 -2 34.14 0.83
-5 4 -2 34.95 1.17
5 4 2 33.69 0.77
5 4 2 34.26 0.76
-5 4 -2 35.62 0.94
5 4 2 33.15 1.09
5 4 2 35.37 1.07
-6 -4 -2 9.76 0.42
-6 -4 -2 10.3 0.62
6 -4 2 8.95 0.56
6 -4 2 11.04 0.68
6 4 2 9.53 0.38
6 4 2 9.54 0.64
6 4 2 9.91 0.66
-6 4 -2 10.39 0.74
-6 4 -2 10.01 0.51
7 -4 2 18.83 0.83
7 -4 2 19.61 0.97
-7 -4 -2 19.01 0.86
-7 4 -2 21.65 1.06
7 4 2 19.66 0.96
-7 4 -2 20.01 0.76
7 4 2 18.2 0.94
8 -4 2 9.8 0.81
8 -4 2 11.44 0.72
-8 -4 -2 10.51 0.72
8 4 2 10.64 0.84
-8 4 -2 10.56 0.88
8 4 2 9.3 0.79
-9 -4 -2 4.38 0.59
9 -4 2 2.68 0.49
9 -4 2 5.25 0.74
-9 4 -2 3.43 0.64
9 4 2 4.5 0.7
9 4 2 4.54 0.68
-9 -5 2 8.15 0.69
9 -5 -2 6.06 0.69
9 -5 -2 6.63 0.79
-9 5 2 7.19 0.91
9 5 -2 5.5 0.72
9 5 -2 6.02 0.75
8 -5 -2 7.82 0.67
-8 -5 2 9.83 0.7
8 -5 -2 7.65 0.76
-8 5 2 10.18 0.89
8 5 -2 9.44 0.76
8 5 -2 8.55 0.75
-7 -5 2 2.77 0.35
-7 -5 2 2.13 0.39
7 -5 -2 2 0.38
7 -5 -2 1.57 0.44
7 5 -2 1.79 0.25
-7 5 2 1.75 0.49
7 5 -2 1.31 0.37
7 5 -2 2.33 0.41
6 -5 -2 8.23 0.35
-6 -5 2 8 0.58
-6 -5 2 8.01 0.45
6 -5 -2 7.64 0.57
-6 5 2 8.21 0.72
6 5 -2 7.83 0.39
-6 5 2 8.57 0.62
6 5 -2 8.45 0.61
-6 5 2 7.18 0.34
6 5 -2 7.85 0.53
5 -5 -2 11.42 0.41
-5 -5 2 11.43 0.61
-5 -5 2 12.28 0.51
5 -5 -2 11.16 0.35
5 -5 -2 12.29 0.6
5 5 -2 11.27 0.63
5 5 -2 11.94 0.42
-5 5 2 10.33 0.64
-5 5 2 11.17 0.37
5 5 -2 12.68 0.57
-5 5 2 11.61 0.71
4 -5 -2 1.83 0.22
-4 -5 2 2.3 0.27
4 -5 -2 2.41 0.33
4 -5 -2 2.2 0.16
-4 -5 2 2.36 0.24
-4 -5 2 2.63 0.36
-4 5 2 2.09 0.31
4 5 -2 2.28 0.22
4 5 -2 2.17 0.28
-4 5 2 2.2 0.19
4 5 -2 2.77 0.38
-4 5 2 2.74 0.4
-3 -5 2 7.51 0.32
3 -5 -2 7.23 0.33
-3 -5 2 8.02 0.44
3 -5 -2 7.6 0.41
-3 -5 2 7.84 0.37
3 5 -2 7.05 0.34
3 5 -2 7.68 0.34
3 5 -2 7.43 0.31
-3 5 2 7.23 0.5
-3 5 2 7.53 0.42
-3 5 2 7.58 0.28
3 5 -2 7.12 0.43
-2 -5 2 21.05 0.59
-2 -5 2 19.83 0.64
2 -5 -2 19.17 0.59
-2 -5 2 20.53 0.54
2 -5 -2 19.53 0.55
-2 5 2 19.61 0.49
2 5 -2 20.17 0.5
-2 5 2 19.33 0.49
2 5 -2 20.87 0.67
-2 5 2 20.02 0.61
2 5 -2 19.65 0.49
2 5 -2 18.68 0.51
-2 5 2 20.15 0.72
-1 -5 2 0.94 0.16
-1 -5 2 0.95 0.16
1 -5 -2 0.58 0.16
1 -5 -2 1.11 0.17
1 -5 -2 0.87 0.16
-1 5 2 0.87 0.14
1 5 -2 0.91 0.19
-1 5 2 1.05 0.22
-1 5 2 1.23 0.17
-1 5 2 0.96 0.14
-1 5 2 0.88 0.18
1 5 -2 0.72 0.14
1 5 -2 0.88 0.2
0 -5 -2 2.45 0.21
0 -5 -2 2.82 0.25
0 -5 -2 2.95 0.25
0 -5 -2 2.51 0.23
0 -5 2 2.73 0.24
0 -5 2 2.59 0.25
0 5 -2 2.81 0.32
0 5 2 2.56 0.2
0 5 -2 2.64 0.24
0 5 2 2.66 0.25
0 5 -2 2.7 0.25
0 5 2 2.73 0.33
-1 -5 -2 0.12 0.08
1 -5 2 0.08 0.15
1 -5 2 0.05 0.12
1 -5 2 0.09 0.11
1 -5 2 0.22 0.1
-1 -5 -2 0.16 0.12
-1 -5 -2 0.19 0.13
-1 -5 -2 0.04 0.14
-1 5 -2 0.02 0.18
1 5 2 0.16 0.08
-1 5 -2 -0.06 0.1
1 5 2 0.05 0.16
1 5 2 -0.03 0.14
-1 5 -2 0.22 0.15
2 -5 2 0.45 0.14
-2 -5 -2 0.7 0.15
-2 -5 -2 0.44 0.14
-2 -5 -2 0.31 0.17
2 -5 2 0.5 0.18
2 -5 2 0.44 0.13
2 -5 2 0.48 0.14
2 5 2 0.42 0.17
-2 5 -2 0.49 0.12
2 5 2 0.35 0.19
-2 5 -2 0.31 0.15
-2 5 -2 0.2 0.19
3 -5 2 3.66 0.33
-3 -5 -2 3.65 0.28
3 -5 2 3.49 0.35
3 -5 2 3.34 0.22
-3 -5 -2 3.99 0.36
3 5 2 4.01 0.35
-3 5 -2 3.15 0.31
-3 5 -2 3.12 0.21
-3 5 -2 3.8 0.41
3 5 2 3.56 0.38
4 -5 2 21.1 0.52
-4 -5 -2 21.94 0.63
4 -5 2 20.94 0.75
4 -5 2 22.81 0.75
-4 -5 -2 21.2 0.77
-4 5 -2 21.78 0.84
4 5 2 22.31 0.82
4 5 2 21.72 0.46
-4 5 -2 21.3 0.53
4 5 2 21.44 0.46
-4 5 -2 20.88 0.68
4 5 2 21.4 0.74
5 -5 2 6.89 0.25
5 -5 2 7.39 0.55
-5 -5 -2 7.22 0.52
-5 -5 -2 6.99 0.38
5 -5 2 6.72 0.49
5 5 2 6.5 0.52
5 5 2 6.71 0.27
-5 5 -2 7.74 0.65
5 5 2 6.48 0.51
-5 5 -2 7.21 0.45
6 -5 2 3.45 0.48
-6 -5 -2 3.48 0.47
6 -5 2 4.42 0.55
-6 -5 -2 4.82 0.34
-6 5 -2 4.45 0.4
6 5 2 4.15 0.51
-6 5 -2 4.38 0.62
6 5 2 4.35 0.51
7 -5 2 10.23 0.67
7 -5 2 10.43 0.8
-7 -5 -2 10.59 0.72
-7 5 -2 11.42 0.58
7 5 2 10.27 0.77
-7 5 -2 10.14 0.85
7 5 2 12.15 0.79
8 -5 2 11.84 0.9
-8 -5 -2 9.23 0.69
8 -5 2 10.35 0.73
8 5 2 10.97 0.87
-8 5 -2 11.32 0.94
8 5 2 12.62 0.87
9 -5 2 0.57 0.38
-9 -5 -2 0.32 0.34
9 -5 2 0.73 0.44
-9 5 -2 1.59 0.57
9 5 2 0.37 0.48
9 5 2 0.21 0.38
9 -6 -2 1.17 0.45
-9 -6 2 1.71 0.44
9 -6 -2 0.34 0.42
9 6 -2 0.84 0.41
-9 6 2 0.64 0.49
9 6 -2 0.41 0.39
8 -6 -2 -0.31 0.37
-8 -6 2 0.12 0.3
8 -6 -2 0.15 0.34
8 6 -2 0.5 0.37
-8 6 2 0.16 0.44
8 6 -2 0.37 0.33
7 -6 -2 0.01 0.35
7 -6 -2 0.33 0.3
-7 -6 2 0.39 0.29
-7 -6 2 0.38 0.22
7 6 -2 0.81 0.29
-7 6 2 -0.46 0.32
7 6 -2 0.19 0.32
6 -6 -2 0.82 0.3
-6 -6 2 0.64 0.29
6 -6 -2 0.93 0.19
-6 -6 2 1.05 0.25
-6 6 2 1.1 0.35
6 6 -2 1.15 0.19
-6 6 2 1.09 0.41
6 6 -2 1.23 0.29
6 6 -2 1.02 0.35
-5 -6 2 14.58 0.59
5 -6 -2 13.68 0.49
-5 -6 2 13.42 0.66
5 -6 -2 14.1 0.65
-5 6 2 13.48 0.42
5 6 -2 14 0.47
-5 6 2 14.41 0.71
5 6 -2 14.23 0.62
-5 6 2 13.79 0.78
5 6 -2 14.67 0.73
-4 -6 2 3.87 0.27
-4 -6 2 3.12 0.33
-4 -6 2 3.36 0.41
4 -6 -2 3.82 0.37
4 -6 -2 3.81 0.3
-4 6 2 5.05 0.52
-4 6 2 3.69 0.42
4 6 -2 4.37 0.43
-4 6 2 4.17 0.25
4 6 -2 4.54 0.33
3 -6 -2 7.25 0.35
-3 -6 2 6.06 0.43
-3 -6 2 7.1 0.4
3 -6 -2 7.58 0.42
-3 -6 2 7.77 0.33
-3 6 2 6.89 0.27
3 6 -2 7.07 0.32
3 6 -2 6.83 0.3
-3 6 2 6.38 0.49
3 6 -2 6.89 0.33
-3 6 2 7.19 0.42
3 6 -2 8.18 0.48
-3 6 2 7.17 0.29
2 -6 -2 2.29 0.26
-2 -6 2 2.65 0.23
-2 -6 2 2.56 0.27
2 -6 -2 2.86 0.31
2 6 -2 2.17 0.21
2 6 -2 2.71 0.19
-2 6 2 2.72 0.29
2 6 -2 2.59 0.33
-2 6 2 2.77 0.38
-2 6 2 2.63 0.22
2 6 -2 2.64 0.18
2 6 -2 2.67 0.3
-2 6 2 2.09 0.2
-1 -6 2 24.85 0.64
-1 -6 2 24.96 0.68
1 -6 -2 23.52 0.66
1 -6 -2 23.69 0.68
1 -6 -2 25.44 0.68
-1 6 2 25.16 0.82
1 6 -2 25.85 0.78
1 6 -2 24.55 0.64
-1 6 2 24.57 0.67
-1 6 2 24.4 0.65
1 6 -2 24.12 0.71
-1 6 2 24.71 0.64
0 -6 -2 34.18 0.82
0 -6 2 34.01 0.82
0 -6 -2 34 0.76
0 -6 2 33.45 0.82
0 -6 -2 33.21 0.83
0 -6 -2 33.37 0.84
0 6 -2 32.61 0.85
0 6 2 33.88 0.98
0 6 2 33.36 0.75
0 6 -2 33.33 0.95
0 6 2 33.28 0.81
-1 -6 -2 1.84 0.28
-1 -6 -2 2.14 0.25
1 -6 2 2.72 0.25
-1 -6 -2 1.94 0.17
1 -6 2 2.15 0.18
1 -6 2 2.05 0.28
-1 -6 -2 2.15 0.23
-1 6 -2 1.84 0.27
-1 6 -2 1.97 0.19
1 6 2 1.65 0.26
-1 6 -2 2.52 0.36
1 6 2 2.19 0.24
1 6 2 1.9 0.16
-2 -6 -2 0.55 0.15
2 -6 2 0.58 0.15
-2 -6 -2 0.4 0.08
-2 -6 -2 0.47 0.16
-2 -6 -2 0.41 0.19
2 -6 2 0.3 0.18
2 -6 2 0.33 0.14
2 6 2 0.49 0.08
2 6 2 0.33 0.2
-2 6 -2 0.86 0.25
2 6 2 0.22 0.18
-2 6 -2 0.28 0.17
-3 -6 -2 1.21 0.25
3 -6 2 1.51 0.25
3 -6 2 1.81 0.28
3 -6 2 1.37 0.18
-3 -6 -2 1.61 0.23
-3 6 -2 1.56 0.25
-3 6 -2 1.28 0.31
3 6 2 2.26 0.35
3 6 2 1.54 0.26
4 -6 2 1.46 0.29
4 -6 2 1.63 0.3
-4 -6 -2 1.66 0.3
-4 -6 -2 1.47 0.23
4 -6 2 1.29 0.17
4 6 2 1.62 0.3
-4 6 -2 1.95 0.27
-4 6 -2 0.92 0.32
4 6 2 1.13 0.29
5 -6 2 5.97 0.27
5 -6 2 6.15 0.53
-5 -6 -2 5.85 0.39
5 -6 2 5.21 0.49
-5 -6 -2 6.08 0.5
5 6 2 5.75 0.54
-5 6 -2 5.73 0.59
-5 6 -2 5.36 0.4
5 6 2 7.32 0.54
-6 -6 -2 2.18 0.31
-6 -6 -2 1.91 0.38
6 -6 2 1.96 0.4
6 -6 2 2.75 0.41
6 6 2 2.39 0.44
-6 6 -2 2.32 0.35
6 6 2 1.77 0.38
-6 6 -2 2.46 0.47
7 -6 2 0.35 0.31
7 -6 2 -0.31 0.3
-7 -6 -2 -0.1 0.28
-7 -6 -2 0.22 0.18
7 6 2 -0.52 0.28
-7 6 -2 0.28 0.38
7 6 2 -0.17 0.31
8 -6 2 0.01 0.39
-8 -6 -2 0.25 0.33
8 -6 2 0.16 0.34
-8 6 -2 -0.24 0.37
8 6 2 0.34 0.37
8 6 2 -0.3 0.29
-8 -7 2 6.8 0.7
8 -7 -2 5.68 0.77
8 -7 -2 7.98 0.73
8 7 -2 6.93 0.72
-8 7 2 6.09 0.91
8 7 -2 6.32 0.73
-7 -7 2 2.35 0.36
-7 -7 2 2.9 0.48
7 -7 -2 1.81 0.45
7 -7 -2 1.56 0.41
7 7 -2 4.03 0.54
7 7 -2 2.65 0.49
-7 7 2 1.56 0.53
-6 -7 2 3.59 0.42
-6 -7 2 3.78 0.54
6 -7 -2 3.34 0.31
6 -7 -2 2.49 0.43
-6 7 2 1.95 0.5
6 7 -2 3.5 0.54
-6 7 2 3.63 0.51
6 7 -2 4.17 0.47
5 -7 -2 0.14 0.26
5 -7 -2 -0.09 0.14
-5 -7 2 0.14 0.26
-5 -7 2 0.34 0.2
-5 7 2 0.12 0.26
5 7 -2 0.24 0.2
-5 7 2 0.05 0.32
5 7 -2 -0.15 0.24
-4 -7 2 21.73 0.82
4 -7 -2 21 0.65
-4 -7 2 20.42 0.59
-4 -7 2 22.26 0.74
4 -7 -2 21.37 0.79
-4 7 2 20.52 0.92
4 7 -2 21.86 0.68
4 7 -2 21.62 0.86
-4 7 2 21.83 0.81
-4 7 2 20.82 0.59
-3 -7 2 2.82 0.32
-3 -7 2 2.78 0.25
3 -7 -2 2.24 0.28
3 -7 -2 2.73 0.35
-3 7 2 2.69 0.24
-3 7 2 2.82 0.36
-3 7 2 1.83 0.36
3 7 -2 2.43 0.34
3 7 -2 2.83 0.24
3 7 -2 2.51 0.23
-3 7 2 2.6 0.21
-2 -7 2 0.99 0.2
2 -7 -2 1 0.2
2 -7 -2 1.17 0.22
-2 -7 2 1.16 0.18
2 7 -2 1.42 0.15
2 7 -2 1.12 0.25
-2 7 2 1.04 0.17
2 7 -2 1.24 0.17
2 7 -2 1.1 0.26
-2 7 2 1.06 0.28
-2 7 2 0.92 0.21
-2 7 2 0.95 0.16
1 -7 -2 9.5 0.44
1 -7 -2 10.55 0.44
1 -7 -2 9.7 0.41
-1 -7 2 10.05 0.41
-1 -7 2 9.67 0.44
1 7 -2 10.4 0.54
-1 7 2 11.19 0.58
1 7 -2 10.66 0.49
-1 7 2 10.01 0.43
-1 7 2 9.53 0.41
0 -7 -2 10.22 0.39
0 -7 -2 9.74 0.44
0 -7 -2 10.29 0.4
0 -7 2 9.97 0.44
0 -7 2 8.59 0.42
0 7 2 10.02 0.55
0 7 2 9.93 0.41
0 7 2 8.84 0.36
0 7 -2 10.83 0.55
0 7 -2 9.63 0.46
1 -7 2 3.2 0.29
1 -7 2 2.75 0.2
-1 -7 -2 3.18 0.22
-1 -7 -2 3.37 0.25
-1 -7 -2 2.8 0.28
1 -7 2 2.39 0.31
-1 -7 -2 2.75 0.31
1 7 2 2.75 0.2
-1 7 -2 2.79 0.41
-1 7 -2 2.78 0.21
1 7 2 3.09 0.28
1 7 2 3.95 0.42
-1 7 -2 2.84 0.31
-2 -7 -2 -0.19 0.14
-2 -7 -2 0.04 0.2
-2 -7 -2 0.11 0.08
2 -7 2 -0.02 0.12
2 -7 2 0.1 0.18
2 -7 2 0.15 0.14
2 7 2 -0.03 0.08
-2 7 -2 -0.11 0.22
2 7 2 -0.1 0.18
2 7 2 0.03 0.17
-2 7 -2 0.08 0.17
3 -7 2 9.74 0.41
-3 -7 -2 9.39 0.47
-3 -7 -2 9.87 0.55
3 -7 2 9.27 0.52
3 -7 2 10.09 0.48
3 7 2 10.48 0.6
-3 7 -2 10.29 0.64
-3 7 -2 10.21 0.48
3 7 2 11.06 0.52
4 -7 2 0.56 0.26
4 -7 2 0.47 0.23
4 -7 2 0.94 0.18
-4 -7 -2 0.83 0.21
-4 -7 -2 0.63 0.25
-4 7 -2 0.63 0.23
4 7 2 0.61 0.28
-4 7 -2 1.05 0.34
4 7 2 1.12 0.27
5 -7 2 10.11 0.39
5 -7 2 9.4 0.64
-5 -7 -2 10.09 0.64
-5 -7 -2 11.19 0.53
5 -7 2 10.33 0.61
-5 7 -2 10.48 0.53
5 7 2 10.79 0.66
-5 7 -2 10.09 0.72
5 7 2 10.04 0.68
-6 -7 -2 0.85 0.33
6 -7 2 0.87 0.32
-6 -7 -2 0.92 0.24
6 -7 2 1.13 0.34
6 7 2 1.38 0.37
-6 7 -2 0.65 0.4
6 7 2 1.14 0.36
-6 7 -2 0.14 0.23
7 -7 2 3.02 0.51
7 -7 2 2.37 0.45
-7 -7 -2 4.06 0.61
-7 -7 -2 3.68 0.39
7 7 2 2.93 0.51
7 7 2 3.27 0.51
-7 7 -2 2.86 0.59
8 -7 2 2.34 0.54
8 -7 2 1.51 0.44
-8 -7 -2 1.7 0.47
8 7 2 2.24 0.54
8 7 2 2.45 0.51
-8 7 -2 1.76 0.6
8 -8 -2 13.4 0.92
-8 -8 2 11.83 0.87
8 -8 -2 12.26 0.92
-8 8 2 14.07 1.1
8 8 -2 13.07 0.93
7 -8 -2 26.05 1.17
7 -8 -2 27.4 1.16
-7 -8 2 26.5 1.14
-7 -8 2 28.52 0.99
7 8 -2 29.76 1.16
7 8 -2 27.47 1.2
-7 8 2 26.72 1.36
6 -8 -2 35.83 1.24
-6 -8 2 36.88 1.28
-6 -8 2 37.93 1.14
6 8 -2 36.75 1.34
6 8 -2 38.06 1.16
-6 8 2 38.59 1.47
-6 8 2 37.53 1.29
5 -8 -2 32.46 0.89
5 -8 -2 34.08 1.13
-5 -8 2 34.01 1.03
-5 -8 2 34.21 1.17
5 8 -2 32.9 1.19
-5 8 2 31.71 1.13
5 8 -2 33.7 1
-5 8 2 32.51 1.32
4 -8 -2 44.83 1.11
-4 -8 2 45.69 1.21
-4 -8 2 45.84 1.33
-4 -8 2 44.49 1.01
4 -8 -2 45.76 1.27
4 8 -2 47.1 1.39
-4 8 2 45.4 1.27
-4 8 2 45.97 1.48
4 8 -2 46.99 1.12
-4 8 2 43.65 1.03
3 -8 -2 59.18 1.42
-3 -8 2 56.22 1.22
-3 -8 2 58.99 1.39
3 -8 -2 57.73 1.32
3 8 -2 58.4 1.46
3 8 -2 56.28 1.53
-3 8 2 56.79 1.64
-3 8 2 57.77 1.43
3 8 -2 57.76 1.23
-3 8 2 55.56 1.24
2 -8 -2 41.4 1.04
-2 -8 2 42.32 1.09
-2 -8 2 41.52 0.98
2 -8 -2 40 1.06
2 8 -2 41.9 1.13
2 8 -2 42.77 1.24
2 8 -2 39.65 0.83
-2 8 2 41.61 1.07
-2 8 2 42.88 1.28
-2 8 2 41.14 1
2 8 -2 40.59 0.84
-1 -8 2 25.78 0.78
1 -8 -2 24.65 0.75
-1 -8 2 25.66 0.72
1 -8 -2 24.57 0.73
-1 8 2 24.34 0.71
1 8 -2 25.19 0.81
-1 8 2 24.44 0.72
-1 8 2 23.44 0.9
1 8 -2 24.42 0.88
0 -8 2 6.62 0.4
0 -8 2 6.87 0.4
0 -8 -2 6.58 0.33
0 -8 -2 6.38 0.35
0 -8 -2 6.44 0.41
0 8 2 6.19 0.51
0 8 -2 6.22 0.41
0 8 2 6.75 0.4
0 8 -2 6.68 0.51
0 8 2 6.43 0.35
-1 -8 -2 2.89 0.23
1 -8 2 2.82 0.32
1 -8 2 2.76 0.31
-1 -8 -2 2.27 0.31
1 -8 2 2.42 0.19
-1 -8 -2 2.73 0.24
-1 -8 -2 2.7 0.33
-1 8 -2 3.29 0.46
1 8 2 2.57 0.22
1 8 2 2.2 0.28
-1 8 -2 2.16 0.33
1 8 2 2.31 0.35
2 -8 2 12.16 0.5
-2 -8 -2 11.49 0.58
-2 -8 -2 11.7 0.36
2 -8 2 11.98 0.45
-2 -8 -2 12.4 0.54
2 -8 2 12.86 0.59
-2 8 -2 12.71 0.56
2 8 2 11.7 0.35
2 8 2 13.51 0.53
2 8 2 13.47 0.66
-2 8 -2 12.63 0.7
-3 -8 -2 0.56 0.26
-3 -8 -2 0.7 0.21
3 -8 2 1.02 0.2
3 -8 2 1.18 0.24
3 -8 2 0.69 0.25
-3 8 -2 0.9 0.32
3 8 2 0.58 0.24
-3 8 -2 0.5 0.23
3 8 2 0.75 0.29
4 -8 2 2.39 0.38
4 -8 2 1.97 0.25
-4 -8 -2 1.95 0.36
-4 -8 -2 1.96 0.3
4 -8 2 2.57 0.39
-4 8 -2 2.41 0.43
4 8 2 2.02 0.38
-4 8 -2 2.45 0.36
4 8 2 2.15 0.35
5 -8 2 6.9 0.37
5 -8 2 8.7 0.59
5 -8 2 7.53 0.61
-5 -8 -2 8.36 0.51
-5 -8 -2 7.46 0.62
-5 8 -2 9.45 0.77
5 8 2 7.92 0.68
-5 8 -2 8.12 0.51
5 8 2 7.57 0.57
6 -8 2 9.62 0.69
6 -8 2 8.38 0.67
-6 -8 -2 8.63 0.69
-6 -8 -2 7.99 0.51
6 8 2 8.95 0.65
-6 8 -2 7.36 0.78
6 8 2 8.15 0.72
-7 -8 -2 7.65 0.74
-7 -8 -2 6.79 0.52
7 -8 2 6.11 0.69
7 -8 2 6.27 0.71
-7 8 -2 8.07 0.87
7 8 2 7.53 0.7
7 8 2 7.07 0.75
8 -8 2 4.59 0.7
-8 -8 -2 2.21 0.5
8 -8 2 2.19 0.5
8 8 2 3.27 0.57
-8 8 -2 3.85 0.71
8 8 2 3.34 0.6
-7 -9 2 0.51 0.37
7 -9 -2 0.12 0.36
-7 -9 2 0.83 0.29
7 -9 -2 0.29 0.37
7 9 -2 -0.05 0.35
-7 9 2 -0.06 0.45
-6 -9 2 1.9 0.35
6 -9 -2 2 0.44
-6 -9 2 1.95 0.45
-6 9 2 1.81 0.52
6 9 -2 2.1 0.46
-6 9 2 2.03 0.42
5 -9 -2 13.03 0.57
-5 -9 2 13.48 0.68
5 -9 -2 14.51 0.79
5 9 -2 13.53 0.83
-5 9 2 13.95 0.94
-5 9 2 13.27 0.75
-4 -9 2 26.94 0.92
4 -9 -2 27.51 0.85
4 -9 -2 25.79 0.96
-4 -9 2 26.33 0.71
-4 9 2 27.63 1.18
4 9 -2 25.95 0.97
4 9 -2 27.12 1.07
-4 9 2 27.06 0.95
3 -9 -2 1.33 0.26
-3 -9 2 1.35 0.21
-3 -9 2 1.14 0.26
3 -9 -2 1.14 0.3
3 9 -2 1.15 0.19
-3 9 2 1.1 0.21
3 9 -2 1.31 0.34
-3 9 2 1.09 0.27
-3 9 2 1.56 0.39
3 9 -2 1.29 0.3
-2 -9 2 9.26 0.52
-2 -9 2 9.39 0.44
2 -9 -2 10.17 0.52
2 -9 -2 9.07 0.52
2 9 -2 9.77 0.64
-2 9 2 9.69 0.66
-2 9 2 9.15 0.48
2 9 -2 9.17 0.55
-2 9 2 9.31 0.47
1 -9 -2 3.39 0.37
-1 -9 2 3.35 0.33
-1 -9 2 2.84 0.35
1 -9 -2 3.4 0.35
-1 9 2 2.51 0.41
-1 9 2 2.81 0.33
1 9 -2 3.01 0.4
-1 9 2 2.76 0.31
1 9 -2 3.53 0.49
0 -9 2 0.31 0.19
0 -9 -2 -0.13 0.14
0 -9 2 0.19 0.2
0 -9 -2 0.27 0.19
0 9 2 0.17 0.17
0 9 -2 -0.02 0.19
0 9 2 0.37 0.27
0 9 2 -0.11 0.16
0 9 -2 0.35 0.28
1 -9 2 1.06 0.24
-1 -9 -2 1.42 0.26
-1 -9 -2 1.17 0.19
1 -9 2 1.17 0.26
-1 9 -2 0.88 0.25
1 9 2 1.34 0.21
1 9 2 1.09 0.32
-1 9 -2 1.54 0.36
2 -9 2 11.58 0.53
2 -9 2 11.95 0.61
2 -9 2 12.13 0.45
-2 -9 -2 13.11 0.59
-2 -9 -2 12.28 0.39
-2 -9 -2 12.05 0.63
2 9 2 11.35 0.52
-2 9 -2 13.35 0.77
2 9 2 12.62 0.73
-2 9 -2 12.94 0.59
3 -9 2 2.86 0.39
3 -9 2 2.21 0.33
-3 -9 -2 2.92 0.39
-3 -9 -2 3.54 0.44
3 -9 2 2.83 0.34
3 9 2 3.21 0.5
-3 9 -2 2.76 0.36
3 9 2 2.75 0.35
-3 9 -2 3.48 0.52
4 -9 2 2.67 0.32
4 -9 2 2.28 0.35
-4 -9 -2 3 0.4
4 -9 2 2 0.38
-4 -9 -2 1.98 0.38
-4 9 -2 1.87 0.32
4 9 2 1.84 0.42
4 9 2 2.36 0.35
-4 9 -2 2.19 0.45
-5 -9 -2 2.99 0.47
-5 -9 -2 2.89 0.38
5 -9 2 2.37 0.38
5 -9 2 3.9 0.56
5 -9 2 2.67 0.32
5 9 2 2.58 0.4
-5 9 -2 2.23 0.51
5 9 2 3.19 0.5
6 -9 2 5.45 0.61
-6 -9 -2 5.91 0.49
6 -9 2 7.41 0.66
-6 -9 -2 5.67 0.63
6 9 2 6.57 0.73
6 9 2 5.96 0.62
-6 9 -2 6.1 0.8
7 -9 2 -0.38 0.34
7 -9 2 0.53 0.37
-7 -9 -2 0 0.33
-7 -9 -2 -0.08 0.21
-7 9 -2 0.16 0.43
7 9 2 0.18 0.38
7 -10 -2 6.76 0.76
7 -10 -2 6.39 0.77
-7 -10 2 7.58 0.62
7 10 -2 5.97 0.76
7 10 -2 5.96 0.67
-7 10 2 7.69 0.95
6 -10 -2 4.64 0.68
-6 -10 2 3.99 0.53
6 10 -2 4.35 0.62
-6 10 2 4.52 0.72
6 10 -2 2.97 0.54
5 -10 -2 2.63 0.37
5 -10 -2 2.42 0.46
-5 -10 2 2.53 0.4
-5 10 2 2.15 0.43
-5 10 2 4.15 0.64
5 10 -2 2.36 0.48
5 10 -2 2.21 0.41
4 -10 -2 2.1 0.3
4 -10 -2 1.51 0.37
-4 -10 2 2.32 0.37
-4 10 2 1.74 0.35
-4 10 2 1.57 0.47
4 10 -2 2.03 0.44
4 10 -2 2.07 0.39
3 -10 -2 19.4 0.73
-3 -10 2 18.46 0.76
3 -10 -2 18.45 0.8
-3 -10 2 18.37 0.61
-3 10 2 18.58 0.75
3 10 -2 18.81 0.82
-3 10 2 18.98 0.66
-3 10 2 18.31 1
3 10 -2 19.96 0.95
-2 -10 2 0.53 0.19
-2 -10 2 0.65 0.25
2 -10 -2 0.93 0.26
2 -10 -2 0.86 0.24
2 10 -2 0.6 0.27
-2 10 2 1.05 0.36
2 10 -2 0.91 0.33
-2 10 2 0.39 0.22
-2 10 2 0.92 0.24
1 -10 -2 0.15 0.19
-1 -10 2 -0.04 0.18
1 -10 -2 -0.01 0.2
-1 -10 2 -0.02 0.18
-1 10 2 0.15 0.2
1 10 -2 0 0.2
1 10 -2 0.02 0.27
-1 10 2 -0.33 0.27
-1 10 2 -0.24 0.16
0 -10 2 5.16 0.43
0 -10 -2 5.29 0.37
0 -10 -2 4.89 0.43
0 -10 2 5.71 0.44
0 10 2 5.24 0.59
0 10 2 5.35 0.35
0 10 2 5.49 0.43
0 10 -2 5.08 0.46
0 10 -2 4.89 0.58
-1 -10 -2 11.27 0.45
1 -10 2 11.38 0.57
-1 -10 -2 10.39 0.58
1 -10 2 10.77 0.57
-1 10 -2 11.09 0.6
-1 10 -2 11.62 0.75
1 10 2 11.39 0.74
1 10 2 10.83 0.47
1 10 2 11.61 0.59
2 -10 2 3.24 0.39
2 -10 2 3.36 0.42
-2 -10 -2 3.93 0.41
2 -10 2 3.69 0.3
-2 10 -2 3.29 0.41
-2 10 -2 3.56 0.51
2 10 2 3.42 0.34
2 10 2 3.45 0.54
-3 -10 -2 2.65 0.37
3 -10 2 2.69 0.4
-3 -10 -2 1.99 0.38
3 -10 2 2.06 0.28
3 -10 2 1.87 0.3
3 10 2 1.8 0.29
3 10 2 3.03 0.48
-3 10 -2 2.7 0.48
-3 10 -2 2.51 0.37
4 -10 2 0.48 0.23
4 -10 2 0.03 0.19
-4 -10 -2 -0.57 0.26
4 -10 2 -0.41 0.25
-4 -10 -2 -0.22 0.21
-4 10 -2 0.45 0.25
4 10 2 0.11 0.32
-4 10 -2 -0.49 0.32
-5 -10 -2 2.31 0.45
5 -10 2 1.59 0.37
5 -10 2 2.59 0.43
-5 -10 -2 2.43 0.38
-5 10 -2 2.62 0.56
5 10 2 3.03 0.52
6 -10 2 0.76 0.37
-6 -10 -2 1.03 0.39
6 -10 2 0.89 0.36
-6 -10 -2 1 0.3
-6 10 -2 1.41 0.5
6 10 2 0.57 0.39
7 -10 2 0.43 0.37
-7 -10 -2 0.29 0.34
-7 -10 -2 0.71 0.29
7 -10 2 0.54 0.41
7 10 2 1.17 0.45
-7 10 -2 1.1 0.54
6 -11 -2 2.31 0.49
-6 -11 2 1.81 0.4
6 11 -2 1.42 0.42
6 11 -2 1.55 0.5
-6 11 2 2.49 0.64
-5 -11 2 0.24 0.25
5 -11 -2 0.6 0.36
5 -11 -2 -0.02 0.21
-5 11 2 0.22 0.42
5 11 -2 0.1 0.35
-5 11 2 0.6 0.35
5 11 -2 0.04 0.3
-4 -11 2 0.03 0.26
4 -11 -2 0.01 0.22
4 -11 -2 0.46 0.32
4 11 -2 -0.29 0.34
-4 11 2 0.26 0.4
-4 11 2 0.27 0.27
4 11 -2 0.43 0.3
3 -11 -2 0.6 0.29
-3 -11 2 0.16 0.24
3 -11 -2 0.41 0.25
-3 11 2 0.38 0.23
-3 11 2 0.45 0.41
3 11 -2 -0.25 0.29
3 11 -2 0.38 0.28
2 -11 -2 6.7 0.52
2 -11 -2 7.33 0.54
-2 -11 2 7.3 0.43
-2 -11 2 5.81 0.52
-2 11 2 6.47 0.45
2 11 -2 6.22 0.54
-2 11 2 7.42 0.69
-2 11 2 6.82 0.48
2 11 -2 5.81 0.66
1 -11 -2 1.74 0.33
-1 -11 2 1.52 0.28
1 -11 -2 1.42 0.29
-1 -11 2 1.79 0.33
-1 11 2 1.89 0.47
-1 11 2 1.72 0.3
1 11 -2 1.13 0.32
1 11 -2 1.97 0.43
0 -11 -2 -0.27 0.22
0 -11 2 0.3 0.23
0 -11 2 -0.23 0.17
0 -11 -2 0.05 0.18
0 11 -2 -0.09 0.23
0 11 2 0.03 0.22
0 11 2 -0.33 0.31
0 11 -2 0.04 0.31
1 -11 2 1.78 0.32
1 -11 2 1.18 0.29
-1 -11 -2 1.63 0.33
-1 -11 -2 1.41 0.21
1 11 2 0.95 0.3
-1 11 -2 2.01 0.47
-1 11 -2 1.49 0.34
1 11 2 1.2 0.4
2 -11 2 0.74 0.26
-2 -11 -2 0.5 0.26
2 -11 2 0.32 0.27
2 11 2 0.51 0.28
2 11 2 0.93 0.37
-2 11 -2 0.97 0.41
-2 11 -2 -0.09 0.23
-3 -11 -2 -0.01 0.24
3 -11 2 -0.57 0.2
3 -11 2 0.15 0.22
3 11 2 -0.25 0.31
-3 11 -2 0.18 0.33
-3 11 -2 0.25 0.27
-4 -11 -2 0.23 0.26
4 -11 2 -0.44 0.19
4 -11 2 0.03 0.28
-4 -11 -2 -0.06 0.3
4 11 2 0.29 0.35
-4 11 -2 -0.12 0.37
5 -11 2 0.53 0.35
-5 -11 -2 -0.04 0.32
-5 -11 -2 0.01 0.25
-5 11 -2 0.36 0.45
5 11 2 0.35 0.38
-6 -11 -2 1.42 0.47
-6 -11 -2 2.02 0.4
6 -11 2 2.85 0.52
-6 11 -2 2.29 0.59
6 11 2 1.61 0.5
5 -12 -2 5.13 0.68
-5 -12 2 7.72 0.65
-5 12 2 7.99 0.9
5 12 -2 7.28 0.84
5 12 -2 7.12 0.69
4 -12 -2 2.47 0.37
-4 -12 2 2.63 0.43
4 -12 -2 3.86 0.57
-4 12 2 3.27 0.6
4 12 -2 3.84 0.6
4 12 -2 3.81 0.55
-3 -12 2 6.2 0.55
3 -12 -2 5.46 0.57
3 -12 -2 6.06 0.52
3 12 -2 5.56 0.61
3 12 -2 6.17 0.71
-3 12 2 5.19 0.8
2 -12 -2 1.98 0.35
-2 -12 2 1.3 0.34
2 -12 -2 2.05 0.36
-2 12 2 1.39 0.45
-2 12 2 1.39 0.3
2 12 -2 1.71 0.37
2 12 -2 1.4 0.43
-1 -12 2 1.19 0.32
-1 -12 2 0.96 0.24
1 -12 -2 0.82 0.26
1 -12 -2 0.54 0.28
-1 12 2 0.71 0.27
1 12 -2 0.61 0.3
-1 12 2 0.85 0.43
1 12 -2 0.62 0.39
0 -12 -2 0.16 0.25
0 -12 2 -0.13 0.2
0 -12 -2 -0.06 0.18
0 -12 2 -0.11 0.24
0 12 2 -0.1 0.35
0 12 -2 0.03 0.26
0 12 2 -0.09 0.22
0 12 -2 -0.28 0.34
-1 -12 -2 0.95 0.31
1 -12 2 0.84 0.29
1 -12 2 0.68 0.28
-1 12 -2 0.75 0.31
1 12 2 0.77 0.29
1 12 2 1.36 0.45
-1 12 -2 1.25 0.46
-2 -12 -2 -0.07 0.24
2 -12 2 -0.01 0.23
2 -12 2 0.34 0.27
2 12 2 0.33 0.37
2 12 2 -0.3 0.23
-2 12 -2 -0.16 0.26
-2 12 -2 -0.03 0.36
3 -12 2 0.89 0.34
3 -12 2 0.68 0.28
-3 -12 -2 0.29 0.28
3 12 2 0.11 0.35
-3 12 -2 1.09 0.34
-3 12 -2 0.73 0.43
3 12 2 0.64 0.3
4 -12 2 4.07 0.43
-4 -12 -2 4.32 0.54
4 -12 2 4.03 0.58
-4 12 -2 4.11 0.68
4 12 2 3.11 0.59
5 -12 2 4.37 0.62
-5 -12 -2 4.23 0.51
5 12 2 3.14 0.61
-5 12 -2 3.21 0.66
4 -13 -2 0.76 0.28
4 -13 -2 0.76 0.34
-4 -13 2 1.24 0.37
-4 13 2 1.2 0.52
4 13 -2 0.58 0.35
4 13 -2 1 0.46
3 -13 -2 2.78 0.41
3 -13 -2 2.83 0.44
-3 -13 2 3.02 0.48
3 13 -2 2.68 0.55
3 13 -2 2.28 0.45
-3 13 2 3 0.63
2 -13 -2 1.23 0.34
-2 -13 2 1.29 0.38
2 -13 -2 0.82 0.31
2 13 -2 1.61 0.47
2 13 -2 1.11 0.34
-2 13 2 1.67 0.48
1 -13 -2 2.32 0.34
1 -13 -2 2.71 0.42
-1 -13 2 2.54 0.41
-1 13 2 2.28 0.56
-1 13 2 2.68 0.4
1 13 -2 2.45 0.57
1 13 -2 2.87 0.46
0 -13 2 0.05 0.27
0 -13 2 -0.1 0.22
0 -13 -2 0.22 0.28
0 13 -2 -0.08 0.39
0 13 2 0.04 0.23
0 13 -2 0.39 0.3
0 13 2 0.25 0.34
1 -13 2 -0.08 0.25
-1 -13 -2 0.23 0.3
1 -13 2 0.39 0.29
1 13 2 0.37 0.29
-1 13 -2 -0.03 0.26
-1 13 -2 0.58 0.4
1 13 2 0.81 0.44
2 -13 2 -0.41 0.25
-2 -13 -2 0.21 0.28
2 -13 2 0.05 0.25
2 13 2 0.25 0.3
-2 13 -2 -0.44 0.28
2 13 2 -0.97 0.31
-2 13 -2 -0.61 0.34
3 -13 2 0.67 0.29
3 -13 2 1 0.34
-3 -13 -2 0.38 0.3
3 13 2 0.2 0.32
3 13 2 0.67 0.45
-3 13 -2 0.82 0.46
-4 -13 -2 3.91 0.57
4 -13 2 3.53 0.54
4 13 2 4.6 0.64
4 13 2 4.37 0.66
-4 13 -2 5.54 0.87
-3 -14 2 -0.19 0.31
3 -14 -2 0.26 0.28
3 -14 -2 0.62 0.34
3 14 -2 0.05 0.32
3 14 -2 0.99 0.44
2 -14 -2 -0.01 0.28
-2 -14 2 0.13 0.3
-2 14 2 0.86 0.47
2 14 -2 -0.34 0.28
2 14 -2 -0.08 0.38
1 -14 -2 0.37 0.32
-1 -14 2 0.11 0.3
1 14 -2 0.84 0.45
1 14 -2 0.14 0.27
-1 14 2 0.55 0.51
0 -14 2 1.17 0.37
0 -14 -2 0.66 0.33
0 14 -2 0.44 0.47
0 14 -2 0.35 0.34
0 14 2 0.77 0.34
0 14 2 1.09 0.49
1 -14 2 0.75 0.33
1 -14 2 0.37 0.28
-1 -14 -2 0.24 0.31
1 14 2 0.72 0.48
-1 14 -2 0.05 0.42
-1 14 -2 0.46 0.31
1 14 2 0.33 0.29
-2 -14 -2 1.71 0.4
2 -14 2 1.61 0.37
2 -14 2 2.34 0.43
2 14 2 2.74 0.48
2 14 2 2.23 0.55
-2 14 -2 2.04 0.59
3 -14 2 1 0.33
-3 -14 -2 0.94 0.39
3 -14 2 0.89 0.35
3 14 2 0.58 0.33
-3 14 -2 -0.25 0.41
9 0 -3 0.2 0.26
9 0 -3 -0.23 0.37
-9 0 3 0.08 0.34
8 0 -3 -0.09 0.32
-8 0 3 0.25 0.35
8 0 -3 0.15 0.24
-8 0 3 0.04 0.21
7 0 -3 -0.12 0.28
-7 0 3 -0.28 0.16
7 0 -3 -0.02 0.13
-7 0 3 0.11 0.31
7 0 -3 0.16 0.2
-6 0 3 0.03 0.26
6 0 -3 0.05 0.13
-6 0 3 0.49 0.18
6 0 -3 0.6 0.27
6 0 -3 0.15 0.18
5 0 -3 -0.03 0.09
5 0 -3 -0.1 0.11
-5 0 3 0.12 0.23
5 0 -3 0.05 0.16
-5 0 3 0 0.19
-5 0 3 0.04 0.13
-4 0 3 -0.15 0.11
-4 0 3 -0.01 0.18
4 0 -3 -0.08 0.11
4 0 -3 0 0.11
4 0 -3 -0.17 0.09
-4 0 3 0.14 0.19
4 0 -3 0.03 0.13
3 0 -3 0.13 0.12
-3 0 3 0.12 0.11
-3 0 3 0.08 0.17
-3 0 3 -0.05 0.15
3 0 -3 0.03 0.1
3 0 -3 0.22 0.15
3 0 -3 0 0.14
3 0 -3 0.1 0.12
3 0 -3 0.02 0.09
3 0 -3 0.12 0.1
-2 0 3 -0.02 0.11
2 0 -3 0.04 0.09
-2 0 3 -0.15 0.12
2 0 -3 -0.01 0.13
2 0 -3 -0.03 0.11
-2 0 3 0 0.15
2 0 -3 -0.14 0.11
2 0 -3 0.05 0.09
-1 0 3 0.08 0.12
1 0 -3 0.08 0.08
-1 0 3 0.06 0.1
1 0 -3 0.04 0.07
1 0 -3 0.04 0.1
1 0 -3 0.13 0.12
-1 0 3 0.09 0.08
1 0 -3 0.08 0.09
-1 0 3 0.04 0.1
-1 0 3 0.11 0.09
0 0 -3 0.11 0.11
0 0 3 0.15 0.08
0 0 3 0.27 0.11
0 0 -3 0.08 0.08
0 0 -3 0.1 0.08
0 0 3 0.05 0.06
0 0 -3 -0.04 0.1
0 0 3 0.06 0.08
0 0 3 0.12 0.09
-1 0 -3 0.2 0.11
-1 0 -3 0.26 0.13
1 0 3 0.36 0.13
1 0 3 0.24 0.13
-1 0 -3 0.08 0.07
-1 0 -3 0.02 0.12
1 0 3 0.21 0.1
1 0 3 0.11 0.07
2 0 3 -0.15 0.14
2 0 3 -0.04 0.05
-2 0 -3 -0.05 0.13
-2 0 -3 -0.02 0.1
2 0 3 -0.09 0.14
-2 0 -3 0.11 0.16
-2 0 -3 0 0.05
2 0 3 0.03 0.16
2 0 3 0.1 0.11
-2 0 -3 -0.04 0.14
-3 0 -3 -0.07 0.15
-3 0 -3 -0.03 0.1
3 0 3 -0.18 0.13
3 0 3 -0.03 0.15
-3 0 -3 0.23 0.19
3 0 3 -0.1 0.11
4 0 3 0.19 0.14
4 0 3 -0.03 0.19
-4 0 -3 0.15 0.19
-4 0 -3 0.13 0.21
5 0 3 0.03 0.15
-5 0 -3 0.09 0.23
5 0 3 0.07 0.22
-5 0 -3 0.2 0.2
6 0 3 0.33 0.26
-6 0 -3 -0.17 0.25
6 0 3 -0.04 0.17
-6 0 -3 0.15 0.23
-7 0 -3 -0.25 0.21
7 0 3 -0.18 0.28
-7 0 -3 0.07 0.29
7 0 3 0 0.2
8 0 3 0.59 0.26
8 0 3 -0.46 0.31
-8 0 -3 0.15 0.33
-8 0 -3 0.41 0.29
9 0 3 0.03 0.28
-9 0 -3 0.17 0.29
-9 0 -3 1.44 0.48
9 0 3 0.01 0.41
9 -1 -3 0.16 0.29
-9 -1 3 0.27 0.41
9 -1 -3 0.11 0.37
-9 1 3 -0.37 0.36
9 1 -3 0.34 0.25
9 1 -3 -0.03 0.38
-8 -1 3 4.94 0.67
-8 -1 3 4.87 0.47
8 -1 -3 3.73 0.56
8 -1 -3 4.83 0.49
-8 1 3 5.36 0.71
8 1 -3 5.44 0.64
8 1 -3 5.86 0.47
-7 -1 3 0.05 0.21
7 -1 -3 -0.03 0.12
7 -1 -3 0.12 0.22
7 -1 -3 -0.11 0.28
-7 -1 3 0.11 0.3
-7 1 3 0.12 0.16
7 1 -3 0.21 0.15
7 1 -3 0.31 0.19
7 1 -3 0.49 0.31
-7 1 3 0.74 0.35
-6 -1 3 14.59 0.74
6 -1 -3 10.58 0.55
6 -1 -3 12.67 0.43
-6 -1 3 12.2 0.54
6 1 -3 13.75 0.47
-6 1 3 12.31 0.73
6 1 -3 13.54 0.54
-6 1 3 12.38 0.48
6 1 -3 13.75 0.68
-6 1 3 11.38 0.67
5 -1 -3 6.41 0.3
-5 -1 3 7.13 0.37
-5 -1 3 7.64 0.52
5 -1 -3 6.07 0.29
5 -1 -3 6.15 0.32
5 -1 -3 6.72 0.39
-5 1 3 7.1 0.51
5 1 -3 7.65 0.37
5 1 -3 7.63 0.33
-5 1 3 6.89 0.32
-5 1 3 7.24 0.49
-4 -1 3 96.13 2.08
4 -1 -3 98.73 1.91
-4 -1 3 98.59 1.91
4 -1 -3 94.66 1.84
-4 -1 3 98.25 2.06
4 -1 -3 98.36 1.81
4 -1 -3 97.34 1.8
4 1 -3 96.82 1.82
-4 1 3 97.95 1.83
-4 1 3 97.91 2.07
4 1 -3 97.66 1.86
4 1 -3 97.32 1.92
-4 1 3 94.5 2.08
4 1 -3 97.03 1.83
3 -1 -3 4.15 0.27
-3 -1 3 4.28 0.27
3 -1 -3 4.85 0.34
-3 -1 3 4.48 0.32
3 -1 -3 4.26 0.22
3 -1 -3 4.74 0.2
-3 -1 3 4.27 0.33
3 1 -3 4.22 0.29
-3 1 3 4.33 0.35
3 1 -3 4.38 0.25
-3 1 3 4.47 0.23
3 1 -3 4.55 0.23
-3 1 3 5 0.35
3 1 -3 4.56 0.31
3 1 -3 4.51 0.26
-3 1 3 4.49 0.19
2 -1 -3 3.27 0.23
2 -1 -3 3.21 0.26
2 -1 -3 3.36 0.13
-2 -1 3 3.41 0.25
2 -1 -3 3.56 0.24
-2 -1 3 3.33 0.26
2 -1 -3 3.48 0.13
-2 -1 3 3.34 0.22
2 -1 -3 3.37 0.22
-2 -1 3 3.33 0.22
2 -1 -3 3.26 0.19
-2 -1 3 3.66 0.23
2 1 -3 3.33 0.23
2 1 -3 3.33 0.24
-2 1 3 3.24 0.27
2 1 -3 3.18 0.21
2 1 -3 3.56 0.2
2 1 -3 3.46 0.19
-2 1 3 3.09 0.25
-1 -1 3 0.78 0.11
-1 -1 3 0.67 0.13
1 -1 -3 1.23 0.1
1 -1 -3 1.07 0.17
1 -1 -3 0.81 0.12
-1 -1 3 0.89 0.12
1 -1 -3 0.89 0.12
1 -1 -3 0.93 0.13
-1 -1 3 1.17 0.14
1 1 -3 1.1 0.15
1 1 -3 0.87 0.13
1 1 -3 0.98 0.12
-1 1 3 0.86 0.13
1 1 -3 0.69 0.12
1 1 -3 0.92 0.1
-1 1 3 0.87 0.1
-1 1 3 0.82 0.16
-1 1 3 0.82 0.12
-1 1 3 1.02 0.14
1 1 -3 0.93 0.14
0 -1 -3 63.99 1.14
0 -1 3 62.56 1.15
0 -1 -3 61.62 1.11
0 -1 3 62.96 1.15
0 -1 3 59.63 1.18
0 -1 -3 62.32 1.18
0 -1 -3 64.57 1.24
0 -1 -3 63.22 1.17
0 -1 3 63.56 1.13
0 1 -3 61.03 1.18
0 1 3 63.12 1.24
0 1 -3 64.16 1.15
0 1 -3 63.33 1.13
0 1 -3 64 1.19
0 1 -3 62.4 1.15
0 1 3 60.85 1.18
0 1 3 62.43 1.14
0 1 3 62.28 1.11
1 -1 3 16.17 0.45
-1 -1 -3 16.78 0.37
1 -1 3 15.71 0.41
-1 -1 -3 15.87 0.46
1 -1 3 14.99 0.43
-1 -1 -3 16.01 0.33
-1 -1 -3 16.54 0.46
-1 -1 -3 16.27 0.46
1 1 3 16.36 0.36
-1 1 -3 16.34 0.43
1 1 3 15.67 0.34
-1 1 -3 15.66 0.41
-1 1 -3 15.52 0.45
-1 1 -3 15.34 0.33
1 1 3 15.77 0.45
1 1 3 16.41 0.46
1 1 3 15.35 0.46
2 -1 3 6.62 0.33
-2 -1 -3 7.8 0.35
-2 -1 -3 7.25 0.22
2 -1 3 7.28 0.29
2 -1 3 6.85 0.34
2 -1 3 6.3 0.34
-2 -1 -3 7.03 0.37
-2 -1 -3 7.16 0.21
2 1 3 7.25 0.21
-2 1 -3 7.3 0.28
2 1 3 7.23 0.35
-2 1 -3 6.9 0.32
-2 1 -3 6.37 0.34
2 1 3 6.89 0.23
-2 1 -3 6.6 0.37
2 1 3 7.22 0.36
2 1 3 7.12 0.35
3 -1 3 27.66 0.68
3 -1 3 27.62 0.74
-3 -1 -3 27.15 0.54
-3 -1 -3 27.38 0.6
-3 -1 -3 28.06 0.77
-3 -1 -3 26 0.8
3 -1 3 26.91 0.77
-3 1 -3 27.92 0.74
3 1 3 26.94 0.61
3 1 3 26.52 0.78
3 1 3 27.37 0.54
-3 1 -3 26.38 0.8
-3 1 -3 27.06 0.66
-4 -1 -3 0.95 0.22
4 -1 3 0.73 0.21
-4 -1 -3 1.11 0.17
-4 -1 -3 0.72 0.1
-4 -1 -3 1.17 0.26
4 -1 3 1.11 0.2
-4 1 -3 0.55 0.23
4 1 3 0.76 0.09
-4 1 -3 1.36 0.24
4 1 3 1.11 0.26
4 1 3 1.46 0.2
5 -1 3 3.18 0.33
-5 -1 -3 2.97 0.43
-5 -1 -3 3.3 0.38
5 -1 3 1.97 0.32
-5 1 -3 2.4 0.35
5 1 3 3.33 0.28
-5 1 -3 2.9 0.42
5 1 3 2.16 0.33
5 1 3 2.32 0.13
-6 -1 -3 19.33 0.89
6 -1 3 17.52 0.82
-6 -1 -3 18.84 0.76
6 -1 3 18.57 0.69
6 1 3 19.32 0.85
6 1 3 18.83 0.63
-6 1 -3 18.37 0.72
-6 1 -3 18.16 0.87
7 -1 3 2.17 0.41
-7 -1 -3 1.98 0.44
-7 -1 -3 1.97 0.35
7 -1 3 1.55 0.3
-7 1 -3 1.77 0.42
7 1 3 1.97 0.42
7 1 3 1.99 0.29
-7 1 -3 1.7 0.34
-8 -1 -3 0.06 0.27
8 -1 3 0.71 0.4
-8 -1 -3 0.86 0.4
8 -1 3 0.89 0.3
-8 1 -3 1.3 0.46
8 1 3 0.65 0.26
-8 1 -3 0.6 0.28
8 1 3 0.22 0.37
-9 -1 -3 -0.21 0.36
9 -1 3 -0.03 0.28
-9 -1 -3 0.71 0.33
9 -1 3 0.41 0.43
-9 1 -3 0.4 0.4
9 1 3 0.36 0.41
9 -2 -3 -0.45 0.26
-9 -2 3 0.1 0.28
-9 -2 3 -0.41 0.31
9 -2 -3 0.16 0.38
-9 2 3 -0.06 0.39
9 2 -3 -0.02 0.2
9 2 -3 0.51 0.41
8 -2 -3 -0.38 0.24
8 -2 -3 0.16 0.35
-8 -2 3 0.33 0.34
-8 -2 3 -0.01 0.23
8 2 -3 -0.07 0.34
8 2 -3 -0.25 0.17
-8 2 3 -0.14 0.36
7 -2 -3 2.4 0.22
-7 -2 3 2.96 0.4
-7 -2 3 2.96 0.47
7 -2 -3 2.25 0.44
7 -2 -3 2.57 0.36
7 2 -3 2.63 0.32
7 2 -3 2.13 0.41
-7 2 3 2.59 0.27
7 2 -3 2.61 0.29
-7 2 3 2.47 0.49
-6 -2 3 13.09 0.59
6 -2 -3 13.75 0.43
6 -2 -3 13.17 0.61
-6 -2 3 13.43 0.74
6 -2 -3 13.13 0.48
-6 2 3 13.24 0.46
6 2 -3 13.83 0.54
6 2 -3 13.59 0.68
-6 2 3 13.67 0.76
-6 2 3 13.33 0.71
6 2 -3 13.95 0.5
5 -2 -3 5.39 0.27
-5 -2 3 5.92 0.49
-5 -2 3 5.71 0.39
5 -2 -3 5.31 0.38
5 -2 -3 5.33 0.28
-5 2 3 5.34 0.46
-5 2 3 5.87 0.51
-5 2 3 5.9 0.27
5 2 -3 6.25 0.33
5 2 -3 5.67 0.45
4 -2 -3 46.85 1.08
-4 -2 3 46.53 1.01
4 -2 -3 46.65 0.95
-4 -2 3 46.25 1.09
4 -2 -3 46.37 0.97
-4 -2 3 48.64 1.21
-4 2 3 45.72 1.21
-4 2 3 46.52 0.97
-4 2 3 45.41 1.19
4 2 -3 47.66 1.01
-4 2 3 45.55 0.92
-3 -2 3 25.77 0.73
-3 -2 3 26.76 0.68
3 -2 -3 26.1 0.6
-3 -2 3 25.73 0.64
-3 -2 3 26.32 0.64
3 -2 -3 24.52 0.52
-3 -2 3 24.74 0.69
3 -2 -3 26.33 0.67
-3 2 3 26.86 0.76
3 2 -3 26.35 0.64
-3 2 3 25.47 0.61
3 2 -3 26.15 0.73
3 2 -3 26.25 0.67
-3 2 3 26.26 0.51
-3 2 3 24.59 0.75
3 2 -3 26.78 0.62
3 2 -3 25.45 0.69
2 -2 -3 96.73 1.96
-2 -2 3 99.41 1.83
-2 -2 3 101.93 1.82
-2 -2 3 102.74 1.89
2 -2 -3 95.12 1.83
2 -2 -3 98.77 1.98
2 -2 -3 99.12 1.81
2 2 -3 101.81 1.92
2 2 -3 102.69 1.94
2 2 -3 99.77 1.82
2 2 -3 103.88 1.89
-2 2 3 98.6 1.97
2 2 -3 100.63 1.89
-2 2 3 98.22 1.97
-2 2 3 96.51 1.82
2 2 -3 97.95 1.81
1 -2 -3 55.05 1.03
1 -2 -3 53.26 1.11
1 -2 -3 52.93 0.97
-1 -2 3 54.5 1.05
1 -2 -3 51.01 1.12
-1 -2 3 54.13 1.03
-1 -2 3 55.31 1.08
1 -2 -3 54.88 1.05
-1 -2 3 54.15 1.07
-1 2 3 54.68 1.05
-1 2 3 52.81 1.12
1 2 -3 57.26 1.09
1 2 -3 54.47 1.04
1 2 -3 56.82 1.03
1 2 -3 53.43 1.04
-1 2 3 54.16 1.13
1 2 -3 53.96 1.07
-1 2 3 55.98 1.03
-1 2 3 53 0.98
0 -2 3 332.18 5.88
0 -2 -3 337.23 5.99
0 -2 3 343.94 5.96
0 -2 3 341.17 6.02
0 -2 -3 335.07 5.72
0 -2 -3 331.18 5.82
0 -2 3 331.4 5.84
0 -2 -3 340.48 6.13
0 -2 -3 337.58 5.65
0 -2 -3 337.09 5.98
0 -2 3 326.66 5.92
0 2 -3 335.1 5.96
0 2 -3 335.81 5.67
0 2 3 341.14 5.69
0 2 -3 347.68 6.26
0 2 -3 346.15 5.96
0 2 3 325.77 6.18
0 2 -3 335.54 5.67
0 2 3 338.51 5.97
1 -2 3 0.97 0.14
1 -2 3 1.11 0.16
-1 -2 -3 0.9 0.12
1 -2 3 1.06 0.15
-1 -2 -3 0.89 0.16
-1 -2 -3 1.04 0.17
-1 -2 -3 1.11 0.17
1 -2 3 0.93 0.13
1 -2 3 0.77 0.14
1 2 3 1.08 0.16
-1 2 -3 0.91 0.15
-1 2 -3 0.84 0.12
1 2 3 0.92 0.16
-1 2 -3 0.8 0.15
1 2 3 0.83 0.17
-1 2 -3 1.06 0.16
-1 2 -3 0.87 0.13
1 2 3 0.91 0.12
2 -2 3 47.15 0.87
2 -2 3 48.91 1.02
2 -2 3 48.98 1.05
2 -2 3 47.87 1.06
-2 -2 -3 48.93 0.93
2 -2 3 48.79 1.12
-2 -2 -3 48.5 1.08
-2 -2 -3 49.48 0.85
-2 -2 -3 48.93 1.09
2 2 3 48.2 1.13
-2 2 -3 48.4 1.01
-2 2 -3 47.84 0.87
2 2 3 48.7 1.1
2 2 3 48.03 0.86
-2 2 -3 47.86 1.07
-2 2 -3 49.7 1.13
2 2 3 48.7 0.94
-3 -2 -3 1 0.13
3 -2 3 1.15 0.22
-3 -2 -3 0.8 0.11
-3 -2 -3 0.86 0.2
3 -2 3 0.99 0.18
-3 -2 -3 0.91 0.22
3 -2 3 0.67 0.17
-3 2 -3 1.1 0.2
3 2 3 0.87 0.22
-3 2 -3 1.19 0.23
3 2 3 0.79 0.12
3 2 3 1.09 0.14
-4 -2 -3 0.76 0.24
-4 -2 -3 0.88 0.13
-4 -2 -3 0.53 0.1
-4 -2 -3 0.64 0.21
4 -2 3 0.61 0.22
4 -2 3 0.65 0.19
4 2 3 0.61 0.1
-4 2 -3 0.51 0.24
-4 2 -3 0.75 0.2
4 2 3 0.7 0.13
4 2 3 0.62 0.23
-5 -2 -3 10.31 0.53
-5 -2 -3 10.29 0.32
-5 -2 -3 10.36 0.61
5 -2 3 10.18 0.58
5 -2 3 10.25 0.5
-5 2 -3 9.95 0.51
5 2 3 9.91 0.59
-5 2 -3 10.19 0.61
5 2 3 10.02 0.39
5 2 3 9.64 0.31
6 -2 3 0.44 0.23
6 -2 3 0.44 0.28
-6 -2 -3 -0.03 0.08
-6 -2 -3 -0.38 0.2
-6 -2 -3 0.06 0.26
-6 2 -3 0.11 0.22
6 2 3 0.19 0.26
-6 2 -3 0.08 0.29
6 2 3 0.04 0.15
-7 -2 -3 13.15 0.71
-7 -2 -3 12.29 0.81
7 -2 3 11.42 0.63
7 -2 3 12.45 0.79
7 2 3 11.95 0.77
7 2 3 11.68 0.53
-7 2 -3 12.94 0.64
-7 2 -3 13.41 0.86
8 -2 3 4.99 0.52
8 -2 3 4.83 0.67
-8 -2 -3 5.11 0.54
-8 -2 -3 4.73 0.67
-8 2 -3 4.66 0.51
8 2 3 3.92 0.61
-8 2 -3 5.75 0.74
-9 -2 -3 6.99 0.82
-9 -2 -3 6.67 0.64
9 -2 3 5.83 0.61
9 -2 3 6.9 0.8
-9 2 -3 7.34 0.86
9 2 3 6.02 0.76
9 -3 -3 -0.33 0.27
9 -3 -3 -0.17 0.36
-9 -3 3 0.13 0.27
9 3 -3 -0.11 0.34
-9 3 3 0.1 0.41
-8 -3 3 0.3 0.35
8 -3 -3 0.4 0.29
8 -3 -3 0.17 0.36
-8 -3 3 0.48 0.26
-8 3 3 -0.01 0.38
8 3 -3 0.04 0.17
8 3 -3 0.03 0.33
-7 -3 3 7.77 0.67
7 -3 -3 8.05 0.56
-7 -3 3 7.94 0.56
-7 3 3 8.91 0.75
7 3 -3 7.4 0.43
7 3 -3 8.46 0.43
7 3 -3 6.6 0.63
6 -3 -3 17.84 0.52
-6 -3 3 16.98 0.7
6 -3 -3 17.92 0.71
-6 -3 3 17.63 0.82
6 3 -3 18.19 0.77
-6 3 3 18.33 0.9
6 3 -3 17.54 0.6
-6 3 3 16.26 0.49
-6 3 3 16.71 0.81
5 -3 -3 0.15 0.18
-5 -3 3 0.26 0.23
5 -3 -3 0.12 0.1
5 -3 -3 0.01 0.1
-5 -3 3 -0.03 0.18
-5 -3 3 0.13 0.14
5 3 -3 0.23 0.14
-5 3 3 0.08 0.21
-5 3 3 0.07 0.09
-5 3 3 -0.31 0.21
5 3 -3 -0.15 0.19
-4 -3 3 3.49 0.27
-4 -3 3 3.17 0.32
4 -3 -3 2.98 0.17
4 -3 -3 2.92 0.3
-4 -3 3 2.76 0.27
4 -3 -3 3.31 0.23
-4 3 3 3.88 0.42
4 3 -3 2.92 0.31
-4 3 3 2.77 0.21
-4 3 3 3.09 0.16
-4 3 3 3.09 0.35
3 -3 -3 16.11 0.46
-3 -3 3 16.09 0.5
3 -3 -3 16.44 0.54
-3 -3 3 15.77 0.54
-3 -3 3 16.75 0.49
3 3 -3 17.02 0.52
3 3 -3 17.84 0.52
-3 3 3 16.6 0.6
3 3 -3 16.34 0.55
3 3 -3 16.18 0.48
-3 3 3 15.73 0.62
-3 3 3 16.15 0.46
2 -3 -3 4.95 0.31
2 -3 -3 5.1 0.33
2 -3 -3 5.63 0.28
-2 -3 3 5.37 0.28
2 -3 -3 5.36 0.26
-2 -3 3 5.61 0.28
-2 3 3 5.71 0.36
2 3 -3 5.28 0.29
2 3 -3 5.25 0.25
-2 3 3 5.47 0.28
2 3 -3 5.23 0.29
-2 3 3 5.01 0.25
-2 3 3 5.08 0.33
2 3 -3 5.4 0.24
2 3 -3 6.03 0.3
2 3 -3 4.87 0.26
1 -3 -3 0.15 0.11
1 -3 -3 0.15 0.08
1 -3 -3 0.03 0.11
1 -3 -3 0.2 0.14
-1 -3 3 0.1 0.07
1 -3 -3 0.09 0.14
-1 -3 3 0.16 0.12
-1 -3 3 0.03 0.11
1 3 -3 0.13 0.11
1 3 -3 -0.02 0.09
-1 3 3 0.14 0.08
1 3 -3 0.18 0.07
1 3 -3 -0.04 0.13
-1 3 3 0.08 0.1
1 3 -3 0.26 0.12
-1 3 3 0.23 0.15
-1 3 3 0.19 0.15
1 3 -3 0.34 0.13
-1 3 3 0.14 0.11
0 -3 -3 25.14 0.65
0 -3 -3 25.98 0.53
0 -3 -3 26.05 0.59
0 -3 -3 25.58 0.6
0 -3 3 26.71 0.59
0 -3 3 26.07 0.62
0 -3 -3 25.53 0.65
0 -3 3 24.88 0.5
0 -3 3 25.45 0.61
0 3 3 26.1 0.52
0 3 3 26.32 0.65
0 3 -3 26.05 0.61
0 3 -3 25.44 0.63
0 3 3 25.59 0.6
0 3 -3 25.57 0.58
0 3 3 24.98 0.66
0 3 -3 26.85 0.65
-1 -3 -3 0.05 0.13
1 -3 3 0.19 0.11
-1 -3 -3 0.18 0.13
1 -3 3 0.04 0.08
1 -3 3 0.06 0.1
-1 -3 -3 0.03 0.1
1 -3 3 0.01 0.11
-1 -3 -3 0.07 0.12
1 -3 3 0.06 0.13
1 -3 3 -0.06 0.13
-1 3 -3 0.08 0.08
-1 3 -3 0.08 0.14
-1 3 -3 0.1 0.12
1 3 3 0.28 0.15
1 3 3 -0.05 0.13
-1 3 -3 0.04 0.12
1 3 3 0.03 0.1
1 3 3 0.03 0.14
-2 -3 -3 3.82 0.28
2 -3 3 4.22 0.29
-2 -3 -3 4.15 0.23
2 -3 3 4.34 0.19
-2 -3 -3 4.11 0.32
2 -3 3 3.95 0.27
2 -3 3 4.26 0.33
2 3 3 4.09 0.23
2 3 3 3.76 0.32
-2 3 -3 4.44 0.31
-2 3 -3 3.83 0.17
-2 3 -3 3.04 0.33
2 3 3 4.21 0.33
3 -3 3 26.06 0.71
3 -3 3 25.88 0.75
3 -3 3 25.72 0.72
-3 -3 -3 25.45 0.6
-3 -3 -3 26.19 0.76
3 -3 3 25.82 0.51
3 3 3 26.76 0.61
3 3 3 25.87 0.51
-3 3 -3 26.48 0.73
3 3 3 24.55 0.78
-3 3 -3 25.58 0.51
-3 3 -3 26 0.83
3 3 3 25.65 0.77
3 3 3 24.69 0.51
4 -3 3 4 0.33
-4 -3 -3 3.48 0.22
4 -3 3 3.86 0.37
-4 -3 -3 3.42 0.35
4 3 3 3.14 0.19
4 3 3 3.18 0.37
-4 3 -3 3.54 0.35
-4 3 -3 2.62 0.4
4 3 3 3.11 0.21
4 3 3 3.06 0.19
-5 -3 -3 7.05 0.48
5 -3 3 6.76 0.44
-5 -3 -3 5.97 0.51
5 -3 3 6.91 0.52
-5 -3 -3 6.79 0.29
-5 3 -3 6.78 0.55
-5 3 -3 6.84 0.44
5 3 3 6.4 0.29
5 3 3 6.17 0.29
5 3 3 8.01 0.53
5 3 3 6.05 0.27
6 -3 3 1.3 0.29
-6 -3 -3 1.65 0.19
-6 -3 -3 1.72 0.37
-6 -3 -3 0.92 0.29
6 -3 3 1.35 0.36
-6 3 -3 1.71 0.38
6 3 3 1.42 0.21
-6 3 -3 1.31 0.28
6 3 3 1.29 0.35
7 -3 3 3.99 0.61
7 -3 3 2.63 0.38
-7 -3 -3 2.96 0.43
-7 -3 -3 3.6 0.57
-7 3 -3 3.01 0.43
-7 3 -3 2.82 0.51
7 3 3 2.12 0.43
7 3 3 3.01 0.31
8 -3 3 0.7 0.42
-8 -3 -3 0.7 0.41
-8 -3 -3 0.75 0.34
8 -3 3 0.7 0.32
-8 3 -3 1.05 0.31
-8 3 -3 0.78 0.41
8 3 3 0.83 0.4
9 -3 3 3.05 0.59
9 -3 3 2.97 0.49
-9 -3 -3 3.38 0.51
9 3 3 3.31 0.61
-9 3 -3 3.2 0.63
9 -4 -3 0.03 0.36
9 -4 -3 -0.37 0.3
-9 -4 3 0 0.28
9 4 -3 -0.25 0.34
9 4 -3 0.07 0.38
-9 4 3 0.17 0.45
8 -4 -3 -0.11 0.35
-8 -4 3 0.32 0.28
8 -4 -3 -0.26 0.27
-8 4 3 -0.5 0.36
8 4 -3 -0.22 0.15
8 4 -3 -0.3 0.28
8 4 -3 -0.11 0.28
-7 -4 3 0.35 0.26
7 -4 -3 0.6 0.28
7 4 -3 0.24 0.28
7 4 -3 -0.26 0.14
7 4 -3 0.25 0.3
-7 4 3 -0.14 0.35
-6 -4 3 3.24 0.4
-6 -4 3 3.53 0.33
6 -4 -3 3.02 0.26
6 -4 -3 3.32 0.45
6 4 -3 3.67 0.47
-6 4 3 3.17 0.48
-6 4 3 2.62 0.44
6 4 -3 2.68 0.3
-6 4 3 2.79 0.19
6 4 -3 3.71 0.42
5 -4 -3 1.11 0.14
5 -4 -3 1.25 0.25
5 -4 -3 0.73 0.15
-5 -4 3 1.23 0.21
-5 -4 3 0.66 0.23
-5 4 3 1.12 0.3
-5 4 3 1.05 0.33
5 4 -3 1.37 0.26
5 4 -3 1.25 0.2
-5 4 3 1.02 0.14
5 4 -3 0.66 0.23
-4 -4 3 0.57 0.2
4 -4 -3 0.79 0.2
-4 -4 3 0.77 0.17
4 -4 -3 0.62 0.14
-4 -4 3 0.56 0.17
4 4 -3 0.59 0.18
-4 4 3 0.51 0.22
4 4 -3 0.69 0.21
-4 4 3 0.96 0.28
3 -4 -3 4.17 0.26
3 -4 -3 3.41 0.3
-3 -4 3 3.78 0.28
-3 -4 3 3.39 0.31
-3 -4 3 3.84 0.27
3 4 -3 4.09 0.27
3 4 -3 4.09 0.26
-3 4 3 4 0.41
3 4 -3 3.83 0.25
-3 4 3 3.58 0.35
3 4 -3 3.73 0.34
-2 -4 3 0.16 0.13
2 -4 -3 0.22 0.14
2 -4 -3 0.29 0.13
2 -4 -3 0.37 0.17
-2 -4 3 0.09 0.14
-2 -4 3 0.18 0.13
-2 4 3 0.55 0.19
2 4 -3 0.21 0.11
-2 4 3 0.2 0.07
2 4 -3 0.16 0.1
-2 4 3 0.21 0.18
-2 4 3 0.32 0.08
2 4 -3 0.25 0.11
-2 4 3 0.22 0.12
2 4 -3 0.25 0.15
2 4 -3 0.45 0.17
1 -4 -3 15.29 0.4
1 -4 -3 15.57 0.44
1 -4 -3 15.56 0.46
-1 -4 3 15.29 0.45
1 -4 -3 15.28 0.52
-1 -4 3 15.41 0.47
-1 -4 3 15.57 0.5
-1 4 3 15.9 0.43
-1 4 3 15.16 0.4
1 4 -3 15.86 0.51
1 4 -3 15.67 0.5
1 4 -3 15.17 0.45
-1 4 3 15.02 0.49
-1 4 3 15.54 0.55
-1 4 3 15.6 0.46
0 -4 3 13.95 0.44
0 -4 -3 13.48 0.36
0 -4 -3 14.04 0.42
0 -4 -3 13.34 0.49
0 -4 3 13.94 0.42
0 -4 3 13.82 0.44
0 -4 3 14.32 0.48
0 -4 -3 13.99 0.42
0 4 3 13.15 0.49
0 4 -3 13.62 0.44
0 4 3 13.33 0.35
0 4 -3 14.39 0.46
0 4 3 13.33 0.43
0 4 -3 13.63 0.41
0 4 -3 14.34 0.49
0 4 3 14.01 0.46
-1 -4 -3 42.24 0.89
-1 -4 -3 39.77 0.93
1 -4 3 39.7 0.84
1 -4 3 41.27 0.99
1 -4 3 41.14 0.85
1 -4 3 41.17 0.85
1 -4 3 39.99 0.92
1 -4 3 40.45 0.92
-1 -4 -3 40.38 0.73
1 4 3 41.02 1
1 4 3 41.03 0.95
1 4 3 41.6 0.73
-1 4 -3 41.1 0.94
1 4 3 42.27 0.9
1 4 3 41.66 0.96
-1 4 -3 40.99 1
-2 -4 -3 29.91 0.71
2 -4 3 30.92 0.65
2 -4 3 29.6 0.75
2 -4 3 29.49 0.74
2 -4 3 29.65 0.75
-2 -4 -3 29.07 0.8
2 -4 3 29.09 0.77
-2 4 -3 30.07 0.76
2 4 3 28.85 0.79
-2 4 -3 30.35 0.65
2 4 3 30.27 0.84
-2 4 -3 29.42 0.87
3 -4 3 69.91 1.31
3 -4 3 71.74 1.56
3 -4 3 71.96 1.53
-3 -4 -3 72.5 1.41
-3 -4 -3 73.04 1.6
3 4 3 71.5 1.65
3 4 3 71.62 1.6
-3 4 -3 71.37 1.68
-3 4 -3 70.35 1.31
-3 4 -3 70.4 1.53
-4 -4 -3 4.43 0.27
4 -4 3 4.77 0.18
-4 -4 -3 4.39 0.39
4 -4 3 4.89 0.4
4 -4 3 4.64 0.37
4 4 3 4.08 0.18
-4 4 -3 4.62 0.37
-4 4 -3 5.33 0.49
4 4 3 3.87 0.39
4 4 3 4.12 0.41
-4 4 -3 4.47 0.18
4 4 3 4.39 0.19
5 -4 3 13.85 0.63
-5 -4 -3 14.2 0.65
-5 -4 -3 13.94 0.46
5 -4 3 12.94 0.68
-5 4 -3 13.74 0.74
5 4 3 12.68 0.39
-5 4 -3 14.48 0.6
5 4 3 13.09 0.67
5 4 3 13.4 0.4
5 4 3 14.14 0.7
6 -4 3 3.84 0.45
-6 -4 -3 4.99 0.48
6 -4 3 3.86 0.52
-6 -4 -3 4.29 0.29
6 4 3 4.24 0.55
-6 4 -3 4.92 0.62
6 4 3 4.25 0.27
6 4 3 5.08 0.54
-6 4 -3 4.78 0.43
7 -4 3 3.67 0.53
7 -4 3 3.33 0.45
-7 -4 -3 3.31 0.45
7 4 3 3.8 0.58
7 4 3 3.99 0.59
-7 4 -3 4.17 0.65
-7 4 -3 3.61 0.46
-8 -4 -3 -0.19 0.27
8 -4 3 0.1 0.31
8 -4 3 0.29 0.36
8 4 3 -0.14 0.3
8 4 3 0.36 0.39
9 -4 3 3.38 0.61
9 -4 3 2.75 0.48
-9 -4 -3 2.31 0.47
9 4 3 2.63 0.59
9 4 3 3.3 0.59
-9 4 -3 3.04 0.65
9 -5 -3 -0.74 0.32
-9 -5 3 -0.08 0.27
9 -5 -3 0.37 0.43
-9 5 3 0.14 0.46
9 5 -3 0.72 0.43
9 5 -3 0.34 0.36
8 -5 -3 0.47 0.31
-8 -5 3 0.35 0.3
8 -5 -3 0.16 0.39
-8 5 3 0.73 0.44
8 5 -3 0.45 0.31
8 5 -3 0.14 0.3
7 -5 -3 0.52 0.3
-7 -5 3 1.17 0.32
-7 -5 3 1.12 0.26
7 5 -3 1.15 0.36
7 5 -3 1.45 0.25
-7 5 3 1.44 0.45
7 5 -3 1.65 0.36
-7 5 3 0.8 0.38
-6 -5 3 12.66 0.56
6 -5 -3 11.22 0.65
-6 -5 3 12.31 0.64
6 -5 -3 10.73 0.43
6 5 -3 11.29 0.62
6 5 -3 12.33 0.69
-6 5 3 11.51 0.78
-6 5 3 11.04 0.71
6 5 -3 12.26 0.49
5 -5 -3 0.83 0.26
-5 -5 3 0.71 0.25
-5 -5 3 0.82 0.21
5 -5 -3 0.57 0.16
5 5 -3 0.55 0.21
5 5 -3 0.72 0.26
-5 5 3 0.58 0.27
-5 5 3 0.62 0.3
-4 -5 3 1.32 0.22
-4 -5 3 1.53 0.27
4 -5 -3 1.21 0.19
4 -5 -3 1.43 0.25
-4 -5 3 2.03 0.25
-4 5 3 1.26 0.27
-4 5 3 1.31 0.32
4 5 -3 2.13 0.31
4 5 -3 1.69 0.26
3 -5 -3 5.47 0.31
-3 -5 3 6.04 0.31
3 -5 -3 5.83 0.38
-3 -5 3 5.48 0.39
-3 -5 3 5.6 0.34
3 5 -3 5.81 0.29
3 5 -3 5.63 0.29
3 5 -3 5.56 0.3
-3 5 3 5.21 0.45
-3 5 3 5.28 0.42
-3 5 3 5.41 0.21
3 5 -3 5.88 0.4
-3 5 3 5.15 0.19
2 -5 -3 11.29 0.42
-2 -5 3 11.07 0.44
-2 -5 3 11.88 0.42
2 -5 -3 11.34 0.44
-2 5 3 11.65 0.55
-2 5 3 11.76 0.49
2 5 -3 12.02 0.34
2 5 -3 12.18 0.34
2 5 -3 12.1 0.5
2 5 -3 11.5 0.4
2 5 -3 11.66 0.47
-2 5 3 11.47 0.33
-2 5 3 11.27 0.33
-1 -5 3 7.01 0.33
-1 -5 3 6.35 0.32
1 -5 -3 6.78 0.32
1 -5 -3 6.66 0.32
1 -5 -3 6.42 0.35
-1 5 3 6.78 0.3
1 5 -3 6.52 0.31
1 5 -3 6.52 0.39
-1 5 3 6.28 0.35
-1 5 3 6.19 0.27
1 5 -3 6.72 0.36
-1 5 3 6.8 0.44
0 -5 -3 77.06 1.53
0 -5 -3 76.19 1.55
0 -5 -3 75.74 1.59
0 -5 3 77.98 1.52
0 -5 3 77.68 1.53
0 -5 -3 78.95 1.44
0 5 3 78.57 1.6
0 5 -3 76.05 1.59
0 5 3 76.21 1.42
0 5 -3 79.3 1.67
0 5 3 77.98 1.68
-1 -5 -3 92.86 1.9
-1 -5 -3 95.81 1.66
1 -5 3 93.28 1.78
1 -5 3 98.84 1.8
-1 -5 -3 95.16 1.9
1 -5 3 95.75 1.78
1 -5 3 93.87 1.85
-1 -5 -3 95.69 1.83
1 5 3 95.54 2
-1 5 -3 93.93 1.89
1 5 3 95.3 1.92
-1 5 -3 94.79 1.99
1 5 3 93.68 1.65
-2 -5 -3 50.94 1.22
2 -5 3 52.05 1.13
2 -5 3 52.85 1.18
-2 -5 -3 52.51 1.12
2 -5 3 51.44 1.13
2 -5 3 51.82 1.05
2 5 3 50.31 1.27
2 5 3 52.43 1.21
-2 5 -3 50.47 1.18
-2 5 -3 51.47 1.05
-2 5 -3 50.67 1.28
3 -5 3 28.31 0.83
-3 -5 -3 29.28 0.86
3 -5 3 29.02 0.65
-3 -5 -3 28.86 0.74
3 -5 3 27.56 0.8
-3 5 -3 29.41 0.81
3 5 3 27.73 0.9
-3 5 -3 27.62 0.65
-3 5 -3 29.72 0.95
3 5 3 28.32 0.84
4 -5 3 47.42 1.2
4 -5 3 45.4 0.91
4 -5 3 46.28 1.2
-4 -5 -3 45.99 1.04
-4 -5 -3 43.87 1.21
-4 5 -3 45.62 0.92
-4 5 -3 45.05 1.32
-4 5 -3 46.11 1.15
4 5 3 44.76 1.22
4 5 3 43.91 1.27
-5 -5 -3 3.35 0.43
-5 -5 -3 3.97 0.31
5 -5 3 3.69 0.47
5 -5 3 4.1 0.46
5 -5 3 3.99 0.18
5 5 3 3.07 0.45
-5 5 -3 3.64 0.4
5 5 3 4.81 0.49
-5 5 -3 2.69 0.45
5 5 3 3.31 0.18
-6 -5 -3 1.28 0.21
6 -5 3 1.31 0.36
6 -5 3 1.39 0.34
-6 -5 -3 1.22 0.32
6 5 3 1.78 0.39
-6 5 -3 0.88 0.27
6 5 3 1.65 0.39
-6 5 -3 1.11 0.39
-7 -5 -3 0.27 0.31
7 -5 3 -0.17 0.28
7 -5 3 -0.02 0.33
7 5 3 -0.26 0.27
-7 5 -3 0.2 0.36
7 5 3 0.3 0.35
-7 5 -3 0.39 0.24
-8 -5 -3 0.28 0.34
8 -5 3 0.02 0.36
8 -5 3 -0.17 0.3
8 5 3 0.22 0.34
8 5 3 -0.22 0.34
-8 5 -3 0.86 0.45
9 -5 3 3.24 0.52
9 -5 3 3.48 0.63
-9 -5 -3 4.11 0.59
9 5 3 4.18 0.65
-9 5 -3 5.61 0.86
9 5 3 3.33 0.62
9 -6 -3 -0.32 0.38
9 -6 -3 0.78 0.43
-9 -6 3 0.52 0.35
9 6 -3 0.81 0.4
-9 6 3 0.24 0.47
9 6 -3 0.64 0.41
8 -6 -3 0.36 0.36
-8 -6 3 0.29 0.3
8 -6 -3 1.2 0.46
-8 6 3 1.23 0.5
8 6 -3 1.33 0.37
8 6 -3 0.71 0.39
7 -6 -3 1.26 0.36
-7 -6 3 1.25 0.36
-7 -6 3 1.71 0.3
-7 6 3 0.37 0.38
7 6 -3 1.25 0.33
7 6 -3 1.24 0.36
-7 6 3 2.16 0.47
6 -6 -3 5.32 0.35
-6 -6 3 5.63 0.45
-6 -6 3 4.93 0.51
6 -6 -3 5.2 0.51
6 6 -3 5.26 0.56
-6 6 3 4.12 0.55
6 6 -3 4.88 0.34
6 6 -3 4.36 0.44
-6 6 3 4.86 0.63
-5 -6 3 5.27 0.41
-5 -6 3 4.52 0.48
-5 -6 3 4.5 0.32
5 -6 -3 4.98 0.33
5 -6 -3 4.46 0.45
-5 6 3 4.94 0.6
5 6 -3 4.56 0.48
5 6 -3 4.17 0.39
-5 6 3 5.4 0.53
4 -6 -3 24.1 0.68
4 -6 -3 24.42 0.8
-4 -6 3 24.06 0.66
-4 -6 3 25.47 0.86
-4 -6 3 24.43 0.75
-4 6 3 23.46 0.92
-4 6 3 23.18 0.52
-4 6 3 22.12 0.53
4 6 -3 24.1 0.72
4 6 -3 24.5 0.85
-4 6 3 23.01 0.84
3 -6 -3 19.62 0.66
-3 -6 3 19.71 0.57
-3 -6 3 20.19 0.64
3 -6 -3 19.69 0.59
3 6 -3 20.21 0.54
3 6 -3 19.53 0.56
-3 6 3 18.72 0.76
-3 6 3 18.32 0.46
3 6 -3 20.44 0.72
-3 6 3 18.84 0.69
-3 6 3 19.19 0.49
-2 -6 3 15.58 0.54
-2 -6 3 15.08 0.49
2 -6 -3 14.15 0.5
2 -6 -3 15.6 0.54
-2 6 3 14.77 0.65
-2 6 3 14.65 0.42
-2 6 3 13.98 0.56
2 6 -3 14.72 0.38
2 6 -3 14.93 0.56
-2 6 3 14.85 0.43
2 6 -3 15.91 0.61
2 6 -3 15.46 0.38
1 -6 -3 3.37 0.28
-1 -6 3 3.63 0.3
-1 -6 3 3.56 0.28
1 -6 -3 3.32 0.28
1 -6 -3 3.7 0.28
-1 6 3 2.94 0.23
1 6 -3 3.45 0.31
-1 6 3 3.28 0.24
-1 6 3 3.99 0.32
1 6 -3 3.77 0.35
-1 6 3 3.68 0.39
0 -6 -3 39.88 0.95
0 -6 3 40.71 0.94
0 -6 -3 40.04 0.95
0 -6 -3 39.53 0.86
0 -6 -3 40.44 0.98
0 -6 3 39.5 0.94
0 6 3 39.59 0.97
0 6 -3 40.94 1.08
0 6 3 40.97 1.1
0 6 -3 40.53 1
0 6 3 40.37 0.85
-1 -6 -3 5.68 0.22
-1 -6 -3 5.44 0.36
-1 -6 -3 5.84 0.33
1 -6 3 5.95 0.24
-1 -6 -3 6.02 0.34
1 -6 3 5.8 0.36
1 -6 3 5.6 0.23
1 -6 3 6.18 0.32
1 6 3 5.99 0.22
-1 6 -3 5.81 0.36
1 6 3 5.9 0.42
-1 6 -3 5.42 0.43
1 6 3 5.85 0.35
-2 -6 -3 17.83 0.63
2 -6 3 16.36 0.5
2 -6 3 16.34 0.6
-2 -6 -3 17.5 0.56
2 -6 3 17.55 0.53
2 -6 3 16.7 0.53
-2 6 -3 16.71 0.59
2 6 3 18.65 0.7
-2 6 -3 17.54 0.7
2 6 3 17.08 0.6
3 -6 3 0.17 0.18
-3 -6 -3 0.4 0.21
3 -6 3 -0.01 0.19
3 -6 3 0.11 0.12
-3 -6 -3 -0.1 0.13
3 6 3 0.12 0.19
-3 6 -3 0.09 0.18
3 6 3 0.07 0.2
-3 6 -3 0.58 0.26
-4 -6 -3 0.81 0.2
4 -6 3 0.49 0.23
-4 -6 -3 0.7 0.26
4 -6 3 0.9 0.15
4 -6 3 0.77 0.26
4 6 3 0.77 0.27
-4 6 -3 0.96 0.25
4 6 3 0.77 0.26
-4 6 -3 0.76 0.14
-4 6 -3 0.51 0.3
5 -6 3 0.13 0.24
5 -6 3 0.28 0.11
-5 -6 -3 0.24 0.17
-5 -6 -3 0.12 0.24
5 -6 3 0.13 0.24
-5 6 -3 -0.26 0.2
-5 6 -3 -0.12 0.27
5 6 3 0.11 0.25
5 6 3 -0.28 0.24
6 -6 3 0.92 0.34
-6 -6 -3 0.94 0.35
6 -6 3 0.77 0.35
-6 -6 -3 0.81 0.2
-6 6 -3 0.59 0.24
6 6 3 0.7 0.34
-6 6 -3 1.18 0.39
6 6 3 0.7 0.33
7 -6 3 4.22 0.65
-7 -6 -3 5.88 0.6
7 -6 3 5.98 0.59
7 6 3 4.85 0.65
7 6 3 6.49 0.64
-7 6 -3 5.44 0.78
8 -6 3 1.53 0.46
8 -6 3 0.9 0.39
-8 -6 -3 0.67 0.37
-8 6 -3 0.5 0.43
8 6 3 1.91 0.48
8 6 3 1.36 0.44
8 -7 -3 0.69 0.41
-8 -7 3 0.7 0.37
8 -7 -3 0.12 0.41
8 7 -3 0.47 0.38
8 7 -3 0.36 0.3
-8 7 3 0.6 0.48
-7 -7 3 1.23 0.38
-7 -7 3 0.94 0.29
7 -7 -3 0.68 0.35
-7 7 3 0.4 0.42
-7 7 3 0.69 0.38
7 7 -3 1.19 0.32
7 7 -3 0.82 0.35
6 -7 -3 1.95 0.4
-6 -7 3 1.91 0.32
6 -7 -3 1.73 0.25
-6 -7 3 2.63 0.42
-6 7 3 1.98 0.43
6 7 -3 1.76 0.24
6 7 -3 1.8 0.32
6 7 -3 1.72 0.38
-6 7 3 2.24 0.49
-5 -7 3 0.71 0.24
5 -7 -3 0.29 0.19
5 -7 -3 0.77 0.27
-5 -7 3 -0.13 0.14
-5 -7 3 0.23 0.27
5 7 -3 0.38 0.28
-5 7 3 -0.09 0.24
-5 7 3 0.12 0.34
5 7 -3 0.54 0.21
-4 -7 3 17.23 0.67
4 -7 -3 17.47 0.71
-4 -7 3 17.87 0.56
4 -7 -3 16.96 0.59
-4 7 3 17 0.74
4 7 -3 16.89 0.75
-4 7 3 16.79 0.86
4 7 -3 17.16 0.59
-4 7 3 16.78 0.46
3 -7 -3 32.68 0.94
-3 -7 3 34.5 0.94
3 -7 -3 35.34 0.9
-3 -7 3 35.28 0.85
-3 7 3 33.51 0.78
3 7 -3 35.22 1.06
-3 7 3 33.34 0.99
3 7 -3 33.74 0.99
3 7 -3 33.92 0.8
-3 7 3 32.62 1.12
3 7 -3 34.3 0.79
-3 7 3 33.26 0.76
2 -7 -3 37.05 0.98
2 -7 -3 38.08 0.95
-2 -7 3 37.54 0.98
-2 -7 3 36.96 0.9
-2 7 3 38.86 1.01
-2 7 3 37.27 1.15
2 7 -3 39.44 1.04
-2 7 3 37.55 0.87
-2 7 3 37.16 0.86
2 7 -3 39.89 1.11
1 -7 -3 32.68 0.82
-1 -7 3 31.84 0.86
1 -7 -3 33.46 0.86
-1 -7 3 32.97 0.84
-1 7 3 32.55 0.88
-1 7 3 31.81 0.8
-1 7 3 32.5 1.02
1 7 -3 33.45 0.98
1 7 -3 33.35 0.92
0 -7 -3 6.35 0.38
0 -7 -3 6.26 0.35
0 -7 3 6.77 0.38
0 -7 -3 6.29 0.37
0 -7 3 6.13 0.36
0 -7 -3 6.63 0.31
0 7 -3 6.45 0.39
0 7 3 6.93 0.3
0 7 3 6.22 0.36
0 7 -3 6.31 0.48
0 7 3 6.44 0.47
1 -7 3 0.51 0.17
-1 -7 -3 0.51 0.11
1 -7 3 0.17 0.18
-1 -7 -3 0.23 0.16
1 -7 3 0.38 0.1
1 -7 3 0.26 0.1
-1 -7 -3 0.46 0.2
-1 7 -3 0.1 0.17
1 7 3 0.34 0.23
1 7 3 0.29 0.1
1 7 3 0.52 0.19
-1 7 -3 0.23 0.22
2 -7 3 1.17 0.18
-2 -7 -3 1.49 0.22
2 -7 3 1.65 0.22
-2 -7 -3 1.54 0.27
2 -7 3 1.65 0.26
2 -7 3 1.55 0.21
-2 7 -3 1.8 0.26
2 7 3 1.16 0.27
2 7 3 1.24 0.24
-2 7 -3 1.22 0.3
-3 -7 -3 3.84 0.41
3 -7 3 2.83 0.32
-3 -7 -3 3.78 0.34
3 -7 3 3.5 0.28
3 -7 3 3.25 0.38
-3 7 -3 3.32 0.47
-3 7 -3 3.87 0.38
3 7 3 4.07 0.39
3 7 3 3.57 0.43
4 -7 3 6.9 0.52
-4 -7 -3 7.15 0.52
-4 -7 -3 7.46 0.43
4 -7 3 7.06 0.49
4 -7 3 7.42 0.35
4 7 3 7.41 0.58
-4 7 -3 7.18 0.48
4 7 3 7.7 0.53
-4 7 -3 7.11 0.64
-5 -7 -3 0.34 0.2
5 -7 3 0.43 0.28
5 -7 3 0.39 0.13
5 -7 3 -0.02 0.25
-5 -7 -3 0.29 0.27
5 7 3 0.25 0.27
-5 7 -3 0.45 0.33
5 7 3 0.51 0.3
-5 7 -3 0.11 0.23
-6 -7 -3 2.61 0.43
6 -7 3 3.18 0.47
-6 -7 -3 3.11 0.37
6 -7 3 2.21 0.4
6 7 3 3.54 0.5
-6 7 -3 1.78 0.49
-6 7 -3 2.59 0.37
6 7 3 3.66 0.55
7 -7 3 2.78 0.49
-7 -7 -3 2.02 0.43
7 -7 3 2.38 0.49
7 7 3 2.8 0.51
-7 7 -3 2.39 0.55
7 7 3 1.89 0.44
8 -7 3 1.73 0.48
8 -7 3 1.18 0.4
-8 -7 -3 0.42 0.4
8 7 3 1.59 0.52
-8 7 -3 1.45 0.54
8 7 3 0.45 0.44
8 -8 -3 0.61 0.41
8 -8 -3 -0.31 0.37
8 8 -3 -0.37 0.31
-8 8 3 0.36 0.47
7 -8 -3 2.32 0.47
-7 -8 3 1.86 0.35
-7 8 3 2.77 0.61
7 8 -3 2.91 0.52
6 -8 -3 3.43 0.35
-6 -8 3 2.93 0.43
6 -8 -3 2.77 0.49
-6 8 3 3.54 0.52
-6 8 3 3.56 0.58
6 8 -3 3.49 0.52
6 8 -3 3.32 0.41
5 -8 -3 1.41 0.26
5 -8 -3 1.21 0.36
-5 -8 3 1.53 0.22
-5 -8 3 1.34 0.3
5 8 -3 1.17 0.25
5 8 -3 0.96 0.33
-5 8 3 1.6 0.44
-5 8 3 1.38 0.37
4 -8 -3 1.62 0.25
-4 -8 3 2.32 0.27
-4 -8 3 2.04 0.32
4 -8 -3 1.42 0.33
-4 8 3 1.91 0.42
4 8 -3 1.74 0.27
-4 8 3 1.9 0.21
4 8 -3 2.14 0.34
-4 8 3 1.61 0.34
4 8 -3 1.81 0.36
-3 -8 3 1.02 0.24
3 -8 -3 1.04 0.28
3 -8 -3 0.97 0.23
-3 -8 3 1.29 0.21
-3 8 3 1.39 0.38
-3 8 3 1.03 0.18
3 8 -3 1.36 0.29
3 8 -3 1.47 0.31
-3 8 3 0.75 0.26
3 8 -3 2.06 0.22
-2 -8 3 0.4 0.16
2 -8 -3 0.13 0.19
2 -8 -3 0.17 0.18
-2 -8 3 0.03 0.17
2 8 -3 0.05 0.2
-2 8 3 -0.2 0.24
-2 8 3 -0.11 0.13
2 8 -3 -0.11 0.22
-2 8 3 0.18 0.19
1 -8 -3 1.61 0.24
1 -8 -3 1.24 0.23
-1 -8 3 1.13 0.23
-1 -8 3 1.81 0.25
1 8 -3 1.8 0.28
-1 8 3 1.69 0.24
-1 8 3 1.59 0.23
-1 8 3 2.08 0.35
1 8 -3 1.54 0.32
0 -8 3 3.75 0.33
0 -8 -3 4.08 0.35
0 -8 -3 3.95 0.29
0 -8 3 4.31 0.35
0 8 3 3.57 0.46
0 8 3 4.17 0.34
0 8 -3 3.37 0.43
0 8 -3 4.14 0.37
1 -8 3 2.4 0.34
1 -8 3 2.06 0.17
-1 -8 -3 2.2 0.2
1 -8 3 2.3 0.3
-1 -8 -3 2.33 0.32
-1 -8 -3 2.03 0.3
1 -8 3 2.03 0.17
1 8 3 1.97 0.3
-1 8 -3 2.08 0.3
1 8 3 2.39 0.36
-1 8 -3 2.11 0.36
1 8 3 2.09 0.19
-2 -8 -3 0.94 0.22
-2 -8 -3 1 0.13
-2 -8 -3 0.82 0.27
2 -8 3 1.06 0.17
2 -8 3 0.73 0.2
2 -8 3 1.19 0.18
2 -8 3 1.06 0.27
2 8 3 1.06 0.29
2 8 3 0.66 0.23
-2 8 -3 0.67 0.24
-2 8 -3 1.1 0.33
2 8 3 0.96 0.13
3 -8 3 2.09 0.3
-3 -8 -3 2.04 0.34
-3 -8 -3 2.45 0.33
3 -8 3 2.33 0.35
3 -8 3 1.94 0.28
-3 8 -3 2.43 0.36
3 8 3 2.15 0.33
3 8 3 1.96 0.35
-3 8 -3 2.42 0.42
4 -8 3 0.18 0.21
-4 -8 -3 0.2 0.27
-4 -8 -3 0.28 0.21
4 -8 3 0.58 0.28
4 -8 3 0.22 0.16
4 8 3 0.21 0.27
-4 8 -3 0.52 0.33
4 8 3 0.69 0.27
-4 8 -3 0.51 0.25
-5 -8 -3 0.15 0.3
-5 -8 -3 -0.19 0.18
5 -8 3 0.14 0.15
5 -8 3 -0.25 0.23
5 -8 3 0.22 0.26
-5 8 -3 -0.02 0.21
5 8 3 -0.08 0.26
-5 8 -3 0.2 0.34
5 8 3 -0.16 0.29
6 -8 3 -0.12 0.3
-6 -8 -3 0.17 0.33
6 -8 3 -0.31 0.29
-6 -8 -3 0.25 0.22
6 8 3 0.48 0.32
-6 8 -3 0.33 0.39
6 8 3 0.22 0.32
7 -8 3 0.57 0.37
7 -8 3 0.77 0.38
-7 -8 -3 0.43 0.37
-7 8 -3 -0.21 0.37
7 8 3 0.17 0.37
7 8 3 0.5 0.36
-8 -8 -3 0.73 0.4
8 -8 3 0.9 0.4
8 -8 3 1.38 0.43
8 8 3 1.57 0.49
-8 8 -3 0.48 0.54
8 8 3 1.21 0.45
7 -9 -3 -0.33 0.31
-7 -9 3 0.1 0.27
7 9 -3 -0.09 0.34
-7 9 3 0.31 0.47
7 9 -3 0.03 0.31
6 -9 -3 -0.08 0.31
-6 -9 3 -0.02 0.24
-6 9 3 0.11 0.34
6 9 -3 -0.06 0.29
6 9 -3 0.43 0.33
-6 9 3 -0.14 0.39
5 -9 -3 0.41 0.23
5 -9 -3 0.2 0.3
-5 -9 3 0.35 0.26
-5 9 3 0.55 0.31
-5 9 3 0.7 0.4
5 9 -3 0.11 0.28
5 9 -3 0.75 0.36
4 -9 -3 7.51 0.6
4 -9 -3 8.37 0.5
-4 -9 3 8.99 0.56
-4 -9 3 8.69 0.42
-4 9 3 9.42 0.77
-4 9 3 8.54 0.59
4 9 -3 7.81 0.57
4 9 -3 8.92 0.66
-3 -9 3 2.38 0.29
3 -9 -3 2.49 0.36
3 -9 -3 2.81 0.37
-3 -9 3 2.6 0.34
-3 9 3 3.08 0.49
3 9 -3 3.28 0.5
-3 9 3 1.98 0.26
3 9 -3 2.44 0.37
-3 9 3 3.15 0.41
2 -9 -3 25.06 0.82
-2 -9 3 24.64 0.83
2 -9 -3 24.38 0.8
-2 -9 3 24.54 0.75
-2 9 3 24.45 0.72
-2 9 3 23.91 1
-2 9 3 23.52 0.79
2 9 -3 23.94 0.87
2 9 -3 23.66 0.93
1 -9 -3 12.21 0.53
1 -9 -3 13.1 0.59
-1 -9 3 14.04 0.57
-1 -9 3 13.84 0.6
-1 9 3 13.76 0.73
-1 9 3 13.62 0.54
-1 9 3 12.92 0.55
1 9 -3 13.35 0.62
1 9 -3 13.23 0.71
0 -9 3 4.19 0.4
0 -9 3 4.28 0.38
0 -9 -3 4.49 0.32
0 -9 -3 4.29 0.4
0 9 3 4.64 0.37
0 9 3 4.17 0.52
0 9 -3 4.05 0.4
0 9 -3 3.41 0.49
0 9 3 3.75 0.34
1 -9 3 1.52 0.14
1 -9 3 2.17 0.32
1 -9 3 1.32 0.25
-1 -9 -3 1.47 0.3
-1 -9 -3 1.85 0.28
-1 -9 -3 1.49 0.22
1 9 3 1.51 0.33
1 9 3 1.37 0.25
-1 9 -3 1.87 0.39
-1 9 -3 1.39 0.29
2 -9 3 7.13 0.44
-2 -9 -3 8.23 0.28
-2 -9 -3 8.91 0.55
2 -9 3 8.15 0.54
-2 -9 -3 8.12 0.5
2 -9 3 8.23 0.36
2 9 3 8.14 0.48
-2 9 -3 7.97 0.52
2 9 3 7.93 0.61
-2 9 -3 7.8 0.65
3 -9 3 -0.16 0.23
3 -9 3 0.04 0.18
-3 -9 -3 0.59 0.27
3 -9 3 0.15 0.17
-3 -9 -3 0.24 0.22
-3 9 -3 0.21 0.25
-3 9 -3 0.31 0.3
3 9 3 0.28 0.28
3 9 3 0.21 0.24
4 -9 3 0.68 0.31
4 -9 3 0.3 0.19
-4 -9 -3 0.14 0.29
-4 -9 -3 0.37 0.23
4 -9 3 0.58 0.25
-4 9 -3 0.32 0.26
-4 9 -3 0.39 0.35
4 9 3 0.38 0.31
4 9 3 0.33 0.28
-5 -9 -3 2.2 0.46
5 -9 3 1.57 0.35
-5 -9 -3 1.75 0.32
5 -9 3 1.49 0.37
5 9 3 1.93 0.43
5 9 3 2.28 0.39
-5 9 -3 2.13 0.34
-5 9 -3 1.75 0.5
6 -9 3 0.19 0.32
6 -9 3 -0.57 0.28
-6 -9 -3 0.31 0.24
-6 -9 -3 0.17 0.33
-6 9 -3 0.36 0.42
6 9 3 0.31 0.34
6 9 3 0.13 0.33
7 -9 3 0.44 0.38
7 -9 3 0.16 0.33
-7 -9 -3 0.13 0.34
-7 9 -3 -0.16 0.39
7 9 3 0.14 0.38
7 -10 -3 9.87 0.85
-7 -10 3 11.34 0.72
7 10 -3 10.91 0.89
-7 10 3 11.16 1.04
7 10 -3 9.57 0.79
6 -10 -3 6.65 0.71
-6 -10 3 6.85 0.6
-6 10 3 6.54 0.72
6 10 -3 7.99 0.76
6 10 -3 8.68 0.71
-6 10 3 8.2 0.92
-5 -10 3 5.16 0.51
5 -10 -3 4.9 0.45
5 -10 -3 4.98 0.58
5 10 -3 6.67 0.68
-5 10 3 4.59 0.57
-5 10 3 5.22 0.75
5 10 -3 4.95 0.58
4 -10 -3 7.16 0.5
4 -10 -3 6.64 0.6
-4 -10 3 7.27 0.54
4 10 -3 6.77 0.58
-4 10 3 7.12 0.76
4 10 -3 6.61 0.66
-4 10 3 6.34 0.56
3 -10 -3 14.81 0.67
-3 -10 3 15.46 0.57
3 -10 -3 15.28 0.73
-3 -10 3 15.02 0.7
-3 10 3 14.75 0.56
3 10 -3 14.69 0.74
-3 10 3 14.42 0.91
3 10 -3 15.06 0.84
-3 10 3 13.84 0.67
-2 -10 3 7.72 0.52
2 -10 -3 8.05 0.53
2 -10 -3 8.54 0.52
-2 -10 3 8.32 0.46
2 10 -3 8.8 0.66
-2 10 3 7.75 0.45
-2 10 3 7.77 0.68
-2 10 3 8.13 0.51
2 10 -3 8.38 0.56
-1 -10 3 5.88 0.47
1 -10 -3 5.72 0.44
-1 -10 3 5.84 0.43
1 -10 -3 5.66 0.43
-1 10 3 6.19 0.42
1 10 -3 6.54 0.6
-1 10 3 5.39 0.61
-1 10 3 6.11 0.41
1 10 -3 6.75 0.5
0 -10 -3 1.17 0.28
0 -10 3 1.38 0.27
0 -10 -3 1.41 0.23
0 -10 3 1.18 0.28
0 10 -3 1.32 0.3
0 10 3 0.98 0.24
0 10 3 1.23 0.37
0 10 3 1.38 0.26
0 10 -3 0.94 0.34
-1 -10 -3 0.06 0.21
1 -10 3 0.14 0.2
-1 -10 -3 0.07 0.12
1 -10 3 -0.04 0.21
1 10 3 0.27 0.23
-1 10 -3 -0.07 0.22
1 10 3 -0.47 0.25
1 10 3 0.49 0.21
-1 10 -3 -0.24 0.28
-2 -10 -3 1.97 0.33
2 -10 3 1.49 0.28
-2 -10 -3 1.97 0.38
2 -10 3 1.91 0.36
2 10 3 1.68 0.28
2 10 3 1.26 0.36
-2 10 -3 1.58 0.41
-2 10 -3 1.83 0.34
3 -10 3 7.51 0.48
-3 -10 -3 9.45 0.56
3 -10 3 8.93 0.63
-3 -10 -3 9.28 0.66
3 10 3 8.79 0.53
3 10 3 8.66 0.7
-3 10 -3 9.63 0.75
-3 10 -3 8.33 0.58
4 -10 3 1.11 0.24
4 -10 3 1.04 0.27
-4 -10 -3 1.55 0.33
-4 -10 -3 0.88 0.37
4 -10 3 1.32 0.37
4 10 3 1.04 0.31
4 10 3 1.3 0.38
-4 10 -3 1.02 0.41
-4 10 -3 0.94 0.29
5 -10 3 0.62 0.33
-5 -10 -3 0.02 0.25
-5 -10 -3 0.17 0.33
5 -10 3 0.38 0.28
-5 10 -3 0.08 0.41
5 10 3 0.23 0.33
6 -10 3 0.03 0.32
-6 -10 -3 -0.56 0.29
-6 -10 -3 0.38 0.28
6 10 3 0.26 0.36
-6 10 -3 0.75 0.45
-7 10 -3 0 0.48
7 10 3 0.29 0.38
-6 -11 3 1.75 0.39
6 -11 -3 2.06 0.5
6 11 -3 2.6 0.54
6 11 -3 1.04 0.39
-6 11 3 1.57 0.57
-6 11 3 1.9 0.43
-5 -11 3 1.87 0.39
5 -11 -3 2.96 0.48
5 -11 -3 2.08 0.33
-5 11 3 2.37 0.57
-5 11 3 1.87 0.41
5 11 -3 2.69 0.54
5 11 -3 2.06 0.43
4 -11 -3 6.86 0.52
4 -11 -3 7.8 0.62
-4 -11 3 7.38 0.57
4 11 -3 7.3 0.78
4 11 -3 8.26 0.67
-4 11 3 7.57 0.59
-4 11 3 8.83 0.85
-3 -11 3 8.67 0.59
3 -11 -3 9.7 0.64
3 -11 -3 9.03 0.57
3 11 -3 8.93 0.76
3 11 -3 8.53 0.66
-3 11 3 8.8 0.58
-3 11 3 8.48 0.79
-2 -11 3 0.98 0.24
-2 -11 3 1.19 0.31
2 -11 -3 1.15 0.3
2 -11 -3 1.25 0.3
-2 11 3 0.82 0.26
-2 11 3 1.06 0.27
-2 11 3 1.57 0.43
2 11 -3 1.44 0.34
2 11 -3 0.77 0.38
-1 -11 3 7.56 0.53
-1 -11 3 7.31 0.48
1 -11 -3 7.06 0.48
1 -11 -3 8.16 0.55
1 11 -3 7.26 0.56
-1 11 3 6.53 0.71
-1 11 3 7.54 0.45
-1 11 3 7.18 0.49
1 11 -3 6.63 0.67
0 -11 3 15.6 0.7
0 -11 -3 16.15 0.72
0 -11 3 15.86 0.69
0 -11 -3 16.61 0.61
0 11 3 15.59 0.9
0 11 -3 16.04 0.9
0 11 -3 16.49 0.77
0 11 3 15.22 0.69
-1 -11 -3 8.95 0.57
1 -11 3 9.02 0.57
1 -11 3 8.25 0.55
-1 11 -3 8.58 0.74
-1 11 -3 7.67 0.57
1 11 3 8.56 0.54
1 11 3 9.23 0.75
2 -11 3 2.93 0.4
2 -11 3 3.04 0.44
-2 -11 -3 2.09 0.37
-2 11 -3 2.63 0.41
-2 11 -3 2.71 0.51
2 11 3 3.26 0.51
3 -11 3 4.06 0.51
3 -11 3 5.17 0.44
-3 -11 -3 4.29 0.49
-3 -11 -3 4.19 0.55
-3 11 -3 4.28 0.52
3 11 3 4.72 0.64
-3 11 -3 3.6 0.56
-4 -11 -3 0.44 0.35
4 -11 3 0.13 0.29
4 -11 3 0.18 0.21
-4 -11 -3 0.48 0.28
-4 11 -3 0.14 0.35
4 11 3 0.69 0.39
-5 -11 -3 0.83 0.4
5 -11 3 0.63 0.35
-5 -11 -3 0.63 0.3
5 11 3 0.63 0.42
-5 11 -3 0.85 0.48
-6 -11 -3 2.04 0.49
6 -11 3 1.78 0.47
-6 -11 -3 1.26 0.36
-6 11 -3 1.03 0.5
6 11 3 0.72 0.43
5 -12 -3 1.5 0.42
-5 -12 3 0.55 0.31
5 -12 -3 0.76 0.27
5 12 -3 0.26 0.43
5 12 -3 0.37 0.37
-5 12 3 0.72 0.49
4 -12 -3 1.12 0.32
-4 -12 3 0.92 0.32
4 -12 -3 0.49 0.34
4 12 -3 1.19 0.44
4 12 -3 0.4 0.35
-4 12 3 1 0.46
3 -12 -3 0.02 0.26
3 -12 -3 0.03 0.27
-3 -12 3 -0.32 0.23
3 12 -3 0.3 0.3
3 12 -3 -0.02 0.34
-3 12 3 0.35 0.42
2 -12 -3 2.43 0.39
-2 -12 3 3.48 0.47
2 -12 -3 5.3 0.51
-2 12 3 3.22 0.55
2 12 -3 2.1 0.47
2 12 -3 3.85 0.5
1 -12 -3 1.65 0.33
1 -12 -3 1.56 0.3
-1 -12 3 0.97 0.32
-1 -12 3 1.51 0.29
-1 12 3 1.19 0.47
1 12 -3 1.19 0.44
1 12 -3 0.71 0.31
-1 12 3 1.08 0.28
0 -12 -3 0.35 0.28
0 -12 3 -0.07 0.23
0 -12 3 0.24 0.23
0 12 -3 0.06 0.27
0 12 3 0.4 0.4
0 12 -3 -0.27 0.33
0 12 3 0 0.23
1 -12 3 0.32 0.28
-1 -12 -3 0.55 0.29
1 -12 3 0.36 0.28
-1 12 -3 0.69 0.29
1 12 3 1.17 0.43
1 12 3 1.18 0.32
-1 12 -3 0.91 0.41
-2 -12 -3 1.56 0.35
2 -12 3 1.28 0.3
2 -12 3 1.21 0.34
-2 12 -3 1.18 0.35
-2 12 -3 1.22 0.47
2 12 3 1.2 0.44
2 12 3 0.67 0.3
-3 -12 -3 -0.04 0.26
3 -12 3 0.32 0.24
3 -12 3 0.42 0.31
3 12 3 0.49 0.34
-3 12 -3 0.28 0.4
-3 12 -3 -0.05 0.29
-4 -12 -3 4.49 0.61
-4 -12 -3 4.84 0.55
4 -12 3 6.14 0.66
4 -12 3 5.16 0.48
-4 12 -3 5.36 0.78
4 12 3 4.8 0.7
-5 -12 -3 -0.56 0.23
-5 -12 -3 -0.15 0.36
5 -12 3 -0.12 0.34
5 12 3 0.26 0.43
-5 12 -3 0.18 0.46
-4 -13 3 2.09 0.43
4 -13 -3 1.58 0.35
4 -13 -3 1.3 0.39
4 13 -3 2.53 0.54
4 13 -3 2.49 0.46
-4 13 3 0.91 0.52
3 -13 -3 1.55 0.36
-3 -13 3 1.96 0.4
3 -13 -3 2.05 0.39
3 13 -3 2.11 0.44
3 13 -3 1.32 0.48
-3 13 3 2.06 0.6
-2 -13 3 0.69 0.33
2 -13 -3 0.81 0.33
2 -13 -3 1.22 0.32
2 13 -3 1.01 0.37
2 13 -3 0.85 0.43
-2 13 3 1.2 0.49
-1 -13 3 1.21 0.35
1 -13 -3 1.01 0.34
-1 13 3 2.02 0.57
1 13 -3 1.26 0.35
-1 13 3 1.59 0.32
1 13 -3 1.43 0.47
0 -13 3 0.04 0.25
0 -13 -3 0.37 0.28
0 -13 3 0.37 0.3
0 13 3 0.59 0.43
0 13 -3 -0.49 0.35
0 13 3 0.08 0.25
0 13 -3 -0.06 0.29
-1 -13 -3 0.91 0.34
1 -13 3 0.6 0.29
1 -13 3 0.99 0.32
1 13 3 0.47 0.42
-1 13 -3 1.2 0.47
-1 13 -3 1.26 0.36
1 13 3 0.6 0.3
2 -13 3 0.74 0.29
2 -13 3 1.08 0.34
-2 -13 -3 0.63 0.31
2 13 3 0.57 0.31
-2 13 -3 0.25 0.3
2 13 3 0.35 0.4
-2 13 -3 1.48 0.52
-3 -13 -3 4.49 0.57
3 -13 3 4.05 0.5
3 -13 3 3.7 0.54
3 13 3 4.51 0.59
-3 13 -3 3.59 0.62
3 13 3 4.01 0.64
-4 -13 -3 1.22 0.37
4 -13 3 0.66 0.35
4 13 3 1.37 0.4
4 13 3 0.84 0.45
-4 13 -3 1.18 0.51
3 -14 -3 6.69 0.6
3 -14 -3 6.56 0.63
3 14 -3 6.63 0.7
3 14 -3 7.2 0.85
-2 -14 3 9.78 0.74
2 -14 -3 10.18 0.7
-2 14 3 9.12 0.93
2 14 -3 8.25 0.73
2 14 -3 8.53 0.88
-1 -14 3 12.78 0.8
1 -14 -3 13.56 0.79
1 14 -3 11.7 0.8
1 14 -3 12.93 0.98
-1 14 3 12.76 1.06
0 -14 -3 6.76 0.62
0 -14 3 6.71 0.64
0 14 -3 7.83 0.89
0 14 -3 6.12 0.65
0 14 3 9.64 0.92
0 14 3 6.94 0.59
1 -14 3 13.38 0.78
-1 -14 -3 15.41 0.86
1 -14 3 14.99 0.82
-1 14 -3 16.66 1.08
1 14 3 14.09 0.78
-1 14 -3 14.98 0.85
1 14 3 16.1 1.12
2 -14 3 11.39 0.78
-2 -14 -3 9.47 0.71
2 -14 3 8.58 0.65
-2 14 -3 8.61 0.96
2 14 3 10.26 0.72
2 14 3 10.22 0.94
-9 0 4 13.63 1
9 0 -4 13.86 0.93
9 0 -4 13.34 0.73
-8 0 4 34.91 1.04
8 0 -4 34.51 1.12
8 0 -4 35.77 1.34
-8 0 4 38.7 1.4
7 0 -4 9.1 0.54
7 0 -4 8.69 0.65
-7 0 4 8.14 0.46
7 0 -4 9.11 0.41
-7 0 4 8.31 0.7
-6 0 4 32.37 1.12
-6 0 4 33.26 1.09
6 0 -4 33.22 0.82
6 0 -4 32.53 0.93
-6 0 4 33.46 0.88
5 0 -4 14.47 0.48
-5 0 4 15.33 0.5
-5 0 4 15.18 0.68
-5 0 4 15.39 0.67
5 0 -4 15.02 0.56
4 0 -4 4.32 0.31
-4 0 4 3.83 0.25
4 0 -4 4.47 0.26
4 0 -4 4.11 0.25
-4 0 4 4.57 0.37
4 0 -4 5.15 0.27
-4 0 4 4.54 0.39
3 0 -4 0.34 0.14
3 0 -4 0.4 0.11
3 0 -4 0.16 0.11
-3 0 4 0.12 0.16
3 0 -4 0.05 0.13
-3 0 4 0.29 0.11
3 0 -4 0.05 0.1
-3 0 4 0.18 0.16
-2 0 4 39.32 0.86
2 0 -4 42.57 0.87
2 0 -4 40.46 0.79
2 0 -4 40.41 0.83
2 0 -4 39.69 0.79
-2 0 4 39.66 0.87
2 0 -4 38.44 0.85
-2 0 4 39.17 0.83
2 0 -4 40.91 0.93
-2 0 4 40.42 0.92
1 0 -4 779.41 13.48
-1 0 4 772.31 13.76
1 0 -4 767.1 13.26
-1 0 4 787.19 13.42
-1 0 4 749.3 13.38
1 0 -4 783 13.72
-1 0 4 761.42 14.22
1 0 -4 785.63 13.97
1 0 -4 815.75 13.8
-1 0 4 784.59 13.7
0 0 4 138.68 2.48
0 0 -4 139.18 2.54
0 0 4 139.31 2.4
0 0 -4 136.75 2.38
0 0 4 137.99 2.54
0 0 -4 138.83 2.39
0 0 -4 145.07 2.49
0 0 4 132.35 2.38
0 0 4 132.96 2.45
1 0 4 32.95 0.62
1 0 4 30.2 0.74
1 0 4 31.41 0.75
-1 0 -4 29.85 0.74
-1 0 -4 31.27 0.74
-1 0 -4 31.34 0.61
-1 0 -4 30.59 0.71
1 0 4 31.01 0.65
2 0 4 59.36 1.14
2 0 4 59.04 1.3
-2 0 -4 62.07 1.3
2 0 4 58.38 1.3
-2 0 -4 60.67 1.06
-2 0 -4 59.31 1.28
-2 0 -4 60.24 1.14
-2 0 -4 59.09 1.3
2 0 4 60.17 1.28
2 0 4 58.88 1.06
-3 0 -4 18.62 0.49
-3 0 -4 18.02 0.65
3 0 4 17.65 0.63
-3 0 -4 17.72 0.61
3 0 4 18.1 0.5
-4 0 -4 2.44 0.31
4 0 4 2.94 0.26
-4 0 -4 1.68 0.31
4 0 4 2.52 0.36
5 0 4 74.45 1.8
-5 0 -4 73.37 1.71
5 0 4 72.37 1.53
-5 0 -4 73.94 1.86
-6 0 -4 20.83 0.8
6 0 4 21.4 0.71
-6 0 -4 21.1 0.93
6 0 4 21.01 0.91
7 0 4 -0.35 0.29
7 0 4 -0.15 0.19
-7 0 -4 -0.41 0.23
-7 0 -4 0.16 0.3
8 0 4 1.43 0.31
8 0 4 1.83 0.49
-8 0 -4 1.75 0.39
-8 0 -4 1.34 0.44
-9 0 -4 13.71 0.82
-9 0 -4 11.03 0.94
9 0 4 13.94 0.98
9 -1 -4 1.51 0.46
9 -1 -4 0.96 0.34
-9 -1 4 0.87 0.44
-9 1 4 1.15 0.43
9 1 -4 0.71 0.28
9 1 -4 0.63 0.43
8 -1 -4 1.99 0.46
8 -1 -4 2.11 0.37
-8 -1 4 2.35 0.49
-8 -1 4 2.81 0.39
-8 1 4 2.02 0.48
8 1 -4 2.81 0.41
8 1 -4 2.1 0.46
-7 -1 4 3.12 0.36
7 -1 -4 2.83 0.26
-7 -1 4 2.13 0.42
7 -1 -4 2.94 0.39
7 1 -4 3.5 0.31
-7 1 4 2.73 0.47
7 1 -4 3.64 0.37
7 1 -4 3.48 0.53
-7 1 4 3.16 0.3
6 -1 -4 1.5 0.21
-6 -1 4 1.27 0.25
-6 -1 4 1.77 0.36
6 -1 -4 1.34 0.25
6 1 -4 1.47 0.25
6 1 -4 1.8 0.26
-6 1 4 0.79 0.32
-6 1 4 1.32 0.32
-6 1 4 1.59 0.21
-5 -1 4 17.42 0.58
-5 -1 4 17.14 0.7
5 -1 -4 17.76 0.52
-5 -1 4 18.23 0.73
5 -1 -4 17.88 0.62
5 -1 -4 17.44 0.52
-5 1 4 17.55 0.73
-5 1 4 16.9 0.5
5 1 -4 17.3 0.58
-5 1 4 16.93 0.71
5 1 -4 16.66 0.53
4 -1 -4 2.44 0.27
-4 -1 4 2.3 0.31
4 -1 -4 2.82 0.2
4 -1 -4 2.06 0.2
-4 -1 4 2.29 0.34
-4 -1 4 2.37 0.25
4 1 -4 2.68 0.23
4 1 -4 2.47 0.25
-4 1 4 1.63 0.25
-4 1 4 2.47 0.19
4 1 -4 2.59 0.24
-4 1 4 1.98 0.28
-3 -1 4 0.85 0.19
3 -1 -4 0.91 0.18
-3 -1 4 0.71 0.18
3 -1 -4 0.66 0.15
3 -1 -4 0.79 0.13
-3 -1 4 0.69 0.17
3 -1 -4 0.79 0.11
-3 -1 4 1.08 0.17
-3 1 4 0.74 0.21
3 1 -4 0.99 0.17
3 1 -4 1.15 0.21
3 1 -4 0.54 0.13
3 1 -4 0.53 0.15
-3 1 4 1 0.2
3 1 -4 0.73 0.14
3 1 -4 0.81 0.13
2 -1 -4 9.35 0.34
-2 -1 4 9.61 0.35
-2 -1 4 10.05 0.37
2 -1 -4 9.23 0.35
2 -1 -4 9.29 0.34
2 -1 -4 9.78 0.33
2 -1 -4 9.47 0.24
2 -1 -4 9.31 0.39
2 -1 -4 10.05 0.24
-2 -1 4 9.44 0.35
2 1 -4 10.36 0.32
2 1 -4 10.05 0.37
2 1 -4 9.61 0.34
-2 1 4 9 0.36
-2 1 4 9.33 0.41
2 1 -4 10.27 0.33
-2 1 4 9.69 0.33
2 1 -4 10.16 0.33
2 1 -4 10.04 0.32
2 1 -4 9.62 0.34
1 -1 -4 161.01 2.93
-1 -1 4 166.83 2.9
-1 -1 4 166.68 2.95
1 -1 -4 160.61 2.82
1 -1 -4 162.94 2.84
1 -1 -4 163.35 2.85
1 -1 -4 160.54 3.01
-1 -1 4 159.7 2.83
-1 1 4 162.84 2.84
-1 1 4 165.36 2.94
-1 1 4 163.33 2.82
-1 1 4 159.65 2.84
1 1 -4 163.78 2.84
-1 1 4 162.81 3.01
1 1 -4 160.83 2.83
1 1 -4 159.83 2.88
1 1 -4 169.65 2.91
1 1 -4 159.73 2.89
1 1 -4 164.55 2.96
0 -1 4 0.75 0.09
0 -1 -4 0.84 0.11
0 -1 4 0.95 0.15
0 -1 -4 0.91 0.13
0 -1 4 0.62 0.13
0 -1 4 0.67 0.14
0 -1 -4 1.08 0.17
0 -1 -4 0.9 0.14
0 1 -4 0.74 0.12
0 1 4 0.66 0.12
0 1 4 0.88 0.11
0 1 4 0.96 0.18
0 1 -4 0.75 0.13
0 1 4 0.6 0.11
0 1 -4 0.72 0.13
0 1 -4 0.7 0.15
0 1 -4 0.83 0.11
0 1 -4 0.7 0.09
-1 -1 -4 14.68 0.44
1 -1 4 13.32 0.43
-1 -1 -4 13.71 0.44
1 -1 4 13.17 0.39
1 -1 4 13.16 0.42
-1 -1 -4 13.06 0.32
-1 -1 -4 13.35 0.34
1 -1 4 13.23 0.43
-1 1 -4 13.78 0.32
1 1 4 13.08 0.32
-1 1 -4 13.75 0.41
-1 1 -4 13.95 0.42
1 1 4 14.07 0.44
-1 1 -4 13.15 0.39
1 1 4 13.97 0.46
1 1 4 13.79 0.35
-1 1 -4 13.11 0.32
-2 -1 -4 89.26 1.81
2 -1 4 86.91 1.81
2 -1 4 89.52 1.66
-2 -1 -4 87.38 1.82
-2 -1 -4 91.26 1.58
2 -1 4 89.75 1.8
2 -1 4 88.82 1.77
-2 -1 -4 86.12 1.78
-2 -1 -4 91.38 1.57
-2 1 -4 87.87 1.53
-2 1 -4 87.36 1.52
-2 1 -4 91.6 1.66
-2 1 -4 87.87 1.78
2 1 4 89.95 1.58
-2 1 -4 89.34 1.82
2 1 4 87.56 1.82
2 1 4 89.66 1.8
-2 1 -4 90.35 1.79
2 1 4 89.96 1.58
2 1 4 90 1.82
-3 -1 -4 9.31 0.25
-3 -1 -4 10.35 0.46
3 -1 4 9.39 0.46
-3 -1 -4 9.89 0.49
-3 -1 -4 9.72 0.31
3 -1 4 10.14 0.39
-3 1 -4 9.69 0.38
-3 1 -4 9.56 0.47
3 1 4 9.9 0.47
-3 1 -4 9.75 0.45
3 1 4 9.68 0.33
3 1 4 9.67 0.26
-4 -1 -4 1.55 0.18
-4 -1 -4 1.4 0.26
4 -1 4 1.15 0.25
-4 -1 -4 1.44 0.11
-4 -1 -4 1.5 0.28
4 -1 4 1.82 0.26
-4 1 -4 1.67 0.27
-4 1 -4 1.89 0.31
4 1 4 1.68 0.12
4 1 4 1.88 0.21
4 1 4 1.24 0.26
-5 -1 -4 7.89 0.57
5 -1 4 8.47 0.44
-5 -1 -4 7.51 0.49
5 -1 4 8.74 0.56
-5 1 -4 8.92 0.49
5 1 4 8.83 0.39
-5 1 -4 9.35 0.6
5 1 4 7.42 0.54
-6 -1 -4 6.18 0.52
6 -1 4 6.4 0.56
-6 -1 -4 5.74 0.56
6 -1 4 6.65 0.45
6 1 4 6.36 0.4
-6 1 -4 7.34 0.53
-6 1 -4 6.92 0.63
6 1 4 6.53 0.58
7 -1 4 3.06 0.49
-7 -1 -4 1.77 0.42
-7 -1 -4 2.53 0.39
7 -1 4 2.06 0.34
-7 1 -4 2.2 0.47
-7 1 -4 2.97 0.41
7 1 4 2.41 0.31
7 1 4 2.5 0.45
8 -1 4 -0.38 0.34
-8 -1 -4 0.33 0.3
8 -1 4 -0.35 0.21
-8 -1 -4 -0.07 0.32
-8 1 -4 -0.23 0.33
-8 1 -4 -0.18 0.25
8 1 4 0.37 0.25
8 1 4 -0.23 0.32
9 -1 4 -0.05 0.26
-9 -1 -4 -0.25 0.29
-9 -1 -4 0.42 0.4
9 -1 4 0.06 0.39
9 1 4 -0.58 0.34
-9 1 -4 0.5 0.4
-9 1 -4 -0.57 0.25
9 -2 -4 -0.34 0.34
9 -2 -4 -0.38 0.25
-9 -2 4 0.33 0.38
9 2 -4 0.21 0.41
9 2 -4 -0.16 0.21
-9 2 4 -0.78 0.32
-8 -2 4 0.52 0.36
-8 -2 4 0.61 0.26
8 -2 -4 1.21 0.4
8 -2 -4 0.66 0.28
8 2 -4 0.97 0.39
8 2 -4 0.86 0.24
-8 2 4 0.81 0.41
-7 -2 4 1.17 0.27
7 -2 -4 0.67 0.27
-7 -2 4 1.52 0.39
7 -2 -4 0.93 0.16
7 2 -4 0.84 0.22
7 2 -4 1.08 0.21
-7 2 4 1.06 0.4
-7 2 4 0.83 0.17
7 2 -4 1.54 0.37
-7 2 4 1.54 0.39
6 -2 -4 0.18 0.13
-6 -2 4 -0.1 0.18
6 -2 -4 0.28 0.21
-6 -2 4 0.16 0.27
6 2 -4 0.24 0.26
6 2 -4 0.08 0.15
-6 2 4 0.6 0.3
6 2 -4 0.5 0.17
-6 2 4 0.2 0.13
-6 2 4 0.26 0.25
-5 -2 4 1.97 0.29
-5 -2 4 2.37 0.34
5 -2 -4 2.2 0.21
5 -2 -4 1.92 0.26
5 -2 -4 1.97 0.2
-5 2 4 2.27 0.35
5 2 -4 2.16 0.26
5 2 -4 2.4 0.25
-5 2 4 2.68 0.39
-5 2 4 2.35 0.19
4 -2 -4 1.39 0.22
4 -2 -4 0.82 0.14
-4 -2 4 1.08 0.24
-4 -2 4 1.27 0.19
-4 -2 4 1.14 0.23
-4 -2 4 1.09 0.2
4 -2 -4 0.86 0.11
-4 2 4 0.99 0.15
-4 2 4 1.1 0.26
-4 2 4 1.31 0.13
-4 2 4 1.2 0.24
-3 -2 4 10.39 0.42
3 -2 -4 9.18 0.39
3 -2 -4 9.64 0.44
-3 -2 4 9.9 0.4
3 -2 -4 10.15 0.35
-3 -2 4 10.38 0.44
-3 -2 4 9.22 0.37
-3 -2 4 9.69 0.39
3 2 -4 9.84 0.38
-3 2 4 8.38 0.45
3 2 -4 10.12 0.4
3 2 -4 9.35 0.4
3 2 -4 9.09 0.36
-3 2 4 9.89 0.46
2 -2 -4 3.48 0.27
2 -2 -4 3.28 0.24
2 -2 -4 3.58 0.29
-2 -2 4 3.59 0.24
2 -2 -4 3.52 0.23
-2 -2 4 3.42 0.25
-2 -2 4 3.5 0.25
2 -2 -4 3.52 0.24
2 2 -4 3.85 0.23
-2 2 4 3.38 0.23
2 2 -4 3.86 0.24
2 2 -4 3.44 0.23
2 2 -4 3.31 0.23
-2 2 4 3.04 0.3
2 2 -4 3.57 0.24
2 2 -4 3.26 0.23
2 2 -4 3.34 0.22
-2 2 4 3.49 0.3
-1 -2 4 36.85 0.77
1 -2 -4 35.72 0.8
-1 -2 4 38.39 0.8
1 -2 -4 35.81 0.74
-1 -2 4 35.68 0.75
-1 -2 4 37.05 0.75
1 -2 -4 36.31 0.76
1 -2 -4 36.7 0.77
-1 -2 4 35.76 0.78
1 -2 -4 35.32 0.85
1 -2 -4 35.5 0.7
-1 2 4 35.96 0.7
1 2 -4 37.13 0.75
-1 2 4 36.73 0.78
1 2 -4 35.57 0.77
-1 2 4 35.04 0.81
1 2 -4 36.53 0.77
1 2 -4 38.11 0.8
1 2 -4 35.83 0.75
-1 2 4 36.15 0.85
0 -2 4 84.85 1.57
0 -2 4 83.99 1.6
0 -2 4 82.43 1.55
0 -2 4 83.07 1.52
0 -2 -4 80.49 1.47
0 -2 -4 85.7 1.66
0 -2 4 83.49 1.55
0 -2 -4 85.04 1.54
0 -2 -4 82.75 1.61
0 -2 -4 83.51 1.57
0 2 4 81.22 1.6
0 2 -4 81.35 1.6
0 2 -4 86.84 1.57
0 2 -4 83.35 1.55
0 2 4 83.72 1.54
0 2 4 81.14 1.64
0 2 -4 84.75 1.52
0 2 -4 82.17 1.55
0 2 4 83.79 1.47
1 -2 4 0.06 0.13
-1 -2 -4 0.14 0.1
1 -2 4 0.08 0.13
-1 -2 -4 0.27 0.07
-1 -2 -4 0.31 0.15
-1 -2 -4 0.25 0.15
1 -2 4 0.25 0.09
1 -2 4 0.24 0.13
1 2 4 0.09 0.16
1 2 4 0.25 0.07
-1 2 -4 0.33 0.09
1 2 4 0.34 0.1
-1 2 -4 0.09 0.14
-1 2 -4 0.05 0.12
1 2 4 0.37 0.15
-1 2 -4 0.22 0.14
-1 2 -4 0.22 0.11
1 2 4 0.45 0.15
2 -2 4 18.31 0.59
-2 -2 -4 18.31 0.59
2 -2 4 18.05 0.39
2 -2 4 18.62 0.55
2 -2 4 18.72 0.56
-2 -2 -4 18.68 0.38
-2 -2 -4 18.72 0.59
-2 -2 -4 18.32 0.45
2 -2 4 18.18 0.53
2 2 4 17.76 0.59
2 2 4 18.74 0.6
2 2 4 18.87 0.45
2 2 4 18.31 0.38
-2 2 -4 18.38 0.52
-2 2 -4 18.77 0.61
-2 2 -4 17.3 0.54
2 2 4 18.19 0.58
-2 2 -4 19.58 0.59
-2 2 -4 18.64 0.38
-3 -2 -4 9.77 0.46
-3 -2 -4 10.06 0.28
3 -2 4 9.83 0.46
-3 -2 -4 9.53 0.49
3 -2 4 9.68 0.42
-3 -2 -4 9.29 0.29
3 2 4 9.74 0.48
-3 2 -4 9.63 0.5
-3 2 -4 9.79 0.46
3 2 4 9.66 0.3
3 2 4 9.7 0.29
-4 -2 -4 3.21 0.18
4 -2 4 2.87 0.31
-4 -2 -4 2.28 0.33
-4 -2 -4 3.06 0.19
-4 -2 -4 3.29 0.39
4 -2 4 3.34 0.37
-4 2 -4 3.03 0.38
4 2 4 2.91 0.18
-4 2 -4 3.14 0.35
4 2 4 2.86 0.36
4 2 4 3.32 0.21
-5 -2 -4 -0.13 0.07
5 -2 4 0.05 0.17
5 -2 4 0.06 0.22
-5 -2 -4 0.16 0.21
-5 -2 -4 -0.2 0.21
-5 2 -4 0.14 0.23
5 2 4 0.07 0.08
5 2 4 0.26 0.13
5 2 4 0.06 0.22
-5 2 -4 -0.14 0.2
-6 -2 -4 1.04 0.3
-6 -2 -4 0.88 0.32
6 -2 4 1.15 0.27
-6 -2 -4 0.81 0.11
6 -2 4 0.51 0.3
6 2 4 0.84 0.31
-6 2 -4 0.8 0.28
6 2 4 0.81 0.19
-6 2 -4 0.98 0.35
7 -2 4 0.34 0.26
-7 -2 -4 0.24 0.27
-7 -2 -4 0.33 0.29
7 -2 4 -0.12 0.28
7 2 4 -0.13 0.32
-7 2 -4 -0.46 0.3
7 2 4 0.37 0.19
-7 2 -4 0.24 0.25
-8 -2 -4 0.04 0.32
8 -2 4 -0.09 0.25
-8 -2 -4 0.12 0.29
8 -2 4 0.13 0.35
-8 2 -4 -0.2 0.32
8 2 4 -0.14 0.35
-8 2 -4 0.45 0.29
-9 -2 -4 0.43 0.36
9 -2 4 0.59 0.31
-9 -2 -4 1.02 0.43
9 -2 4 -0.07 0.41
-9 2 -4 -0.17 0.36
9 2 4 0.29 0.44
9 -3 -4 2.33 0.54
-9 -3 4 1.12 0.34
9 -3 -4 1.49 0.41
-9 3 4 2 0.54
9 3 -4 1.43 0.3
9 3 -4 1.78 0.48
8 -3 -4 2.41 0.43
-8 -3 4 2.42 0.49
8 -3 -4 3.35 0.55
-8 -3 4 2.76 0.4
-8 3 4 3.25 0.59
8 3 -4 3.31 0.51
8 3 -4 2.22 0.32
7 -3 -4 4.72 0.47
7 -3 -4 5.01 0.31
-7 -3 4 5.59 0.59
-7 -3 4 5.04 0.48
7 3 -4 4.55 0.38
-7 3 4 4.91 0.65
7 3 -4 4.41 0.37
7 3 -4 4.28 0.51
-7 3 4 5.01 0.58
6 -3 -4 0.29 0.14
6 -3 -4 0.4 0.23
-6 -3 4 -0.18 0.22
-6 -3 4 0.34 0.22
-6 3 4 0.17 0.11
6 3 -4 0.38 0.25
-6 3 4 0.16 0.29
-6 3 4 0.12 0.29
6 3 -4 -0.01 0.15
6 3 -4 0 0.14
-5 -3 4 0.15 0.19
-5 -3 4 -0.16 0.21
5 -3 -4 0.23 0.09
5 -3 -4 0.4 0.13
5 -3 -4 0.09 0.18
-5 -3 4 0.34 0.17
-5 3 4 0.17 0.08
-5 3 4 0.16 0.24
-5 3 4 0.01 0.19
5 3 -4 0.17 0.19
5 3 -4 0.18 0.14
-4 -3 4 0.08 0.15
4 -3 -4 0.16 0.11
-4 -3 4 0.22 0.14
4 -3 -4 0.13 0.16
-4 -3 4 0.29 0.17
-4 3 4 0.54 0.23
-4 3 4 0 0.2
-3 -3 4 47.55 1.02
3 -3 -4 45.94 0.99
3 -3 -4 45.27 1.04
-3 -3 4 45.31 1.02
-3 -3 4 47.26 1.07
3 3 -4 46.9 1.09
3 3 -4 49.14 1.06
3 3 -4 47.13 1.12
-3 3 4 45.96 1.16
-3 3 4 45.75 1.16
-2 -3 4 3.58 0.22
-2 -3 4 3.46 0.26
2 -3 -4 3.51 0.28
2 -3 -4 3.47 0.26
2 -3 -4 2.83 0.29
-2 -3 4 3.59 0.26
2 -3 -4 3.61 0.23
2 3 -4 4.08 0.27
-2 3 4 3.44 0.31
2 3 -4 3.14 0.24
-2 3 4 3.36 0.23
-2 3 4 3.95 0.33
2 3 -4 2.88 0.23
2 3 -4 3.69 0.22
2 3 -4 3.66 0.27
-2 3 4 3.42 0.24
2 3 -4 3.02 0.25
1 -3 -4 88.82 1.82
1 -3 -4 95.13 1.73
-1 -3 4 92.03 1.73
-1 -3 4 92.58 1.68
1 -3 -4 91.23 1.67
-1 -3 4 94.04 1.79
1 -3 -4 91.07 1.69
-1 -3 4 94.63 1.79
1 -3 -4 92.62 1.85
1 3 -4 94.42 1.79
1 3 -4 96.2 1.69
-1 3 4 90.62 1.68
1 3 -4 95.82 1.8
-1 3 4 91.16 1.84
1 3 -4 92.56 1.73
-1 3 4 91.69 1.73
1 3 -4 92.82 1.73
-1 3 4 90.06 1.85
0 -3 4 47.23 1.01
0 -3 -4 49.91 1
0 -3 -4 47.35 1.06
0 -3 -4 49.31 1.08
0 -3 -4 48.81 1
0 -3 -4 48.54 0.91
0 -3 4 50.24 1.05
0 -3 4 49.99 1.02
0 -3 4 48.35 0.97
0 -3 4 47.49 0.93
0 -3 -4 48.58 0.91
0 3 -4 49.28 1.03
0 3 -4 49.81 0.98
0 3 4 48.89 1.07
0 3 -4 47.61 0.92
0 3 4 47.9 1
0 3 -4 48.44 1.01
0 3 -4 47.91 1.04
0 3 4 48.84 1
0 3 4 48.38 1.08
1 -3 4 86.88 1.68
1 -3 4 84.62 1.55
1 -3 4 82.82 1.62
1 -3 4 84.75 1.63
-1 -3 -4 85.08 1.73
-1 -3 -4 86.69 1.59
-1 -3 -4 86.72 1.69
-1 -3 -4 85.04 1.73
-1 3 -4 83.73 1.71
1 3 4 85.34 1.74
-1 3 -4 83.86 1.63
-1 3 -4 84.51 1.69
1 3 4 84.3 1.59
-1 3 -4 84.77 1.55
-1 3 -4 86.08 1.63
1 3 4 84.74 1.73
1 3 4 85.7 1.69
2 -3 4 0.32 0.15
2 -3 4 0.22 0.14
2 -3 4 0.39 0.16
2 -3 4 0.38 0.18
-2 -3 -4 0.2 0.11
-2 -3 -4 0.29 0.17
2 -3 4 0.2 0.09
2 3 4 0.46 0.18
-2 3 -4 0.26 0.18
-2 3 -4 0.32 0.19
2 3 4 0.27 0.11
-2 3 -4 0.32 0.09
2 3 4 0.21 0.17
-3 -3 -4 29.55 0.67
3 -3 4 30.82 0.8
-3 -3 -4 29.44 0.85
3 -3 4 29.62 0.58
3 -3 4 29.54 0.83
-3 3 -4 27.95 0.8
3 3 4 29.52 0.56
3 3 4 29.73 0.57
3 3 4 30.24 0.88
-3 3 -4 28.98 0.9
-3 3 -4 28.76 0.57
3 3 4 30.47 0.68
3 3 4 30.2 0.87
-4 -3 -4 15.7 0.63
4 -3 4 15.82 0.64
4 -3 4 16.23 0.59
-4 -3 -4 15.64 0.44
4 3 4 15.38 0.39
4 3 4 15.08 0.39
-4 3 -4 15.93 0.7
4 3 4 15.82 0.68
-4 3 -4 14.55 0.6
4 3 4 15.23 0.44
5 -3 4 4.87 0.42
5 -3 4 5.79 0.49
-5 -3 -4 5.16 0.25
-5 -3 -4 4.25 0.42
-5 -3 -4 4.77 0.5
5 3 4 4.46 0.47
5 3 4 5.38 0.27
-5 3 -4 5.17 0.42
-5 3 -4 5.01 0.5
5 3 4 4.48 0.24
5 3 4 5.43 0.27
6 -3 4 0.51 0.26
-6 -3 -4 0.53 0.12
-6 -3 -4 0.46 0.27
-6 -3 -4 0.56 0.3
6 -3 4 0.42 0.3
-6 3 -4 0.46 0.25
6 3 4 0.7 0.16
6 3 4 0.91 0.34
-6 3 -4 0.58 0.32
7 -3 4 0.36 0.34
-7 -3 -4 0.71 0.32
-7 -3 -4 1.03 0.37
7 -3 4 0.61 0.29
-7 3 -4 0.71 0.29
-7 3 -4 0.53 0.38
7 3 4 0.54 0.38
8 -3 4 -0.13 0.34
8 -3 4 0.41 0.3
-8 -3 -4 -0.16 0.32
-8 -3 -4 0.48 0.32
-8 3 -4 -0.38 0.33
-8 3 -4 -0.32 0.24
8 3 4 -0.06 0.37
-9 -3 -4 1.12 0.38
9 -3 4 0.7 0.35
9 -3 4 0.61 0.47
-9 3 -4 0.97 0.5
9 3 4 0.93 0.48
-9 -4 4 2.17 0.43
9 -4 -4 1.59 0.43
9 -4 -4 3 0.62
9 4 -4 2.62 0.52
-9 4 4 3.77 0.72
9 4 -4 2.7 0.51
8 -4 -4 6.84 0.7
-8 -4 4 5.4 0.55
8 -4 -4 6.24 0.62
8 4 -4 6.22 0.65
-8 4 4 5.93 0.78
8 4 -4 6.01 0.64
8 4 -4 5.37 0.42
7 -4 -4 3.66 0.48
-7 -4 4 3.38 0.46
7 4 -4 3.24 0.35
7 4 -4 3.7 0.5
7 4 -4 3 0.47
-7 4 4 2.76 0.47
7 4 -4 3.34 0.37
-7 4 4 3.05 0.52
-6 -4 4 0.26 0.19
6 -4 -4 0.12 0.22
-6 -4 4 0.32 0.25
6 -4 -4 0.32 0.15
6 4 -4 0.27 0.17
6 4 -4 0.45 0.26
-6 4 4 0.11 0.31
6 4 -4 0.21 0.23
-6 4 4 0.19 0.29
-5 -4 4 1.14 0.26
5 -4 -4 1.04 0.18
5 -4 -4 1.31 0.26
-5 -4 4 1.1 0.22
-5 4 4 0.18 0.28
5 4 -4 0.79 0.23
-5 4 4 1.14 0.29
5 4 -4 0.77 0.24
4 -4 -4 0.33 0.19
-4 -4 4 0.39 0.19
4 -4 -4 0.67 0.15
-4 -4 4 0.35 0.16
-4 -4 4 0.59 0.17
-4 4 4 0.57 0.23
4 4 -4 0.36 0.17
4 4 -4 0.54 0.2
-4 4 4 0.61 0.27
-3 -4 4 17.84 0.57
-3 -4 4 18.34 0.55
3 -4 -4 17.45 0.52
3 -4 -4 17.16 0.57
3 4 -4 18.28 0.61
3 4 -4 18.22 0.52
3 4 -4 17.27 0.58
-3 4 4 17.24 0.69
-3 4 4 18.38 0.66
3 4 -4 17.79 0.53
-2 -4 4 0.03 0.13
-2 -4 4 -0.1 0.13
2 -4 -4 0.15 0.13
2 -4 -4 0.12 0.12
2 4 -4 0.01 0.09
2 4 -4 0.16 0.14
-2 4 4 0.01 0.06
2 4 -4 -0.02 0.11
-2 4 4 0.04 0.06
2 4 -4 -0.05 0.14
2 4 -4 0.01 0.09
-2 4 4 -0.07 0.16
-2 4 4 -0.19 0.16
1 -4 -4 0.28 0.11
-1 -4 4 0.23 0.14
-1 -4 4 0.38 0.14
1 -4 -4 0.41 0.13
1 -4 -4 0.29 0.17
1 -4 -4 0.36 0.13
1 -4 -4 0.38 0.17
1 4 -4 0.18 0.13
-1 4 4 0.39 0.11
-1 4 4 0.55 0.19
-1 4 4 0.23 0.12
-1 4 4 0.14 0.17
1 4 -4 0.07 0.15
1 4 -4 0.34 0.16
0 -4 -4 22.85 0.65
0 -4 -4 22.71 0.58
0 -4 4 22.58 0.61
0 -4 -4 22.43 0.51
0 -4 -4 22.27 0.65
0 -4 4 23.17 0.58
0 -4 -4 23.43 0.6
0 4 -4 23.17 0.61
0 4 4 23.28 0.5
0 4 -4 22.43 0.57
0 4 4 23.22 0.59
0 4 4 22.61 0.68
0 4 -4 22.89 0.63
0 4 4 22.11 0.65
0 4 -4 21.67 0.63
-1 -4 -4 22.41 0.65
1 -4 4 22.03 0.54
-1 -4 -4 23.6 0.65
1 -4 4 21.86 0.54
-1 -4 -4 22.71 0.58
1 -4 4 22.32 0.63
-1 -4 -4 22.83 0.43
1 -4 4 22.38 0.55
1 -4 4 22.36 0.66
-1 4 -4 21.15 0.63
1 4 4 21.86 0.67
1 4 4 21.85 0.65
-1 4 -4 21.98 0.68
1 4 4 22.07 0.64
-2 -4 -4 16.43 0.48
2 -4 4 15.88 0.42
2 -4 4 15.35 0.54
2 -4 4 14.8 0.5
-2 -4 -4 16.46 0.57
2 -4 4 15.75 0.5
2 4 4 16.37 0.59
2 4 4 15.92 0.58
-2 4 -4 15.9 0.6
-2 4 -4 14.91 0.53
-2 4 -4 15.46 0.41
3 -4 4 23.89 0.54
3 -4 4 25.73 0.75
-3 -4 -4 24.12 0.77
3 -4 4 24.8 0.75
-3 -4 -4 24.95 0.63
-3 4 -4 23.54 0.53
3 4 4 24.7 0.8
-3 4 -4 25.45 0.83
-3 4 -4 22.74 0.73
3 4 4 24.15 0.78
4 -4 4 47.71 1.17
-4 -4 -4 45.07 1.22
-4 -4 -4 46.32 1
4 -4 4 46.07 1.21
4 -4 4 46.03 0.86
4 4 4 44.7 1.23
-4 4 -4 46.14 0.85
-4 4 -4 43.7 1.3
4 4 4 45 1.25
-4 4 -4 45.34 1.17
-5 -4 -4 6.07 0.49
-5 -4 -4 6.4 0.32
5 -4 4 6.32 0.53
5 -4 4 6.82 0.5
5 4 4 6.36 0.53
5 4 4 6.53 0.26
5 4 4 6.49 0.26
-5 4 -4 5.88 0.58
5 4 4 7.18 0.57
-5 4 -4 6.48 0.47
6 -4 4 0.89 0.33
-6 -4 -4 0.82 0.31
6 -4 4 0.58 0.28
-6 -4 -4 1.02 0.16
6 4 4 0.43 0.32
6 4 4 0.93 0.15
-6 4 -4 0.96 0.36
6 4 4 0.41 0.29
-6 4 -4 0.85 0.29
-7 -4 -4 2.28 0.4
7 -4 4 3.75 0.51
7 -4 4 2.67 0.49
-7 4 -4 2.96 0.52
7 4 4 2.95 0.52
-7 4 -4 2.93 0.45
7 4 4 3.14 0.5
8 -4 4 2.66 0.44
-8 -4 -4 1.79 0.42
8 -4 4 2.43 0.52
8 4 4 2.81 0.53
-8 4 -4 2.16 0.56
8 4 4 1.9 0.52
-9 -4 -4 1.37 0.43
9 -4 4 2.73 0.57
9 -4 4 2.7 0.48
-9 4 -4 3 0.65
9 4 4 2.91 0.57
9 4 4 1.78 0.54
9 -5 -4 1.7 0.55
-9 -5 4 2.02 0.43
9 -5 -4 1.8 0.45
-9 5 4 0.98 0.54
9 5 -4 1.96 0.5
9 5 -4 2.35 0.49
-8 -5 4 1.48 0.38
8 -5 -4 2.02 0.43
8 5 -4 1.89 0.44
8 5 -4 2.01 0.32
8 5 -4 2.83 0.48
-8 5 4 2.76 0.56
-7 -5 4 0.08 0.26
7 -5 -4 0 0.27
-7 -5 4 0.11 0.2
7 5 -4 0.23 0.18
-7 5 4 -0.09 0.33
7 5 -4 0.12 0.25
7 5 -4 0.51 0.3
-7 5 4 -0.09 0.36
6 -5 -4 1.73 0.26
-6 -5 4 1.22 0.31
6 -5 -4 1.17 0.3
-6 -5 4 2.13 0.3
-6 5 4 1.67 0.44
6 5 -4 1.72 0.31
-6 5 4 1.51 0.37
6 5 -4 1.91 0.26
6 5 -4 1.64 0.34
-5 -5 4 0.95 0.27
-5 -5 4 0.91 0.22
5 -5 -4 1.21 0.2
5 -5 -4 1.22 0.27
-5 -5 4 1.1 0.22
-5 5 4 1.06 0.33
5 5 -4 1.6 0.3
-5 5 4 0.94 0.29
5 5 -4 1.41 0.24
-4 -5 4 7.37 0.42
-4 -5 4 7.68 0.38
4 -5 -4 7.68 0.36
4 -5 -4 6.92 0.44
-4 5 4 6.85 0.55
-4 5 4 7.17 0.5
4 5 -4 7.45 0.47
4 5 -4 7.6 0.4
3 -5 -4 4.69 0.34
-3 -5 4 4.79 0.3
3 -5 -4 4.71 0.3
-3 -5 4 3.94 0.31
-3 5 4 4.68 0.44
3 5 -4 4.73 0.36
-3 5 4 4.72 0.39
3 5 -4 4.79 0.37
3 5 -4 4.26 0.27
3 5 -4 4.46 0.26
-2 -5 4 9.35 0.39
2 -5 -4 9.44 0.4
2 -5 -4 8.8 0.39
-2 -5 4 9.79 0.41
2 5 -4 10.23 0.29
-2 5 4 9.2 0.28
2 5 -4 10.14 0.46
2 5 -4 9.01 0.28
-2 5 4 9.89 0.51
-2 5 4 8.81 0.27
-2 5 4 9.75 0.46
2 5 -4 9.37 0.43
-1 -5 4 0.43 0.15
1 -5 -4 0.91 0.16
1 -5 -4 0.86 0.17
1 -5 -4 0.72 0.14
-1 -5 4 0.95 0.18
-1 5 4 0.34 0.18
1 5 -4 0.92 0.2
-1 5 4 0.49 0.13
-1 5 4 0.94 0.15
-1 5 4 0.91 0.23
1 5 -4 0.67 0.18
0 -5 -4 11.48 0.35
0 -5 -4 11.57 0.42
0 -5 4 10.65 0.44
0 -5 -4 11.34 0.41
0 -5 4 11.51 0.42
0 5 -4 11.6 0.49
0 5 4 12.44 0.47
0 5 4 11.08 0.41
0 5 -4 11.1 0.46
0 5 4 11.13 0.49
0 5 4 11.2 0.33
1 -5 4 5.55 0.34
1 -5 4 5.56 0.29
1 -5 4 5.75 0.23
-1 -5 -4 5.24 0.32
-1 -5 -4 5.39 0.18
1 -5 4 5.62 0.24
-1 -5 -4 5.43 0.34
-1 5 -4 5.86 0.4
1 5 4 5.01 0.38
1 5 4 4.89 0.35
-1 5 -4 6.61 0.38
-2 -5 -4 1.72 0.24
2 -5 4 1.5 0.23
2 -5 4 2.11 0.22
-2 -5 -4 1.19 0.18
2 -5 4 1.64 0.2
2 -5 4 2.05 0.28
-2 5 -4 1.61 0.18
2 5 4 1.91 0.27
-2 5 -4 1.37 0.26
-2 5 -4 1.8 0.28
2 5 4 1.08 0.24
3 -5 4 4.5 0.35
-3 -5 -4 4.86 0.3
3 -5 4 4.71 0.24
-3 -5 -4 3.89 0.37
3 -5 4 5.21 0.38
3 5 4 4.91 0.42
-3 5 -4 4.76 0.44
-3 5 -4 4.59 0.37
-3 5 -4 4.49 0.23
3 5 4 4.68 0.4
4 -5 4 4.49 0.22
-4 -5 -4 4.6 0.31
-4 -5 -4 4.86 0.42
4 -5 4 5.45 0.44
4 -5 4 4.48 0.42
4 5 4 4.49 0.46
-4 5 -4 4.99 0.41
4 5 4 4.18 0.45
-4 5 -4 4.71 0.21
-4 5 -4 4.81 0.5
5 -5 4 5.76 0.48
-5 -5 -4 5.13 0.34
-5 -5 -4 5.99 0.49
5 -5 4 5.73 0.52
5 5 4 5.43 0.53
5 5 4 5.55 0.52
-5 5 -4 6.08 0.6
-5 5 -4 6.14 0.46
-6 -5 -4 2.29 0.26
6 -5 4 2.53 0.4
6 -5 4 2.03 0.4
-6 -5 -4 1.55 0.35
-6 5 -4 1.63 0.31
6 5 4 1.64 0.37
-6 5 -4 1.69 0.45
6 5 4 1.56 0.38
7 -5 4 1.46 0.42
-7 -5 -4 1.14 0.36
7 -5 4 1.24 0.35
7 5 4 0.51 0.37
-7 5 -4 1.43 0.31
-7 5 -4 1.45 0.45
7 5 4 0.93 0.37
8 -5 4 1.35 0.38
-8 -5 -4 2.17 0.44
8 -5 4 1.67 0.48
8 5 4 1.83 0.48
8 5 4 1.53 0.46
-8 5 -4 1.11 0.47
9 -5 4 0.44 0.34
9 -5 4 0.43 0.41
-9 -5 -4 0.32 0.34
9 5 4 -0.27 0.39
9 -6 -4 0.11 0.38
9 -6 -4 0 0.41
-9 6 4 0.96 0.5
9 6 -4 -0.19 0.33
9 6 -4 0.25 0.37
-8 -6 4 0.45 0.33
8 -6 -4 0.83 0.37
-8 6 4 0.63 0.47
8 6 -4 -0.46 0.27
8 6 -4 0.26 0.32
7 -6 -4 0 0.27
-7 -6 4 0.31 0.22
-7 -6 4 0.43 0.3
-7 6 4 -0.23 0.37
-7 6 4 -0.21 0.32
7 6 -4 -0.06 0.29
7 6 -4 -0.12 0.23
7 6 -4 0.1 0.17
-6 -6 4 2.64 0.35
6 -6 -4 2.21 0.39
-6 -6 4 1.91 0.37
6 -6 -4 2.48 0.31
-6 6 4 2.51 0.45
6 6 -4 2.57 0.4
6 6 -4 2.28 0.3
-6 6 4 2.44 0.49
6 6 -4 2.07 0.4
-5 -6 4 3.04 0.43
-5 -6 4 2.92 0.37
-5 -6 4 3.1 0.31
5 -6 -4 2.69 0.37
5 -6 -4 3.02 0.31
-5 6 4 3.06 0.47
5 6 -4 3.33 0.44
5 6 -4 2.5 0.34
-5 6 4 2.83 0.42
4 -6 -4 10.33 0.45
4 -6 -4 10.02 0.53
-4 -6 4 10.33 0.45
-4 -6 4 10.26 0.5
-4 6 4 9.93 0.56
4 6 -4 10.18 0.57
4 6 -4 10.61 0.53
-4 6 4 11.01 0.64
4 6 -4 9.71 0.44
3 -6 -4 3.97 0.37
3 -6 -4 4.75 0.32
-3 -6 4 4.58 0.34
-3 -6 4 4.43 0.32
3 6 -4 5.12 0.38
-3 6 4 5.13 0.21
3 6 -4 5.12 0.28
-3 6 4 4.58 0.45
3 6 -4 5.63 0.41
-3 6 4 4.59 0.19
-3 6 4 4.51 0.4
3 6 -4 5.15 0.26
2 -6 -4 2.61 0.29
2 -6 -4 2.55 0.29
-2 -6 4 2.54 0.28
-2 -6 4 2.12 0.26
-2 6 4 2.21 0.18
2 6 -4 2.04 0.14
-2 6 4 1.97 0.31
-2 6 4 2.77 0.19
-2 6 4 2.71 0.34
2 6 -4 2.41 0.3
2 6 -4 2.45 0.32
-1 -6 4 4.61 0.32
1 -6 -4 4.78 0.29
1 -6 -4 4.62 0.32
-1 -6 4 4.21 0.31
-1 6 4 5.09 0.44
-1 6 4 4.67 0.34
-1 6 4 5.01 0.27
1 6 -4 4.61 0.38
1 6 -4 4.77 0.34
0 -6 4 17.8 0.59
0 -6 4 18.17 0.56
0 -6 -4 18.41 0.49
0 -6 -4 18.84 0.58
0 -6 -4 17.79 0.57
0 6 4 18.08 0.47
0 6 -4 18.04 0.66
0 6 4 17.82 0.69
0 6 4 18.96 0.63
0 6 -4 20.09 0.65
1 -6 4 0.98 0.15
-1 -6 -4 0.72 0.17
-1 -6 -4 1.22 0.22
-1 -6 -4 1.13 0.13
1 -6 4 0.92 0.18
1 -6 4 0.94 0.14
1 -6 4 0.88 0.21
1 6 4 1.12 0.22
1 6 4 0.66 0.21
-1 6 -4 0.64 0.19
-1 6 -4 0.82 0.22
1 6 4 1.06 0.13
-2 -6 -4 5.46 0.4
2 -6 4 5.85 0.3
2 -6 4 6 0.39
2 -6 4 5.67 0.31
-2 -6 -4 6.01 0.35
2 -6 4 6.39 0.32
2 6 4 5.55 0.41
-2 6 -4 6.29 0.4
-2 6 -4 6.51 0.47
2 6 4 4.69 0.43
3 -6 4 0.15 0.18
-3 -6 -4 0.02 0.19
3 -6 4 0.13 0.12
3 -6 4 0.04 0.18
-3 -6 -4 -0.01 0.14
3 6 4 -0.11 0.2
3 6 4 -0.06 0.2
-3 6 -4 -0.29 0.2
-3 6 -4 0.1 0.19
4 -6 4 0.62 0.13
-4 -6 -4 0.68 0.27
4 -6 4 0.1 0.21
-4 -6 -4 0.27 0.16
4 -6 4 0.24 0.22
4 6 4 0.3 0.26
-4 6 -4 0.43 0.24
-4 6 -4 0.54 0.29
-4 6 -4 0.71 0.12
4 6 4 0.54 0.26
5 -6 4 1.29 0.34
5 -6 4 1.2 0.17
-5 -6 -4 1 0.21
-5 -6 -4 1 0.29
5 -6 4 0.48 0.28
5 6 4 0.99 0.33
-5 6 -4 1.24 0.39
-5 6 -4 0.85 0.29
5 6 4 1.19 0.35
-6 -6 -4 0.07 0.28
6 -6 4 -0.52 0.26
6 -6 4 -0.02 0.27
-6 -6 -4 -0.17 0.15
6 6 4 0.13 0.31
-6 6 -4 -0.66 0.27
6 6 4 -0.2 0.26
-6 6 -4 -0.32 0.23
7 -6 4 0.22 0.34
7 -6 4 -0.12 0.28
-7 -6 -4 0.13 0.31
7 6 4 -0.1 0.3
-7 6 -4 -0.2 0.34
7 6 4 0.36 0.35
-8 -6 -4 0.82 0.37
8 -6 4 0.3 0.35
8 -6 4 0.35 0.38
8 6 4 0.15 0.35
-8 6 -4 0.32 0.44
8 6 4 0.95 0.45
-8 -7 4 1.53 0.34
8 -7 -4 1.91 0.47
8 7 -4 2.44 0.49
-8 7 4 1.89 0.59
8 7 -4 2.23 0.43
7 -7 -4 3.3 0.5
-7 -7 4 4.91 0.47
7 7 -4 4.51 0.59
-7 7 4 4.01 0.58
7 7 -4 4.02 0.48
-7 7 4 5 0.79
6 -7 -4 2.41 0.41
-6 -7 4 2.37 0.35
6 -7 -4 2.83 0.34
-6 7 4 2.64 0.45
6 7 -4 3.47 0.55
6 7 -4 2.9 0.32
-6 7 4 3.24 0.56
6 7 -4 2.65 0.38
5 -7 -4 2.29 0.38
5 -7 -4 2.32 0.32
-5 -7 4 1.88 0.32
-5 -7 4 2.35 0.3
-5 7 4 1.97 0.45
5 7 -4 2.14 0.38
-5 7 4 1.79 0.37
5 7 -4 1.77 0.28
-4 -7 4 0.01 0.18
4 -7 -4 -0.14 0.22
-4 -7 4 0.03 0.14
4 -7 -4 0.07 0.16
4 7 -4 0.06 0.21
-4 7 4 0.41 0.32
4 7 -4 0.03 0.21
4 7 -4 -0.06 0.15
-4 7 4 0.22 0.24
3 -7 -4 2.31 0.3
3 -7 -4 2.56 0.34
-3 -7 4 2.69 0.33
-3 -7 4 2.64 0.29
3 7 -4 1.99 0.2
-3 7 4 2.54 0.37
3 7 -4 2.5 0.35
-3 7 4 2.52 0.2
3 7 -4 2.42 0.34
-3 7 4 2.04 0.37
-3 7 4 2.03 0.17
3 7 -4 1.85 0.21
2 -7 -4 0.5 0.19
-2 -7 4 0.91 0.19
-2 -7 4 0.81 0.2
2 -7 -4 0.49 0.18
2 7 -4 0.61 0.21
-2 7 4 0.86 0.24
-2 7 4 0.67 0.27
2 7 -4 0.91 0.25
-2 7 4 0.62 0.13
-2 7 4 0.49 0.13
-1 -7 4 12.48 0.51
1 -7 -4 11.95 0.49
1 -7 -4 11.41 0.46
-1 -7 4 13.27 0.51
1 7 -4 11.39 0.53
-1 7 4 12.76 0.44
-1 7 4 12.39 0.64
1 7 -4 12.48 0.59
-1 7 4 13.25 0.55
0 -7 -4 3.64 0.25
0 -7 -4 3.56 0.31
0 -7 4 3.68 0.34
0 -7 4 3.91 0.32
0 -7 -4 4.27 0.32
0 7 4 4.13 0.24
0 7 4 3.4 0.43
0 7 4 3.89 0.34
0 7 -4 3.65 0.41
0 7 -4 4.49 0.36
1 -7 4 6.02 0.35
-1 -7 -4 5.97 0.37
1 -7 4 5.33 0.23
-1 -7 -4 5.83 0.24
1 -7 4 5.79 0.23
-1 -7 -4 5.76 0.41
1 -7 4 5.67 0.4
-1 7 -4 5.46 0.46
-1 7 -4 5.83 0.39
1 7 4 5.48 0.23
1 7 4 5.15 0.46
1 7 4 6.04 0.41
2 -7 4 9.64 0.39
-2 -7 -4 9.93 0.51
-2 -7 -4 9.07 0.45
2 -7 4 9.16 0.38
2 -7 4 9.55 0.42
2 -7 4 9.6 0.5
2 7 4 9.96 0.57
2 7 4 8.99 0.49
-2 7 -4 8.69 0.49
-2 7 -4 9.82 0.59
3 -7 4 2.79 0.27
3 -7 4 2.45 0.35
3 -7 4 2.35 0.31
-3 -7 -4 2.69 0.32
-3 -7 -4 3.01 0.38
-3 7 -4 3.1 0.42
3 7 4 2.8 0.42
-3 7 -4 2.37 0.32
3 7 4 2.52 0.39
4 -7 4 0.6 0.26
4 -7 4 0.54 0.15
4 -7 4 0.99 0.27
-4 -7 -4 0.56 0.2
-4 -7 -4 0.64 0.28
4 7 4 1.07 0.3
-4 7 -4 0.89 0.27
4 7 4 0.66 0.29
-4 7 -4 0.88 0.34
5 -7 4 5.21 0.53
-5 -7 -4 5.36 0.4
-5 -7 -4 5.45 0.53
5 -7 4 4.71 0.51
5 7 4 6.18 0.58
-5 7 -4 4.95 0.63
-5 7 -4 6.12 0.51
5 7 4 5.54 0.57
6 -7 4 3.18 0.47
-6 -7 -4 3.79 0.54
-6 -7 -4 3.59 0.37
6 -7 4 2.86 0.44
6 7 4 3.92 0.58
6 7 4 3.49 0.53
-6 7 -4 2.9 0.4
-6 7 -4 3.38 0.57
7 -7 4 0.97 0.39
7 -7 4 0.49 0.36
-7 -7 -4 0.05 0.31
7 7 4 -0.32 0.35
7 7 4 0.43 0.36
-7 7 -4 0.87 0.47
8 -7 4 0.87 0.4
8 -7 4 1.18 0.44
-8 -7 -4 0.19 0.36
8 7 4 0.3 0.4
-8 7 -4 0.63 0.49
8 7 4 1.04 0.48
8 -8 -4 2.06 0.51
8 -8 -4 2.16 0.51
-8 -8 4 4.14 0.52
8 8 -4 2.55 0.47
8 8 -4 2.61 0.52
-8 8 4 2.76 0.65
7 -8 -4 0.34 0.38
-7 -8 4 0.89 0.3
7 8 -4 0.81 0.34
7 8 -4 0.52 0.37
-7 8 4 0.18 0.37
-7 8 4 0.3 0.42
-6 -8 4 1.22 0.29
6 -8 -4 0.52 0.21
6 -8 -4 0.99 0.36
-6 8 4 1.16 0.4
6 8 -4 1.3 0.39
-6 8 4 0.76 0.41
6 8 -4 0.75 0.32
-5 -8 4 3.37 0.33
5 -8 -4 3.78 0.38
-5 -8 4 3.86 0.44
5 -8 -4 4.21 0.51
-5 8 4 4.03 0.58
-5 8 4 3.55 0.53
5 8 -4 3.32 0.46
5 8 -4 3.41 0.34
5 8 -4 3.49 0.51
4 -8 -4 9.24 0.5
4 -8 -4 8.86 0.59
-4 -8 4 9.07 0.52
-4 -8 4 9.27 0.45
-4 8 4 8.75 0.58
4 8 -4 9.7 0.63
-4 8 4 7.56 0.67
4 8 -4 9.26 0.57
4 8 -4 8.49 0.41
-3 -8 4 6.85 0.47
3 -8 -4 6.87 0.47
3 -8 -4 6.84 0.44
-3 -8 4 5.79 0.38
-3 8 4 7 0.63
3 8 -4 7.18 0.54
-3 8 4 6.58 0.31
3 8 -4 7.49 0.27
3 8 -4 6.88 0.49
-3 8 4 6.4 0.5
-2 -8 4 15.9 0.58
2 -8 -4 15.88 0.61
-2 -8 4 16.31 0.62
2 -8 -4 15.16 0.6
-2 8 4 16.05 0.65
-2 8 4 16 0.51
-2 8 4 16.16 0.79
2 8 -4 15.74 0.71
2 8 -4 14.56 0.64
-1 -8 4 36.02 0.99
-1 -8 4 38.53 0.99
1 -8 -4 36.99 0.99
1 -8 -4 37.43 0.93
1 8 -4 37.58 1.12
-1 8 4 37.6 1.01
-1 8 4 37.5 1.18
1 8 -4 36.73 1.05
-1 8 4 36.19 0.92
0 -8 4 2.84 0.34
0 -8 4 2.55 0.31
0 -8 -4 2.58 0.34
0 -8 -4 2.88 0.33
0 -8 -4 3.14 0.26
0 8 4 3.26 0.34
0 8 4 3.91 0.47
0 8 -4 2.29 0.33
0 8 -4 2.73 0.37
1 -8 4 5.19 0.21
-1 -8 -4 5.95 0.26
1 -8 4 5.29 0.21
1 -8 4 6.04 0.43
1 -8 4 5.09 0.37
-1 -8 -4 5.43 0.39
-1 -8 -4 5.31 0.41
-1 8 -4 5.62 0.51
1 8 4 5.51 0.25
-1 8 -4 5.69 0.43
1 8 4 4.89 0.47
1 8 4 5.9 0.4
-2 -8 -4 45.22 1.23
2 -8 4 43.68 1.07
2 -8 4 42.78 1.01
2 -8 4 44.03 1.01
2 -8 4 43.56 1.18
-2 -8 -4 45.86 1.14
-2 8 -4 43.29 1.33
-2 8 -4 43.82 1.18
2 8 4 44.37 1.17
2 8 4 45.52 1.32
3 -8 4 10.11 0.48
3 -8 4 9.87 0.59
3 -8 4 9.63 0.44
-3 -8 -4 9.67 0.61
-3 -8 -4 9.4 0.5
-3 8 -4 10.14 0.55
3 8 4 9.73 0.56
-3 8 -4 9.7 0.7
3 8 4 9.01 0.63
4 -8 4 -0.19 0.23
4 -8 4 -0.37 0.19
4 -8 4 -0.12 0.14
-4 -8 -4 -0.13 0.23
-4 -8 -4 0.1 0.18
-4 8 -4 0.13 0.24
4 8 4 0.3 0.28
-4 8 -4 0.31 0.32
4 8 4 0.02 0.25
5 -8 4 2.21 0.38
-5 -8 -4 1.9 0.3
5 -8 4 1.92 0.38
-5 -8 -4 2.42 0.41
5 8 4 1.39 0.38
5 8 4 1.91 0.41
-5 8 -4 1.39 0.34
-5 8 -4 2.16 0.45
-6 -8 -4 5.7 0.61
-6 -8 -4 7.03 0.49
6 -8 4 5.6 0.6
6 -8 4 6.72 0.63
6 8 4 6.97 0.67
-6 8 -4 6.3 0.77
6 8 4 6.37 0.7
-7 -8 -4 0.27 0.36
7 -8 4 -0.22 0.31
7 -8 4 0.14 0.34
-7 8 -4 0.27 0.42
7 8 4 0.05 0.33
7 8 4 0.56 0.37
8 -8 4 0.66 0.41
8 -8 4 0.59 0.39
8 8 4 1.39 0.46
7 -9 -4 6.74 0.71
-7 -9 4 6.66 0.61
7 9 -4 7.35 0.67
7 9 -4 7.19 0.74
-7 9 4 7.3 0.9
-7 9 4 7.41 0.76
-6 -9 4 5.26 0.52
6 -9 -4 4.38 0.62
6 -9 -4 3.98 0.4
-6 9 4 4.01 0.63
6 9 -4 4.96 0.57
-6 9 4 5.06 0.7
6 9 -4 3.92 0.56
5 -9 -4 1.15 0.26
-5 -9 4 1.4 0.33
5 -9 -4 0.63 0.33
-5 9 4 1.6 0.46
5 9 -4 0.79 0.33
-5 9 4 1.13 0.35
5 9 -4 1.4 0.37
-4 -9 4 2.74 0.32
4 -9 -4 2.87 0.37
4 -9 -4 3.16 0.42
-4 -9 4 2.84 0.42
4 9 -4 3.34 0.52
-4 9 4 2.53 0.48
4 9 -4 3.11 0.45
-4 9 4 3.29 0.48
3 -9 -4 3.81 0.4
3 -9 -4 4.28 0.47
-3 -9 4 4.08 0.34
-3 -9 4 3.36 0.4
-3 9 4 3.64 0.55
3 9 -4 3.17 0.42
-3 9 4 3.57 0.28
-3 9 4 3.54 0.44
3 9 -4 3.86 0.53
-2 -9 4 18.31 0.71
2 -9 -4 17.62 0.68
-2 -9 4 18.16 0.65
2 -9 -4 17.38 0.68
-2 9 4 18.78 0.7
2 9 -4 17.9 0.82
2 9 -4 18.72 0.76
-2 9 4 17.82 0.59
-2 9 4 17.85 0.89
-1 -9 4 16.42 0.63
-1 -9 4 17.14 0.68
1 -9 -4 16.61 0.67
1 -9 -4 17.08 0.61
1 9 -4 17.43 0.79
-1 9 4 17.72 0.66
1 9 -4 17.38 0.72
-1 9 4 16.82 0.83
-1 9 4 15.97 0.59
0 -9 -4 3.39 0.38
0 -9 4 3.08 0.35
0 -9 -4 3.69 0.29
0 -9 4 3.35 0.37
0 9 4 2.9 0.35
0 9 -4 3.38 0.47
0 9 -4 3.19 0.41
0 9 4 3.33 0.47
1 -9 4 10.39 0.56
-1 -9 -4 10.34 0.37
-1 -9 -4 10.16 0.57
-1 -9 -4 8.14 0.5
1 -9 4 10.52 0.52
-1 9 -4 10.58 0.55
1 9 4 10.97 0.53
1 9 4 10.91 0.67
-1 9 -4 11.83 0.7
-2 -9 -4 34.95 1.02
2 -9 4 34.98 1.07
2 -9 4 35.9 0.86
-2 -9 -4 36.94 1.11
2 -9 4 36.11 0.98
2 9 4 35.42 1.04
-2 9 -4 38.04 1.09
2 9 4 34.51 1.22
-2 9 -4 36.67 1.26
3 -9 4 15.83 0.59
3 -9 4 16.29 0.74
-3 -9 -4 14.04 0.76
-3 -9 -4 16.46 0.68
3 -9 4 15.47 0.6
3 9 4 14.95 0.71
-3 9 -4 15.42 0.86
3 9 4 14.28 0.8
-3 9 -4 15.54 0.7
4 -9 4 0.68 0.3
4 -9 4 0.48 0.25
-4 -9 -4 0.34 0.29
4 -9 4 0.71 0.2
-4 -9 -4 0.71 0.24
4 9 4 0.66 0.31
-4 9 -4 1.11 0.39
4 9 4 0.96 0.36
-4 9 -4 0.82 0.28
-5 -9 -4 5.14 0.6
-5 -9 -4 5.31 0.47
5 -9 4 5.94 0.59
5 -9 4 5.66 0.52
-5 9 -4 5.51 0.72
-5 9 -4 6.51 0.53
5 9 4 5.5 0.63
5 9 4 5.19 0.57
6 -9 4 3.1 0.46
-6 -9 -4 2.71 0.41
6 -9 4 2.91 0.5
-6 -9 -4 3 0.53
-6 9 -4 2.32 0.57
6 9 4 2.08 0.49
6 9 4 3.17 0.52
7 -9 4 2.99 0.51
7 -9 4 3.91 0.58
-7 -9 -4 2.98 0.56
7 9 4 3.36 0.56
-7 9 -4 4.42 0.71
7 9 4 2.87 0.56
-7 -10 4 1.18 0.36
7 -10 -4 1.25 0.47
7 10 -4 1.4 0.43
7 10 -4 1.46 0.47
-7 10 4 1.4 0.44
-7 10 4 2.47 0.62
-6 -10 4 7.03 0.61
6 -10 -4 6.97 0.72
-6 10 4 7.79 0.92
-6 10 4 7.45 0.73
6 10 -4 5.8 0.7
6 10 -4 7.32 0.7
-5 -10 4 4.11 0.51
5 -10 -4 4.44 0.6
5 -10 -4 3.6 0.45
-5 10 4 4.25 0.56
-5 10 4 3.03 0.57
5 10 -4 4.61 0.63
5 10 -4 4.05 0.54
-4 -10 4 2.24 0.37
4 -10 -4 2.24 0.41
4 -10 -4 1.92 0.33
4 10 -4 3.15 0.5
-4 10 4 2.36 0.41
4 10 -4 2.64 0.42
-4 10 4 2.92 0.54
3 -10 -4 1.4 0.33
-3 -10 4 1.46 0.26
3 -10 -4 1.25 0.31
-3 -10 4 1.28 0.3
3 10 -4 1.02 0.36
3 10 -4 1.8 0.35
-3 10 4 1.59 0.42
-3 10 4 1.77 0.33
-2 -10 4 0.06 0.19
2 -10 -4 0.1 0.24
2 -10 -4 -0.11 0.2
-2 -10 4 0.07 0.22
2 10 -4 0.23 0.24
-2 10 4 -0.03 0.22
-2 10 4 0.17 0.16
-2 10 4 0.12 0.32
2 10 -4 0.23 0.3
1 -10 -4 0.34 0.24
-1 -10 4 0.42 0.23
1 -10 -4 0.59 0.22
-1 -10 4 0.61 0.23
-1 10 4 0.47 0.22
-1 10 4 0.27 0.32
-1 10 4 0.23 0.19
1 10 -4 0.21 0.3
1 10 -4 0.18 0.23
0 -10 4 0.46 0.23
0 -10 4 0.11 0.21
0 -10 -4 0.09 0.2
0 -10 -4 0.04 0.15
0 10 4 -0.01 0.2
0 10 -4 -0.11 0.27
0 10 4 -0.04 0.2
0 10 -4 0.39 0.27
0 10 4 0.32 0.3
-1 -10 -4 -0.01 0.21
-1 -10 -4 0.01 0.11
1 -10 4 0.26 0.23
1 -10 4 0.25 0.21
-1 -10 -4 0.35 0.27
-1 10 -4 0.3 0.31
-1 10 -4 0.22 0.25
1 10 4 -0.13 0.2
1 10 4 0 0.28
-2 -10 -4 2.94 0.42
2 -10 4 2.62 0.33
2 -10 4 3.4 0.45
-2 -10 -4 2.5 0.39
2 10 4 3.47 0.39
-2 10 -4 4.09 0.47
2 10 4 2.58 0.45
-2 10 -4 3.39 0.52
3 -10 4 0.15 0.25
3 -10 4 0.19 0.2
-3 -10 -4 -0.1 0.26
-3 -10 -4 0.08 0.22
-3 10 -4 -0.26 0.22
-3 10 -4 0.01 0.33
3 10 4 0.39 0.25
3 10 4 0.41 0.33
-4 -10 -4 0.75 0.29
4 -10 4 0.74 0.32
-4 -10 -4 1.37 0.37
4 -10 4 0.87 0.22
-4 10 -4 1.01 0.34
4 10 4 0.69 0.31
4 10 4 1.27 0.39
-4 10 -4 1.13 0.41
-5 -10 -4 2.98 0.41
-5 -10 -4 2.62 0.49
5 -10 4 2.44 0.44
5 10 4 2.41 0.5
-5 10 -4 2.65 0.56
-6 -10 -4 -0.06 0.22
6 -10 4 0.4 0.34
-6 -10 -4 0.03 0.34
-6 10 -4 0.54 0.46
6 10 4 -0.22 0.31
-6 -11 4 0.1 0.26
6 -11 -4 0.17 0.38
-6 11 4 0.53 0.38
6 11 -4 -0.36 0.3
-6 11 4 -0.18 0.47
6 11 -4 0.19 0.37
5 -11 -4 -0.23 0.32
5 -11 -4 0.17 0.24
-5 -11 4 0.09 0.27
5 11 -4 0.04 0.36
5 11 -4 -0.07 0.3
-5 11 4 0.5 0.41
-5 11 4 0.22 0.31
4 -11 -4 1.11 0.31
4 -11 -4 1.28 0.37
-4 -11 4 0.68 0.3
-4 11 4 1.26 0.37
4 11 -4 1.27 0.43
4 11 -4 1.31 0.38
-4 11 4 0.73 0.43
-3 -11 4 12 0.67
3 -11 -4 12.16 0.66
3 -11 -4 12.83 0.7
-3 -11 4 12.29 0.57
-3 11 4 12.52 0.66
-3 11 4 11.2 0.9
3 11 -4 13.4 0.73
3 11 -4 12.15 0.81
-2 -11 4 6.15 0.52
-2 -11 4 7.21 0.47
2 -11 -4 6.32 0.51
2 -11 -4 5.64 0.52
-2 11 4 7.21 0.52
-2 11 4 5.96 0.43
-2 11 4 7.16 0.7
2 11 -4 7.73 0.69
2 11 -4 5.94 0.54
1 -11 -4 0.34 0.25
-1 -11 4 0.04 0.23
1 -11 -4 0.17 0.2
-1 -11 4 0.23 0.21
-1 11 4 0.33 0.22
1 11 -4 0.05 0.33
-1 11 4 0.22 0.36
1 11 -4 0.35 0.27
-1 11 4 0.31 0.23
0 -11 -4 6.02 0.39
0 -11 4 6.74 0.51
0 -11 -4 6.78 0.52
0 -11 4 6.52 0.5
0 11 4 6.88 0.68
0 11 4 6.05 0.45
0 11 4 6.5 0.48
0 11 -4 6.61 0.54
0 11 -4 6.34 0.67
1 -11 4 10.55 0.63
1 -11 4 10.85 0.6
-1 -11 -4 10.37 0.61
-1 11 -4 10.74 0.77
1 11 4 10.73 0.61
1 11 4 11.18 0.61
1 11 4 9.83 0.78
-1 11 -4 10.98 0.65
2 -11 4 3.71 0.44
-2 -11 -4 3.59 0.47
-2 -11 -4 4.01 0.55
2 -11 4 3.5 0.48
-2 11 -4 3.5 0.49
2 11 4 4.71 0.62
-2 11 -4 5.07 0.68
-3 -11 -4 4.48 0.5
-3 -11 -4 5.79 0.61
3 -11 4 4.77 0.45
3 -11 4 5.25 0.57
-3 11 -4 3.99 0.62
-3 11 -4 6.24 0.58
3 11 4 4.44 0.68
-4 -11 -4 7.52 0.59
4 -11 4 6.74 0.48
-4 -11 -4 6.32 0.64
4 -11 4 7.11 0.67
-4 11 -4 6.15 0.59
-4 11 -4 6.17 0.75
4 11 4 7.26 0.75
-5 -11 -4 0.1 0.27
-5 -11 -4 0.51 0.38
5 -11 4 0.04 0.33
5 11 4 0.14 0.37
-5 11 -4 0.39 0.45
-6 -11 -4 0.4 0.37
6 -11 4 0.47 0.35
-6 -11 -4 0.48 0.28
6 11 4 0.23 0.43
-6 11 -4 0.55 0.47
5 -12 -4 1.05 0.31
-5 -12 4 0.32 0.32
5 -12 -4 0.92 0.38
5 12 -4 0.8 0.44
-5 12 4 0.91 0.5
5 12 -4 0.53 0.35
4 -12 -4 2.51 0.39
-4 -12 4 2.28 0.42
4 -12 -4 2.66 0.44
4 12 -4 2.5 0.47
-4 12 4 1.52 0.54
4 12 -4 2.81 0.52
-3 -12 4 4.74 0.52
3 -12 -4 4.72 0.51
3 -12 -4 4.67 0.57
3 12 -4 4.25 0.55
3 12 -4 3.59 0.55
-3 12 4 4.11 0.66
2 -12 -4 1.8 0.37
2 -12 -4 1.42 0.31
-2 -12 4 1.72 0.29
-2 -12 4 1.25 0.34
2 12 -4 1.36 0.38
2 12 -4 1.84 0.44
-2 12 4 1.78 0.48
-1 -12 4 1.81 0.33
-1 -12 4 1.45 0.34
1 -12 -4 1.18 0.34
1 -12 -4 1.83 0.3
-1 12 4 1.8 0.32
-1 12 4 2.05 0.51
1 12 -4 2.02 0.38
1 12 -4 1.37 0.43
0 -12 4 15.88 0.74
0 -12 -4 16.56 0.79
0 -12 4 16.23 0.76
0 12 4 16.78 0.74
0 12 4 15.66 1
0 12 -4 15.97 0.83
0 12 -4 16.95 0.99
1 -12 4 21.13 0.88
-1 -12 -4 20.42 0.87
1 -12 4 20.7 0.85
1 12 4 20.32 1.06
1 12 4 22.22 0.88
-1 12 -4 20.94 0.91
-1 12 -4 21.87 1.08
2 -12 4 10.34 0.62
-2 -12 -4 10.14 0.65
2 -12 4 10 0.67
2 12 4 10.24 0.69
-2 12 -4 11.29 0.7
-2 12 -4 10.63 0.89
2 12 4 12.56 0.87
3 -12 4 8.37 0.57
3 -12 4 8.83 0.67
-3 -12 -4 11.07 0.68
-3 -12 -4 8.92 0.72
-3 12 -4 8.2 0.66
-3 12 -4 9.26 0.85
3 12 4 9.28 0.83
4 -12 4 15.61 0.9
-4 -12 -4 15.8 0.92
-4 -12 -4 15.48 0.81
-4 12 -4 15.88 1.05
4 12 4 15.12 1.04
-5 -12 -4 3.02 0.45
-5 -12 -4 5.19 0.69
5 -12 4 3.41 0.55
5 12 4 5.2 0.77
-5 12 -4 2.56 0.62
4 -13 -4 3.16 0.5
-4 -13 4 3.49 0.49
4 -13 -4 2.53 0.41
4 13 -4 2.79 0.51
4 13 -4 2.89 0.56
-4 13 4 2.76 0.61
3 -13 -4 0.73 0.3
-3 -13 4 0.31 0.32
3 -13 -4 0.65 0.32
3 13 -4 0.87 0.43
-3 13 4 0.98 0.49
3 13 -4 0.04 0.29
-2 -13 4 2.08 0.42
2 -13 -4 2.84 0.41
2 -13 -4 1.79 0.38
2 13 -4 2.96 0.56
-2 13 4 1.96 0.54
2 13 -4 1.77 0.43
-1 -13 4 3.21 0.44
1 -13 -4 3.94 0.53
-1 -13 4 2.66 0.44
1 13 -4 3.81 0.59
1 13 -4 2.92 0.49
-1 13 4 3.11 0.62
0 -13 4 6.47 0.59
0 -13 -4 7.96 0.64
0 -13 4 7.1 0.59
0 13 -4 5.93 0.59
0 13 4 7.13 0.55
0 13 -4 6.74 0.8
0 13 4 6.42 0.8
-1 -13 -4 0.98 0.33
1 -13 4 1.74 0.37
1 -13 4 1.75 0.37
1 13 4 1.31 0.34
1 13 4 1.34 0.48
-1 13 -4 1.38 0.46
-1 13 -4 1.54 0.4
2 -13 4 4.66 0.52
-2 -13 -4 4.37 0.56
2 -13 4 5.79 0.6
-2 13 -4 3.18 0.62
2 13 4 4.75 0.53
2 13 4 5.38 0.76
-2 13 -4 5.94 0.58
3 -13 4 2.83 0.4
3 -13 4 2.89 0.49
-3 -13 -4 2 0.4
3 13 4 3.79 0.58
3 13 4 2.73 0.55
-3 13 -4 3.42 0.63
-4 -13 -4 4.6 0.56
4 -13 4 3.55 0.53
4 13 4 3.05 0.62
-4 13 -4 3.72 0.66
3 -14 -4 0.52 0.32
3 14 -4 0.53 0.38
3 14 -4 0.33 0.43
-2 -14 4 0.32 0.31
2 -14 -4 0.07 0.28
2 14 -4 0.87 0.48
2 14 -4 0.31 0.32
-2 14 4 0.87 0.52
-1 -14 4 -0.2 0.29
1 -14 -4 0.41 0.31
1 14 -4 0.35 0.34
-1 14 4 0.9 0.53
1 14 -4 1.12 0.47
0 -14 4 0.05 0.27
0 -14 -4 0.68 0.32
0 -14 4 0.69 0.33
0 14 -4 0.96 0.56
0 14 4 0.3 0.26
0 14 4 0.5 0.44
0 14 -4 0.29 0.34
1 -14 4 1.68 0.4
-1 -14 -4 1.87 0.42
1 -14 4 2.4 0.42
1 14 4 1.97 0.4
-1 14 -4 1.99 0.54
1 14 4 2.1 0.57
-1 14 -4 1.95 0.43
2 -14 4 0.87 0.36
-2 -14 -4 0.39 0.35
2 -14 4 0.83 0.33
-2 14 -4 0.68 0.48
2 14 4 -0.24 0.4
-2 14 -4 0.85 0.37
2 14 4 1.24 0.37
-9 0 5 -0.09 0.34
9 0 -5 0.34 0.28
9 0 -5 0.04 0.34
-8 0 5 -0.1 0.32
8 0 -5 0.18 0.36
8 0 -5 0.24 0.26
7 0 -5 -0.14 0.14
7 0 -5 -0.04 0.19
-7 0 5 -0.32 0.15
-7 0 5 0.03 0.29
6 0 -5 -0.01 0.14
6 0 -5 0.17 0.2
-6 0 5 0.17 0.24
-6 0 5 0.13 0.26
-6 0 5 -0.19 0.13
5 0 -5 -0.05 0.12
-5 0 5 -0.22 0.11
5 0 -5 0.03 0.15
-5 0 5 -0.14 0.21
-5 0 5 -0.15 0.19
5 0 -5 0.36 0.14
-4 0 5 -0.08 0.18
-4 0 5 0.01 0.17
4 0 -5 -0.09 0.13
4 0 -5 -0.02 0.11
4 0 -5 0.06 0.11
3 0 -5 -0.03 0.11
3 0 -5 0 0.1
3 0 -5 0.05 0.1
3 0 -5 -0.27 0.11
-3 0 5 0.19 0.18
-3 0 5 -0.07 0.15
3 0 -5 -0.08 0.1
-3 0 5 0.18 0.15
2 0 -5 0.11 0.16
2 0 -5 -0.06 0.1
-2 0 5 -0.01 0.11
-2 0 5 0.1 0.09
-2 0 5 -0.08 0.11
-2 0 5 -0.14 0.13
2 0 -5 -0.05 0.09
-2 0 5 -0.08 0.16
2 0 -5 0.17 0.13
2 0 -5 -0.11 0.11
-1 0 5 0.02 0.09
1 0 -5 -0.07 0.11
-1 0 5 0.02 0.11
1 0 -5 0.04 0.1
1 0 -5 0.14 0.12
1 0 -5 0.03 0.14
-1 0 5 0.08 0.14
-1 0 5 0.09 0.12
0 0 -5 -0.02 0.12
0 0 5 0 0.07
0 0 -5 0.11 0.14
0 0 -5 0.11 0.11
0 0 -5 0.01 0.1
0 0 5 -0.04 0.11
0 0 5 0.04 0.15
0 0 5 -0.07 0.11
0 0 5 -0.07 0.09
0 0 5 0.02 0.07
1 0 5 0.14 0.09
1 0 5 0.09 0.12
1 0 5 0.03 0.15
-1 0 -5 -0.08 0.12
-1 0 -5 -0.06 0.14
1 0 5 0.12 0.11
-1 0 -5 -0.07 0.08
1 0 5 -0.08 0.13
-1 0 -5 0.01 0.13
-2 0 -5 0.09 0.14
2 0 5 0.03 0.11
-2 0 -5 0.1 0.1
2 0 5 0.03 0.07
-2 0 -5 0.08 0.15
-2 0 -5 0.03 0.07
2 0 5 -0.04 0.16
-2 0 -5 -0.09 0.16
2 0 5 0.06 0.14
2 0 5 -0.03 0.14
-3 0 -5 -0.11 0.17
-3 0 -5 0.22 0.19
3 0 5 0.16 0.13
-3 0 -5 0.05 0.11
3 0 5 -0.17 0.14
-3 0 -5 0.04 0.05
-4 0 -5 0.04 0.19
4 0 5 0.01 0.19
4 0 5 0.08 0.13
-4 0 -5 -0.06 0.19
5 0 5 0.05 0.16
-5 0 -5 -0.19 0.22
-5 0 -5 0.12 0.22
5 0 5 0.01 0.2
-6 0 -5 -0.21 0.22
6 0 5 -0.07 0.18
6 0 5 0.17 0.27
-6 0 -5 0.19 0.27
-7 0 -5 0.39 0.32
7 0 5 0.24 0.21
7 0 5 -0.12 0.29
-7 0 -5 0.27 0.29
8 0 5 0.72 0.39
-8 0 -5 0.15 0.27
-8 0 -5 -0.04 0.33
8 0 5 0.3 0.24
9 0 5 0.07 0.39
-9 0 -5 -0.22 0.37
-9 0 -5 0.66 0.37
9 -1 -5 9.24 0.67
-9 -1 5 8.27 0.85
9 -1 -5 9.42 0.87
-9 1 5 9.07 0.85
9 1 -5 8.79 0.63
9 1 -5 9.4 0.84
8 -1 -5 7.69 0.73
-8 -1 5 7.36 0.74
-8 -1 5 7.71 0.5
8 -1 -5 7.42 0.57
8 1 -5 7.43 0.55
-8 1 5 8.22 0.77
8 1 -5 7.16 0.67
-7 -1 5 5.69 0.42
7 -1 -5 5.38 0.34
-7 -1 5 6.17 0.64
7 -1 -5 5.72 0.47
7 1 -5 5.69 0.56
7 1 -5 6.14 0.38
-7 1 5 5.99 0.63
-7 1 5 6.63 0.61
-7 1 5 6.07 0.34
7 1 -5 5.57 0.44
6 -1 -5 27.03 0.85
-6 -1 5 27.46 0.99
-6 -1 5 27.07 0.99
-6 -1 5 26.76 0.79
6 -1 -5 26.85 0.73
6 -1 -5 24.13 0.76
6 1 -5 27.44 0.83
6 1 -5 27.98 0.77
-6 1 5 29.11 1.05
-6 1 5 26.59 0.7
-6 1 5 28.3 1.02
5 -1 -5 9.52 0.39
-5 -1 5 9.13 0.41
5 -1 -5 10.55 0.49
-5 -1 5 10.04 0.56
-5 -1 5 9.39 0.54
5 -1 -5 9.78 0.37
5 1 -5 9.91 0.41
-5 1 5 9.66 0.35
-5 1 5 9.63 0.55
-5 1 5 9.42 0.56
5 1 -5 9.71 0.44
4 -1 -5 31.08 0.81
4 -1 -5 30.48 0.66
-4 -1 5 30.7 0.88
-4 -1 5 32.12 0.88
4 -1 -5 31.21 0.75
4 -1 -5 30.02 0.68
-4 1 5 29.51 0.89
-4 1 5 29.2 0.9
4 1 -5 30.15 0.76
4 1 -5 30.97 0.77
-3 -1 5 17.29 0.54
3 -1 -5 16.68 0.55
-3 -1 5 16.58 0.52
3 -1 -5 16.94 0.4
3 -1 -5 17.32 0.49
3 -1 -5 16.64 0.52
-3 -1 5 16.37 0.56
3 -1 -5 16.92 0.39
-3 1 5 16.55 0.48
3 1 -5 16.87 0.48
-3 1 5 16.7 0.56
3 1 -5 16.74 0.53
3 1 -5 17.16 0.47
3 1 -5 16.79 0.49
-3 1 5 15.09 0.56
2 -1 -5 1.97 0.14
2 -1 -5 2.14 0.27
-2 -1 5 2.04 0.23
2 -1 -5 2.42 0.22
-2 -1 5 2.43 0.26
2 -1 -5 2.36 0.23
2 -1 -5 2.1 0.2
-2 -1 5 2.23 0.21
2 1 -5 1.82 0.22
-2 1 5 2.1 0.13
2 1 -5 2.09 0.19
2 1 -5 2.33 0.24
-2 1 5 1.9 0.23
-2 1 5 1.99 0.25
2 1 -5 2.37 0.21
2 1 -5 2.35 0.2
-2 1 5 2.2 0.22
-2 1 5 1.89 0.23
2 1 -5 1.93 0.2
1 -1 -5 255.76 4.34
-1 -1 5 253.41 4.55
1 -1 -5 249.02 4.36
-1 -1 5 254.52 4.46
1 -1 -5 248.11 4.5
1 -1 -5 260.23 4.43
-1 -1 5 253.05 4.35
1 -1 -5 253.37 4.61
1 1 -5 259.74 4.47
1 1 -5 249.83 4.35
1 1 -5 254.49 4.37
1 1 -5 254.56 4.37
-1 1 5 255.88 4.42
-1 1 5 249.5 4.33
-1 1 5 249.22 4.37
1 1 -5 261.53 4.56
-1 1 5 252.23 4.6
-1 1 5 254.51 4.51
0 -1 -5 16.27 0.46
0 -1 -5 16.68 0.51
0 -1 -5 15.87 0.4
0 -1 5 16.5 0.47
0 -1 5 16.22 0.37
0 -1 5 16.55 0.47
0 -1 5 15.93 0.44
0 -1 -5 16.37 0.42
0 1 -5 16.15 0.46
0 1 5 15.77 0.4
0 1 5 16.35 0.43
0 1 5 16.09 0.51
0 1 5 16.53 0.41
0 1 -5 16.24 0.37
0 1 -5 16.4 0.47
0 1 -5 16.41 0.42
0 1 -5 16.57 0.45
0 1 -5 16.4 0.42
1 -1 5 23.87 0.63
1 -1 5 23.42 0.58
-1 -1 -5 23.61 0.51
1 -1 5 23.3 0.59
-1 -1 -5 23.81 0.66
-1 -1 -5 25 0.65
-1 -1 -5 23.7 0.53
1 -1 5 22.6 0.61
-1 1 -5 23.72 0.64
-1 1 -5 23.59 0.51
-1 1 -5 23.62 0.59
1 1 5 24.72 0.66
-1 1 -5 23.81 0.62
-1 1 -5 23.39 0.51
-1 1 -5 24.01 0.58
1 1 5 23.53 0.53
1 1 5 24.51 0.52
-2 -1 -5 3.98 0.32
-2 -1 -5 3.93 0.19
2 -1 5 4.06 0.25
2 -1 5 3.88 0.3
-2 -1 -5 4 0.32
2 -1 5 3.83 0.31
-2 -1 -5 3.86 0.2
2 -1 5 4.19 0.32
2 1 5 3.96 0.2
-2 1 -5 4.08 0.16
2 1 5 3.92 0.31
2 1 5 4.02 0.19
-2 1 -5 4.1 0.29
-2 1 -5 4.3 0.25
-2 1 -5 3.78 0.15
-2 1 -5 3.9 0.31
2 1 5 4.43 0.34
-2 1 -5 4.24 0.33
-3 -1 -5 37.37 0.98
3 -1 5 35.95 0.99
-3 -1 -5 37.88 0.79
-3 -1 -5 39.41 1.04
3 -1 5 37.62 0.88
-3 -1 -5 37.88 0.73
3 1 5 37.32 1.01
3 1 5 38.15 0.74
3 1 5 38.11 0.8
-3 1 -5 38.23 1.03
-3 1 -5 38.28 0.99
-4 -1 -5 4.52 0.39
-4 -1 -5 5.16 0.43
-4 -1 -5 4.83 0.17
-4 -1 -5 4.55 0.25
4 -1 5 4.18 0.41
4 -1 5 4.6 0.33
-4 1 -5 4.9 0.44
4 1 5 4.43 0.41
-4 1 -5 4.98 0.41
4 1 5 4.47 0.27
4 1 5 4.99 0.18
5 -1 5 24 0.9
-5 -1 -5 24.57 0.93
-5 -1 -5 23.28 0.82
5 -1 5 22.95 0.73
5 1 5 23.9 0.67
5 1 5 23.74 0.89
-5 1 -5 23.93 0.83
-5 1 -5 22.79 0.92
-6 -1 -5 0.12 0.25
-6 -1 -5 -0.05 0.26
6 -1 5 0.06 0.19
6 -1 5 -0.13 0.26
-6 1 -5 0.11 0.27
6 1 5 0.19 0.17
-6 1 -5 0.16 0.25
6 1 5 0.21 0.27
-7 -1 -5 0.73 0.32
7 -1 5 0.49 0.37
7 -1 5 0.69 0.25
-7 -1 -5 0.29 0.32
7 1 5 0.92 0.38
7 1 5 0.87 0.23
-7 1 -5 1.24 0.33
-7 1 -5 0.44 0.35
8 -1 5 0.85 0.28
8 -1 5 0.41 0.38
-8 -1 -5 0.24 0.37
-8 -1 -5 1.13 0.36
-8 1 -5 0.49 0.37
8 1 5 0.86 0.43
-8 1 -5 0.43 0.33
9 -1 5 8.46 0.87
-9 -1 -5 9.66 0.89
9 -1 5 9.3 0.66
-9 -1 -5 7.66 0.73
9 1 5 9.57 0.9
-9 1 -5 9.31 0.7
-9 1 -5 10.58 0.94
-9 -2 5 5.79 0.73
9 -2 -5 4.48 0.59
9 -2 -5 3.61 0.61
9 2 -5 4.82 0.72
9 2 -5 4.26 0.47
-9 2 5 3.85 0.62
-8 -2 5 3.49 0.43
8 -2 -5 3.95 0.62
8 -2 -5 4 0.51
-8 -2 5 3.97 0.56
-8 2 5 3.57 0.56
8 2 -5 3.27 0.5
8 2 -5 3.81 0.41
-7 -2 5 0.47 0.32
7 -2 -5 0.66 0.17
7 -2 -5 0.93 0.27
-7 -2 5 0.76 0.25
-7 2 5 0.36 0.33
-7 2 5 0.12 0.34
7 2 -5 0.95 0.23
7 2 -5 0.79 0.32
7 2 -5 1.05 0.22
-6 -2 5 10.96 0.52
-6 -2 5 10.33 0.66
6 -2 -5 9.77 0.42
6 -2 -5 10.89 0.56
6 2 -5 10.13 0.48
-6 2 5 8.99 0.67
6 2 -5 10.7 0.47
-6 2 5 10.03 0.35
-6 2 5 10.94 0.66
-5 -2 5 0.87 0.21
-5 -2 5 0.93 0.25
5 -2 -5 1.01 0.22
5 -2 -5 0.63 0.15
-5 -2 5 0.76 0.26
5 -2 -5 0.92 0.13
5 2 -5 1.13 0.19
5 2 -5 0.42 0.17
-5 2 5 0.57 0.23
-5 2 5 0.72 0.28
-4 -2 5 16.44 0.6
4 -2 -5 16.1 0.38
4 -2 -5 16.28 0.57
-4 -2 5 16.41 0.56
4 -2 -5 16.53 0.36
-4 -2 5 16.26 0.62
4 -2 -5 16.78 0.51
4 2 -5 16.55 0.52
-4 2 5 16.98 0.67
-4 2 5 16.24 0.65
-3 -2 5 0.87 0.18
3 -2 -5 0.75 0.18
-3 -2 5 0.54 0.17
-3 -2 5 0.77 0.18
-3 -2 5 0.79 0.17
3 -2 -5 0.77 0.18
3 -2 -5 0.83 0.15
3 2 -5 1.08 0.16
-3 2 5 0.95 0.21
3 2 -5 1.42 0.19
3 2 -5 1.07 0.18
-3 2 5 1.25 0.25
3 2 -5 0.61 0.14
2 -2 -5 0.02 0.16
-2 -2 5 0.08 0.12
2 -2 -5 0.28 0.13
-2 -2 5 0.2 0.15
2 -2 -5 0.1 0.12
-2 -2 5 0.24 0.13
2 -2 -5 0.02 0.12
2 -2 -5 0.44 0.14
2 2 -5 0.05 0.11
2 2 -5 0.17 0.11
-2 2 5 0.05 0.11
2 2 -5 0.14 0.11
2 2 -5 0.1 0.11
2 2 -5 0.11 0.11
-2 2 5 0.18 0.17
2 2 -5 0.01 0.11
2 2 -5 -0.08 0.12
-2 2 5 0.06 0.15
-1 -2 5 5.62 0.25
1 -2 -5 5.23 0.22
1 -2 -5 5.42 0.25
-1 -2 5 5.4 0.27
1 -2 -5 5.37 0.33
-1 -2 5 5.42 0.21
-1 -2 5 5.37 0.27
1 -2 -5 5.55 0.28
1 -2 -5 5.81 0.27
-1 -2 5 5.7 0.3
1 2 -5 5.94 0.29
-1 2 5 5.33 0.27
-1 2 5 5.45 0.23
-1 2 5 5.39 0.26
-1 2 5 5.37 0.27
1 2 -5 4.85 0.21
1 2 -5 5.49 0.27
-1 2 5 5.48 0.33
1 2 -5 4.93 0.24
0 -2 -5 62.76 1.19
0 -2 -5 60.57 1.12
0 -2 5 60.87 1.17
0 -2 -5 60.36 1.22
0 -2 5 59.34 1.24
0 -2 5 59.65 1.17
0 -2 5 60.13 1.2
0 -2 -5 60.08 1.21
0 -2 -5 59.64 1.3
0 -2 5 60.2 1.2
0 2 5 59.89 1.22
0 2 5 60.5 1.18
0 2 5 61.4 1.3
0 2 -5 62.42 1.17
0 2 -5 61.31 1.25
0 2 -5 59.73 1.19
0 2 5 60.02 1.12
0 2 -5 59.98 1.18
0 2 -5 61.3 1.21
-1 -2 -5 21.65 0.62
-1 -2 -5 20.11 0.43
-1 -2 -5 20.95 0.51
-1 -2 -5 20.69 0.58
1 -2 5 20.79 0.48
1 -2 5 20.64 0.58
1 -2 5 20.08 0.55
1 -2 5 20.12 0.56
1 -2 5 20.95 0.56
1 2 5 20.35 0.44
1 2 5 20.37 0.58
1 2 5 21.32 0.63
1 2 5 21.1 0.51
-1 2 -5 19.89 0.6
1 2 5 20.48 0.58
-1 2 -5 19.85 0.55
-1 2 -5 20.54 0.55
1 2 5 21.1 0.6
-1 2 -5 20.51 0.47
-1 2 -5 21.49 0.56
2 -2 5 0.14 0.16
-2 -2 -5 0.1 0.07
2 -2 5 0.17 0.15
-2 -2 -5 0.16 0.1
-2 -2 -5 0.24 0.16
2 -2 5 -0.06 0.13
-2 2 -5 0.19 0.13
-2 2 -5 0.06 0.15
-2 2 -5 0.26 0.17
2 2 5 0.13 0.15
2 2 5 0.05 0.16
2 2 5 0.08 0.09
-2 2 -5 0.08 0.07
-2 2 -5 0.12 0.08
2 2 5 0.08 0.15
2 2 5 0.04 0.08
-3 -2 -5 15.16 0.59
3 -2 5 15.5 0.52
-3 -2 -5 14.67 0.6
-3 -2 -5 15.22 0.38
3 -2 5 15.83 0.6
-3 -2 -5 15.8 0.41
3 2 5 14.98 0.6
3 2 5 15.37 0.39
3 2 5 15.22 0.41
-3 2 -5 15.25 0.63
-3 2 -5 14.89 0.58
-4 -2 -5 7.55 0.46
-4 -2 -5 8.75 0.53
-4 -2 -5 7.87 0.28
-4 -2 -5 7.83 0.26
4 -2 5 7.32 0.41
4 -2 5 8.01 0.51
-4 2 -5 8.16 0.49
-4 2 -5 7.44 0.49
4 2 5 8.22 0.51
4 2 5 7.27 0.27
4 2 5 8.15 0.31
5 -2 5 33.72 0.95
-5 -2 -5 33.6 1.04
-5 -2 -5 34.37 0.71
5 -2 5 33.62 1.08
-5 -2 -5 34.61 1.13
-5 2 -5 33.3 1.13
5 2 5 33.08 0.8
5 2 5 34.56 1.11
5 2 5 33.18 0.71
-5 2 -5 34.31 1.03
6 -2 5 1.94 0.4
6 -2 5 1.94 0.31
-6 -2 -5 1.7 0.37
-6 -2 -5 1.38 0.33
-6 2 -5 1.03 0.35
6 2 5 1.57 0.37
-6 2 -5 1.44 0.33
6 2 5 1.41 0.22
-7 -2 -5 16.08 0.9
7 -2 5 16.02 0.73
7 -2 5 14.88 0.88
-7 -2 -5 16.19 0.81
7 2 5 15.97 0.6
7 2 5 15.25 0.88
-7 2 -5 14.91 0.77
-7 2 -5 15.81 0.95
-8 -2 -5 8.22 0.77
-8 -2 -5 7.34 0.65
8 -2 5 7.01 0.81
8 -2 5 6.42 0.58
8 2 5 6.98 0.79
-8 2 -5 8.66 0.82
-8 2 -5 6.85 0.6
-9 -2 -5 5.11 0.63
9 -2 5 4.98 0.78
-9 -2 -5 4.62 0.71
9 -2 5 5.32 0.6
9 2 5 5.49 0.79
-9 2 -5 4.86 0.73
9 -3 -5 1.17 0.39
9 -3 -5 2.12 0.52
-9 3 5 1.47 0.48
9 3 -5 1.66 0.32
9 3 -5 1.62 0.47
-8 -3 5 3.21 0.53
-8 -3 5 2.64 0.39
8 -3 -5 2.84 0.44
8 3 -5 2.88 0.35
8 3 -5 3.23 0.5
-8 3 5 2.78 0.57
8 3 -5 2.33 0.32
-7 -3 5 2.65 0.41
7 -3 -5 3.15 0.29
-7 -3 5 3.3 0.47
7 -3 -5 2.71 0.38
7 3 -5 2.36 0.33
-7 3 5 3.24 0.53
-7 3 5 2.66 0.49
7 3 -5 2.79 0.43
7 3 -5 2.03 0.29
-6 -3 5 4.85 0.52
6 -3 -5 6.23 0.34
6 -3 -5 5.29 0.45
-6 -3 5 5.62 0.45
6 3 -5 6.61 0.4
6 3 -5 5.9 0.38
-6 3 5 6.21 0.56
-6 3 5 5.24 0.6
6 3 -5 5.4 0.47
-5 -3 5 0.35 0.21
5 -3 -5 0.49 0.2
5 -3 -5 0.52 0.15
-5 3 5 0.38 0.26
-5 3 5 0.29 0.23
4 -3 -5 9.07 0.37
-4 -3 5 8.45 0.4
-4 -3 5 8.78 0.45
-4 -3 5 9.01 0.42
-4 3 5 8.78 0.52
-4 3 5 8.65 0.51
4 3 -5 8.51 0.43
3 -3 -5 0.04 0.11
-3 -3 5 0.03 0.13
-3 -3 5 0.07 0.14
3 -3 -5 0.02 0.15
-3 -3 5 -0.01 0.13
3 3 -5 -0.07 0.12
-3 3 5 -0.18 0.17
3 3 -5 -0.27 0.12
3 3 -5 0.13 0.13
-3 3 5 0.14 0.18
3 3 -5 -0.08 0.12
-2 -3 5 2.79 0.26
-2 -3 5 2.57 0.21
2 -3 -5 2.57 0.27
2 -3 -5 2.82 0.23
2 -3 -5 2.38 0.23
-2 -3 5 2.62 0.24
2 3 -5 2.32 0.24
2 3 -5 2.76 0.25
-2 3 5 1.9 0.25
2 3 -5 2.92 0.21
2 3 -5 2.75 0.24
2 3 -5 2.49 0.23
-2 3 5 2.51 0.3
1 -3 -5 15.01 0.45
-1 -3 5 13.94 0.45
1 -3 -5 14.53 0.37
-1 -3 5 13.86 0.41
-1 -3 5 14.54 0.45
1 -3 -5 13.88 0.46
1 -3 -5 13.94 0.51
-1 -3 5 14.52 0.46
-1 -3 5 14.48 0.37
1 -3 -5 14.35 0.41
-1 3 5 14.53 0.52
-1 3 5 14.86 0.49
1 3 -5 13.96 0.37
-1 3 5 13.91 0.45
1 3 -5 14.84 0.42
-1 3 5 14.25 0.38
1 3 -5 14.49 0.47
1 3 -5 13.6 0.43
1 3 -5 13.9 0.45
0 -3 5 44 0.89
0 -3 -5 45.19 0.95
0 -3 5 44.56 0.93
0 -3 -5 43.58 1.04
0 -3 5 44.73 0.99
0 -3 -5 43.99 0.86
0 -3 5 45.02 0.97
0 -3 -5 44.28 0.85
0 -3 5 43.33 0.94
0 -3 -5 42.98 0.99
0 3 5 43.16 0.95
0 3 -5 44.07 0.95
0 3 5 44.25 1.04
0 3 5 43.72 1
0 3 -5 43.71 0.96
0 3 -5 44.46 1
0 3 5 44.39 0.94
0 3 -5 45.25 0.92
0 3 -5 44.07 0.88
1 -3 5 44.66 0.99
-1 -3 -5 45.48 1.02
1 -3 5 44 0.95
1 -3 5 44.54 1.01
-1 -3 -5 44.3 1.03
-1 -3 -5 44.83 1.05
-1 -3 -5 43.96 0.93
1 -3 5 45.77 0.91
-1 -3 -5 42.34 0.8
1 3 5 44.65 1.04
1 3 5 44.73 1.07
-1 3 -5 44.86 1.04
-1 3 -5 44.66 0.89
-1 3 -5 46.93 0.96
-1 3 -5 43.38 1.02
1 3 5 44.43 0.94
1 3 5 43.48 1.03
2 -3 5 12.23 0.46
2 -3 5 12.51 0.46
-2 -3 -5 13.13 0.5
2 -3 5 11.88 0.34
-2 -3 -5 11.99 0.39
2 3 5 12.1 0.39
-2 3 -5 11.92 0.44
2 3 5 12.41 0.5
-2 3 -5 11.81 0.32
-2 3 -5 11.78 0.49
2 3 5 12.6 0.52
-2 3 -5 12.45 0.5
-3 -3 -5 4.28 0.24
3 -3 5 4.3 0.37
-3 -3 -5 4 0.14
3 -3 5 3.91 0.17
-3 -3 -5 4.8 0.38
3 -3 5 4.52 0.33
3 3 5 4.54 0.39
-3 3 -5 3.85 0.36
-3 3 -5 4.06 0.16
-3 3 -5 4.43 0.41
3 3 5 3.72 0.35
3 3 5 3.95 0.16
3 3 5 4.34 0.23
-4 -3 -5 18.62 0.71
4 -3 5 17.74 0.71
-4 -3 -5 17.75 0.48
4 -3 5 18.88 0.65
-4 3 -5 17.82 0.76
4 3 5 17.68 0.44
4 3 5 17.93 0.49
-4 3 -5 17.47 0.68
4 3 5 18.59 0.73
-5 -3 -5 17.56 0.81
-5 -3 -5 17.43 0.74
5 -3 5 18 0.69
-5 -3 -5 17.28 0.48
5 -3 5 17.45 0.77
5 3 5 18.03 0.8
-5 3 -5 18.6 0.83
-5 3 -5 18.42 0.71
5 3 5 17.54 0.49
5 3 5 16.78 0.48
5 3 5 17.93 0.48
-6 -3 -5 2.66 0.2
-6 -3 -5 2.71 0.44
6 -3 5 2.01 0.42
-6 -3 -5 2.2 0.38
6 -3 5 1.51 0.33
6 3 5 2.68 0.27
-6 3 -5 2.25 0.44
6 3 5 2.26 0.42
-6 3 -5 2.51 0.37
7 -3 5 10.75 0.65
-7 -3 -5 9.49 0.68
7 -3 5 9.08 0.74
-7 -3 -5 9.33 0.76
-7 3 -5 9.97 0.79
7 3 5 10.7 0.78
-7 3 -5 9.88 0.64
8 -3 5 4.34 0.67
8 -3 5 3.97 0.55
-8 -3 -5 5.33 0.63
8 3 5 4.33 0.64
-8 3 -5 4.1 0.65
-8 3 -5 4.31 0.5
-9 -3 -5 -0.04 0.31
9 -3 5 -0.39 0.26
9 -3 5 -0.07 0.41
9 3 5 0.58 0.45
-9 3 -5 0.38 0.43
9 -4 -5 0.16 0.41
9 -4 -5 -0.21 0.32
9 4 -5 -0.28 0.32
9 4 -5 0.04 0.34
-9 4 5 -0.07 0.45
8 -4 -5 -0.5 0.27
-8 -4 5 -0.04 0.24
8 4 -5 -0.06 0.18
8 4 -5 0.15 0.19
-8 4 5 0.21 0.41
8 4 -5 -0.4 0.26
8 4 -5 -0.01 0.3
7 -4 -5 0.26 0.15
-7 -4 5 0.26 0.25
7 -4 -5 -0.01 0.24
-7 4 5 0.63 0.39
7 4 -5 -0.12 0.24
7 4 -5 -0.09 0.17
-7 4 5 0.15 0.34
7 4 -5 0.08 0.26
7 4 -5 0.16 0.17
6 -4 -5 2.21 0.33
-6 -4 5 2.66 0.38
-6 -4 5 3.03 0.35
6 -4 -5 2.82 0.29
6 4 -5 2.62 0.38
6 4 -5 2.75 0.39
6 4 -5 2.56 0.3
-6 4 5 2.17 0.39
-6 4 5 3.05 0.48
-5 -4 5 10.4 0.49
5 -4 -5 9.42 0.52
5 -4 -5 10.63 0.44
-5 -4 5 10.39 0.49
-5 4 5 10.27 0.62
5 4 -5 11.2 0.56
-5 4 5 10.86 0.67
5 4 -5 10.28 0.52
-4 -4 5 24.98 0.74
4 -4 -5 23.66 0.68
-4 -4 5 24.73 0.71
4 -4 -5 24.08 0.76
4 4 -5 24.95 0.73
-4 4 5 24.18 0.88
-4 4 5 23.35 0.84
4 4 -5 25.7 0.79
4 4 -5 26.25 0.77
-3 -4 5 10.99 0.45
-3 -4 5 10.96 0.44
-3 -4 5 10.83 0.41
3 -4 -5 10.82 0.42
3 -4 -5 10.3 0.45
3 4 -5 11.26 0.46
-3 4 5 11.56 0.56
3 4 -5 10.98 0.4
-3 4 5 11.15 0.52
3 4 -5 11.03 0.47
-2 -4 5 28.53 0.74
2 -4 -5 28.44 0.72
-2 -4 5 28.17 0.64
-2 -4 5 28.52 0.72
2 -4 -5 27.85 0.71
-2 -4 5 28.46 0.74
-2 4 5 28.32 0.82
2 4 -5 29.15 0.74
-2 4 5 26.41 0.56
2 4 -5 28.82 0.64
-2 4 5 26.99 0.81
2 4 -5 28.72 0.76
-1 -4 5 37.53 0.87
-1 -4 5 38.87 0.89
1 -4 -5 36.87 0.93
1 -4 -5 37.54 0.82
1 -4 -5 37.43 0.79
-1 -4 5 39.35 0.89
1 -4 -5 37.55 0.87
-1 -4 5 37.62 0.73
1 4 -5 37.68 0.92
-1 4 5 38.06 0.96
-1 4 5 36.39 0.8
1 4 -5 39.78 0.89
1 4 -5 36.17 0.73
-1 4 5 36.84 0.96
0 -4 -5 66.23 1.33
0 -4 5 65.01 1.23
0 -4 -5 65.17 1.22
0 -4 -5 65.95 1.21
0 -4 -5 64.93 1.42
0 -4 -5 65.13 1.44
0 -4 -5 66.75 1.34
0 -4 5 63.61 1.34
0 -4 5 65.24 1.31
0 -4 5 66.86 1.38
0 4 5 66.42 1.34
0 4 -5 66.6 1.22
0 4 -5 65 1.39
0 4 5 65.72 1.45
0 4 5 64.75 1.44
0 4 -5 67.57 1.4
-1 -4 -5 26.55 0.73
1 -4 5 27.32 0.64
-1 -4 -5 27.36 0.52
1 -4 5 27.53 0.73
-1 -4 -5 27.27 0.52
-1 -4 -5 27.58 0.68
1 -4 5 27.72 0.65
-1 4 -5 27.34 0.76
-1 4 -5 27.09 0.63
1 4 5 26.77 0.77
-1 4 -5 27.71 0.75
1 4 5 26.83 0.77
-2 -4 -5 25.28 0.74
2 -4 5 24.75 0.71
-2 -4 -5 24.77 0.64
2 -4 5 25.4 0.58
2 -4 5 24.52 0.67
2 -4 5 24.15 0.68
-2 4 -5 24.3 0.74
2 4 5 25.76 0.78
2 4 5 23.7 0.75
-2 4 -5 24.57 0.56
-2 4 -5 23.63 0.76
3 -4 5 0.75 0.11
-3 -4 -5 0.79 0.15
3 -4 5 0.44 0.19
3 -4 5 0.66 0.2
-3 -4 -5 0.93 0.23
-3 4 -5 0.6 0.23
-3 4 -5 0.54 0.1
-3 4 -5 0.44 0.2
3 4 5 0.72 0.23
3 4 5 0.7 0.22
4 -4 5 2.29 0.31
-4 -4 -5 2.47 0.24
4 -4 5 2.93 0.15
-4 -4 -5 2.75 0.36
4 -4 5 3 0.39
-4 4 -5 3.45 0.45
4 4 5 2.83 0.4
4 4 5 3.16 0.38
-4 4 -5 3.74 0.4
-5 -4 -5 0.49 0.14
-5 -4 -5 0.23 0.24
5 -4 5 0.27 0.25
5 -4 5 0.05 0.22
-5 4 -5 0.44 0.3
5 4 5 0.37 0.25
-5 4 -5 0.32 0.25
5 4 5 0.42 0.1
5 4 5 0.65 0.3
-6 -4 -5 0.35 0.28
-6 -4 -5 0.77 0.15
6 -4 5 0.93 0.33
6 -4 5 0.6 0.27
-6 4 -5 1.24 0.38
6 4 5 0.97 0.31
-6 4 -5 1.12 0.31
6 4 5 0.89 0.35
-7 -4 -5 1.16 0.37
7 -4 5 0.47 0.37
7 -4 5 1.16 0.34
7 4 5 0.18 0.31
-7 4 -5 0.84 0.4
7 4 5 1.03 0.4
-7 4 -5 0.19 0.26
-8 -4 -5 0.38 0.32
8 -4 5 0.41 0.4
8 -4 5 0.19 0.31
-8 4 -5 0.44 0.31
8 4 5 0.64 0.39
8 4 5 0.45 0.39
-8 4 -5 0.76 0.42
9 -4 5 0.08 0.33
9 -4 5 -0.05 0.42
-9 -4 -5 0.88 0.38
9 4 5 0.56 0.45
-9 4 -5 0.11 0.4
9 4 5 1.02 0.47
9 -5 -5 1.67 0.46
9 -5 -5 1.28 0.49
9 5 -5 2.18 0.49
-9 5 5 1.09 0.55
9 5 -5 2.8 0.51
8 -5 -5 3.19 0.48
-8 5 5 3.71 0.63
8 5 -5 2.65 0.37
-8 5 5 2.72 0.53
8 5 -5 3.92 0.6
8 5 -5 3.33 0.43
8 5 -5 4 0.55
7 -5 -5 -0.2 0.26
7 5 -5 0.61 0.31
7 5 -5 0.27 0.26
7 5 -5 0.11 0.19
-7 5 5 -0.12 0.36
-7 5 5 -0.09 0.32
-6 -5 5 0.29 0.21
6 -5 -5 0.25 0.24
6 -5 -5 0.09 0.18
6 5 -5 0.59 0.27
6 5 -5 0.32 0.18
6 5 -5 0.05 0.2
-6 5 5 0.54 0.31
-6 5 5 0.28 0.35
5 -5 -5 4.28 0.33
-5 -5 5 4.75 0.37
-5 -5 5 4.52 0.39
5 -5 -5 4.07 0.43
5 5 -5 4.05 0.37
5 5 -5 4.17 0.43
-5 5 5 4.31 0.49
-5 5 5 3.56 0.51
4 -5 -5 -0.03 0.17
-4 -5 5 -0.01 0.17
4 -5 -5 0.02 0.13
-4 -5 5 0.18 0.17
-4 5 5 -0.14 0.23
4 5 -5 -0.02 0.14
4 5 -5 -0.02 0.17
4 5 -5 0.18 0.18
-4 5 5 0.16 0.23
3 -5 -5 30.8 0.8
-3 -5 5 30.52 0.8
-3 -5 5 30.91 0.84
3 -5 -5 30.73 0.84
3 5 -5 31.82 0.88
-3 5 5 30.68 0.92
3 5 -5 30.24 0.74
-3 5 5 29.59 0.95
3 5 -5 31.79 0.88
3 5 -5 31.94 0.75
2 -5 -5 8.09 0.37
2 -5 -5 7.16 0.37
-2 -5 5 7.61 0.38
-2 -5 5 7.78 0.38
-2 5 5 6.8 0.23
2 5 -5 7.46 0.4
2 5 -5 7.54 0.26
2 5 -5 8.48 0.41
-2 5 5 6.92 0.45
2 5 -5 7.23 0.24
-2 5 5 6.8 0.24
-2 5 5 7.19 0.42
-1 -5 5 51.16 1.22
1 -5 -5 48.8 1.05
1 -5 -5 49.95 1.04
-1 -5 5 49.31 1.11
1 -5 -5 51.34 1.12
-1 -5 5 50.85 1.12
-1 5 5 50.11 1.24
1 5 -5 51.26 1.18
1 5 -5 51.39 1.17
-1 5 5 49.14 1.03
-1 5 5 48.89 1.2
-1 5 5 49.85 1.06
0 -5 -5 2.78 0.2
0 -5 -5 2.53 0.18
0 -5 5 2.75 0.29
0 -5 -5 2.33 0.26
0 -5 -5 2.6 0.27
0 -5 5 2.38 0.24
0 5 5 2.57 0.32
0 5 -5 2.62 0.3
0 5 5 2.68 0.27
0 5 -5 2.75 0.29
0 5 5 2.58 0.31
1 -5 5 55.8 1.24
1 -5 5 54.72 1.1
1 -5 5 56.08 1.15
-1 -5 -5 55.85 1.24
-1 -5 -5 54.46 0.99
-1 -5 -5 56.64 1.19
1 -5 5 53.06 1.11
-1 -5 -5 53.93 0.98
-1 5 -5 55.11 1.27
-1 5 -5 54.08 1.3
1 5 5 53.2 1.31
1 5 5 55.54 1.3
2 -5 5 6.88 0.33
2 -5 5 7.36 0.36
-2 -5 -5 7.32 0.44
2 -5 5 7.41 0.42
-2 -5 -5 6.96 0.34
2 -5 5 6.44 0.3
-2 5 -5 6.82 0.42
-2 5 -5 6.32 0.45
2 5 5 6.94 0.43
-2 5 -5 6.67 0.28
2 5 5 7.74 0.46
3 -5 5 41.49 0.88
3 -5 5 42.57 1.07
-3 -5 -5 41.32 1.13
-3 -5 -5 42.54 0.98
3 -5 5 40.86 1.08
3 5 5 43.76 1.17
3 5 5 41.63 1.17
-3 5 -5 40.66 1.08
-3 5 -5 39.84 0.86
-3 5 -5 41.71 1.2
-4 -5 -5 13.56 0.49
4 -5 5 14.51 0.63
-4 -5 -5 13.81 0.66
4 -5 5 14.14 0.64
4 -5 5 13.82 0.38
-4 5 -5 13.3 0.71
4 5 5 14.26 0.69
-4 5 -5 14.22 0.63
4 5 5 13.87 0.68
-4 5 -5 13.12 0.37
-5 -5 -5 17.9 0.78
5 -5 5 17.04 0.78
5 -5 5 17.26 0.75
-5 -5 -5 17.23 0.57
5 5 5 18.56 0.85
-5 5 -5 17.42 0.85
-5 5 -5 17.82 0.74
5 5 5 17.06 0.82
6 -5 5 0.74 0.33
6 -5 5 0.35 0.28
-6 -5 -5 0.71 0.18
-6 -5 -5 0.45 0.29
-6 5 -5 0.52 0.36
-6 5 -5 0.86 0.28
6 5 5 0.48 0.3
6 5 5 0.45 0.33
-7 -5 -5 5.27 0.58
7 -5 5 5.55 0.66
7 -5 5 6.77 0.61
-7 5 -5 5.62 0.72
7 5 5 7.69 0.7
7 5 5 5.99 0.67
-7 5 -5 6.87 0.58
-8 -5 -5 0.23 0.32
8 -5 5 0.2 0.38
8 -5 5 0.77 0.36
8 5 5 0.42 0.4
-8 5 -5 0.04 0.4
8 5 5 0.24 0.36
9 -6 -5 3.95 0.68
9 -6 -5 3.19 0.57
9 6 -5 4.31 0.52
9 6 -5 3.78 0.59
-9 6 5 3.92 0.72
9 6 -5 5.06 0.69
8 -6 -5 7.63 0.7
-8 6 5 9.09 0.81
8 6 -5 8.77 0.55
8 6 -5 7.63 0.72
8 6 -5 8 0.66
8 6 -5 7.7 0.6
-8 6 5 7.49 0.91
-7 -6 5 5.65 0.5
7 -6 -5 5.02 0.57
7 6 -5 5.5 0.51
-7 6 5 5.2 0.69
-7 6 5 5.38 0.73
7 6 -5 5.36 0.41
7 6 -5 5.23 0.6
6 -6 -5 11.85 0.68
6 -6 -5 13.31 0.55
-6 -6 5 13.4 0.64
6 6 -5 14.16 0.75
-6 6 5 11.83 0.75
6 6 -5 12.53 0.66
6 6 -5 13.14 0.64
-6 6 5 12.94 0.87
5 -6 -5 0.21 0.18
5 -6 -5 0.11 0.23
-5 -6 5 0.2 0.21
-5 -6 5 0.39 0.19
-5 6 5 0.25 0.28
5 6 -5 0.12 0.17
5 6 -5 0.3 0.23
-5 6 5 -0.2 0.3
5 6 -5 0.58 0.24
-4 -6 5 2.04 0.29
4 -6 -5 1.77 0.29
4 -6 -5 3.21 0.31
-4 -6 5 2.78 0.32
-4 6 5 2.39 0.39
4 6 -5 2.41 0.28
-4 6 5 2.02 0.36
4 6 -5 2.42 0.38
4 6 -5 2.33 0.32
-3 -6 5 7.76 0.41
3 -6 -5 7.79 0.41
-3 -6 5 8.55 0.43
3 -6 -5 7.33 0.42
3 6 -5 7.38 0.32
3 6 -5 7.76 0.46
-3 6 5 8.58 0.56
3 6 -5 7.69 0.45
3 6 -5 8.32 0.32
-3 6 5 7.95 0.48
2 -6 -5 4.56 0.33
-2 -6 5 5.02 0.34
2 -6 -5 4.85 0.33
-2 -6 5 4.86 0.34
2 6 -5 5.31 0.37
-2 6 5 4.61 0.23
-2 6 5 5.23 0.44
-2 6 5 4.61 0.22
2 6 -5 5.7 0.41
-2 6 5 5.28 0.41
1 -6 -5 11.09 0.4
-1 -6 5 11.27 0.46
-1 -6 5 11.71 0.48
1 -6 -5 11 0.46
1 -6 -5 11.68 0.43
1 6 -5 11.73 0.52
1 6 -5 10.85 0.49
-1 6 5 9.61 0.48
-1 6 5 10.72 0.56
-1 6 5 11.02 0.39
0 -6 -5 1.87 0.19
0 -6 5 2.07 0.26
0 -6 -5 1.74 0.25
0 -6 5 1.84 0.25
0 -6 -5 2.36 0.28
0 6 -5 1.83 0.28
0 6 5 1.45 0.17
0 6 -5 1.7 0.26
0 6 5 1.82 0.28
0 6 5 1.81 0.28
1 -6 5 10.5 0.32
1 -6 5 10.39 0.33
-1 -6 -5 10.22 0.44
-1 -6 -5 10.3 0.47
1 -6 5 10.79 0.5
1 -6 5 10.93 0.42
-1 -6 -5 10.95 0.29
-1 -6 -5 10.68 0.28
1 6 5 10.16 0.48
1 6 5 10.38 0.53
-1 6 -5 10.23 0.49
-1 6 -5 10.43 0.53
2 -6 5 3.69 0.25
2 -6 5 3.5 0.27
2 -6 5 3.14 0.27
-2 -6 -5 3.54 0.37
2 -6 5 3.13 0.33
-2 -6 -5 4.05 0.32
2 6 5 4.16 0.4
-2 6 -5 3.33 0.4
-2 6 -5 3.62 0.36
2 6 5 3.53 0.4
3 -6 5 18.04 0.64
-3 -6 -5 17.39 0.7
-3 -6 -5 18.02 0.59
3 -6 5 18.04 0.7
3 -6 5 17.42 0.52
-3 6 -5 17.28 0.77
3 6 5 17.89 0.75
3 6 5 18.43 0.73
-3 6 -5 18.28 0.7
4 -6 5 11.01 0.59
4 -6 5 11.24 0.58
-4 -6 -5 11.26 0.61
-4 -6 -5 11.03 0.48
4 -6 5 11.42 0.38
-4 6 -5 11.25 0.6
4 6 5 10.61 0.64
-4 6 -5 11.49 0.68
4 6 5 11.35 0.64
5 -6 5 20.8 0.83
5 -6 5 19.84 0.83
-5 -6 -5 19.36 0.84
-5 -6 -5 20.57 0.67
-5 6 -5 20.54 0.98
-5 6 -5 20.22 0.81
5 6 5 20.4 0.92
5 6 5 21.47 0.88
-6 -6 -5 7.34 0.41
6 -6 5 5.44 0.58
-6 -6 -5 7.02 0.61
6 -6 5 7.34 0.6
-6 6 -5 7.69 0.75
6 6 5 6.62 0.68
6 6 5 7.83 0.68
-6 6 -5 6.72 0.57
-7 -6 -5 6.5 0.65
7 -6 5 7.25 0.64
7 -6 5 8.14 0.74
-7 6 -5 7.02 0.59
-7 6 -5 6.99 0.81
7 6 5 7.02 0.76
7 6 5 6.34 0.69
8 -6 5 3.05 0.57
-8 -6 -5 1.94 0.49
8 -6 5 3.23 0.51
8 6 5 2.39 0.51
8 6 5 2.28 0.55
-8 6 -5 2.2 0.56
8 -7 -5 -0.12 0.35
-8 7 5 0.39 0.39
-8 7 5 0.46 0.46
8 7 -5 -0.01 0.33
8 7 -5 0.14 0.28
7 -7 -5 4.07 0.6
-7 -7 5 4.23 0.48
7 7 -5 3.84 0.53
7 7 -5 3.89 0.48
-7 7 5 4.57 0.66
-7 7 5 4.59 0.68
7 7 -5 3.26 0.49
6 -7 -5 11.52 0.7
-6 -7 5 12.96 0.66
6 -7 -5 10.92 0.52
6 7 -5 12.63 0.74
-6 7 5 11.77 0.86
-6 7 5 10.73 0.78
6 7 -5 9.74 0.57
6 7 -5 12.45 0.7
5 -7 -5 1.23 0.32
-5 -7 5 1.6 0.26
-5 -7 5 2.39 0.34
5 -7 -5 1.44 0.25
5 7 -5 1.14 0.33
5 7 -5 1.63 0.33
5 7 -5 1.88 0.28
-5 7 5 1.39 0.42
-5 7 5 1.56 0.38
4 -7 -5 1.16 0.23
-4 -7 5 0.91 0.23
-4 -7 5 1.23 0.25
4 -7 -5 0.93 0.27
-4 7 5 0.83 0.34
4 7 -5 1.31 0.3
4 7 -5 1.41 0.28
4 7 -5 1.24 0.21
-4 7 5 1.15 0.31
-3 -7 5 7.04 0.4
3 -7 -5 7.31 0.47
-3 -7 5 6.82 0.44
3 -7 -5 7.14 0.42
-3 7 5 7.11 0.49
-3 7 5 6.59 0.24
3 7 -5 7.41 0.5
3 7 -5 7.13 0.28
3 7 -5 6.73 0.46
3 7 -5 6.76 0.28
-3 7 5 6.42 0.25
-3 7 5 8.06 0.6
2 -7 -5 1.71 0.25
2 -7 -5 1.25 0.22
-2 -7 5 1.6 0.24
-2 -7 5 1.62 0.25
-2 7 5 1.37 0.32
-2 7 5 1.35 0.27
2 7 -5 1.46 0.26
-2 7 5 1.6 0.18
-2 7 5 1.57 0.19
2 7 -5 1.15 0.27
-1 -7 5 0.69 0.19
1 -7 -5 0.86 0.18
1 -7 -5 0.7 0.17
1 -7 -5 0.19 0.16
-1 -7 5 0.57 0.19
-1 7 5 0.8 0.28
1 7 -5 0.69 0.23
1 7 -5 0.86 0.22
-1 7 5 0.72 0.22
0 -7 5 -0.16 0.14
0 -7 -5 0.27 0.16
0 -7 -5 0.03 0.11
0 -7 -5 0.18 0.17
0 -7 5 -0.13 0.16
0 7 -5 -0.07 0.16
0 7 5 -0.13 0.18
0 7 5 0.03 0.11
0 7 -5 0.11 0.19
0 7 5 -0.29 0.21
1 -7 5 0.28 0.09
1 -7 5 0.08 0.18
-1 -7 -5 0.25 0.19
1 -7 5 0.41 0.1
-1 -7 -5 0.43 0.18
1 -7 5 0.26 0.16
-1 -7 -5 0.54 0.1
-1 7 -5 0.55 0.22
1 7 5 0.47 0.22
1 7 5 0.4 0.23
-1 7 -5 0.47 0.23
-2 -7 -5 6.23 0.45
-2 -7 -5 6.89 0.4
2 -7 5 6.47 0.33
2 -7 5 5.32 0.42
2 -7 5 6.38 0.31
2 -7 5 7.02 0.37
-2 7 -5 6.55 0.51
2 7 5 6.33 0.5
-2 7 -5 6.98 0.47
2 7 5 6.95 0.47
3 -7 5 0.33 0.19
3 -7 5 -0.01 0.2
-3 -7 -5 -0.1 0.21
3 -7 5 0.03 0.14
-3 -7 -5 0.27 0.18
-3 7 -5 0.04 0.24
-3 7 -5 0.13 0.22
3 7 5 0.21 0.24
3 7 5 0.24 0.23
-4 -7 -5 0.3 0.18
-4 -7 -5 -0.1 0.22
4 -7 5 0.1 0.13
4 -7 5 0.04 0.23
4 -7 5 -0.16 0.22
-4 7 -5 -0.11 0.29
4 7 5 -0.21 0.24
-4 7 -5 -0.26 0.22
4 7 5 0.02 0.25
-5 -7 -5 1.16 0.25
5 -7 5 0.91 0.33
5 -7 5 1.42 0.34
-5 -7 -5 1.12 0.33
-5 7 -5 1.14 0.39
5 7 5 1.04 0.36
-5 7 -5 1.43 0.34
5 7 5 1.07 0.34
6 -7 5 9.54 0.71
-6 -7 -5 8.58 0.69
6 -7 5 9.78 0.7
-6 -7 -5 8.97 0.5
6 7 5 10.14 0.75
-6 7 -5 10.37 0.66
-6 7 -5 9.11 0.81
6 7 5 8.44 0.72
7 -7 5 7.4 0.7
-7 -7 -5 6.84 0.68
7 -7 5 6.73 0.72
7 7 5 7.59 0.75
7 7 5 7.85 0.76
-7 7 -5 6.96 0.85
-8 -7 -5 4.97 0.65
8 -7 5 4.92 0.75
8 -7 5 4.6 0.68
8 7 5 5.43 0.75
8 7 5 5.3 0.77
-8 7 -5 4.36 0.72
8 -8 -5 -0.07 0.38
-8 -8 5 0.67 0.31
8 8 -5 0.78 0.4
-8 8 5 0.92 0.42
8 8 -5 0.24 0.33
-8 8 5 1 0.52
-7 -8 5 2.89 0.41
7 -8 -5 3.38 0.53
7 8 -5 3.25 0.5
-7 8 5 3.29 0.63
7 8 -5 3.32 0.55
-7 8 5 2.35 0.51
6 -8 -5 3.11 0.46
-6 -8 5 4.12 0.46
6 -8 -5 2.99 0.38
6 8 -5 4.34 0.55
6 8 -5 4.3 0.6
-6 8 5 4.09 0.6
-6 8 5 2.95 0.5
-5 -8 5 5.07 0.39
5 -8 -5 4.41 0.51
-5 -8 5 3.84 0.46
5 -8 -5 4.18 0.41
5 8 -5 4.78 0.49
-5 8 5 4.27 0.6
-5 8 5 3.53 0.5
5 8 -5 3.81 0.54
-4 -8 5 1.22 0.29
-4 -8 5 0.62 0.21
4 -8 -5 1.01 0.25
4 -8 -5 0.77 0.27
-4 8 5 1.14 0.32
4 8 -5 0.81 0.18
4 8 -5 1.22 0.31
-4 8 5 1.08 0.37
4 8 -5 0.95 0.31
-3 -8 5 3.28 0.34
-3 -8 5 3.54 0.4
3 -8 -5 3.49 0.37
3 -8 -5 3.33 0.4
3 8 -5 2.89 0.4
-3 8 5 3.91 0.45
-3 8 5 3.48 0.51
-3 8 5 3.16 0.22
3 8 -5 2.84 0.44
2 -8 -5 2.15 0.29
-2 -8 5 1.67 0.27
-2 -8 5 1.89 0.26
2 -8 -5 2.31 0.3
-2 8 5 2.34 0.23
2 8 -5 1.87 0.32
-2 8 5 1.95 0.38
-2 8 5 2.07 0.32
2 8 -5 2.03 0.34
-1 -8 5 2.26 0.32
-1 -8 5 2.22 0.29
1 -8 -5 2.84 0.31
1 -8 -5 1.98 0.28
1 8 -5 2.45 0.35
1 8 -5 1.75 0.3
-1 8 5 2.15 0.38
-1 8 5 1.88 0.26
-1 8 5 2.4 0.35
0 -8 -5 1.65 0.23
0 -8 5 1.53 0.25
0 -8 -5 2.53 0.33
0 -8 -5 1.57 0.25
0 -8 5 2.1 0.29
0 8 5 1.74 0.27
0 8 -5 2.22 0.32
0 8 -5 1.56 0.31
0 8 5 1.85 0.35
1 -8 5 0.11 0.17
-1 -8 -5 -0.06 0.18
-1 -8 -5 -0.06 0.19
-1 -8 -5 -0.09 0.09
1 -8 5 -0.06 0.18
1 8 5 -0.03 0.19
-1 8 -5 0.04 0.21
-1 8 -5 0.09 0.23
1 8 5 0.45 0.26
-2 -8 -5 17.46 0.71
2 -8 5 17.69 0.54
-2 -8 -5 18.52 0.67
2 -8 5 17.61 0.62
2 -8 5 16.76 0.53
2 -8 5 16.58 0.7
2 8 5 17.25 0.79
-2 8 -5 17.19 0.7
-2 8 -5 17.93 0.81
2 8 5 17.66 0.72
3 -8 5 1.02 0.22
3 -8 5 0.93 0.2
-3 -8 -5 0.98 0.25
-3 -8 -5 0.89 0.28
3 -8 5 1.26 0.29
-3 8 -5 0.98 0.29
3 8 5 1.28 0.31
3 8 5 1.17 0.33
-3 8 -5 0.61 0.32
4 -8 5 1.23 0.28
4 -8 5 1.21 0.32
-4 -8 -5 1.36 0.26
-4 -8 -5 0.83 0.3
4 -8 5 1.02 0.19
4 8 5 1.51 0.36
-4 8 -5 1.35 0.4
4 8 5 0.79 0.32
-4 8 -5 1.12 0.31
5 -8 5 0.72 0.31
5 -8 5 1.05 0.33
-5 -8 -5 1.19 0.28
-5 -8 -5 1.01 0.35
5 8 5 0.99 0.37
5 8 5 0.98 0.36
-5 8 -5 1.1 0.4
-5 8 -5 0.81 0.31
-6 -8 -5 0.54 0.34
6 -8 5 0.93 0.36
-6 -8 -5 0.68 0.24
6 -8 5 0.33 0.33
6 8 5 -0.1 0.35
-6 8 -5 0.7 0.3
-6 8 -5 1.07 0.46
6 8 5 0.68 0.37
-7 -8 -5 0.53 0.36
7 -8 5 0.67 0.38
7 -8 5 0.25 0.36
-7 8 -5 0.1 0.4
7 8 5 0.67 0.42
7 8 5 0.12 0.35
7 -9 -5 0.79 0.41
-7 -9 5 1.66 0.39
-7 9 5 1.33 0.49
7 9 -5 1.38 0.43
7 9 -5 1.37 0.39
-7 9 5 1.21 0.52
-6 -9 5 9.05 0.63
6 -9 -5 7.98 0.51
6 -9 -5 8.51 0.71
6 9 -5 9.9 0.75
-6 9 5 9.98 0.78
-6 9 5 8.5 0.89
6 9 -5 8.28 0.68
5 -9 -5 1.64 0.4
-5 -9 5 1.58 0.27
5 -9 -5 1.63 0.3
-5 -9 5 2.09 0.37
-5 9 5 1.46 0.46
5 9 -5 1.78 0.37
5 9 -5 1.89 0.42
-5 9 5 2.15 0.43
4 -9 -5 2.51 0.35
4 -9 -5 2.92 0.42
-4 -9 5 3.56 0.43
-4 -9 5 2.69 0.35
-4 9 5 2.05 0.46
4 9 -5 2.28 0.4
4 9 -5 3.12 0.44
-4 9 5 2.85 0.43
3 -9 -5 1.08 0.3
-3 -9 5 1.39 0.26
3 -9 -5 1.13 0.27
-3 -9 5 1.2 0.28
-3 9 5 1.37 0.18
-3 9 5 1.42 0.33
3 9 -5 1.58 0.32
3 9 -5 1.28 0.35
-3 9 5 1.06 0.39
2 -9 -5 1.23 0.26
-2 -9 5 1.19 0.25
-2 -9 5 0.9 0.26
2 -9 -5 0.89 0.25
-2 9 5 0.96 0.28
-2 9 5 0.74 0.35
2 9 -5 1.24 0.32
2 9 -5 0.13 0.23
-2 9 5 0.78 0.18
1 -9 -5 1.81 0.3
-1 -9 5 1.56 0.29
-1 -9 5 1.62 0.28
1 -9 -5 1.69 0.26
-1 9 5 1.82 0.38
1 9 -5 1.16 0.33
-1 9 5 1.83 0.25
-1 9 5 1.88 0.31
1 9 -5 1.35 0.3
0 -9 -5 0.08 0.14
0 -9 5 -0.06 0.19
0 -9 -5 0.08 0.21
0 -9 5 -0.04 0.2
0 -9 -5 0.14 0.22
0 9 -5 0.09 0.22
0 9 5 -0.6 0.23
0 9 -5 -0.06 0.26
0 9 5 0.19 0.21
-1 -9 -5 7.43 0.48
-1 -9 -5 7.69 0.31
1 -9 5 7.79 0.51
-1 -9 -5 7.51 0.5
1 -9 5 8.24 0.47
1 9 5 7.73 0.61
-1 9 -5 7.13 0.59
-1 9 -5 6.96 0.52
1 9 5 7.74 0.5
2 -9 5 2.21 0.34
-2 -9 -5 1.9 0.3
2 -9 5 1.78 0.28
2 -9 5 1.59 0.21
-2 -9 -5 2.3 0.37
-2 9 -5 2.06 0.34
2 9 5 1.83 0.39
-2 9 -5 1.6 0.37
2 9 5 2.2 0.35
-3 -9 -5 2.45 0.41
3 -9 5 2.7 0.39
-3 -9 -5 2.72 0.4
3 -9 5 2.39 0.31
3 -9 5 2.57 0.33
-3 9 -5 2.39 0.46
-3 9 -5 3.37 0.45
3 9 5 3.24 0.5
3 9 5 3.64 0.49
4 -9 5 1.13 0.23
-4 -9 -5 1.27 0.28
4 -9 5 1.66 0.37
4 -9 5 0.75 0.26
-4 -9 -5 0.78 0.33
-4 9 -5 0.51 0.38
-4 9 -5 1.21 0.33
4 9 5 1.06 0.35
4 9 5 0.74 0.36
-5 -9 -5 1.93 0.33
5 -9 5 1.95 0.37
5 -9 5 2.93 0.47
-5 -9 -5 1.8 0.42
5 9 5 1.9 0.43
5 9 5 3.51 0.55
-5 9 -5 1.7 0.45
-5 9 -5 1.51 0.34
6 -9 5 3.49 0.5
-6 -9 -5 3.7 0.43
-6 -9 -5 3.05 0.53
6 -9 5 4.7 0.62
6 9 5 2.89 0.5
-6 9 -5 2.74 0.57
6 9 5 2.82 0.53
7 -9 5 6.15 0.7
-7 -9 -5 5.57 0.75
7 -9 5 7.99 0.75
7 9 5 8.19 0.87
-7 9 -5 7.69 0.88
7 9 5 5.69 0.78
-7 -10 5 12.09 0.77
7 -10 -5 11.9 0.9
7 10 -5 12.34 0.86
-7 10 5 10.21 0.88
7 10 -5 12.04 0.92
-7 10 5 12.17 1.07
-6 -10 5 10.83 0.71
6 -10 -5 9.27 0.77
6 10 -5 10.62 0.78
6 10 -5 9.9 0.83
-6 10 5 10.24 0.98
-6 10 5 10.64 0.8
5 -10 -5 7.5 0.54
-5 -10 5 6.88 0.59
5 -10 -5 7.87 0.65
-5 10 5 8.28 0.7
5 10 -5 7.73 0.71
-5 10 5 7.91 0.82
5 10 -5 8.15 0.69
4 -10 -5 4.5 0.56
-4 -10 5 5.43 0.5
-4 -10 5 5.07 0.41
4 -10 -5 5.71 0.49
4 10 -5 5.8 0.56
4 10 -5 5.12 0.63
-4 10 5 5.8 0.57
-4 10 5 6.51 0.74
-3 -10 5 0.64 0.26
-3 -10 5 1.03 0.25
3 -10 -5 0.64 0.27
3 -10 -5 0.66 0.29
3 10 -5 0.29 0.26
3 10 -5 0.37 0.3
-3 10 5 0.52 0.38
-3 10 5 0.46 0.29
2 -10 -5 -0.15 0.21
2 -10 -5 0.16 0.23
-2 -10 5 0.27 0.2
-2 -10 5 0.24 0.23
2 10 -5 -0.01 0.24
-2 10 5 0.17 0.16
-2 10 5 0.16 0.24
2 10 -5 -0.04 0.28
-2 10 5 0.55 0.35
-1 -10 5 0.51 0.23
1 -10 -5 0.48 0.2
-1 -10 5 0.23 0.23
1 -10 -5 0.5 0.25
-1 10 5 0.87 0.35
1 10 -5 0.07 0.29
1 10 -5 0.29 0.24
-1 10 5 0.39 0.24
-1 10 5 0.38 0.21
0 -10 -5 1.27 0.29
0 -10 5 1.51 0.3
0 -10 5 2.09 0.33
0 -10 -5 1.86 0.27
0 10 -5 2.41 0.38
0 10 5 1.96 0.3
0 10 -5 1.9 0.4
0 10 5 3.01 0.38
0 10 5 2.48 0.44
-1 -10 -5 22.59 0.84
1 -10 5 22.92 0.81
-1 -10 -5 23.69 0.87
1 -10 5 23.4 0.87
-1 10 -5 24.04 1.01
1 10 5 22.69 0.99
-1 10 -5 22.23 0.89
1 10 5 22.84 0.81
2 -10 5 19.26 0.74
-2 -10 -5 21.07 0.8
2 -10 5 21.22 0.86
-2 -10 -5 19.98 0.85
2 10 5 21.46 0.99
-2 10 -5 21.06 1
2 10 5 22.02 0.81
-2 10 -5 20.87 0.86
-3 -10 -5 4.66 0.54
3 -10 5 4.68 0.41
-3 -10 -5 5.25 0.49
3 -10 5 5.86 0.54
3 10 5 5.26 0.64
3 10 5 4.85 0.51
-3 10 -5 5.79 0.53
-3 10 -5 5.59 0.67
-4 -10 -5 8.71 0.57
4 -10 5 7.88 0.46
4 -10 5 7.57 0.64
-4 -10 -5 7.75 0.68
4 10 5 8.03 0.73
-4 10 -5 8.62 0.8
4 10 5 7.88 0.62
-4 10 -5 7.82 0.63
-5 -10 -5 6.93 0.73
5 -10 5 5.86 0.64
-5 -10 -5 7.09 0.57
-5 10 -5 7.16 0.81
5 10 5 7.01 0.75
5 10 5 7.34 0.67
6 -10 5 5.39 0.69
-6 -10 -5 5.88 0.54
-6 -10 -5 6.17 0.71
-6 10 -5 4.73 0.71
6 10 5 6.16 0.77
-6 -11 5 0.97 0.33
6 -11 -5 0.54 0.42
-6 11 5 0.69 0.49
6 11 -5 0.37 0.38
-6 11 5 0.76 0.41
6 11 -5 -0.16 0.37
-5 -11 5 -0.2 0.24
5 -11 -5 -0.18 0.24
5 -11 -5 0.2 0.33
5 11 -5 0.07 0.3
-5 11 5 -0.24 0.28
5 11 -5 -0.03 0.36
-5 11 5 -0.04 0.39
4 -11 -5 0.22 0.3
-4 -11 5 0.39 0.29
4 -11 -5 0.29 0.27
4 11 -5 0.1 0.33
-4 11 5 0.37 0.43
-4 11 5 0.13 0.31
4 11 -5 0.31 0.3
-3 -11 5 2.14 0.39
3 -11 -5 2.61 0.39
3 -11 -5 3.3 0.47
-3 -11 5 2.13 0.32
-3 11 5 2.55 0.55
3 11 -5 2.33 0.46
3 11 -5 2.49 0.42
-3 11 5 2.81 0.41
2 -11 -5 0.1 0.22
2 -11 -5 -0.22 0.25
-2 -11 5 0.55 0.28
-2 -11 5 0.64 0.24
2 11 -5 -0.33 0.25
-2 11 5 0.14 0.23
-2 11 5 0.21 0.2
-2 11 5 0.11 0.36
2 11 -5 0.32 0.32
-1 -11 5 3.21 0.46
-1 -11 5 3.11 0.42
1 -11 -5 3.69 0.38
1 -11 -5 2.97 0.41
1 11 -5 3.9 0.6
1 11 -5 3.59 0.5
-1 11 5 4.25 0.45
-1 11 5 3.56 0.54
-1 11 5 3.26 0.36
0 -11 -5 0.2 0.16
0 -11 5 -0.05 0.22
0 -11 -5 0.5 0.26
0 -11 5 0.22 0.25
0 11 5 -0.02 0.35
0 11 5 0.24 0.22
0 11 -5 0.12 0.27
0 11 -5 -0.01 0.31
0 11 5 -0.01 0.21
1 -11 5 0.3 0.26
-1 -11 -5 0.16 0.25
1 -11 5 0.39 0.24
-1 11 -5 0.58 0.35
-1 11 -5 0.5 0.3
1 11 5 0.01 0.32
1 11 5 0.56 0.26
2 -11 5 1.36 0.35
2 -11 5 1.42 0.3
-2 -11 -5 1.29 0.36
-2 -11 -5 1.49 0.33
2 11 5 1.7 0.44
-2 11 -5 0.98 0.33
2 11 5 1.64 0.35
-2 11 -5 1.43 0.42
3 -11 5 0.66 0.31
3 -11 5 0.03 0.21
-3 -11 -5 0.01 0.24
-3 -11 -5 0.01 0.3
3 11 5 0.21 0.37
-3 11 -5 0.51 0.3
-3 11 -5 0.02 0.35
-4 -11 -5 16.55 0.79
-4 -11 -5 16.33 0.91
4 -11 5 15.48 0.88
-4 11 -5 16.2 1.03
4 11 5 16.81 1
-4 11 -5 16.15 0.85
-5 -11 -5 9.26 0.64
-5 -11 -5 5.85 0.69
5 -11 5 7.8 0.74
5 11 5 8.36 0.81
-5 11 -5 8.1 0.89
-6 -11 -5 1.99 0.4
6 -11 5 2.26 0.53
-6 11 -5 2.14 0.58
5 -12 -5 1.74 0.35
5 -12 -5 0.87 0.39
-5 -12 5 1.19 0.36
5 12 -5 0.94 0.37
-5 12 5 -0.05 0.42
5 12 -5 0.56 0.43
-4 -12 5 0.58 0.31
4 -12 -5 0.49 0.29
4 -12 -5 0.42 0.32
4 12 -5 -0.25 0.34
-4 12 5 0.23 0.43
4 12 -5 0.16 0.33
3 -12 -5 3.61 0.5
3 -12 -5 4.28 0.53
-3 -12 5 3.03 0.46
3 12 -5 4.24 0.55
-3 12 5 2.87 0.59
3 12 -5 3.22 0.54
2 -12 -5 -0.05 0.23
-2 -12 5 0.66 0.31
2 -12 -5 0.03 0.27
-2 -12 5 0.38 0.24
-2 12 5 0.17 0.38
2 12 -5 0.57 0.33
2 12 -5 0.15 0.36
1 -12 -5 0.52 0.28
1 -12 -5 0.39 0.21
-1 -12 5 -0.02 0.25
-1 -12 5 0.37 0.25
1 12 -5 0.27 0.29
1 12 -5 -0.01 0.33
-1 12 5 -0.08 0.37
-1 12 5 0.07 0.21
0 -12 5 -0.04 0.24
0 -12 5 0.58 0.28
0 -12 -5 0.49 0.29
0 12 -5 -0.13 0.37
0 12 5 -0.18 0.36
0 12 -5 0.62 0.35
0 12 5 0.29 0.24
1 -12 5 1.48 0.35
1 -12 5 1.52 0.34
-1 -12 -5 1.57 0.35
1 12 5 1.07 0.31
-1 12 -5 1.01 0.43
-1 12 -5 1.72 0.39
1 12 5 1.08 0.41
2 -12 5 1.16 0.3
2 -12 5 0.35 0.3
-2 -12 -5 0.64 0.3
-2 12 -5 0.28 0.3
2 12 5 0.01 0.34
-2 12 -5 0.81 0.42
-3 -12 -5 1.36 0.34
3 -12 5 1.46 0.39
-3 -12 -5 1.14 0.4
3 -12 5 1.2 0.3
-3 12 -5 1.08 0.36
3 12 5 1.32 0.46
-3 12 -5 0.72 0.45
4 -12 5 1.88 0.43
-4 -12 -5 0.85 0.33
-4 -12 -5 1.41 0.44
-4 12 -5 2.02 0.53
4 12 5 1.07 0.46
5 -12 5 0.54 0.36
-5 -12 -5 0.47 0.29
-5 -12 -5 0.22 0.38
-5 12 -5 -0.13 0.45
5 12 5 -0.1 0.37
-4 -13 5 4.39 0.61
4 -13 -5 5.38 0.65
4 -13 -5 3.92 0.54
-4 13 5 3.75 0.67
4 13 -5 4.49 0.68
4 13 -5 3.83 0.56
3 -13 -5 6.89 0.63
3 -13 -5 7.64 0.62
-3 -13 5 7.18 0.66
3 13 -5 6.36 0.76
3 13 -5 7.01 0.7
-3 13 5 8.07 0.93
2 -13 -5 17.95 0.86
-2 -13 5 18.07 0.9
-2 13 5 17.22 1.09
2 13 -5 17.76 0.91
2 13 -5 17.65 1.06
-1 -13 5 9.52 0.68
-1 -13 5 9.3 0.62
1 -13 -5 8.68 0.64
1 13 -5 8.6 0.71
-1 13 5 8.79 0.86
1 13 -5 9.33 0.81
0 -13 -5 2.76 0.44
0 -13 5 2.9 0.45
0 -13 5 2.69 0.42
0 13 -5 1.66 0.51
0 13 -5 2.45 0.47
0 13 5 2.26 0.53
0 13 5 3.13 0.43
-1 -13 -5 1.29 0.36
1 -13 5 1.29 0.34
1 -13 5 0.3 0.28
1 13 5 0.38 0.43
-1 13 -5 1.01 0.39
1 13 5 1.13 0.33
-1 13 -5 0.45 0.42
2 -13 5 1.71 0.36
-2 -13 -5 2.68 0.44
2 -13 5 1.97 0.43
2 13 5 1.74 0.38
-2 13 -5 1.39 0.47
2 13 5 1.34 0.48
-2 13 -5 1.7 0.4
3 -13 5 1.04 0.32
-3 -13 -5 0.99 0.35
3 -13 5 0.7 0.36
-3 13 -5 1.67 0.41
-3 13 -5 0.66 0.49
3 13 5 1.03 0.47
4 -13 5 2.16 0.45
-4 -13 -5 0.74 0.46
-4 -13 -5 2.09 0.44
-4 13 -5 2.48 0.58
-2 -14 5 1.28 0.41
2 -14 -5 1.4 0.38
2 14 -5 2.16 0.46
2 14 -5 0.69 0.48
-2 14 5 2.32 0.6
1 -14 -5 3.88 0.58
-1 -14 5 4.79 0.57
1 14 -5 5.72 0.82
1 14 -5 3.64 0.55
-1 14 5 3.45 0.65
0 -14 5 8.13 0.62
0 -14 -5 7.4 0.68
0 -14 5 7.82 0.67
0 14 -5 6.32 0.86
0 14 -5 8.13 0.72
0 14 5 9.98 0.94
1 -14 5 3.58 0.5
1 -14 5 4.15 0.56
-1 -14 -5 4.05 0.58
1 14 5 3.13 0.48
-1 14 -5 2.76 0.57
1 14 5 3.2 0.66
-1 14 -5 3.12 0.53
-2 -14 -5 10.01 0.76
2 -14 5 11.73 0.78
2 -14 5 9.16 0.67
2 14 5 9.12 0.71
2 14 5 9.76 0.99
-2 14 -5 10.38 0.76
-2 14 -5 8.84 0.9
9 0 -6 7.06 0.76
9 0 -6 8.12 0.63
-9 0 6 9.6 0.86
8 0 -6 2.15 0.45
-8 0 6 2.32 0.47
8 0 -6 1.7 0.34
-7 0 6 2.7 0.47
7 0 -6 1.95 0.26
7 0 -6 2.22 0.34
-7 0 6 2.82 0.45
6 0 -6 7.9 0.4
-6 0 6 7.61 0.58
-6 0 6 8.48 0.61
6 0 -6 8.12 0.49
5 0 -6 50.78 1.14
-5 0 6 50.02 1.34
5 0 -6 48.46 1.1
-5 0 6 50.13 1.33
5 0 -6 50.33 1.2
5 0 -6 49.55 1.07
4 0 -6 40.55 0.9
-4 0 6 41.28 1.09
4 0 -6 40.58 0.95
4 0 -6 41.14 0.98
4 0 -6 41.25 0.89
-4 0 6 40.39 1.05
3 0 -6 26.09 0.61
-3 0 6 25.45 0.7
3 0 -6 25.56 0.6
3 0 -6 25.68 0.68
-3 0 6 24.91 0.69
3 0 -6 26.64 0.68
-3 0 6 26.48 0.76
2 0 -6 5.35 0.24
2 0 -6 5.36 0.28
-2 0 6 4.9 0.27
-2 0 6 5.06 0.3
-2 0 6 4.83 0.24
2 0 -6 5.03 0.24
2 0 -6 5.31 0.32
-2 0 6 5.26 0.34
-2 0 6 5.38 0.23
1 0 -6 7.62 0.3
1 0 -6 7.53 0.31
-1 0 6 7.97 0.31
-1 0 6 7.24 0.29
-1 0 6 7.73 0.37
-1 0 6 7.47 0.33
1 0 -6 8.09 0.32
1 0 -6 7.94 0.36
0 0 6 1.14 0.13
0 0 -6 1.24 0.17
0 0 6 1.16 0.17
0 0 6 1.26 0.19
0 0 6 1.27 0.2
0 0 6 1.23 0.16
0 0 -6 1.05 0.17
0 0 6 1.13 0.12
0 0 -6 1.08 0.15
0 0 -6 1.41 0.2
1 0 6 0.41 0.13
1 0 6 0.5 0.11
-1 0 -6 0.49 0.17
1 0 6 0.54 0.18
1 0 6 0.4 0.13
-1 0 -6 0.47 0.11
-1 0 -6 0.22 0.16
-1 0 -6 0.46 0.14
1 0 6 0.6 0.17
-2 0 -6 -0.2 0.17
2 0 6 0.15 0.09
-2 0 -6 0 0.11
-2 0 -6 0.28 0.17
2 0 6 0.14 0.19
-2 0 -6 0.22 0.09
2 0 6 0.16 0.12
3 0 6 59.85 1.08
-3 0 -6 57.67 1.41
3 0 6 60.45 1.22
3 0 6 58 1.41
-3 0 -6 59.49 1.39
-3 0 -6 61.69 1.21
-3 0 -6 59.1 1.07
4 0 6 52.47 1.39
-4 0 -6 53.14 1.35
4 0 6 53.91 1.16
-4 0 -6 53.8 1.41
-5 0 -6 11.59 0.61
-5 0 -6 11.66 0.68
5 0 6 11.9 0.66
5 0 6 12.84 0.51
6 0 6 4.51 0.39
-6 0 -6 5.07 0.52
-6 0 -6 3.76 0.53
6 0 6 4.72 0.55
7 0 6 26.41 1.16
7 0 6 27.68 0.89
-7 0 -6 26.46 1.16
-7 0 -6 27.58 1.04
8 0 6 23.14 1.15
-8 0 -6 23.34 1.17
-8 0 -6 20.9 0.99
8 0 6 22.87 0.86
-9 0 -6 20.89 1.24
9 0 6 19.38 1.18
-9 0 -6 20.82 1
9 -1 -6 0.25 0.4
-9 -1 6 0.53 0.39
9 -1 -6 0.02 0.27
-9 1 6 0.42 0.41
9 1 -6 0.17 0.26
9 1 -6 -0.31 0.33
8 -1 -6 0.98 0.32
-8 -1 6 1.12 0.4
-8 1 6 0.64 0.39
8 1 -6 1.29 0.42
8 1 -6 1.18 0.29
7 -1 -6 1.68 0.32
7 -1 -6 1.35 0.22
-7 -1 6 2.24 0.42
7 1 -6 1.84 0.32
-7 1 6 1.38 0.39
-7 1 6 1.27 0.39
7 1 -6 1.92 0.26
6 -1 -6 5.35 0.34
6 -1 -6 4.58 0.27
6 -1 -6 5.6 0.43
-6 -1 6 5.34 0.53
-6 -1 6 5.24 0.52
-6 1 6 5.5 0.53
6 1 -6 4.72 0.4
6 1 -6 4.23 0.34
-6 1 6 5.53 0.54
5 -1 -6 11.86 0.39
5 -1 -6 12.13 0.38
-5 -1 6 12.32 0.59
5 -1 -6 12.07 0.52
5 -1 -6 11.81 0.45
-5 -1 6 11.75 0.59
-5 1 6 12.34 0.62
5 1 -6 13.38 0.53
5 1 -6 11.42 0.45
5 1 -6 11.87 0.47
-5 1 6 12.27 0.62
4 -1 -6 19.34 0.49
4 -1 -6 19.52 0.47
-4 -1 6 19.57 0.69
4 -1 -6 19.94 0.63
-4 -1 6 19.2 0.66
-4 -1 6 19.96 0.63
4 -1 -6 20.41 0.58
-4 1 6 19.5 0.72
4 1 -6 19.61 0.56
-4 1 6 19.37 0.68
4 1 -6 18.93 0.56
4 1 -6 19.64 0.59
3 -1 -6 0.01 0.12
3 -1 -6 -0.04 0.08
-3 -1 6 0.05 0.14
-3 -1 6 -0.03 0.17
3 -1 -6 0.05 0.08
-3 -1 6 -0.07 0.15
3 -1 -6 -0.02 0.12
3 -1 -6 -0.07 0.13
3 1 -6 -0.01 0.11
3 1 -6 0.15 0.12
-3 1 6 -0.07 0.17
3 1 -6 0.18 0.13
3 1 -6 0.06 0.11
-3 1 6 -0.18 0.15
2 -1 -6 1.57 0.21
-2 -1 6 1.51 0.17
-2 -1 6 1.22 0.19
-2 -1 6 1.46 0.19
2 -1 -6 1.64 0.21
2 -1 -6 1.62 0.23
2 -1 -6 1.19 0.18
-2 -1 6 1.19 0.19
2 -1 -6 1.17 0.14
2 1 -6 1.68 0.19
-2 1 6 1.4 0.23
2 1 -6 1.53 0.17
-2 1 6 1.19 0.19
-2 1 6 1.67 0.22
-2 1 6 1.2 0.13
2 1 -6 1.23 0.17
2 1 -6 1.46 0.22
-2 1 6 1.27 0.17
2 1 -6 1.86 0.25
2 1 -6 1.57 0.19
1 -1 -6 72.78 1.41
-1 -1 6 72.54 1.43
1 -1 -6 75.99 1.42
1 -1 -6 71.85 1.38
1 -1 -6 70.89 1.54
-1 -1 6 74.47 1.48
-1 -1 6 74.16 1.44
1 -1 -6 71.9 1.42
1 1 -6 71.2 1.42
-1 1 6 73.08 1.41
-1 1 6 72.45 1.42
-1 1 6 74.36 1.55
1 1 -6 75.24 1.46
1 1 -6 74.67 1.49
1 1 -6 76.13 1.42
1 1 -6 74.36 1.42
-1 1 6 72.73 1.39
-1 1 6 74.66 1.4
0 -1 -6 2.54 0.21
0 -1 6 2.61 0.27
0 -1 6 2.7 0.16
0 -1 6 2.58 0.24
0 -1 -6 2.66 0.25
0 -1 6 2.41 0.24
0 -1 -6 2.68 0.26
0 1 -6 2.22 0.24
0 1 6 2.91 0.29
0 1 6 2.24 0.2
0 1 6 2.37 0.18
0 1 -6 2.27 0.21
0 1 -6 2.5 0.15
0 1 -6 2.5 0.25
0 1 6 2.3 0.2
0 1 6 2.12 0.22
0 1 -6 2.41 0.19
0 1 -6 2.7 0.21
1 -1 6 0.68 0.15
-1 -1 -6 0.8 0.12
1 -1 6 0.92 0.16
-1 -1 -6 0.91 0.13
-1 -1 -6 0.96 0.21
-1 -1 -6 0.78 0.19
1 -1 6 0.7 0.18
1 -1 6 0.76 0.17
1 1 6 0.87 0.13
-1 1 -6 0.82 0.13
-1 1 -6 0.94 0.12
-1 1 -6 0.67 0.18
1 1 6 0.66 0.14
1 1 6 0.92 0.22
1 1 6 0.66 0.15
1 1 6 0.94 0.19
-1 1 -6 0.78 0.17
1 1 6 0.73 0.13
-1 1 -6 0.92 0.16
-1 1 -6 0.92 0.16
-2 -1 -6 27.96 0.62
-2 -1 -6 28.41 0.79
-2 -1 -6 28.25 0.61
2 -1 6 28.45 0.69
2 -1 6 27.81 0.78
-2 -1 -6 27.88 0.78
-2 1 -6 27.52 0.8
-2 1 -6 27.24 0.76
2 1 6 29.21 0.82
-2 1 -6 27.42 0.58
-2 1 -6 28.09 0.69
2 1 6 28.61 0.62
-2 1 -6 27.58 0.58
2 1 6 27.43 0.77
2 1 6 28.24 0.63
3 -1 6 3.45 0.35
-3 -1 -6 3.75 0.37
3 -1 6 3.23 0.28
-3 -1 -6 3.77 0.18
-3 -1 -6 3.15 0.38
-3 -1 -6 3.75 0.22
-3 1 -6 2.81 0.35
3 1 6 3.43 0.18
3 1 6 3.54 0.36
-3 1 -6 3.37 0.13
3 1 6 3.57 0.23
-3 1 -6 3.34 0.38
4 -1 6 1.51 0.23
-4 -1 -6 1.31 0.28
-4 -1 -6 1.2 0.28
4 -1 6 1.35 0.28
-4 -1 -6 1.61 0.12
-4 -1 -6 1.83 0.19
4 1 6 1.81 0.14
4 1 6 1.24 0.26
-4 1 -6 2.14 0.31
-4 1 -6 2.16 0.33
4 1 6 1.5 0.22
5 -1 6 0.27 0.25
-5 -1 -6 0.46 0.26
5 -1 6 0.48 0.2
-5 -1 -6 0.1 0.24
5 1 6 0.23 0.16
-5 1 -6 0.14 0.25
-5 1 -6 0.36 0.26
5 1 6 0.06 0.24
6 -1 6 6.76 0.6
-6 -1 -6 5.95 0.53
-6 -1 -6 4.77 0.55
6 -1 6 5.48 0.44
-6 1 -6 4.72 0.51
6 1 6 5.01 0.37
6 1 6 4.68 0.55
-6 1 -6 5.46 0.59
7 -1 6 5.19 0.63
-7 -1 -6 5.31 0.65
7 -1 6 5.09 0.47
-7 -1 -6 5.26 0.55
7 1 6 5.06 0.42
-7 1 -6 5.92 0.56
7 1 6 5.34 0.65
-7 1 -6 4.29 0.64
8 -1 6 0.65 0.29
8 -1 6 0.63 0.4
-8 -1 -6 0.56 0.34
-8 -1 -6 0.91 0.41
-8 1 -6 0.63 0.34
8 1 6 0.85 0.44
-8 1 -6 0.75 0.4
-9 -1 -6 0.36 0.36
-9 -1 -6 -0.13 0.36
9 -1 6 0.26 0.41
9 1 6 -0.64 0.38
-9 1 -6 -0.34 0.33
-9 1 -6 0.42 0.33
9 -2 -6 -0.35 0.26
-9 -2 6 0.44 0.38
9 -2 -6 0.04 0.38
-9 2 6 0.15 0.39
9 2 -6 -0.2 0.34
9 2 -6 0.3 0.25
-8 -2 6 2.12 0.44
8 -2 -6 1.42 0.36
-8 2 6 2.08 0.46
8 2 -6 2.79 0.35
8 2 -6 2.6 0.39
8 2 -6 1.42 0.42
-8 2 6 2.51 0.51
7 -2 -6 1.37 0.22
7 -2 -6 1.49 0.32
-7 -2 6 2.28 0.42
-7 2 6 1.44 0.38
7 2 -6 1.53 0.25
7 2 -6 1.4 0.37
7 2 -6 1.63 0.28
-7 2 6 2.34 0.47
-6 -2 6 1.49 0.32
6 -2 -6 1.42 0.17
-6 -2 6 1.71 0.34
6 -2 -6 1.18 0.2
6 -2 -6 1.34 0.28
-6 2 6 1.14 0.35
-6 2 6 1.67 0.37
6 2 -6 1.45 0.25
6 2 -6 1.51 0.24
5 -2 -6 0.13 0.08
-5 -2 6 0.05 0.2
5 -2 -6 0.09 0.18
5 -2 -6 0.03 0.08
5 -2 -6 0.11 0.12
-5 -2 6 -0.13 0.2
-5 2 6 -0.09 0.23
-5 2 6 0.21 0.23
5 2 -6 -0.04 0.15
5 2 -6 -0.2 0.13
5 2 -6 -0.05 0.13
-4 -2 6 0.84 0.22
4 -2 -6 0.82 0.2
4 -2 -6 1.58 0.22
-4 -2 6 0.9 0.2
-4 -2 6 0.73 0.21
-4 2 6 0.94 0.25
4 2 -6 1.1 0.18
4 2 -6 1.36 0.19
-4 2 6 1.41 0.29
3 -2 -6 8.52 0.37
3 -2 -6 9.36 0.4
-3 -2 6 10.01 0.42
-3 -2 6 9.9 0.43
3 -2 -6 8.49 0.4
3 2 -6 9.69 0.39
3 2 -6 9.68 0.37
-3 2 6 9.16 0.49
3 2 -6 8.63 0.4
-3 2 6 9.08 0.43
2 -2 -6 1.46 0.21
2 -2 -6 1.23 0.13
2 -2 -6 0.99 0.16
-2 -2 6 0.88 0.17
-2 -2 6 1.2 0.19
-2 -2 6 1.12 0.16
2 -2 -6 0.96 0.17
-2 -2 6 1.15 0.18
-2 2 6 1.04 0.19
-2 2 6 1.1 0.21
-2 2 6 0.99 0.11
2 2 -6 1.11 0.17
2 2 -6 0.86 0.14
2 2 -6 1.02 0.14
2 2 -6 1.15 0.17
-1 -2 6 97.46 1.84
1 -2 -6 101.13 1.89
-1 -2 6 97.83 1.9
-1 -2 6 102 1.89
-1 -2 6 103.69 1.93
1 -2 -6 98.56 1.92
1 -2 -6 99.24 1.86
1 -2 -6 99.86 2.04
-1 -2 6 101.28 1.94
1 -2 -6 102.59 1.86
1 2 -6 99.88 1.9
-1 2 6 101.88 2.05
1 2 -6 104.04 1.93
-1 2 6 101.17 1.93
1 2 -6 102.46 1.89
-1 2 6 100.88 1.86
1 2 -6 99.7 1.84
1 2 -6 102.19 1.95
-1 2 6 102.77 1.86
-1 2 6 98.75 1.89
0 -2 -6 0.57 0.18
0 -2 -6 0.57 0.13
0 -2 6 0.78 0.15
0 -2 -6 0.74 0.12
0 -2 -6 0.68 0.14
0 -2 6 0.68 0.16
0 -2 -6 0.68 0.15
0 -2 6 0.81 0.16
0 -2 6 0.4 0.13
0 -2 6 0.72 0.11
0 2 -6 0.48 0.14
0 2 6 0.77 0.21
0 2 6 0.5 0.13
0 2 6 0.53 0.14
0 2 -6 0.79 0.18
0 2 6 0.76 0.13
0 2 -6 0.86 0.14
0 2 -6 0.73 0.15
0 2 -6 0.73 0.12
-1 -2 -6 10.79 0.45
1 -2 6 11.5 0.4
1 -2 6 10.74 0.42
-1 -2 -6 10.68 0.3
1 -2 6 10.98 0.41
-1 -2 -6 10.92 0.49
-1 -2 -6 11.26 0.36
-1 2 -6 10.85 0.4
1 2 6 11.35 0.44
1 2 6 11.38 0.36
-1 2 -6 10.32 0.45
-1 2 -6 10.82 0.4
-1 2 -6 10.94 0.33
-1 2 -6 11.17 0.4
1 2 6 10.75 0.41
-1 2 -6 10.87 0.33
1 2 6 10.61 0.31
1 2 6 11.18 0.48
2 -2 6 15.08 0.5
-2 -2 -6 14.63 0.42
2 -2 6 14.37 0.53
-2 -2 -6 14.75 0.36
-2 -2 -6 15.68 0.55
2 2 6 14.76 0.37
2 2 6 14.88 0.58
-2 2 -6 14.77 0.56
-2 2 -6 14.99 0.37
2 2 6 15.48 0.42
2 2 6 14.52 0.53
-2 2 -6 14.58 0.55
-2 2 -6 14.99 0.36
-3 -2 -6 21.36 0.51
3 -2 6 21.21 0.63
-3 -2 -6 21.28 0.48
-3 -2 -6 20.18 0.71
-3 -2 -6 20.81 0.73
3 -2 6 20.59 0.7
-3 2 -6 20.65 0.42
-3 2 -6 20.66 0.71
3 2 6 20.6 0.49
-3 2 -6 20.62 0.72
3 2 6 21.57 0.75
3 2 6 21.05 0.52
4 -2 6 6.34 0.39
-4 -2 -6 6.5 0.47
-4 -2 -6 6.76 0.25
-4 -2 -6 6.96 0.27
-4 -2 -6 6.69 0.49
4 -2 6 6.22 0.46
-4 2 -6 6.47 0.48
-4 2 -6 5.64 0.46
4 2 6 5.97 0.25
4 2 6 6.68 0.48
4 2 6 6.12 0.28
5 -2 6 0.42 0.28
-5 -2 -6 0.48 0.24
5 -2 6 0.47 0.21
-5 -2 -6 0.21 0.24
-5 -2 -6 0.29 0.09
-5 2 -6 0.15 0.23
5 2 6 0.4 0.15
-5 2 -6 0.57 0.29
5 2 6 0.07 0.26
5 2 6 0.24 0.09
6 -2 6 0.25 0.23
6 -2 6 0.22 0.3
-6 -2 -6 -0.17 0.24
-6 -2 -6 0.66 0.3
-6 2 -6 -0.31 0.23
6 2 6 0.25 0.16
6 2 6 -0.07 0.28
-6 2 -6 0.16 0.23
7 -2 6 1.93 0.36
-7 -2 -6 1.82 0.39
7 -2 6 1.56 0.42
-7 -2 -6 2.24 0.45
-7 2 -6 2.37 0.41
7 2 6 1.6 0.43
-7 2 -6 2.7 0.52
-8 -2 -6 0.21 0.37
-8 -2 -6 0.75 0.35
8 -2 6 0.66 0.39
8 -2 6 0.62 0.3
-8 2 -6 0.39 0.38
8 2 6 0.67 0.43
-8 2 -6 -0.05 0.27
9 -2 6 4.95 0.76
-9 -2 -6 5.05 0.66
9 -2 6 4.27 0.58
-9 -2 -6 4.56 0.68
-9 2 -6 4.89 0.76
-9 2 -6 4.2 0.62
9 2 6 4.34 0.7
9 -3 -6 0.22 0.4
9 -3 -6 0.07 0.32
9 3 -6 0.22 0.23
9 3 -6 0.22 0.37
-9 3 6 1.05 0.43
8 -3 -6 0.84 0.32
-8 3 6 0.09 0.42
-8 3 6 0.75 0.38
8 3 -6 1.02 0.28
8 3 -6 0.81 0.24
8 3 -6 0.95 0.36
7 -3 -6 4.23 0.32
7 -3 -6 3.62 0.48
-7 -3 6 3.52 0.49
7 3 -6 3.3 0.46
-7 3 6 4.65 0.64
7 3 -6 3.19 0.35
-7 3 6 2.21 0.46
7 3 -6 3.86 0.37
-6 -3 6 7.71 0.57
6 -3 -6 8.09 0.4
6 -3 -6 8.06 0.53
-6 3 6 6.66 0.57
6 3 -6 7.64 0.44
6 3 -6 7.07 0.43
6 3 -6 6.73 0.53
-6 3 6 7.44 0.65
-5 -3 6 0.35 0.2
5 -3 -6 0.51 0.21
5 -3 -6 0.42 0.15
-5 -3 6 0.38 0.23
5 3 -6 0.4 0.16
-5 3 6 0.5 0.27
-5 3 6 0.48 0.27
5 3 -6 0.63 0.18
-4 -3 6 6.06 0.4
-4 -3 6 6.86 0.4
4 -3 -6 6.05 0.4
-4 -3 6 6.4 0.38
4 -3 -6 6.6 0.35
4 3 -6 6.25 0.35
-4 3 6 6.11 0.47
-4 3 6 6.54 0.47
4 3 -6 6.74 0.38
-3 -3 6 4.87 0.32
-3 -3 6 4.39 0.32
3 -3 -6 4.37 0.31
3 -3 -6 4.66 0.29
-3 -3 6 4.61 0.31
3 3 -6 4.95 0.3
-3 3 6 4.4 0.4
-3 3 6 4.34 0.37
3 3 -6 4.35 0.31
3 3 -6 4.69 0.31
3 3 -6 5.21 0.32
2 -3 -6 -0.07 0.13
-2 -3 6 0.28 0.15
-2 -3 6 0.44 0.15
2 -3 -6 0.22 0.12
2 -3 -6 0.07 0.13
-2 -3 6 0.21 0.13
2 3 -6 0.26 0.15
2 3 -6 0.29 0.12
-2 3 6 0.1 0.19
-2 3 6 0.1 0.16
2 3 -6 0.2 0.12
2 3 -6 0 0.12
-1 -3 6 7.69 0.28
-1 -3 6 7.58 0.35
1 -3 -6 7.3 0.34
1 -3 -6 7.26 0.28
-1 -3 6 7.45 0.28
1 -3 -6 7.51 0.34
1 -3 -6 7.55 0.3
-1 -3 6 7.38 0.34
-1 3 6 7.45 0.37
1 3 -6 7.92 0.3
-1 3 6 7.59 0.29
1 3 -6 7.35 0.29
1 3 -6 7.39 0.36
-1 3 6 7.83 0.42
0 -3 -6 79.72 1.56
0 -3 -6 79.41 1.52
0 -3 -6 75.58 1.43
0 -3 6 77.55 1.55
0 -3 6 77.13 1.53
0 -3 6 77.8 1.52
0 -3 6 78.15 1.51
0 -3 -6 77.85 1.59
0 3 -6 79.26 1.54
0 3 -6 77.01 1.5
0 3 -6 78.96 1.62
0 3 6 78.57 1.67
0 3 6 78.7 1.59
0 3 -6 76.03 1.49
0 3 6 77.4 1.59
-1 -3 -6 12.57 0.46
-1 -3 -6 12.38 0.31
-1 -3 -6 12.83 0.41
1 -3 6 12.45 0.46
1 -3 6 12.69 0.42
1 -3 6 11.95 0.39
1 -3 6 12.33 0.45
-1 -3 -6 12.46 0.49
1 3 6 12.98 0.53
-1 3 -6 12.53 0.37
1 3 6 12.53 0.41
-1 3 -6 12.31 0.46
-1 3 -6 12.81 0.49
1 3 6 12.48 0.48
-1 3 -6 12.76 0.42
1 3 6 12.35 0.31
-2 -3 -6 0.04 0.11
2 -3 6 0.27 0.16
2 -3 6 -0.01 0.09
2 -3 6 -0.08 0.15
-2 -3 -6 0.06 0.17
2 3 6 -0.05 0.09
2 3 6 0.19 0.07
-2 3 -6 0.13 0.18
2 3 6 0.09 0.19
-2 3 -6 -0.07 0.11
2 3 6 0.19 0.16
-2 3 -6 -0.04 0.15
-2 3 -6 0.1 0.07
-3 -3 -6 0.13 0.06
-3 -3 -6 0.24 0.18
-3 -3 -6 0.01 0.11
3 -3 6 0.11 0.16
3 -3 6 0.08 0.18
-3 3 -6 0.28 0.19
-3 3 -6 0.43 0.21
-3 3 -6 0.09 0.07
3 3 6 0.09 0.07
3 3 6 -0.02 0.17
3 3 6 0.2 0.1
-3 3 -6 0.22 0.07
3 3 6 0.26 0.22
-4 -3 -6 3.52 0.22
4 -3 6 2.91 0.35
-4 -3 -6 3.3 0.17
-4 -3 -6 3.49 0.4
4 -3 6 3.53 0.42
-4 3 -6 4.15 0.46
4 3 6 3.24 0.22
4 3 6 3.16 0.19
-4 3 -6 4.11 0.39
4 3 6 2.66 0.4
4 3 6 3.03 0.39
5 -3 6 0.28 0.27
-5 -3 -6 0.24 0.11
5 -3 6 -0.18 0.19
-5 -3 -6 0.3 0.25
-5 3 -6 0.27 0.28
5 3 6 0.25 0.26
5 3 6 0.29 0.11
5 3 6 0.34 0.12
-5 3 -6 0.16 0.23
-6 -3 -6 2.11 0.38
6 -3 6 1.3 0.3
-6 -3 -6 1.86 0.41
6 -3 6 1.77 0.4
-6 3 -6 1.42 0.4
6 3 6 2.06 0.4
6 3 6 2.06 0.24
-6 3 -6 1.85 0.37
7 -3 6 3.44 0.53
7 -3 6 3.96 0.51
-7 -3 -6 4.62 0.56
7 3 6 4.73 0.62
-7 3 -6 4.15 0.64
-7 3 -6 4.45 0.53
-8 -3 -6 1.84 0.45
8 -3 6 1.54 0.38
8 -3 6 2.01 0.51
8 3 6 2.73 0.54
-8 3 -6 1.94 0.41
-8 3 -6 2.13 0.51
9 -3 6 6.06 0.65
-9 -3 -6 6.69 0.71
9 -3 6 6.83 0.81
9 3 6 8.4 0.88
-9 3 -6 8.03 0.9
9 -4 -6 1.16 0.41
9 -4 -6 1.69 0.51
9 4 -6 1.9 0.5
9 4 -6 1.99 0.35
9 4 -6 1.87 0.44
-9 4 6 1.69 0.55
8 -4 -6 2.31 0.42
-8 4 6 2.57 0.53
8 4 -6 2.83 0.48
8 4 -6 2.04 0.32
8 4 -6 2.72 0.46
8 4 -6 2.23 0.34
8 4 -6 2.93 0.39
-8 4 6 2.63 0.56
7 -4 -6 24.58 0.94
7 -4 -6 24.32 0.74
7 4 -6 24.81 0.96
7 4 -6 24.26 0.86
7 4 -6 24.64 0.98
-7 4 6 23.55 1.12
7 4 -6 21.58 0.78
7 4 -6 24.02 0.82
-7 4 6 23.72 1.08
6 -4 -6 13.75 0.53
-6 4 6 12.4 0.74
6 4 -6 12.61 0.64
6 4 -6 12.48 0.58
-6 4 6 14.74 0.81
6 4 -6 12.83 0.55
6 4 -6 13.27 0.67
5 -4 -6 4.98 0.34
-5 -4 6 4.09 0.37
5 -4 -6 3.48 0.38
-5 -4 6 4.29 0.39
5 4 -6 3.91 0.37
-5 4 6 4.28 0.48
-5 4 6 4.37 0.53
5 4 -6 4.58 0.39
5 4 -6 4.13 0.36
4 -4 -6 23.83 0.69
4 -4 -6 22.66 0.73
-4 -4 6 24.54 0.73
-4 -4 6 23.95 0.74
-4 -4 6 23.32 0.72
-4 4 6 23.32 0.86
4 4 -6 24.46 0.76
-4 4 6 24.41 0.87
4 4 -6 24.24 0.74
3 -4 -6 28.39 0.78
-3 -4 6 28.96 0.79
-3 -4 6 29.68 0.81
-3 -4 6 30.66 0.76
3 -4 -6 29.48 0.77
3 4 -6 29.72 0.75
3 4 -6 29.32 0.79
-3 4 6 28.43 0.89
-3 4 6 28.61 0.91
3 4 -6 30.25 0.83
-2 -4 6 4.54 0.27
-2 -4 6 3.8 0.29
-2 -4 6 3.9 0.31
2 -4 -6 4.15 0.3
2 -4 -6 3.71 0.28
-2 -4 6 4.41 0.24
2 -4 -6 3.74 0.16
2 4 -6 4.59 0.24
2 4 -6 4.27 0.32
2 4 -6 4.02 0.28
-2 4 6 4.11 0.17
-2 4 6 4.29 0.38
-2 4 6 4.13 0.36
1 -4 -6 25.59 0.6
-1 -4 6 25.17 0.55
-1 -4 6 25.91 0.66
-1 -4 6 25.93 0.71
-1 -4 6 26.25 0.69
1 -4 -6 24.88 0.67
1 -4 -6 26.13 0.64
1 -4 -6 25.76 0.63
1 4 -6 26.3 0.73
-1 4 6 25.62 0.76
-1 4 6 25.6 0.75
-1 4 6 24.89 0.61
1 4 -6 24.71 0.56
1 4 -6 25.63 0.67
0 -4 6 61.41 1.3
0 -4 -6 59.54 1.15
0 -4 6 61.22 1.29
0 -4 6 61.31 1.25
0 -4 -6 61.41 1.14
0 -4 6 59.99 1.18
0 -4 -6 59.21 1.25
0 -4 -6 60.16 1.26
0 4 -6 61.53 1.3
0 4 6 61.23 1.4
0 4 6 58.98 1.35
0 4 -6 60.27 1.17
0 4 -6 60.39 1.34
0 4 6 59.09 1.28
-1 -4 -6 0.24 0.07
1 -4 6 0.07 0.14
1 -4 6 0.17 0.14
-1 -4 -6 0.27 0.07
1 -4 6 0.13 0.12
-1 -4 -6 0.25 0.17
1 -4 6 0.11 0.12
-1 -4 -6 -0.01 0.12
-1 4 -6 0.22 0.11
-1 4 -6 0.06 0.16
-1 4 -6 0.33 0.17
1 4 6 0.07 0.16
1 4 6 0.39 0.19
2 -4 6 1.51 0.22
2 -4 6 1.69 0.25
2 -4 6 1.44 0.19
-2 -4 -6 1.55 0.22
-2 -4 -6 1.38 0.24
2 4 6 1.29 0.23
-2 4 -6 1.07 0.15
-2 4 -6 1.21 0.24
-2 4 -6 1.33 0.25
2 4 6 1.31 0.25
-2 4 -6 1.42 0.21
3 -4 6 1.34 0.24
-3 -4 -6 0.96 0.17
-3 -4 -6 1.47 0.27
3 -4 6 1.29 0.25
3 -4 6 1.08 0.14
-3 4 -6 1.31 0.13
3 4 6 1.03 0.25
-3 4 -6 1.25 0.26
-3 4 -6 1.53 0.28
3 4 6 0.77 0.25
-4 -4 -6 2.96 0.24
4 -4 6 2.56 0.34
4 -4 6 2.56 0.34
-4 -4 -6 2.66 0.4
-4 4 -6 2.73 0.36
4 4 6 2.53 0.38
4 4 6 2.58 0.39
-4 4 -6 2.39 0.36
-5 -4 -6 14.53 0.7
-5 -4 -6 14.06 0.46
5 -4 6 13.1 0.7
5 -4 6 14.47 0.67
5 4 6 14.24 0.73
-5 4 -6 13.68 0.79
5 4 6 15.7 0.77
-5 4 -6 14.82 0.71
6 -4 6 5.65 0.53
-6 -4 -6 6.49 0.31
-6 -4 -6 5.98 0.58
6 -4 6 7.68 0.65
-6 4 -6 5.97 0.66
6 4 6 6.6 0.61
-6 4 -6 6.52 0.55
6 4 6 5.69 0.61
7 -4 6 10.03 0.81
7 -4 6 10.12 0.67
-7 -4 -6 9.88 0.73
7 4 6 8.64 0.74
7 4 6 9.98 0.82
-7 4 -6 9.33 0.64
-7 4 -6 10.98 0.86
8 -4 6 1.77 0.41
8 -4 6 1.1 0.46
-8 -4 -6 1.15 0.37
-8 4 -6 1.31 0.38
8 4 6 2.03 0.51
-8 4 -6 2.13 0.51
8 4 6 1.45 0.45
9 -5 -6 4.52 0.66
9 -5 -6 3.99 0.59
9 5 -6 3.23 0.46
9 5 -6 4.24 0.65
9 5 -6 4.98 0.65
-9 5 6 2.63 0.64
8 -5 -6 4.86 0.6
-8 5 6 6.31 0.82
8 5 -6 5.56 0.49
8 5 -6 4.33 0.46
8 5 -6 4.9 0.58
8 5 -6 4.91 0.45
8 5 -6 5.54 0.64
-8 5 6 5.09 0.69
7 -5 -6 13.12 0.56
7 -5 -6 13.39 0.74
7 5 -6 12.76 0.59
-7 5 6 13.69 0.86
7 5 -6 15.24 0.79
7 5 -6 12.89 0.6
7 5 -6 14.05 0.72
7 5 -6 13.95 0.68
-7 5 6 13.55 0.93
6 -5 -6 10.35 0.5
6 -5 -6 11.03 0.62
-6 -5 6 10.16 0.56
6 5 -6 9.94 0.57
6 5 -6 10.98 0.59
6 5 -6 11.12 0.63
-6 5 6 11.1 0.81
-6 5 6 9.22 0.69
5 -5 -6 0.93 0.27
-5 -5 6 1.2 0.25
-5 -5 6 1.12 0.25
5 -5 -6 0.71 0.2
-5 5 6 0.89 0.31
5 5 -6 1.05 0.26
5 5 -6 1.04 0.23
-5 5 6 1.07 0.34
5 5 -6 1.54 0.29
4 -5 -6 27.72 0.86
-4 -5 6 29.26 0.85
4 -5 -6 27.72 0.8
-4 -5 6 29.04 0.82
-4 5 6 26.94 0.95
4 5 -6 30.52 0.81
4 5 -6 28.82 0.87
4 5 -6 29.19 0.87
-4 5 6 27.77 0.97
-3 -5 6 49.3 1.13
-3 -5 6 46.62 1.15
3 -5 -6 49.13 1.13
3 -5 -6 47.07 1.15
3 5 -6 50.3 1.06
3 5 -6 48.57 1.06
3 5 -6 49.58 1.18
-3 5 6 46.4 1.27
3 5 -6 48.59 1.19
-3 5 6 47.03 1.27
-2 -5 6 8.08 0.41
2 -5 -6 7.33 0.38
-2 -5 6 8.72 0.42
2 -5 -6 7.98 0.39
-2 5 6 8 0.27
-2 5 6 7.91 0.47
-2 5 6 8.7 0.49
2 5 -6 8.86 0.44
2 5 -6 8.73 0.41
2 5 -6 8.05 0.27
1 -5 -6 0.13 0.12
1 -5 -6 -0.03 0.12
-1 -5 6 0.1 0.16
1 -5 -6 0.16 0.14
-1 -5 6 0.22 0.14
1 -5 -6 -0.09 0.11
-1 -5 6 -0.11 0.12
1 5 -6 0.04 0.16
-1 5 6 -0.12 0.17
-1 5 6 0.06 0.18
-1 5 6 -0.03 0.11
1 5 -6 0.05 0.15
0 -5 6 3.24 0.26
0 -5 -6 3.38 0.21
0 -5 -6 3.16 0.28
0 -5 6 3.21 0.16
0 -5 6 3.4 0.31
0 -5 -6 3.77 0.21
0 -5 -6 3.66 0.28
0 5 6 3.07 0.27
0 5 -6 2.98 0.31
0 5 6 3.51 0.34
0 5 -6 3.43 0.32
0 5 6 3.67 0.34
-1 -5 -6 0.7 0.09
-1 -5 -6 0.78 0.2
1 -5 6 0.56 0.19
-1 -5 -6 0.83 0.11
1 -5 6 0.55 0.13
1 -5 6 0.6 0.15
-1 -5 -6 0.74 0.17
1 -5 6 0.77 0.13
-1 5 -6 0.82 0.21
-1 5 -6 0.54 0.2
1 5 6 0.6 0.21
1 5 6 0.31 0.21
2 -5 6 0.46 0.15
-2 -5 -6 0.43 0.2
-2 -5 -6 0.45 0.16
2 -5 6 0.21 0.18
2 -5 6 0.31 0.16
2 -5 6 0.49 0.14
-2 5 -6 0.3 0.2
2 5 6 0.55 0.22
-2 5 -6 0.34 0.2
2 5 6 0.32 0.21
-3 -5 -6 1.67 0.28
-3 -5 -6 1.75 0.25
3 -5 6 1.41 0.2
3 -5 6 1.75 0.27
3 -5 6 1.77 0.28
3 5 6 1.28 0.27
-3 5 -6 1.67 0.17
-3 5 -6 1.56 0.27
-3 5 -6 1.74 0.3
3 5 6 1.97 0.33
-4 -5 -6 1.93 0.26
4 -5 6 2.19 0.19
4 -5 6 2.69 0.37
4 -5 6 3.08 0.38
-4 -5 -6 1.84 0.32
-4 5 -6 2.21 0.16
4 5 6 1.9 0.35
4 5 6 2.65 0.38
-4 5 -6 2.41 0.35
-4 5 -6 3.03 0.47
-5 -5 -6 3.65 0.47
-5 -5 -6 4.1 0.3
5 -5 6 4.16 0.51
5 -5 6 4.28 0.46
-5 5 -6 5.18 0.49
-5 5 -6 4.51 0.56
5 5 6 4.03 0.51
5 5 6 4.51 0.53
6 -5 6 4.36 0.52
6 -5 6 4.27 0.57
-6 -5 -6 4.13 0.53
-6 -5 -6 3.91 0.3
6 5 6 5.6 0.58
-6 5 -6 5.12 0.52
-6 5 -6 4.11 0.62
6 5 6 4.56 0.63
-7 -5 -6 1.61 0.41
7 -5 6 2.19 0.42
7 -5 6 1.44 0.45
7 5 6 1.5 0.46
7 5 6 2.77 0.49
-7 5 -6 2.46 0.51
-7 5 -6 2.38 0.41
-8 -5 -6 0.07 0.32
8 -5 6 -0.04 0.31
8 -5 6 0.07 0.39
-8 5 -6 -0.43 0.36
8 5 6 0.32 0.36
8 5 6 0.13 0.42
-9 6 6 0.01 0.45
9 6 -6 1.11 0.42
9 6 -6 1.11 0.29
8 -6 -6 0.01 0.32
8 6 -6 0.93 0.38
8 6 -6 0.83 0.33
-8 6 6 -0.31 0.41
8 6 -6 0.5 0.28
8 6 -6 0.39 0.23
-8 6 6 0.02 0.4
-7 -6 6 -0.01 0.23
7 -6 -6 0.01 0.31
-7 6 6 0.58 0.43
7 6 -6 -0.17 0.21
7 6 -6 0.28 0.22
7 6 -6 0.06 0.2
-7 6 6 -0.2 0.35
7 6 -6 0.29 0.3
-6 -6 6 0.95 0.27
-6 -6 6 0.61 0.23
6 -6 -6 0.46 0.2
6 -6 -6 0.43 0.27
6 6 -6 0.49 0.25
6 6 -6 0.9 0.31
-6 6 6 0.12 0.34
6 6 -6 0.23 0.23
-6 6 6 0.31 0.36
5 -6 -6 6.3 0.41
5 -6 -6 5.67 0.48
-5 -6 6 5.65 0.47
-5 -6 6 6.06 0.43
5 6 -6 6.74 0.44
5 6 -6 6.47 0.5
5 6 -6 6.94 0.51
-5 6 6 6.86 0.57
-5 6 6 6.32 0.65
-4 -6 6 -0.14 0.17
4 -6 -6 0.12 0.17
4 -6 -6 -0.01 0.18
-4 -6 6 0.39 0.19
-4 6 6 0.15 0.26
4 6 -6 0.36 0.21
4 6 -6 0.45 0.22
-4 6 6 -0.02 0.26
4 6 -6 -0.06 0.16
3 -6 -6 2.47 0.3
-3 -6 6 2.4 0.3
-3 -6 6 2.73 0.33
3 -6 -6 2.94 0.34
-3 6 6 2.63 0.36
3 6 -6 2.78 0.33
-3 6 6 2.73 0.43
3 6 -6 2.71 0.21
3 6 -6 2.59 0.22
3 6 -6 2.55 0.35
-2 -6 6 0.11 0.15
-2 -6 6 -0.03 0.16
2 -6 -6 0.19 0.15
2 -6 -6 0.01 0.15
-2 6 6 0.17 0.22
-2 6 6 -0.21 0.2
-2 6 6 0.07 0.08
2 6 -6 -0.33 0.15
2 6 -6 0.18 0.17
-2 6 6 -0.12 0.09
1 -6 -6 6.24 0.32
-1 -6 6 5.87 0.38
-1 -6 6 6.28 0.37
1 -6 -6 5.66 0.3
1 -6 -6 6.11 0.37
-1 6 6 5.73 0.3
-1 6 6 5.37 0.41
1 6 -6 6.09 0.4
-1 6 6 6.17 0.45
1 6 -6 6.29 0.4
0 -6 6 0.44 0.16
0 -6 6 0.43 0.19
0 -6 -6 0.5 0.17
0 -6 -6 0.48 0.12
0 -6 -6 0.81 0.14
0 -6 -6 0.6 0.18
0 6 6 0.55 0.22
0 6 -6 0.59 0.2
0 6 -6 0.48 0.2
0 6 6 0.53 0.22
1 -6 6 1.46 0.17
-1 -6 -6 1.29 0.13
-1 -6 -6 1.51 0.13
1 -6 6 1.4 0.16
-1 -6 -6 1.1 0.21
-1 -6 -6 1.99 0.29
1 -6 6 2.37 0.32
1 -6 6 1.46 0.21
-1 6 -6 1.39 0.25
-1 6 -6 1.83 0.28
1 6 6 1.44 0.27
1 6 6 1.34 0.27
2 -6 6 -0.06 0.13
-2 -6 -6 -0.06 0.14
2 -6 6 0.08 0.17
2 -6 6 0.11 0.14
2 -6 6 0.24 0.13
-2 -6 -6 0.19 0.19
2 6 6 0.31 0.22
-2 6 -6 0.27 0.21
2 6 6 0.03 0.21
-2 6 -6 -0.03 0.21
-3 -6 -6 6.03 0.37
-3 -6 -6 5.04 0.44
3 -6 6 5.19 0.42
3 -6 6 5.28 0.4
3 -6 6 5.41 0.3
-3 6 -6 6.22 0.52
3 6 6 6.43 0.49
-3 6 -6 5.56 0.45
3 6 6 5.51 0.49
-4 -6 -6 7.11 0.4
-4 -6 -6 7.51 0.53
4 -6 6 6.47 0.5
4 -6 6 7.78 0.51
4 -6 6 6.17 0.3
4 6 6 7.04 0.59
-4 6 -6 8.36 0.62
-4 6 -6 6.61 0.52
4 6 6 6.7 0.53
5 -6 6 3.27 0.44
-5 -6 -6 3.86 0.33
-5 -6 -6 4.14 0.49
5 -6 6 3.64 0.49
-5 6 -6 3.16 0.49
5 6 6 3.73 0.52
5 6 6 3.6 0.52
-5 6 -6 3.03 0.46
6 -6 6 1.67 0.37
6 -6 6 2.07 0.41
-6 -6 -6 2.03 0.41
-6 -6 -6 1.86 0.26
6 6 6 1.69 0.43
-6 6 -6 1.95 0.48
-6 6 -6 1.92 0.39
6 6 6 1.59 0.42
7 -6 6 -0.23 0.29
7 -6 6 -0.36 0.31
-7 -6 -6 0.01 0.3
-7 6 -6 0.38 0.3
7 6 6 0.32 0.39
-7 6 -6 0.24 0.37
7 6 6 -0.06 0.31
-8 -6 -6 0.01 0.32
8 -6 6 -0.74 0.34
8 -6 6 -0.17 0.31
-8 6 -6 -0.53 0.32
8 6 6 0.1 0.4
8 6 6 0.63 0.39
8 -7 -6 4.26 0.64
-8 7 6 6.73 0.9
-8 7 6 7.14 0.8
8 7 -6 6.11 0.63
8 7 -6 7.31 0.72
-7 -7 6 1.02 0.31
7 -7 -6 1.19 0.4
7 7 -6 1.49 0.33
7 7 -6 1.33 0.38
-7 7 6 1.41 0.44
-7 7 6 0.14 0.45
7 7 -6 1.86 0.39
-6 -7 6 0.91 0.25
-6 -7 6 0.67 0.28
6 -7 -6 0.75 0.23
6 -7 -6 0.89 0.33
-6 7 6 0.67 0.37
6 7 -6 0.7 0.28
6 7 -6 0.65 0.24
-6 7 6 0.99 0.41
6 7 -6 1.74 0.37
5 -7 -6 10.9 0.53
5 -7 -6 11.26 0.66
-5 -7 6 10.63 0.54
-5 -7 6 9.82 0.58
5 7 -6 10.17 0.62
-5 7 6 11.56 0.74
5 7 -6 10.34 0.51
5 7 -6 10.52 0.65
-5 7 6 12.25 0.83
-4 -7 6 8.1 0.5
-4 -7 6 8.8 0.47
4 -7 -6 7.63 0.45
4 -7 -6 7.28 0.52
4 7 -6 8.5 0.54
4 7 -6 8.89 0.56
4 7 -6 7.31 0.38
-4 7 6 8.44 0.61
-4 7 6 7.44 0.65
3 -7 -6 4.26 0.41
-3 -7 6 3.47 0.37
-3 -7 6 3.35 0.35
3 -7 -6 3.54 0.36
3 7 -6 3.43 0.22
3 7 -6 2.96 0.37
3 7 -6 3.83 0.4
-3 7 6 3.24 0.45
3 7 -6 3.49 0.2
-3 7 6 3.32 0.5
-2 -7 6 7.34 0.43
-2 -7 6 7.19 0.42
2 -7 -6 6.62 0.41
2 -7 -6 6.41 0.41
-2 7 6 6.55 0.28
2 7 -6 6.47 0.45
-2 7 6 6.18 0.53
-2 7 6 6.38 0.3
2 7 -6 7.5 0.47
-2 7 6 6.81 0.48
1 -7 -6 4.7 0.32
1 -7 -6 4.7 0.35
-1 -7 6 4.77 0.36
-1 -7 6 5.11 0.38
1 -7 -6 4.14 0.3
-1 7 6 4.46 0.42
-1 7 6 4.57 0.47
1 7 -6 4.73 0.42
1 7 -6 4.47 0.38
0 -7 -6 0.83 0.15
0 -7 6 0.66 0.19
0 -7 -6 0.79 0.13
0 -7 6 0.95 0.23
0 -7 -6 0.57 0.19
0 -7 -6 0.83 0.2
0 7 6 0.47 0.25
0 7 -6 0.92 0.25
0 7 6 0.94 0.25
0 7 -6 0.79 0.23
-1 -7 -6 2.01 0.16
1 -7 6 2.37 0.17
-1 -7 -6 2.32 0.34
1 -7 6 2.16 0.29
1 -7 6 2.13 0.28
-1 -7 -6 2.02 0.29
-1 -7 -6 2.09 0.15
1 -7 6 2.38 0.17
1 7 6 2.12 0.33
-1 7 -6 2.78 0.4
-1 7 -6 1.99 0.31
1 7 6 2.69 0.35
-2 -7 -6 12.11 0.53
2 -7 6 11.04 0.43
-2 -7 -6 12.31 0.59
2 -7 6 10.96 0.41
2 -7 6 11.62 0.47
2 -7 6 11.32 0.57
2 7 6 11.72 0.62
-2 7 -6 11.22 0.63
-2 7 -6 11.17 0.58
2 7 6 12.21 0.65
-3 -7 -6 0.57 0.21
3 -7 6 0.82 0.18
3 -7 6 0.6 0.25
3 -7 6 1.11 0.23
-3 -7 -6 0.68 0.28
3 7 6 0.05 0.24
-3 7 -6 0.61 0.27
-3 7 -6 1.12 0.32
3 7 6 1.12 0.32
4 -7 6 2.82 0.26
4 -7 6 2.53 0.36
-4 -7 -6 2.12 0.38
4 -7 6 3.21 0.43
-4 -7 -6 2.7 0.34
-4 7 -6 2.28 0.37
-4 7 -6 2.63 0.43
4 7 6 2.49 0.41
4 7 6 2.08 0.39
-5 -7 -6 1.32 0.25
5 -7 6 1.53 0.34
5 -7 6 1.82 0.37
-5 -7 -6 1.02 0.35
5 7 6 1.48 0.4
-5 7 -6 1.47 0.42
-5 7 -6 1.5 0.35
5 7 6 1.69 0.38
6 -7 6 0.16 0.3
-6 -7 -6 0.42 0.34
6 -7 6 0.33 0.3
-6 -7 -6 0.41 0.2
6 7 6 -0.37 0.25
-6 7 -6 0.28 0.37
-6 7 -6 0.05 0.28
6 7 6 0.24 0.35
-7 -7 -6 4.37 0.62
7 -7 6 3.95 0.58
7 -7 6 2.81 0.5
-7 7 -6 3.16 0.61
7 7 6 3.32 0.57
7 7 6 4.61 0.66
8 -7 6 2.82 0.5
8 -7 6 2.22 0.55
-8 -7 -6 3.34 0.56
8 7 6 3.39 0.61
-8 7 -6 4.14 0.69
8 7 6 2.93 0.62
8 -8 -6 1.71 0.47
-8 -8 6 1.93 0.4
8 8 -6 2.22 0.49
8 8 -6 1.33 0.4
-8 8 6 2.64 0.61
-8 8 6 1.86 0.53
-7 -8 6 3.48 0.51
7 -8 -6 1.67 0.45
-7 8 6 4.42 0.67
7 8 -6 3.63 0.55
7 8 -6 3.1 0.47
-7 8 6 3.79 0.68
6 -8 -6 8.61 0.67
-6 -8 6 10.32 0.55
-6 -8 6 9.08 0.62
6 -8 -6 9.16 0.55
6 8 -6 10.9 0.71
6 8 -6 10.61 0.73
-6 8 6 10.06 0.86
-6 8 6 10.59 0.79
5 -8 -6 13.72 0.75
5 -8 -6 12.24 0.59
-5 -8 6 12.17 0.66
-5 -8 6 12.61 0.58
5 8 -6 13.76 0.76
5 8 -6 12.9 0.7
-5 8 6 14.03 0.9
-5 8 6 13.46 0.8
4 -8 -6 11.19 0.55
-4 -8 6 12.4 0.63
-4 -8 6 12.46 0.56
4 -8 -6 11.2 0.64
4 8 -6 11.3 0.64
4 8 -6 12.23 0.68
-4 8 6 11.18 0.7
-4 8 6 11.32 0.78
-3 -8 6 9.67 0.54
3 -8 -6 10.8 0.54
3 -8 -6 11.5 0.59
-3 -8 6 10.02 0.51
3 8 -6 11.59 0.65
-3 8 6 9.57 0.58
3 8 -6 10.42 0.59
-3 8 6 10.34 0.71
-3 8 6 10.35 0.34
-2 -8 6 19.2 0.68
2 -8 -6 19.09 0.66
2 -8 -6 18.71 0.68
-2 -8 6 18.39 0.69
2 8 -6 18.48 0.76
-2 8 6 18.45 0.74
2 8 -6 18.17 0.73
-2 8 6 17.86 0.53
-2 8 6 16.74 0.55
-2 8 6 18.12 0.85
-1 -8 6 13.28 0.58
1 -8 -6 13.72 0.59
1 -8 -6 14.15 0.53
-1 -8 6 13.27 0.58
-1 8 6 13.6 0.62
1 8 -6 13.47 0.66
-1 8 6 13.2 0.71
1 8 -6 12.84 0.61
0 -8 6 0.31 0.19
0 -8 -6 0.15 0.13
0 -8 6 0.09 0.19
0 -8 -6 0.3 0.2
0 -8 -6 -0.09 0.16
0 8 6 0.06 0.24
0 8 -6 0.05 0.21
0 8 -6 0.05 0.23
0 8 6 0.53 0.23
-1 -8 -6 0.28 0.2
-1 -8 -6 0.23 0.22
-1 -8 -6 0.08 0.09
1 -8 6 0.18 0.17
1 -8 6 0.83 0.25
-1 -8 -6 0.28 0.09
-1 8 -6 0.17 0.23
-1 8 -6 0.27 0.25
1 8 6 -0.02 0.22
1 8 6 0.61 0.27
-2 -8 -6 6.52 0.44
2 -8 6 6.79 0.48
-2 -8 -6 5.9 0.47
2 -8 6 5.97 0.39
2 -8 6 5.7 0.32
2 8 6 6.06 0.54
2 8 6 5.49 0.49
-2 8 -6 6.38 0.51
-2 8 -6 5.63 0.53
3 -8 6 2.1 0.35
-3 -8 -6 2.55 0.34
3 -8 6 1.97 0.29
3 -8 6 2.36 0.31
-3 -8 -6 2.65 0.4
3 8 6 2.1 0.39
-3 8 -6 2.05 0.34
3 8 6 2.67 0.4
-3 8 -6 2.48 0.42
-4 -8 -6 1.34 0.26
-4 -8 -6 1.03 0.33
4 -8 6 0.97 0.2
4 -8 6 0.86 0.31
4 -8 6 1.05 0.28
4 8 6 0.04 0.29
-4 8 -6 0.72 0.36
-4 8 -6 1.12 0.33
4 8 6 0.59 0.32
5 -8 6 0.89 0.32
5 -8 6 0.57 0.29
-5 -8 -6 0.36 0.33
-5 -8 -6 0.6 0.23
5 8 6 0.35 0.32
-5 8 -6 0.22 0.29
5 8 6 0.06 0.3
-5 8 -6 0.14 0.35
-6 -8 -6 -0.02 0.33
6 -8 6 -0.24 0.27
6 -8 6 0.03 0.32
-6 -8 -6 -0.25 0.18
6 8 6 -0.1 0.32
-6 8 -6 0.19 0.28
-6 8 -6 0.08 0.37
6 8 6 -0.08 0.35
7 -8 6 2.05 0.47
7 -8 6 1.4 0.43
-7 -8 -6 3 0.52
7 8 6 1.86 0.52
-7 8 -6 2.27 0.58
7 8 6 2.27 0.5
-7 -9 6 4.22 0.54
7 -9 -6 3.24 0.57
-7 9 6 3.25 0.67
7 9 -6 4.83 0.6
7 9 -6 4.11 0.64
-7 9 6 4.12 0.64
6 -9 -6 3.85 0.45
6 -9 -6 3.37 0.51
-6 -9 6 3.67 0.52
6 9 -6 3.55 0.53
6 9 -6 3.59 0.53
-6 9 6 4.12 0.67
-6 9 6 4.67 0.65
-5 -9 6 1.33 0.28
-5 -9 6 1.28 0.33
5 -9 -6 1.92 0.33
5 -9 -6 1.67 0.39
5 9 -6 1.04 0.34
-5 9 6 1.36 0.4
5 9 -6 1.58 0.4
-5 9 6 1.07 0.42
-4 -9 6 7.46 0.47
4 -9 -6 8.41 0.59
4 -9 -6 7.68 0.52
-4 -9 6 8.41 0.56
-4 9 6 7.58 0.62
-4 9 6 7.81 0.74
4 9 -6 7.55 0.58
4 9 -6 8.17 0.66
-3 -9 6 1.14 0.28
-3 -9 6 1.02 0.26
3 -9 -6 1.05 0.3
3 -9 -6 0.8 0.25
-3 9 6 1.15 0.31
3 9 -6 0.35 0.28
-3 9 6 0.89 0.37
3 9 -6 1.34 0.32
-2 -9 6 7.17 0.46
-2 -9 6 7.41 0.5
2 -9 -6 7.16 0.49
2 -9 -6 6.92 0.5
2 9 -6 6.84 0.53
-2 9 6 7.62 0.67
-2 9 6 7.58 0.54
-2 9 6 7.17 0.36
2 9 -6 7.67 0.58
-1 -9 6 9.64 0.53
1 -9 -6 9.3 0.52
-1 -9 6 9.71 0.55
1 -9 -6 9.33 0.47
-1 9 6 9.2 0.44
1 9 -6 9.55 0.57
-1 9 6 10.92 0.72
-1 9 6 9.15 0.56
1 9 -6 9.75 0.63
0 -9 -6 0.53 0.16
0 -9 6 0.73 0.24
0 -9 -6 0.67 0.24
0 -9 -6 0.64 0.24
0 -9 6 0.78 0.24
0 9 -6 0.53 0.3
0 9 6 0.27 0.29
0 9 6 0.18 0.25
0 9 -6 0.67 0.27
-1 -9 -6 11.87 0.6
1 -9 6 11.33 0.56
1 -9 6 11.24 0.6
-1 -9 -6 12.25 0.6
-1 -9 -6 12.25 0.37
-1 9 -6 13.08 0.74
1 9 6 12.22 0.71
-1 9 -6 12.19 0.64
1 9 6 13.29 0.65
2 -9 6 -0.06 0.18
-2 -9 -6 0.75 0.29
2 -9 6 0.05 0.23
-2 -9 -6 -0.07 0.19
2 9 6 0.11 0.27
-2 9 -6 -0.28 0.23
-2 9 -6 0.09 0.24
2 9 6 -0.29 0.25
-3 -9 -6 -0.05 0.21
3 -9 6 0.68 0.21
3 -9 6 0.27 0.17
3 -9 6 0.41 0.27
-3 -9 -6 0.39 0.29
-3 9 -6 0.35 0.28
3 9 6 0.32 0.3
3 9 6 0.63 0.32
-3 9 -6 0.47 0.32
4 -9 6 11.42 0.5
4 -9 6 10.23 0.68
4 -9 6 11.33 0.6
-4 -9 -6 10.57 0.58
-4 -9 -6 11.12 0.73
-4 9 -6 12.21 0.71
4 9 6 10.58 0.7
4 9 6 10.56 0.76
-4 9 -6 11.85 0.84
5 -9 6 9.93 0.66
-5 -9 -6 10.12 0.73
-5 -9 -6 9.96 0.58
5 -9 6 10.63 0.74
-5 9 -6 10.16 0.66
5 9 6 11.86 0.8
5 9 6 10.12 0.79
-5 9 -6 10.63 0.85
-6 -9 -6 10.17 0.78
6 -9 6 10.78 0.74
6 -9 6 10.3 0.8
-6 -9 -6 9.75 0.59
6 9 6 10.25 0.87
-6 9 -6 9.53 0.91
6 9 6 10.28 0.81
-7 -9 -6 13.97 0.94
7 -9 6 16.14 0.97
7 -9 6 15 0.99
7 9 6 14.25 1.03
7 9 6 15.51 0.99
-7 9 -6 16.4 1.15
-7 -10 6 0.34 0.29
7 -10 -6 0.27 0.39
7 10 -6 0.12 0.35
7 10 -6 -0.16 0.33
-7 10 6 0.41 0.4
-7 10 6 1.72 0.56
6 -10 -6 1.85 0.46
-6 -10 6 0.66 0.33
6 -10 -6 0.83 0.29
-6 10 6 0.89 0.51
-6 10 6 0.45 0.38
6 10 -6 0.69 0.37
6 10 -6 1.29 0.42
5 -10 -6 0.71 0.28
5 -10 -6 0.35 0.34
-5 -10 6 0.73 0.31
5 10 -6 0.77 0.38
-5 10 6 0.2 0.34
-5 10 6 0.99 0.46
5 10 -6 0.9 0.35
4 -10 -6 1.66 0.33
-4 -10 6 2.17 0.38
-4 -10 6 1.82 0.3
4 -10 -6 1.79 0.39
4 10 -6 1.71 0.37
-4 10 6 1.86 0.38
4 10 -6 1.76 0.43
-4 10 6 2.17 0.47
-3 -10 6 0.85 0.26
3 -10 -6 0.92 0.31
-3 -10 6 1.36 0.32
3 -10 -6 0.54 0.26
3 10 -6 0.84 0.33
3 10 -6 0.85 0.32
-3 10 6 0.88 0.4
-3 10 6 0.84 0.32
-2 -10 6 1.37 0.28
2 -10 -6 1.13 0.3
-2 -10 6 1.83 0.33
2 -10 -6 1.25 0.29
-2 10 6 1.41 0.23
-2 10 6 1.17 0.32
2 10 -6 1.51 0.34
2 10 -6 2.06 0.41
-2 10 6 0.83 0.39
1 -10 -6 2.78 0.41
-1 -10 6 2.8 0.4
1 -10 -6 3 0.35
-1 -10 6 3.5 0.41
-1 10 6 3.03 0.33
-1 10 6 2.52 0.38
1 10 -6 2.74 0.4
1 10 -6 3.45 0.53
-1 10 6 3.74 0.57
0 -10 -6 0.85 0.18
0 -10 -6 1.09 0.28
0 -10 6 0.92 0.27
0 -10 6 0.62 0.26
0 10 6 1.22 0.39
0 10 6 0.81 0.28
0 10 -6 0.45 0.28
0 10 -6 0.68 0.33
1 -10 6 0.3 0.23
1 -10 6 0.16 0.25
-1 -10 -6 0 0.24
-1 -10 -6 0.24 0.23
1 10 6 -0.24 0.22
-1 10 -6 0.13 0.29
-1 10 -6 -0.05 0.25
1 10 6 -0.17 0.28
-2 -10 -6 4.02 0.46
2 -10 6 4.76 0.51
2 -10 6 4.32 0.43
-2 -10 -6 3.1 0.43
2 10 6 3.64 0.53
-2 10 -6 3.82 0.56
-2 10 -6 4.72 0.52
2 10 6 3.2 0.47
3 -10 6 1.41 0.26
-3 -10 -6 1.03 0.36
-3 -10 -6 1.67 0.32
3 -10 6 1.51 0.35
3 10 6 1.81 0.36
-3 10 -6 0.82 0.32
3 10 6 1.2 0.39
-3 10 -6 1.04 0.4
4 -10 6 4.37 0.56
-4 -10 -6 4.73 0.58
-4 -10 -6 5.59 0.5
4 -10 6 5.11 0.4
-4 10 -6 5.27 0.72
4 10 6 5.03 0.65
4 10 6 4.9 0.61
-4 10 -6 5.59 0.59
-5 -10 -6 0.28 0.26
5 -10 6 -0.05 0.32
-5 -10 -6 0.19 0.35
-5 10 -6 0.01 0.37
-5 10 -6 0.34 0.32
5 10 6 0.08 0.32
5 10 6 0.54 0.38
-6 -10 -6 2.73 0.55
6 -10 6 4.09 0.59
-6 -10 -6 3.58 0.46
6 10 6 2.82 0.57
-6 10 -6 2.98 0.6
6 -11 -6 1.77 0.45
-6 -11 6 1.9 0.41
-6 11 6 1.74 0.44
6 11 -6 1.69 0.45
-6 11 6 1.88 0.6
6 11 -6 1.74 0.5
-5 -11 6 0.57 0.32
5 -11 -6 0.44 0.28
5 -11 -6 0.04 0.33
5 11 -6 0.49 0.32
-5 11 6 0.41 0.45
5 11 -6 0.26 0.38
-5 11 6 0.12 0.35
4 -11 -6 1.37 0.38
-4 -11 6 1.23 0.36
4 -11 -6 2.04 0.38
4 11 -6 2.04 0.41
-4 11 6 1.76 0.38
4 11 -6 2.07 0.45
-4 11 6 1.85 0.51
-3 -11 6 5.42 0.47
3 -11 -6 5.78 0.54
3 -11 -6 5.2 0.53
-3 -11 6 4.39 0.5
3 11 -6 5.3 0.59
3 11 -6 4.83 0.62
-3 11 6 5.05 0.7
-3 11 6 4.96 0.56
2 -11 -6 4.78 0.49
-2 -11 6 6.11 0.53
2 -11 -6 5.2 0.47
-2 -11 6 4.92 0.46
-2 11 6 4.41 0.68
2 11 -6 4.68 0.52
2 11 -6 4.32 0.63
-2 11 6 4.32 0.5
1 -11 -6 0.3 0.28
-1 -11 6 0.51 0.27
-1 -11 6 0.55 0.26
1 -11 -6 0.27 0.21
1 11 -6 0.56 0.3
-1 11 6 0.37 0.37
-1 11 6 0.62 0.27
1 11 -6 1.1 0.37
-1 11 6 0.46 0.24
0 -11 -6 0.3 0.28
0 -11 6 0.05 0.24
0 -11 6 0.32 0.26
0 11 6 0.21 0.26
0 11 -6 -0.02 0.25
0 11 6 -0.21 0.35
0 11 6 0.52 0.25
0 11 -6 -0.12 0.34
-1 -11 -6 0.23 0.29
1 -11 6 0.24 0.27
-1 -11 -6 0.03 0.23
1 -11 6 -0.2 0.21
-1 11 -6 0.11 0.28
1 11 6 0.24 0.25
-1 11 -6 -0.68 0.26
1 11 6 -0.48 0.29
2 -11 6 1.16 0.28
2 -11 6 0.68 0.31
-2 -11 -6 0.11 0.29
-2 -11 -6 1.15 0.31
-2 11 -6 0.96 0.41
2 11 6 1.27 0.41
2 11 6 0.68 0.29
-2 11 -6 0.44 0.31
-3 -11 -6 -0.16 0.28
3 -11 6 -0.09 0.27
3 -11 6 0.27 0.22
-3 -11 -6 0.1 0.26
3 11 6 0.05 0.34
-3 11 -6 -0.01 0.26
-3 11 -6 -0.12 0.34
-4 -11 -6 0.28 0.26
-4 -11 -6 0.6 0.37
4 -11 6 0.46 0.31
-4 11 -6 0.41 0.33
4 11 6 0.26 0.36
-4 11 -6 -0.05 0.39
5 -11 6 3.87 0.57
-5 -11 -6 2.68 0.55
-5 -11 -6 4.27 0.53
5 11 6 4.54 0.71
-5 11 -6 4.98 0.77
-5 -12 6 -0.38 0.24
5 -12 -6 0.03 0.35
5 -12 -6 -0.36 0.25
-5 12 6 0.7 0.49
5 12 -6 0.14 0.35
5 12 -6 -0.07 0.35
4 -12 -6 4.63 0.55
-4 -12 6 4.53 0.6
4 -12 -6 4.57 0.58
4 12 -6 4.7 0.71
-4 12 6 5.46 0.8
4 12 -6 5.13 0.62
3 -12 -6 7.4 0.6
-3 -12 6 5.83 0.61
3 -12 -6 6.89 0.61
-3 12 6 7.29 0.81
3 12 -6 7.75 0.77
3 12 -6 7.49 0.66
2 -12 -6 2.83 0.39
-2 -12 6 2.56 0.38
2 -12 -6 2.96 0.45
-2 -12 6 3.65 0.52
2 12 -6 4.08 0.53
-2 12 6 3.56 0.6
2 12 -6 3.15 0.55
1 -12 -6 3.43 0.52
-1 -12 6 3.14 0.47
-1 -12 6 4.26 0.49
-1 12 6 3.2 0.38
1 12 -6 3.17 0.48
-1 12 6 2.76 0.56
1 12 -6 3.16 0.52
0 -12 6 6.74 0.57
0 -12 -6 6.99 0.57
0 -12 6 6.67 0.57
0 12 -6 5.76 0.74
0 12 -6 7.23 0.64
0 12 6 5.88 0.72
0 12 6 5.72 0.48
1 -12 6 4.87 0.55
1 -12 6 5.25 0.52
-1 -12 -6 3.15 0.47
1 12 6 4.41 0.5
1 12 6 5.09 0.65
-1 12 -6 5.58 0.62
-1 12 -6 5.46 0.69
-2 -12 -6 2.33 0.4
2 -12 6 2.52 0.38
2 -12 6 2.7 0.45
-2 -12 -6 3.44 0.5
-2 12 -6 3.05 0.52
2 12 6 2.38 0.53
-2 12 -6 2.92 0.45
-3 -12 -6 0.62 0.38
-3 -12 -6 0.39 0.29
3 -12 6 0.72 0.27
3 -12 6 0.03 0.31
-3 12 -6 0.93 0.35
-3 12 -6 0.63 0.42
3 12 6 0.12 0.37
-4 -12 -6 0.6 0.38
-4 -12 -6 0.35 0.29
4 -12 6 -0.14 0.29
4 12 6 0.21 0.42
-4 12 -6 1.27 0.48
-5 -12 -6 2.69 0.45
-5 -12 -6 2.05 0.52
-5 12 -6 1.97 0.59
4 -13 -6 4.34 0.59
-4 -13 6 3.64 0.53
4 -13 -6 4.46 0.55
-4 13 6 3.54 0.68
4 13 -6 2.34 0.48
4 13 -6 2.95 0.6
3 -13 -6 4.57 0.56
3 -13 -6 5.04 0.58
-3 -13 6 4.14 0.59
3 13 -6 3.44 0.57
3 13 -6 3.81 0.59
-3 13 6 4.54 0.71
-2 -13 6 2.69 0.45
2 -13 -6 3.21 0.46
-2 13 6 2.94 0.6
2 13 -6 2.46 0.47
2 13 -6 2.35 0.54
-1 -13 6 1.61 0.38
1 -13 -6 1.87 0.39
-1 -13 6 1.44 0.35
1 13 -6 1.09 0.44
1 13 -6 0.81 0.36
-1 13 6 1.49 0.52
0 -13 6 3.17 0.45
0 -13 6 1.89 0.38
0 -13 -6 1.84 0.39
0 13 -6 2.38 0.45
0 13 6 0.62 0.45
0 13 -6 1.98 0.53
0 13 6 1.39 0.34
1 -13 6 0.49 0.3
1 -13 6 0.11 0.3
-1 -13 -6 0.56 0.33
-1 13 -6 0.56 0.36
1 13 6 0.14 0.43
-1 13 -6 0.58 0.45
1 13 6 0.18 0.27
2 -13 6 0.16 0.26
2 -13 6 0.64 0.32
-2 -13 -6 0.09 0.28
2 13 6 -0.57 0.26
-2 13 -6 0.14 0.3
-2 13 -6 0.4 0.38
2 13 6 -0.49 0.35
3 -13 6 0.92 0.3
3 -13 6 0.01 0.35
-3 -13 -6 0.82 0.34
-3 13 -6 0.94 0.49
-3 13 -6 1.41 0.39
3 13 6 0.56 0.43
-2 -14 6 -0.37 0.29
2 -14 -6 0.37 0.35
-2 14 6 0.77 0.49
2 14 -6 0.64 0.44
2 14 -6 -0.37 0.31
-1 -14 6 0.3 0.34
1 -14 -6 0.21 0.33
-1 14 6 -0.05 0.44
1 14 -6 0.07 0.31
1 14 -6 -0.29 0.38
0 -14 6 0.25 0.29
0 -14 -6 0.08 0.31
0 -14 6 -0.16 0.26
0 14 -6 0.03 0.33
0 14 6 0.06 0.37
0 14 -6 0.14 0.37
1 -14 6 0.09 0.32
-1 -14 -6 0.4 0.35
1 -14 6 -0.12 0.28
-1 14 -6 -0.44 0.38
1 14 6 -0.37 0.24
-1 14 -6 0.52 0.38
1 14 6 -0.28 0.42
2 -14 6 2.16 0.4
-2 14 -6 2.14 0.45
2 14 6 2.42 0.44
9 0 -7 -0.12 0.25
9 0 -7 0.06 0.38
-9 0 7 0.02 0.36
8 0 -7 -0.18 0.15
8 0 -7 -0.09 0.24
-8 0 7 0.21 0.33
7 0 -7 0.31 0.16
-7 0 7 0.2 0.3
7 0 -7 0.4 0.24
-7 0 7 0.07 0.31
7 0 -7 0.4 0.17
-6 0 7 0.14 0.25
6 0 -7 -0.37 0.12
6 0 -7 -0.13 0.17
-6 0 7 0.15 0.27
6 0 -7 -0.15 0.12
5 0 -7 -0.08 0.12
5 0 -7 0.11 0.13
-5 0 7 0.24 0.23
5 0 -7 0.13 0.17
-5 0 7 0.26 0.23
5 0 -7 0.01 0.13
4 0 -7 -0.01 0.1
4 0 -7 -0.02 0.13
4 0 -7 0.1 0.11
-4 0 7 -0.1 0.16
-4 0 7 0.01 0.2
3 0 -7 -0.08 0.1
3 0 -7 0.01 0.13
3 0 -7 -0.05 0.09
-3 0 7 0.08 0.16
-3 0 7 -0.03 0.14
-3 0 7 0.02 0.2
3 0 -7 -0.01 0.09
2 0 -7 -0.11 0.08
-2 0 7 0.22 0.18
-2 0 7 -0.08 0.09
2 0 -7 -0.14 0.12
-2 0 7 -0.18 0.13
-2 0 7 -0.09 0.1
2 0 -7 -0.11 0.09
-1 0 7 0.16 0.17
-1 0 7 -0.06 0.13
1 0 -7 0.27 0.13
1 0 -7 0 0.14
1 0 -7 -0.16 0.12
1 0 -7 0.28 0.14
-1 0 7 -0.02 0.11
0 0 7 0.03 0.17
0 0 -7 -0.04 0.11
0 0 7 -0.22 0.1
0 0 -7 0.04 0.13
0 0 7 -0.05 0.13
0 0 7 -0.22 0.12
0 0 -7 -0.01 0.12
0 0 7 -0.03 0.08
0 0 -7 0.12 0.16
0 0 7 -0.01 0.07
1 0 7 0.01 0.1
1 0 7 0.03 0.12
-1 0 -7 -0.1 0.12
1 0 7 -0.04 0.11
1 0 7 0.03 0.18
-1 0 -7 0.02 0.1
-1 0 -7 -0.06 0.15
-1 0 -7 -0.21 0.13
2 0 7 0.18 0.09
2 0 7 -0.15 0.12
2 0 7 0.09 0.17
-2 0 -7 0.12 0.15
-2 0 -7 0.03 0.09
-2 0 -7 -0.06 0.17
-2 0 -7 0.05 0.11
-3 0 -7 0.53 0.22
3 0 7 0.02 0.08
3 0 7 0.22 0.13
3 0 7 0.01 0.19
-3 0 -7 0.11 0.07
-3 0 -7 0.32 0.19
-4 0 -7 0.14 0.2
4 0 7 -0.25 0.2
4 0 7 0.02 0.14
-4 0 -7 -0.18 0.21
-5 0 -7 0.19 0.24
5 0 7 -0.23 0.15
5 0 7 -0.43 0.23
-5 0 -7 -0.32 0.2
6 0 7 -0.42 0.27
6 0 7 0.16 0.18
-6 0 -7 0.4 0.28
-6 0 -7 0.16 0.27
7 0 7 0.03 0.2
-7 0 -7 -0.05 0.3
7 0 7 -0.12 0.32
-7 0 -7 0.01 0.27
-8 0 -7 0.12 0.32
8 0 7 -0.51 0.35
-8 0 -7 0.65 0.38
9 0 7 1 0.48
-9 0 -7 -0.25 0.32
-9 0 -7 0.12 0.39
9 -1 -7 -0.3 0.37
-9 -1 7 0.44 0.37
9 -1 -7 0.25 0.3
9 1 -7 0.28 0.29
9 1 -7 0.01 0.36
-9 1 7 -0.24 0.33
-8 -1 7 0.74 0.38
8 -1 -7 0.82 0.31
8 1 -7 0.97 0.3
-8 1 7 1.65 0.43
-8 1 7 0.96 0.41
8 1 -7 1.27 0.41
8 1 -7 1.17 0.25
7 -1 -7 0.18 0.23
7 -1 -7 -0.07 0.15
-7 -1 7 0.46 0.31
-7 -1 7 0.32 0.3
-7 1 7 -0.27 0.3
7 1 -7 0.04 0.21
7 1 -7 -0.18 0.16
7 1 -7 0.09 0.15
-7 1 7 0.37 0.33
-6 -1 7 -0.03 0.24
6 -1 -7 0 0.13
6 -1 -7 0.22 0.12
-6 -1 7 -0.15 0.25
6 -1 -7 0.22 0.21
-6 1 7 0.43 0.27
6 1 -7 0.21 0.16
6 1 -7 0.13 0.19
-6 1 7 0.29 0.28
6 1 -7 -0.01 0.16
-5 -1 7 17.52 0.73
5 -1 -7 18.39 0.49
-5 -1 7 19.62 0.73
5 -1 -7 19.05 0.67
5 -1 -7 18.6 0.52
5 -1 -7 18.94 0.6
-5 1 7 18.82 0.75
5 1 -7 18.13 0.57
5 1 -7 18.66 0.61
-5 1 7 17.44 0.76
5 1 -7 18.31 0.64
4 -1 -7 0.8 0.19
4 -1 -7 0.8 0.17
4 -1 -7 0.64 0.12
-4 -1 7 0.76 0.19
4 -1 -7 0.67 0.12
-4 -1 7 0.52 0.2
-4 -1 7 1.14 0.24
-4 1 7 1 0.22
-4 1 7 0.66 0.24
4 1 -7 0.56 0.16
4 1 -7 0.78 0.16
3 -1 -7 9.24 0.29
3 -1 -7 8.57 0.38
3 -1 -7 8.6 0.29
-3 -1 7 8.99 0.38
3 -1 -7 9.08 0.38
-3 -1 7 8.71 0.41
-3 -1 7 9.37 0.45
3 1 -7 9.3 0.35
3 1 -7 8.5 0.35
-3 1 7 9.47 0.41
3 1 -7 8.67 0.39
-3 1 7 8.95 0.43
-3 1 7 9.63 0.49
3 1 -7 9.77 0.37
-2 -1 7 0.86 0.19
-2 -1 7 1.1 0.17
-2 -1 7 0.95 0.18
2 -1 -7 1.21 0.16
2 -1 -7 0.87 0.17
2 -1 -7 1.05 0.14
-2 1 7 0.8 0.18
2 1 -7 1.05 0.15
2 1 -7 1.02 0.19
-2 1 7 0.98 0.15
2 1 -7 1 0.12
2 1 -7 0.98 0.17
-2 1 7 0.81 0.21
-2 1 7 0.98 0.12
-1 -1 7 35.06 0.82
-1 -1 7 34.49 0.86
-1 -1 7 34.73 0.83
1 -1 -7 36 0.81
1 -1 -7 34.57 0.81
1 -1 -7 35.45 0.81
1 -1 -7 35.78 0.9
1 -1 -7 35.43 0.73
1 1 -7 36.04 0.84
1 1 -7 33.92 0.82
-1 1 7 35.85 0.79
-1 1 7 37.67 0.83
1 1 -7 35.73 0.86
-1 1 7 35.64 0.92
1 1 -7 36.06 0.81
-1 1 7 35.34 0.81
-1 1 7 35.26 0.74
1 1 -7 35.1 0.81
0 -1 7 1.77 0.15
0 -1 -7 1.96 0.26
0 -1 7 1.99 0.28
0 -1 7 1.83 0.24
0 -1 -7 2.13 0.25
0 -1 -7 2.07 0.21
0 -1 7 1.51 0.19
0 1 7 1.77 0.18
0 1 7 1.74 0.24
0 1 -7 1.84 0.14
0 1 -7 2 0.25
0 1 -7 1.78 0.27
0 1 -7 1.86 0.23
0 1 7 2.05 0.22
0 1 7 1.83 0.17
0 1 -7 2.09 0.21
0 1 -7 1.84 0.19
0 1 7 1.86 0.25
0 1 7 1.71 0.21
1 -1 7 94.51 1.8
-1 -1 -7 94.23 1.92
-1 -1 -7 93.95 1.74
1 -1 7 94.83 1.93
-1 -1 -7 96.85 1.76
1 -1 7 92.94 1.84
-1 1 -7 96.9 1.74
-1 1 -7 93.8 1.91
1 1 7 97.2 1.98
1 1 7 95 1.74
1 1 7 96.76 1.77
1 1 7 94.17 1.85
-1 1 -7 93.55 1.84
-1 1 -7 92.58 1.93
1 1 7 92.24 1.87
-1 1 -7 96.76 1.75
-1 1 -7 96.26 1.8
-2 -1 -7 1.75 0.27
2 -1 7 1.66 0.23
-2 -1 -7 1.82 0.18
-2 -1 -7 1.7 0.26
-2 -1 -7 1.87 0.18
2 -1 7 1.29 0.23
2 -1 7 1.62 0.23
2 1 7 1.83 0.18
2 1 7 2.26 0.32
2 1 7 1.53 0.2
-2 1 -7 1.95 0.15
-2 1 -7 1.73 0.16
-2 1 -7 1.41 0.22
-2 1 -7 1.65 0.27
-3 -1 -7 2.61 0.34
-3 -1 -7 2.84 0.35
-3 -1 -7 2.45 0.2
-3 -1 -7 2.67 0.17
3 -1 7 2.33 0.27
3 -1 7 2.65 0.35
-3 1 -7 2.26 0.13
-3 1 -7 2.33 0.34
3 1 7 2.53 0.18
3 1 7 2.39 0.21
-3 1 -7 2.7 0.34
3 1 7 2.43 0.36
-3 1 -7 2.42 0.13
4 -1 7 9.43 0.44
-4 -1 -7 10.48 0.55
-4 -1 -7 10.88 0.59
-4 -1 -7 10.06 0.28
4 -1 7 9.52 0.58
4 1 7 10.38 0.3
-4 1 -7 9.69 0.55
4 1 7 9.93 0.39
-4 1 -7 9.56 0.57
-5 -1 -7 42.71 1.33
5 -1 7 42.84 1.1
5 -1 7 43.39 1.31
-5 -1 -7 44.29 1.28
5 1 7 42.57 1.31
5 1 7 43.28 1.02
-5 1 -7 44.43 1.28
-5 1 -7 42.82 1.33
-6 -1 -7 3.05 0.42
-6 -1 -7 2.48 0.42
6 -1 7 2.27 0.44
6 -1 7 2.56 0.37
-6 1 -7 3.15 0.43
6 1 7 2.65 0.46
-6 1 -7 2.44 0.44
6 1 7 2.89 0.33
7 -1 7 0.57 0.38
-7 -1 -7 1.04 0.38
-7 -1 -7 0.69 0.33
7 -1 7 0.88 0.27
-7 1 -7 0.53 0.35
-7 1 -7 0.37 0.33
7 1 7 0.61 0.39
7 1 7 0.92 0.23
-8 -1 -7 0.12 0.32
8 -1 7 0.11 0.24
8 -1 7 0.71 0.41
-8 -1 -7 0.21 0.35
-8 1 -7 0.44 0.36
8 1 7 -0.36 0.39
-8 1 -7 0.34 0.32
9 -1 7 0.45 0.45
-9 -1 -7 0.41 0.34
-9 -1 -7 0.88 0.44
-9 1 -7 0.77 0.37
9 1 7 1.49 0.53
-9 1 -7 0.21 0.41
-9 -2 7 1.21 0.43
9 -2 -7 1.09 0.36
9 -2 -7 1.83 0.51
-9 2 7 0.58 0.43
9 2 -7 1.21 0.42
9 2 -7 0.8 0.3
8 -2 -7 0.8 0.31
-8 -2 7 1.53 0.4
8 2 -7 0.8 0.24
8 2 -7 1.13 0.4
-8 2 7 0.25 0.36
-8 2 7 0.47 0.39
8 2 -7 0.83 0.25
8 2 -7 0.79 0.27
-7 -2 7 8.82 0.66
7 -2 -7 8.7 0.45
7 -2 -7 7.52 0.55
7 2 -7 8.32 0.49
-7 2 7 8.85 0.73
-7 2 7 9.12 0.71
7 2 -7 8.74 0.48
7 2 -7 8.87 0.53
-6 -2 7 2.68 0.41
6 -2 -7 1.71 0.24
6 -2 -7 1.81 0.31
6 -2 -7 1.73 0.17
-6 -2 7 2.21 0.36
6 2 -7 2.08 0.3
-6 2 7 2.46 0.42
6 2 -7 2.05 0.28
6 2 -7 2.3 0.31
-6 2 7 1.37 0.35
-5 -2 7 26.93 0.89
5 -2 -7 27.02 0.57
5 -2 -7 27.52 0.84
5 -2 -7 26.05 0.58
-5 -2 7 28.61 0.89
5 -2 -7 27.41 0.77
5 2 -7 26.11 0.77
-5 2 7 28.68 0.95
5 2 -7 26.7 0.76
-5 2 7 26.83 0.95
-4 -2 7 10.77 0.48
-4 -2 7 10.08 0.47
-4 -2 7 10.09 0.51
4 -2 -7 10.38 0.43
4 -2 -7 9.8 0.46
-4 2 7 10.18 0.56
-4 2 7 9.7 0.52
4 2 -7 10.6 0.45
4 2 -7 9.93 0.41
-3 -2 7 33.54 0.88
-3 -2 7 33.14 0.85
3 -2 -7 31.84 0.82
3 -2 -7 31.87 0.85
3 -2 -7 32.49 0.83
3 2 -7 32.84 0.81
3 2 -7 32.22 0.78
3 2 -7 33.85 0.81
-3 2 7 32.58 0.95
3 2 -7 33.09 0.83
-3 2 7 33.29 0.86
2 -2 -7 23.05 0.52
2 -2 -7 22.75 0.63
-2 -2 7 23.1 0.64
2 -2 -7 21.33 0.59
-2 -2 7 22.83 0.65
-2 2 7 21.66 0.63
2 2 -7 22.51 0.53
-2 2 7 23.07 0.5
-2 2 7 23.62 0.73
2 2 -7 23.43 0.65
2 2 -7 23.12 0.55
2 2 -7 24 0.64
-2 2 7 23.62 0.63
2 2 -7 24.69 0.65
1 -2 -7 173.77 3.1
-1 -2 7 174.51 3.18
1 -2 -7 171.99 3.05
-1 -2 7 168.82 3.06
1 -2 -7 173.32 3.16
-1 -2 7 169.28 3.1
1 -2 -7 172.85 3.11
-1 -2 7 171.49 3.18
-1 2 7 171.72 3.1
1 2 -7 175.87 3.2
1 2 -7 174.2 3.06
-1 2 7 172.5 3.17
1 2 -7 175.63 3.19
-1 2 7 164.76 3.3
-1 2 7 171.78 3.05
1 2 -7 171.66 3.09
0 -2 -7 10.95 0.37
0 -2 7 9.72 0.4
0 -2 -7 11.62 0.42
0 -2 7 11.2 0.32
0 -2 -7 10.46 0.38
0 -2 7 11.09 0.42
0 -2 -7 11.02 0.36
0 2 7 11.7 0.37
0 2 -7 11.18 0.37
0 2 -7 10.87 0.33
0 2 -7 11.11 0.4
0 2 -7 11.35 0.38
0 2 7 11.06 0.4
0 2 7 11.75 0.38
0 2 7 12.43 0.5
0 2 -7 10.72 0.46
-1 -2 -7 34.59 0.78
-1 -2 -7 35.02 0.9
1 -2 7 35.75 0.84
1 -2 7 34.8 0.82
-1 -2 -7 34.46 0.73
1 -2 7 34.13 0.87
-1 2 -7 35.65 0.86
-1 2 -7 36.01 0.83
1 2 7 35.85 0.96
-1 2 -7 35.06 0.92
1 2 7 36 0.73
1 2 7 33.89 0.84
1 2 7 35.54 0.87
-1 2 -7 34.29 0.75
-1 2 -7 34.64 0.76
1 2 7 34.68 0.79
-2 -2 -7 7.91 0.44
2 -2 7 8.21 0.42
2 -2 7 7.88 0.43
-2 -2 -7 8.55 0.27
2 -2 7 9.02 0.4
-2 -2 -7 8.73 0.32
2 2 7 8.57 0.29
-2 2 -7 8.09 0.27
2 2 7 8.62 0.32
-2 2 -7 8.13 0.42
2 2 7 8.58 0.43
-2 2 -7 8.62 0.28
-2 2 -7 7.6 0.44
2 2 7 7.86 0.47
3 -2 7 8.98 0.42
3 -2 7 9.53 0.49
-3 -2 -7 8.98 0.32
-3 -2 -7 8.86 0.49
-3 -2 -7 9.03 0.3
-3 -2 -7 8.64 0.49
-3 2 -7 8.99 0.49
-3 2 -7 9.97 0.52
3 2 7 9.01 0.52
-3 2 -7 8.52 0.25
-3 2 -7 9.06 0.24
3 2 7 9.48 0.33
-4 -2 -7 0.42 0.23
4 -2 7 0.91 0.21
-4 -2 -7 0.56 0.12
4 -2 7 0.82 0.26
-4 -2 -7 0.56 0.24
-4 -2 -7 0.75 0.12
-4 2 -7 0.58 0.25
4 2 7 0.77 0.12
4 2 7 0.84 0.15
4 2 7 0.72 0.26
-4 2 -7 0.68 0.27
-5 -2 -7 8.59 0.56
5 -2 7 9.21 0.63
5 -2 7 8.71 0.51
-5 -2 -7 8.29 0.6
-5 -2 -7 8.65 0.28
5 2 7 8.8 0.38
-5 2 -7 8.98 0.63
-5 2 -7 9.57 0.59
5 2 7 9.4 0.62
6 -2 7 1.14 0.37
-6 -2 -7 0.82 0.31
-6 -2 -7 0.91 0.33
6 -2 7 0.87 0.26
-6 2 -7 0.94 0.35
6 2 7 0.7 0.36
6 2 7 1.03 0.2
-6 2 -7 0.88 0.31
-7 -2 -7 0.2 0.34
-7 -2 -7 0.89 0.34
7 -2 7 0.9 0.28
7 -2 7 0.94 0.38
-7 2 -7 0.64 0.35
7 2 7 0.25 0.36
-7 2 -7 0.51 0.32
-8 -2 -7 0.32 0.36
-8 -2 -7 1.16 0.39
8 -2 7 0.54 0.43
8 -2 7 0.73 0.32
-8 2 -7 0.31 0.39
-8 2 -7 0.45 0.32
8 2 7 1.31 0.48
-9 -2 -7 0.67 0.46
9 -2 7 0.21 0.46
-9 -2 -7 0.62 0.39
9 2 7 0.34 0.47
-9 2 -7 0.64 0.37
-9 2 -7 0.21 0.44
9 -3 -7 -0.38 0.26
9 3 -7 0.04 0.33
9 3 -7 0.11 0.23
-9 3 7 0.33 0.41
8 -3 -7 1.73 0.39
8 3 -7 1.83 0.31
8 3 -7 2.01 0.31
-8 3 7 2.46 0.53
-8 3 7 1.38 0.46
8 3 -7 1.7 0.41
8 3 -7 2.12 0.33
7 -3 -7 9.82 0.63
7 -3 -7 11.95 0.5
7 3 -7 10.39 0.55
7 3 -7 11.23 0.69
-7 3 7 10.25 0.75
7 3 -7 11.06 0.57
7 3 -7 10.21 0.55
-7 3 7 11.34 0.8
6 -3 -7 1.27 0.29
-6 -3 7 1.35 0.33
6 -3 -7 0.92 0.2
6 3 -7 1.2 0.23
6 3 -7 0.99 0.23
-6 3 7 0.53 0.32
-6 3 7 1.16 0.36
6 3 -7 0.99 0.23
-5 -3 7 1.58 0.27
-5 -3 7 1.78 0.31
5 -3 -7 1.32 0.22
5 -3 -7 1.35 0.28
5 3 -7 1.35 0.22
5 3 -7 1.28 0.24
5 3 -7 1.41 0.23
-5 3 7 1.19 0.31
-5 3 7 1.58 0.34
-4 -3 7 8.63 0.45
4 -3 -7 7.77 0.4
-4 -3 7 8.63 0.45
4 3 -7 8.87 0.43
-4 3 7 8.96 0.51
4 3 -7 8.15 0.41
-4 3 7 8.17 0.52
-3 -3 7 3.47 0.29
3 -3 -7 3.27 0.27
-3 -3 7 3.3 0.3
3 -3 -7 2.83 0.28
-3 -3 7 2.73 0.3
-3 3 7 3.3 0.33
3 3 -7 3.11 0.28
3 3 -7 3.27 0.28
3 3 -7 3.12 0.26
3 3 -7 3.38 0.27
-3 3 7 3.5 0.39
2 -3 -7 17.16 0.54
2 -3 -7 16.68 0.53
-2 -3 7 17.29 0.56
2 -3 -7 15.72 0.53
2 -3 -7 17.27 0.4
-2 -3 7 17.61 0.52
-2 -3 7 18.38 0.57
2 3 -7 17.38 0.49
2 3 -7 17.39 0.48
2 3 -7 18.05 0.57
2 3 -7 17.75 0.51
-2 3 7 17.49 0.64
-2 3 7 17.05 0.58
-2 3 7 17.08 0.4
1 -3 -7 46.63 1.01
1 -3 -7 44.35 0.94
-1 -3 7 44 0.96
-1 -3 7 43.87 1.02
1 -3 -7 44.48 1.01
-1 -3 7 44.22 0.92
1 -3 -7 44 0.95
-1 -3 7 45.95 1.01
-1 3 7 43.69 1.12
-1 3 7 45.56 1.03
-1 3 7 43.93 0.94
1 3 -7 44.99 1.04
1 3 -7 43.69 0.96
1 3 -7 44.84 0.93
0 -3 -7 23.03 0.62
0 -3 7 23.56 0.61
0 -3 7 23.02 0.61
0 -3 -7 22.94 0.55
0 -3 7 22.08 0.64
0 -3 -7 21.91 0.63
0 -3 -7 22.36 0.63
0 -3 7 23.41 0.57
0 3 7 22.1 0.64
0 3 7 23.46 0.55
0 3 -7 23.74 0.58
0 3 7 23.02 0.73
0 3 -7 22.44 0.59
0 3 -7 23.1 0.68
-1 -3 -7 9.58 0.44
-1 -3 -7 8.61 0.36
1 -3 7 8.43 0.4
-1 -3 -7 8.81 0.27
1 -3 7 8.29 0.37
1 -3 7 9.02 0.34
1 -3 7 8.4 0.38
-1 3 -7 8.85 0.32
1 3 7 8.21 0.4
-1 3 -7 8.05 0.38
1 3 7 8.38 0.45
-1 3 -7 7.75 0.42
-1 3 -7 8.32 0.36
1 3 7 8.46 0.27
2 -3 7 31.64 0.85
2 -3 7 30.89 0.83
-2 -3 -7 31.26 0.9
-2 -3 -7 31.29 0.62
-2 -3 -7 31.37 0.74
-2 3 -7 31.72 0.68
2 3 7 31.22 0.62
2 3 7 31.71 0.88
-2 3 -7 32.65 0.89
-2 3 -7 30.69 0.89
2 3 7 31.27 0.93
-2 3 -7 30.59 0.68
3 -3 7 15.65 0.58
-3 -3 -7 15.42 0.63
-3 -3 -7 15.06 0.35
-3 -3 -7 14.77 0.46
3 -3 7 15.21 0.62
-3 3 -7 15.56 0.63
-3 3 -7 15.46 0.37
3 3 7 14.25 0.61
3 3 7 16.05 0.67
-3 3 -7 15.63 0.65
-3 3 -7 15.42 0.38
3 3 7 14.8 0.37
4 -3 7 0.03 0.18
-4 -3 -7 -0.08 0.09
-4 -3 -7 -0.05 0.19
-4 -3 -7 -0.02 0.07
4 -3 7 0.12 0.22
-4 3 -7 0.33 0.23
4 3 7 0.04 0.1
4 3 7 0.08 0.21
4 3 7 0.19 0.24
-4 3 -7 -0.11 0.21
-5 -3 -7 0.17 0.1
5 -3 7 0.72 0.31
-5 -3 -7 -0.01 0.24
5 -3 7 0.15 0.21
5 3 7 0.06 0.27
-5 3 -7 0.43 0.27
5 3 7 0.14 0.12
-5 3 -7 0.07 0.25
6 -3 7 2.23 0.43
6 -3 7 2.26 0.35
-6 -3 -7 2.29 0.41
-6 3 -7 2.67 0.42
-6 3 -7 1.75 0.41
6 3 7 2.23 0.44
7 -3 7 2.37 0.4
-7 -3 -7 1.35 0.41
7 -3 7 2.41 0.48
-7 3 -7 1.65 0.44
-7 3 -7 2.21 0.42
7 3 7 0.96 0.42
8 -3 7 1.37 0.35
-8 -3 -7 0.99 0.41
8 -3 7 0.7 0.4
-8 3 -7 0.17 0.36
-8 3 -7 1.01 0.38
8 3 7 0.9 0.44
9 -4 -7 0.06 0.34
-9 4 7 0.87 0.48
9 4 -7 0.52 0.4
9 4 -7 0.17 0.33
9 4 -7 0.65 0.26
8 -4 -7 -0.16 0.26
8 4 -7 0.14 0.27
8 4 -7 0.46 0.24
8 4 -7 0.01 0.19
8 4 -7 0.33 0.32
-8 4 7 0.49 0.42
-8 4 7 0.13 0.39
8 4 -7 0.07 0.2
7 -4 -7 10.76 0.52
7 -4 -7 9.99 0.67
7 4 -7 11.29 0.59
7 4 -7 11.09 0.66
-7 4 7 10.15 0.77
-7 4 7 11.79 0.87
7 4 -7 10.94 0.57
7 4 -7 10.59 0.55
7 4 -7 11.26 0.67
6 -4 -7 6.79 0.41
6 -4 -7 6.15 0.52
6 4 -7 7.32 0.51
-6 4 7 6.68 0.66
6 4 -7 6.89 0.5
-6 4 7 6.73 0.61
6 4 -7 6.51 0.43
6 4 -7 7.21 0.45
-5 -4 7 8.81 0.5
-5 -4 7 8.86 0.52
-5 -4 7 9.96 0.51
5 -4 -7 10 0.54
5 -4 -7 9.1 0.46
5 4 -7 9.49 0.48
5 4 -7 9.59 0.51
-5 4 7 8.99 0.61
-5 4 7 9.24 0.64
-4 -4 7 0.19 0.18
-4 -4 7 -0.16 0.14
-4 -4 7 0.12 0.19
4 -4 -7 -0.2 0.13
4 -4 -7 -0.16 0.16
4 4 -7 -0.18 0.15
-4 4 7 0.42 0.25
4 4 -7 0.14 0.16
-4 4 7 -0.15 0.21
-3 -4 7 4.19 0.33
-3 -4 7 4.33 0.3
-3 -4 7 4.67 0.34
3 -4 -7 3.94 0.31
3 -4 -7 4.45 0.34
3 4 -7 3.88 0.3
3 4 -7 4.53 0.29
3 4 -7 4.14 0.33
-3 4 7 4.1 0.4
-3 4 7 3.87 0.41
2 -4 -7 -0.08 0.13
2 -4 -7 0.25 0.08
-2 -4 7 0.32 0.16
-2 -4 7 0.13 0.16
2 -4 -7 -0.1 0.13
-2 -4 7 0.12 0.12
-2 4 7 0.08 0.08
-2 4 7 -0.05 0.17
2 4 -7 0.08 0.15
2 4 -7 0.02 0.11
-2 4 7 0.21 0.2
2 4 -7 0.01 0.1
1 -4 -7 15.14 0.44
-1 -4 7 14.92 0.45
1 -4 -7 15.25 0.46
-1 -4 7 15.11 0.51
-1 -4 7 14.27 0.52
1 -4 -7 14.11 0.45
1 -4 -7 14.84 0.5
-1 -4 7 14.37 0.4
-1 4 7 14.54 0.55
1 4 -7 14.72 0.46
-1 4 7 14.74 0.44
1 4 -7 14.35 0.41
-1 4 7 15.29 0.61
1 4 -7 14.41 0.55
0 -4 -7 0.51 0.12
0 -4 7 0.52 0.16
0 -4 7 0.57 0.14
0 -4 -7 0.41 0.11
0 -4 -7 0.49 0.16
0 -4 7 0.27 0.12
0 -4 7 0.65 0.19
0 -4 -7 0.33 0.16
0 4 -7 0.46 0.19
0 4 7 0.26 0.17
0 4 -7 0.47 0.12
0 4 -7 0.4 0.16
0 4 7 0.45 0.22
0 4 7 0.4 0.17
1 -4 7 1.33 0.22
1 -4 7 0.82 0.16
-1 -4 -7 1.17 0.13
-1 -4 -7 0.89 0.21
-1 -4 -7 1 0.17
1 -4 7 0.98 0.18
-1 -4 -7 0.96 0.12
1 -4 7 0.94 0.17
-1 4 -7 1.2 0.21
-1 4 -7 0.9 0.16
-1 4 -7 0.93 0.22
1 4 7 0.68 0.2
1 4 7 0.86 0.24
-2 -4 -7 10.77 0.41
-2 -4 -7 9.24 0.49
2 -4 7 9.25 0.46
2 -4 7 11 0.37
2 -4 7 9.56 0.43
2 4 7 9.14 0.48
-2 4 -7 9.96 0.49
-2 4 -7 9.94 0.33
-2 4 -7 9.63 0.52
2 4 7 9.36 0.52
3 -4 7 5.56 0.41
3 -4 7 5.18 0.4
-3 -4 -7 5.6 0.44
-3 -4 -7 5.75 0.31
-3 4 -7 5.31 0.47
-3 4 -7 5.49 0.44
3 4 7 4.89 0.45
-3 4 -7 5.15 0.22
3 4 7 5.99 0.45
4 -4 7 -0.35 0.19
-4 -4 -7 0.09 0.12
-4 -4 -7 0.15 0.23
4 -4 7 0.07 0.19
4 4 7 0.38 0.22
-4 4 -7 -0.16 0.22
4 4 7 0.21 0.25
-4 4 -7 -0.01 0.05
-4 4 -7 0.1 0.23
5 -4 7 -0.4 0.24
-5 -4 -7 -0.05 0.1
-5 -4 -7 -0.23 0.21
5 -4 7 0.6 0.26
-5 4 -7 0.42 0.29
5 4 7 0.22 0.24
-5 4 -7 0.32 0.29
5 4 7 0.18 0.3
6 -4 7 0.17 0.26
6 -4 7 0.37 0.3
-6 -4 -7 0.28 0.28
6 4 7 -0.05 0.27
-6 4 -7 0.16 0.3
-6 4 -7 0.55 0.29
6 4 7 0.14 0.31
-7 -4 -7 -0.19 0.28
7 -4 7 -0.15 0.31
7 -4 7 0.28 0.28
7 4 7 -0.05 0.36
-7 4 -7 -0.2 0.27
7 4 7 0.03 0.29
-7 4 -7 0.37 0.37
-8 -4 -7 2.29 0.46
8 -4 7 2.64 0.45
8 -4 7 2.01 0.52
8 4 7 1.89 0.48
-8 4 -7 2.77 0.47
8 4 7 2.1 0.52
-8 4 -7 2.07 0.53
9 -5 -7 2.83 0.5
9 5 -7 3.72 0.58
9 5 -7 1.79 0.35
-9 5 7 2.79 0.64
9 5 -7 2.19 0.46
8 -5 -7 1.69 0.42
8 5 -7 2.53 0.45
8 5 -7 2.55 0.39
-8 5 7 1.98 0.52
8 5 -7 1.86 0.33
8 5 -7 1.74 0.32
-8 5 7 2.13 0.54
8 5 -7 2.29 0.43
7 -5 -7 0.47 0.3
7 -5 -7 0.41 0.2
7 5 -7 0.09 0.2
-7 5 7 0.58 0.37
-7 5 7 0.49 0.4
7 5 -7 0 0.18
7 5 -7 0.32 0.25
7 5 -7 0.31 0.22
7 5 -7 0.13 0.23
-6 -5 7 5.12 0.44
-6 -5 7 4.75 0.46
6 -5 -7 4.98 0.51
6 -5 -7 4.66 0.38
6 5 -7 4.39 0.42
6 5 -7 4.15 0.44
6 5 -7 4.03 0.42
-6 5 7 2.91 0.47
-6 5 7 4.34 0.64
-5 -5 7 0.43 0.22
5 -5 -7 0.47 0.19
5 -5 -7 0.28 0.23
-5 -5 7 0.23 0.21
5 5 -7 0.52 0.21
-5 5 7 0.23 0.29
-5 5 7 0.31 0.29
5 5 -7 0.32 0.19
5 5 -7 0.23 0.2
-4 -5 7 3.66 0.36
-4 -5 7 2.65 0.34
4 -5 -7 3.22 0.32
4 -5 -7 2.76 0.36
4 5 -7 3.16 0.35
4 5 -7 3.03 0.33
-4 5 7 3.87 0.47
-4 5 7 3.78 0.44
-3 -5 7 0.45 0.18
3 -5 -7 0.77 0.2
3 -5 -7 0.79 0.18
-3 -5 7 0.58 0.15
-3 -5 7 1 0.22
-3 5 7 0.49 0.24
-3 5 7 0.64 0.26
3 5 -7 0.47 0.2
3 5 -7 0.75 0.15
3 5 -7 0.59 0.18
2 -5 -7 3.25 0.29
-2 -5 7 2.58 0.29
2 -5 -7 2.92 0.18
-2 -5 7 2.99 0.19
-2 -5 7 2.91 0.32
2 -5 -7 2.96 0.29
2 5 -7 3.06 0.19
2 5 -7 3.59 0.33
2 5 -7 3.47 0.3
-2 5 7 3.33 0.38
-2 5 7 3.05 0.19
-2 5 7 2.84 0.39
1 -5 -7 52.63 1.2
-1 -5 7 53.88 1.23
-1 -5 7 53.07 1.2
-1 -5 7 52.57 1.2
1 -5 -7 53.64 1.11
-1 -5 7 52.48 1.02
1 -5 -7 52.85 1.11
1 5 -7 50.7 1.02
1 5 -7 54.88 1.22
1 5 -7 53.8 1.28
-1 5 7 53.39 1.13
-1 5 7 54.46 1.32
-1 5 7 54.74 1.31
0 -5 -7 16.51 0.45
0 -5 7 16.59 0.54
0 -5 -7 17.1 0.55
0 -5 -7 16.78 0.55
0 -5 7 16.15 0.43
0 -5 -7 16.78 0.45
0 -5 7 16.46 0.59
0 -5 7 16.72 0.56
0 5 -7 16.71 0.62
0 5 -7 16.83 0.57
0 5 -7 16.28 0.41
0 5 7 17 0.66
0 5 7 17.85 0.63
-1 -5 -7 21.64 0.48
1 -5 7 22.62 0.63
1 -5 7 23.51 0.73
-1 -5 -7 22.25 0.7
-1 -5 -7 22.95 0.48
-1 -5 -7 22.68 0.66
1 -5 7 22.26 0.59
1 5 7 21.87 0.77
1 5 7 21.19 0.74
-1 5 -7 22.48 0.72
-1 5 -7 22.33 0.58
-1 5 -7 23.23 0.75
2 -5 7 0.85 0.22
2 -5 7 1.07 0.17
-2 -5 -7 1.24 0.2
-2 -5 -7 0.91 0.24
2 -5 7 0.8 0.19
-2 5 -7 1.13 0.25
-2 5 -7 1.08 0.25
2 5 7 1.37 0.27
2 5 7 1.22 0.29
3 -5 7 21.97 0.58
3 -5 7 22.48 0.74
-3 -5 -7 22.89 0.8
-3 -5 -7 20.92 0.64
3 -5 7 22.82 0.77
-3 5 -7 23.45 0.84
-3 5 -7 22.98 0.56
-3 5 -7 21.25 0.79
3 5 7 21.99 0.83
3 5 7 20.34 0.8
4 -5 7 -0.09 0.2
4 -5 7 -0.07 0.21
-4 -5 -7 -0.05 0.21
-4 -5 -7 -0.08 0.12
-4 5 -7 0.2 0.24
4 5 7 -0.2 0.22
4 5 7 0.07 0.26
-4 5 -7 -0.32 0.23
5 -5 7 0.13 0.27
-5 -5 -7 0.18 0.26
5 -5 7 0.16 0.25
-5 -5 -7 0.11 0.14
-5 5 -7 -0.27 0.26
5 5 7 0.25 0.26
-5 5 -7 -0.12 0.25
5 5 7 0.14 0.29
6 -5 7 0.66 0.29
-6 -5 -7 0.41 0.16
-6 -5 -7 0.7 0.33
6 -5 7 0.13 0.32
-6 5 -7 0.24 0.33
6 5 7 0.54 0.32
6 5 7 -0.38 0.31
-6 5 -7 -0.04 0.28
-7 -5 -7 0.22 0.33
7 -5 7 -0.51 0.23
7 -5 7 -0.47 0.3
7 5 7 -0.06 0.3
-7 5 -7 0.19 0.3
7 5 7 -0.04 0.38
-7 5 -7 -0.16 0.33
-8 -5 -7 0.75 0.4
8 -5 7 0.8 0.41
8 -5 7 1.1 0.35
8 5 7 1.51 0.53
8 5 7 1.77 0.48
-8 5 -7 1.2 0.49
8 -6 -7 0.13 0.33
8 6 -7 0.67 0.3
-8 6 7 0.7 0.44
8 6 -7 0.8 0.36
-8 6 7 1.19 0.5
8 6 -7 0.86 0.29
8 6 -7 0.78 0.27
7 -6 -7 0.91 0.36
7 -6 -7 1.76 0.28
-7 6 7 2.56 0.52
7 6 -7 1.77 0.37
7 6 -7 1.87 0.34
-7 6 7 1.77 0.46
7 6 -7 2.22 0.32
7 6 -7 2.03 0.37
6 -6 -7 0.2 0.2
-6 -6 7 0.01 0.21
6 -6 -7 0.07 0.26
-6 -6 7 0.08 0.23
-6 6 7 0.37 0.33
6 6 -7 -0.05 0.21
-6 6 7 -0.22 0.34
6 6 -7 -0.12 0.22
6 6 -7 0.13 0.23
-5 -6 7 16.09 0.64
5 -6 -7 15.24 0.62
-5 -6 7 15.08 0.67
5 -6 -7 15.17 0.7
5 6 -7 13.98 0.67
5 6 -7 16.72 0.71
5 6 -7 15.6 0.61
-5 6 7 15.38 0.88
-5 6 7 15.09 0.78
-4 -6 7 19.48 0.69
-4 -6 7 19.03 0.71
4 -6 -7 18.76 0.67
4 -6 -7 18.38 0.72
-4 6 7 18.95 0.85
4 6 -7 19.27 0.71
4 6 -7 18.67 0.6
-4 6 7 18.46 0.8
4 6 -7 18.18 0.72
3 -6 -7 19.53 0.66
3 -6 -7 19.73 0.68
-3 -6 7 19.61 0.67
-3 -6 7 19.17 0.68
-3 6 7 18.67 0.8
3 6 -7 19.46 0.71
-3 6 7 18.11 0.76
3 6 -7 19.43 0.68
3 6 -7 19.22 0.52
3 6 -7 18.63 0.52
2 -6 -7 5.5 0.37
2 -6 -7 5.74 0.36
-2 -6 7 6.15 0.4
-2 -6 7 5.27 0.37
2 6 -7 5.06 0.39
-2 6 7 4.71 0.24
2 6 -7 5.61 0.38
-2 6 7 5.27 0.47
-2 6 7 5.9 0.47
1 -6 -7 32.27 0.79
1 -6 -7 33.72 0.88
1 -6 -7 32.05 0.78
-1 -6 7 31.5 0.87
-1 -6 7 33.32 0.9
1 6 -7 32.63 0.9
1 6 -7 31.39 0.93
-1 6 7 31.1 0.96
-1 6 7 31.15 0.97
-1 6 7 31.73 0.81
0 -6 -7 10.11 0.44
0 -6 7 9.5 0.44
0 -6 7 10.15 0.49
0 -6 -7 10.91 0.35
0 -6 -7 9.91 0.46
0 -6 -7 10.29 0.35
0 6 7 10.39 0.55
0 6 -7 9.82 0.5
0 6 -7 10.68 0.51
0 6 7 10.33 0.54
1 -6 7 33.43 0.76
-1 -6 -7 34.25 0.9
-1 -6 -7 33.11 0.68
-1 -6 -7 34.68 0.94
-1 -6 -7 34.16 0.68
1 -6 7 34.37 0.96
1 -6 7 32.15 0.77
1 -6 7 35.53 0.88
1 6 7 34.68 1.01
1 6 7 34.99 1.02
-1 6 -7 33.54 0.97
-1 6 -7 34.17 0.98
-2 -6 -7 15.13 0.56
-2 -6 -7 15.35 0.64
2 -6 7 15.65 0.52
2 -6 7 14.54 0.5
2 -6 7 14.38 0.61
2 -6 7 14.08 0.51
-2 6 -7 15.74 0.66
2 6 7 14.25 0.66
2 6 7 15.62 0.69
-2 6 -7 14.98 0.65
3 -6 7 6.45 0.43
-3 -6 -7 6.25 0.39
3 -6 7 5.41 0.44
-3 -6 -7 5.15 0.46
3 -6 7 6.23 0.33
-3 6 -7 6.05 0.5
3 6 7 6 0.52
3 6 7 5.88 0.51
-3 6 -7 5.14 0.5
4 -6 7 0.3 0.24
-4 -6 -7 0.14 0.16
4 -6 7 0.22 0.13
4 -6 7 -0.2 0.2
-4 -6 -7 0.01 0.24
4 6 7 -0.27 0.19
-4 6 -7 -0.63 0.22
-4 6 -7 0.03 0.24
4 6 7 0.33 0.3
-5 -6 -7 4.19 0.35
5 -6 7 3.68 0.46
-5 -6 -7 3.85 0.51
5 -6 7 3.6 0.5
-5 6 -7 3.46 0.52
5 6 7 3.42 0.5
-5 6 -7 3.34 0.49
5 6 7 3.05 0.47
6 -6 7 0.06 0.32
-6 -6 -7 0.24 0.16
6 -6 7 0.09 0.27
-6 -6 -7 0.93 0.34
6 6 7 0.36 0.34
6 6 7 0.1 0.33
-6 6 -7 0.44 0.37
-6 6 -7 0.05 0.28
7 -6 7 0.45 0.31
-7 -6 -7 -0.42 0.26
7 -6 7 0.04 0.32
-7 6 -7 0.67 0.41
7 6 7 0.22 0.36
7 6 7 0.44 0.35
-7 6 -7 -0.26 0.27
8 -6 7 3.01 0.49
-8 -6 -7 1.93 0.49
8 -6 7 1.82 0.49
-8 6 -7 1.31 0.51
8 6 7 1.83 0.52
8 6 7 2.82 0.57
8 -7 -7 1.58 0.44
8 7 -7 0.15 0.22
8 7 -7 0.49 0.31
8 7 -7 0.78 0.37
-8 7 7 0.55 0.48
-8 7 7 0.02 0.44
-7 -7 7 0.69 0.3
7 -7 -7 -0.23 0.29
7 7 -7 0.07 0.27
7 7 -7 0.12 0.28
-7 7 7 0.32 0.43
-7 7 7 0.05 0.36
7 7 -7 0.08 0.21
-6 -7 7 1.05 0.27
6 -7 -7 0.98 0.36
-6 -7 7 0.92 0.29
6 -7 -7 1.26 0.27
6 7 -7 1.11 0.28
-6 7 7 1.54 0.43
-6 7 7 1.11 0.4
6 7 -7 1.08 0.32
6 7 -7 1.02 0.33
5 -7 -7 6.58 0.54
-5 -7 7 7.5 0.48
-5 -7 7 6.98 0.53
5 -7 -7 6.84 0.48
-5 7 7 7.5 0.73
5 7 -7 6.45 0.42
5 7 -7 6.52 0.55
-5 7 7 6.92 0.61
5 7 -7 7.61 0.55
-4 -7 7 27.33 0.85
4 -7 -7 27.52 0.91
4 -7 -7 28.17 0.87
-4 -7 7 28.6 0.92
4 7 -7 27.04 0.94
4 7 -7 27.5 0.94
-4 7 7 27.36 1.01
-4 7 7 29.26 1.11
4 7 -7 27.6 0.74
-3 -7 7 14.22 0.63
-3 -7 7 14.52 0.6
3 -7 -7 15.16 0.62
3 -7 -7 14.07 0.6
3 7 -7 14.86 0.65
3 7 -7 14.59 0.65
3 7 -7 14.33 0.4
-3 7 7 13.66 0.69
-3 7 7 14.75 0.77
3 7 -7 13.59 0.42
-2 -7 7 25.72 0.8
-2 -7 7 24.09 0.79
2 -7 -7 26.58 0.8
2 -7 -7 24.73 0.75
2 7 -7 26.23 0.84
-2 7 7 25.42 0.94
-2 7 7 24.11 0.61
2 7 -7 25.76 0.85
-2 7 7 26.18 0.91
-2 7 7 24.04 0.64
-1 -7 7 10.45 0.5
1 -7 -7 9.91 0.5
1 -7 -7 9.34 0.42
1 -7 -7 9.84 0.43
-1 -7 7 10.68 0.5
-1 7 7 9.51 0.59
1 7 -7 11.02 0.55
1 7 -7 10.73 0.55
-1 7 7 10.72 0.58
0 -7 -7 0.63 0.13
0 -7 7 0.6 0.21
0 -7 -7 0.46 0.18
0 -7 7 0.5 0.19
0 -7 -7 0.38 0.14
0 -7 -7 0.54 0.19
0 7 7 0.32 0.24
0 7 7 0.36 0.24
0 7 -7 0.46 0.22
0 7 -7 0.45 0.23
-1 -7 -7 0.74 0.24
-1 -7 -7 1.17 0.14
-1 -7 -7 1.14 0.14
1 -7 7 1.04 0.24
1 -7 7 1.33 0.15
1 -7 7 1.17 0.15
1 -7 7 1.15 0.22
-1 -7 -7 1.37 0.24
1 7 7 1.01 0.29
-1 7 -7 1.04 0.27
-1 7 -7 1.62 0.3
1 7 7 1.97 0.33
-2 -7 -7 14.79 0.66
2 -7 7 14.2 0.64
-2 -7 -7 14.53 0.58
2 -7 7 15.17 0.54
2 -7 7 13.82 0.47
2 -7 7 13.51 0.49
2 7 7 14.34 0.71
-2 7 -7 15.26 0.7
2 7 7 15.55 0.72
-2 7 -7 13.82 0.71
-3 -7 -7 0.39 0.2
3 -7 7 0.26 0.16
-3 -7 -7 0.75 0.27
3 -7 7 0.85 0.27
3 -7 7 0.43 0.2
-3 7 -7 0.93 0.3
-3 7 -7 0.44 0.29
3 7 7 0.32 0.29
3 7 7 0.75 0.27
4 -7 7 2.82 0.4
-4 -7 -7 1.82 0.27
-4 -7 -7 2.41 0.41
4 -7 7 2.02 0.26
4 -7 7 1.94 0.35
-4 7 -7 2.57 0.4
-4 7 -7 2.08 0.4
4 7 7 1.46 0.36
4 7 7 2.58 0.43
-5 -7 -7 0.58 0.21
-5 -7 -7 -0.32 0.25
5 -7 7 0.62 0.31
5 -7 7 1.01 0.34
-5 7 -7 0.65 0.39
5 7 7 0.79 0.37
-5 7 -7 0.87 0.33
5 7 7 1.12 0.36
-6 -7 -7 -0.11 0.28
-6 -7 -7 -0.1 0.17
6 -7 7 0.17 0.3
6 -7 7 0.17 0.3
6 7 7 -0.37 0.3
-6 7 -7 -0.1 0.34
6 7 7 0.03 0.29
-6 7 -7 0 0.3
7 -7 7 0.06 0.34
7 -7 7 0.45 0.33
-7 -7 -7 -0.12 0.33
-7 7 -7 0.22 0.4
7 7 7 0.57 0.37
7 7 7 -0.21 0.4
8 -8 -7 1.09 0.47
8 8 -7 0.83 0.36
-8 8 7 0.6 0.49
-8 8 7 1.58 0.54
8 8 -7 1.04 0.41
-7 -8 7 0.68 0.29
7 -8 -7 0.5 0.38
7 8 -7 1.05 0.4
7 8 -7 0.96 0.36
-7 8 7 1.16 0.5
-7 8 7 0.28 0.39
6 -8 -7 0.19 0.23
6 -8 -7 -0.32 0.28
-6 -8 7 0.25 0.23
-6 -8 7 -0.17 0.24
-6 8 7 0.14 0.39
6 8 -7 -0.23 0.26
-6 8 7 0.03 0.34
6 8 -7 0.7 0.32
5 -8 -7 1.77 0.31
5 -8 -7 1.99 0.38
-5 -8 7 2.11 0.31
-5 -8 7 1.96 0.35
5 8 -7 1.62 0.36
-5 8 7 2.88 0.52
5 8 -7 2.3 0.4
-5 8 7 1.99 0.42
4 -8 -7 0 0.2
4 -8 -7 0.21 0.25
-4 -8 7 0.52 0.25
-4 -8 7 0.42 0.23
-4 8 7 -0.3 0.31
4 8 -7 0.54 0.26
4 8 -7 0.26 0.25
-4 8 7 0.49 0.31
3 -8 -7 0.85 0.25
3 -8 -7 1.12 0.28
-3 -8 7 0.99 0.26
-3 -8 7 0.74 0.24
-3 8 7 0.87 0.31
-3 8 7 1.15 0.36
3 8 -7 1.05 0.29
3 8 -7 0.94 0.29
2 -8 -7 -0.07 0.18
-2 -8 7 0.09 0.19
-2 -8 7 0.1 0.19
2 -8 -7 0.27 0.2
2 8 -7 0.16 0.22
-2 8 7 0.33 0.13
-2 8 7 -0.14 0.21
-2 8 7 -0.18 0.27
2 8 -7 -0.1 0.22
1 -8 -7 0.78 0.2
-1 -8 7 0.73 0.23
-1 -8 7 0.55 0.22
1 -8 -7 0.87 0.21
1 -8 -7 0.61 0.23
1 8 -7 0.75 0.26
1 8 -7 0.56 0.27
-1 8 7 1.11 0.29
-1 8 7 0.76 0.31
0 -8 7 0.1 0.17
0 -8 7 -0.03 0.2
0 -8 -7 0.08 0.19
0 -8 -7 0.19 0.13
0 -8 -7 0.08 0.19
0 8 -7 -0.12 0.22
0 8 7 0.19 0.25
0 8 7 -0.42 0.21
0 8 -7 0.17 0.21
1 -8 7 3.13 0.39
1 -8 7 3.55 0.36
-1 -8 -7 3.22 0.19
-1 -8 -7 3.06 0.38
-1 -8 -7 3.36 0.39
-1 8 -7 3.22 0.44
-1 8 -7 2.87 0.44
1 8 7 2.82 0.38
1 8 7 3.35 0.48
2 -8 7 5.25 0.31
2 -8 7 5.31 0.46
-2 -8 -7 4.16 0.47
-2 -8 -7 4.72 0.41
2 -8 7 5.27 0.39
2 8 7 5.32 0.53
-2 8 -7 5.38 0.51
-2 8 -7 4.95 0.52
2 8 7 6.17 0.54
-3 -8 -7 2.26 0.38
-3 -8 -7 2.28 0.34
3 -8 7 1.93 0.33
3 -8 7 2.25 0.32
3 -8 7 2.37 0.31
-3 8 -7 2.4 0.41
-3 8 -7 2.21 0.37
3 8 7 1.6 0.36
3 8 7 2.69 0.41
4 -8 7 3.31 0.31
4 -8 7 3 0.42
-4 -8 -7 2.74 0.43
4 -8 7 2.37 0.34
-4 -8 -7 2.56 0.37
4 8 7 2.08 0.41
-4 8 -7 2.78 0.47
-4 8 -7 2.54 0.41
4 8 7 2.25 0.44
-5 -8 -7 0.74 0.34
5 -8 7 0.7 0.3
5 -8 7 0.37 0.32
-5 -8 -7 0.16 0.2
-5 8 -7 0.74 0.33
5 8 7 0.05 0.34
-5 8 -7 0.84 0.42
5 8 7 0.6 0.35
-6 -8 -7 0.64 0.38
-6 -8 -7 0.66 0.24
6 -8 7 0.48 0.33
6 -8 7 0.58 0.36
-6 8 -7 0.65 0.41
-6 8 -7 0.53 0.32
6 8 7 0.23 0.32
6 8 7 0.15 0.36
-7 -8 -7 0.14 0.38
7 -8 7 0.53 0.38
7 -8 7 -0.03 0.34
7 8 7 0.48 0.37
-7 8 -7 -0.16 0.4
7 8 7 -0.39 0.39
7 -9 -7 -0.84 0.31
-7 -9 7 0.06 0.26
7 9 -7 -0.07 0.33
-7 9 7 -0.26 0.43
7 9 -7 0.07 0.32
-7 9 7 -0.2 0.35
-6 -9 7 0.73 0.3
6 -9 -7 1.24 0.31
6 -9 -7 0.75 0.36
6 9 -7 1.31 0.39
-6 9 7 1.18 0.49
6 9 -7 1.03 0.39
-6 9 7 0.81 0.41
5 -9 -7 4.06 0.57
5 -9 -7 4.33 0.47
-5 -9 7 4.88 0.52
-5 -9 7 5.11 0.46
5 9 -7 4.82 0.54
-5 9 7 4.6 0.61
-5 9 7 6.19 0.74
5 9 -7 4.58 0.59
4 -9 -7 0.2 0.24
-4 -9 7 0.34 0.26
-4 -9 7 0.71 0.24
4 -9 -7 0.52 0.29
-4 9 7 0.74 0.38
4 9 -7 0 0.25
-4 9 7 0.08 0.3
4 9 -7 0.4 0.3
3 -9 -7 17.35 0.72
-3 -9 7 16.32 0.69
-3 -9 7 16.99 0.74
3 -9 -7 17.71 0.73
-3 9 7 16.65 0.8
3 9 -7 15.84 0.77
3 9 -7 15.92 0.76
-3 9 7 15.79 0.9
2 -9 -7 14.4 0.63
2 -9 -7 14.19 0.66
-2 -9 7 14.1 0.64
-2 -9 7 14.51 0.66
-2 9 7 14.88 0.49
-2 9 7 14.47 0.84
2 9 -7 14.78 0.72
-2 9 7 14.22 0.71
2 9 -7 13.99 0.73
-1 -9 7 3.77 0.41
1 -9 -7 3.62 0.43
1 -9 -7 4.19 0.36
-1 -9 7 3.87 0.4
-1 9 7 3.83 0.48
-1 9 7 3.25 0.49
1 9 -7 3.94 0.51
1 9 -7 2.95 0.42
0 -9 7 0.15 0.22
0 -9 -7 -0.16 0.18
0 -9 7 0.15 0.2
0 -9 -7 0.14 0.14
0 -9 -7 0.13 0.19
0 9 7 0.4 0.26
0 9 -7 0.37 0.25
0 9 7 0.47 0.3
0 9 -7 0.15 0.27
-1 -9 -7 7.18 0.52
-1 -9 -7 6.53 0.49
1 -9 7 6.21 0.5
1 -9 7 6.36 0.46
1 9 7 6.95 0.59
-1 9 -7 6.71 0.55
1 9 7 6.12 0.52
-1 9 -7 7.88 0.63
2 -9 7 1.36 0.26
-2 -9 -7 1.34 0.33
-2 -9 -7 0.94 0.27
2 -9 7 1.33 0.32
2 9 7 1.54 0.36
-2 9 -7 1.45 0.34
-2 9 -7 1.62 0.37
2 9 7 1.26 0.37
-3 -9 -7 1.7 0.31
-3 -9 -7 1.4 0.35
3 -9 7 1.18 0.31
3 -9 7 1.58 0.26
-3 9 -7 1.34 0.35
-3 9 -7 1.77 0.39
3 9 7 1.44 0.37
3 9 7 1.21 0.37
-4 -9 -7 1.42 0.4
4 -9 7 0.79 0.33
4 -9 7 0.9 0.22
4 -9 7 0.99 0.29
-4 -9 -7 0.84 0.27
-4 9 -7 1.42 0.44
-4 9 -7 1.11 0.35
4 9 7 0.53 0.33
4 9 7 0.91 0.37
-5 -9 -7 1.4 0.31
5 -9 7 1.04 0.33
-5 -9 -7 1.09 0.4
5 -9 7 1.16 0.39
5 9 7 0.23 0.37
-5 9 -7 1.08 0.41
-5 9 -7 0.85 0.34
5 9 7 0.26 0.34
-6 -9 -7 0.83 0.27
-6 -9 -7 0.44 0.36
6 -9 7 0.86 0.38
6 9 7 0.93 0.4
-6 9 -7 0.46 0.42
6 9 7 0.31 0.37
7 9 7 0.16 0.38
-7 9 -7 0.19 0.45
-7 -10 7 1.32 0.35
7 -10 -7 1.48 0.49
-7 10 7 1.76 0.57
-7 10 7 1.01 0.45
7 10 -7 1.01 0.39
7 10 -7 1.1 0.43
-6 -10 7 0.36 0.31
6 -10 -7 0.63 0.39
6 -10 -7 0.34 0.26
6 10 -7 0.23 0.3
6 10 -7 0.16 0.34
-6 10 7 -0.04 0.45
-6 10 7 0.24 0.36
5 -10 -7 -0.33 0.24
5 -10 -7 -0.24 0.29
-5 -10 7 0.16 0.27
-5 10 7 0.72 0.38
5 10 -7 0.3 0.32
-5 10 7 0.77 0.44
5 10 -7 0.37 0.37
-4 -10 7 2.87 0.39
4 -10 -7 1.76 0.39
4 -10 -7 2.32 0.37
-4 -10 7 1.38 0.35
-4 10 7 1.95 0.49
-4 10 7 2.1 0.43
4 10 -7 2.37 0.44
4 10 -7 1.88 0.39
3 -10 -7 6.22 0.55
-3 -10 7 5.91 0.55
-3 -10 7 7.02 0.51
3 -10 -7 5.81 0.52
-3 10 7 6.67 0.56
3 10 -7 6.38 0.62
-3 10 7 7.19 0.71
3 10 -7 6.42 0.58
2 -10 -7 12.02 0.65
-2 -10 7 11.96 0.63
-2 -10 7 11.76 0.65
2 -10 -7 12.81 0.61
2 10 -7 12.33 0.7
-2 10 7 12.57 0.83
2 10 -7 11.36 0.72
-2 10 7 12.01 0.49
-2 10 7 10.88 0.68
1 -10 -7 6.63 0.52
1 -10 -7 5.46 0.41
-1 -10 7 6.53 0.5
-1 -10 7 6.54 0.51
-1 10 7 5.9 0.55
1 10 -7 7.5 0.61
-1 10 7 6.5 0.42
1 10 -7 6.72 0.56
-1 10 7 6.25 0.63
0 -10 -7 6.39 0.35
0 -10 7 6.67 0.51
0 -10 -7 6.95 0.53
0 -10 -7 6.6 0.5
0 -10 7 6.67 0.53
0 10 7 7.3 0.56
0 10 -7 5.28 0.52
0 10 -7 7.07 0.62
0 10 7 6.05 0.64
-1 -10 -7 11.38 0.63
-1 -10 -7 11.49 0.65
1 -10 7 11.54 0.67
1 -10 7 12.19 0.61
1 10 7 11.65 0.77
-1 10 -7 12.2 0.76
-1 10 -7 11.4 0.72
1 10 7 11.21 0.67
-2 -10 -7 21.57 0.9
2 -10 7 22.3 0.79
-2 -10 -7 22.52 0.84
2 -10 7 22.09 0.91
-2 10 -7 20.46 0.98
2 10 7 22.12 0.91
2 10 7 20.17 1.01
-2 10 -7 20.62 0.92
3 -10 7 14.27 0.62
3 -10 7 12.77 0.74
-3 -10 -7 14.85 0.82
-3 -10 -7 12.12 0.67
-3 10 -7 14.57 0.79
3 10 7 13.65 0.75
-3 10 -7 14.7 0.87
3 10 7 12.6 0.85
4 -10 7 8.93 0.66
-4 -10 -7 8.75 0.58
-4 -10 -7 6.72 0.65
4 10 7 9.79 0.75
-4 10 -7 7.83 0.67
-4 10 -7 9.08 0.81
4 10 7 9.3 0.78
-5 -10 -7 1.81 0.35
5 -10 7 2.5 0.46
-5 -10 -7 1.8 0.48
5 10 7 2.3 0.47
-5 10 -7 2.37 0.45
5 10 7 2.99 0.54
-5 10 -7 1.52 0.49
6 -10 7 0.9 0.4
-6 -10 -7 1.13 0.3
-6 -10 -7 0.7 0.42
-6 10 -7 0.64 0.48
6 10 7 0.72 0.42
6 10 7 0.98 0.45
6 -11 -7 0.14 0.36
6 -11 -7 0.72 0.32
-6 -11 7 0.94 0.37
6 11 -7 0.34 0.34
-6 11 7 0.53 0.41
-6 11 7 0.31 0.51
6 11 -7 0.8 0.43
5 -11 -7 1.12 0.33
-5 -11 7 1.29 0.36
5 -11 -7 1.71 0.43
5 11 -7 1.77 0.46
5 11 -7 1.14 0.38
-5 11 7 1.83 0.54
-5 11 7 0.97 0.42
4 -11 -7 10.49 0.71
-4 -11 7 9.39 0.69
4 -11 -7 10.26 0.65
4 11 -7 8.18 0.72
-4 11 7 10.3 0.89
-4 11 7 9.97 0.71
4 11 -7 9.05 0.7
-3 -11 7 2.69 0.37
-3 -11 7 2.56 0.42
3 -11 -7 2.74 0.41
3 -11 -7 2.76 0.4
-3 11 7 2.76 0.43
3 11 -7 2.62 0.47
-3 11 7 3.32 0.57
3 11 -7 2.22 0.46
2 -11 -7 6.6 0.51
-2 -11 7 4.95 0.49
2 -11 -7 7.3 0.58
-2 -11 7 5.58 0.53
-2 11 7 6.73 0.57
-2 11 7 6.14 0.74
2 11 -7 6.34 0.59
2 11 -7 5.34 0.64
1 -11 -7 5.32 0.51
1 -11 -7 6.42 0.44
-1 -11 7 5.9 0.54
-1 -11 7 6.43 0.53
-1 11 7 6.17 0.7
1 11 -7 5.31 0.56
-1 11 7 4.72 0.52
1 11 -7 4.93 0.62
-1 11 7 4.89 0.4
0 -11 7 10.3 0.65
0 -11 -7 10.56 0.65
0 -11 7 11.54 0.65
0 11 -7 10.93 0.7
0 11 -7 11.28 0.78
0 11 7 12.15 0.65
0 11 7 10.98 0.83
-1 -11 -7 7.64 0.58
1 -11 7 7.96 0.56
1 -11 7 9.29 0.63
-1 -11 -7 8.37 0.58
-1 11 -7 7.48 0.73
1 11 7 7.7 0.58
1 11 7 7.42 0.74
-1 11 -7 7.74 0.64
2 -11 7 10.45 0.7
2 -11 7 9.46 0.59
-2 -11 -7 10.79 0.7
-2 -11 -7 10.42 0.65
-2 11 -7 10.48 0.78
2 11 7 10.36 0.67
2 11 7 11.32 0.81
-2 11 -7 11.05 0.73
3 -11 7 -0.43 0.25
3 -11 7 -0.04 0.21
-3 -11 -7 0.09 0.27
-3 -11 -7 0.25 0.34
-3 11 -7 -0.23 0.33
3 11 7 0 0.32
-3 11 -7 0.48 0.32
3 11 7 -0.05 0.36
4 -11 7 0.2 0.31
-4 -11 -7 -0.09 0.25
-4 -11 -7 0.44 0.38
-4 11 -7 -0.09 0.3
4 11 7 0.19 0.35
-4 11 -7 -0.25 0.36
-5 -11 -7 0.1 0.4
5 -11 7 0.76 0.35
-5 -11 -7 0 0.25
-5 11 -7 -0.17 0.38
5 11 7 0.04 0.36
-5 -12 7 1.05 0.36
5 -12 -7 0.84 0.34
5 -12 -7 0.62 0.39
-5 12 7 0.41 0.4
-5 12 7 0.28 0.48
5 12 -7 0.62 0.38
5 12 -7 0.87 0.43
-4 -12 7 0.37 0.28
4 -12 -7 0.23 0.32
4 -12 -7 1.28 0.39
-4 12 7 1.48 0.52
4 12 -7 0.55 0.36
4 12 -7 0.63 0.39
-4 12 7 0.97 0.36
-3 -12 7 0.07 0.28
3 -12 -7 0.06 0.27
3 -12 -7 -0.09 0.25
-3 12 7 0.22 0.31
3 12 -7 0.08 0.3
3 12 -7 0.78 0.38
-3 12 7 -0.12 0.41
-2 -12 7 3 0.44
2 -12 -7 2.65 0.38
-2 -12 7 3.45 0.52
2 -12 -7 3.7 0.5
2 12 -7 2.97 0.55
-2 12 7 2.12 0.53
2 12 -7 3.01 0.5
-2 12 7 2.48 0.41
-1 -12 7 0.24 0.27
-1 -12 7 0.47 0.27
1 -12 -7 -0.44 0.27
1 12 -7 0.68 0.34
1 12 -7 -0.07 0.35
-1 12 7 0.7 0.43
0 -12 7 0.26 0.26
0 -12 -7 -0.12 0.27
0 -12 7 0.38 0.27
0 12 -7 -0.2 0.32
0 12 -7 0.41 0.3
0 12 7 0.39 0.25
0 12 7 0.32 0.39
-1 -12 -7 0.57 0.29
1 -12 7 0.48 0.28
1 -12 7 0.9 0.32
-1 12 -7 0.57 0.36
1 12 7 0.27 0.36
-1 12 -7 -0.01 0.35
2 -12 7 0.8 0.31
2 -12 7 1.06 0.35
-2 -12 -7 1.74 0.42
-2 -12 -7 0.25 0.29
-2 12 -7 0.49 0.39
2 12 7 0.84 0.43
-2 12 -7 0.76 0.38
3 -12 7 2.42 0.37
-3 -12 -7 2.93 0.49
-3 -12 -7 2.87 0.44
3 -12 7 2.14 0.45
3 12 7 3.07 0.56
-3 12 -7 2.75 0.47
-3 12 -7 2.7 0.54
-4 -12 -7 0.58 0.39
4 -12 7 0.86 0.37
-4 -12 -7 0.34 0.26
4 12 7 0.11 0.39
-4 12 -7 -0.2 0.39
-4 12 -7 0.76 0.38
4 -13 -7 8.83 0.71
4 -13 -7 7.39 0.66
4 13 -7 7.77 0.81
-4 13 7 10.84 1
-3 -13 7 7.2 0.7
3 -13 -7 7.24 0.65
3 -13 -7 6.81 0.67
-3 13 7 4.66 0.75
3 13 -7 6.52 0.77
3 13 -7 6.85 0.68
-2 -13 7 0.7 0.36
2 -13 -7 0.41 0.33
2 13 -7 1.07 0.44
-2 13 7 1.4 0.49
2 13 -7 0.49 0.37
-1 -13 7 2.27 0.43
-1 -13 7 4.18 0.53
1 -13 -7 2.76 0.46
-1 13 7 2.54 0.6
1 13 -7 2.46 0.5
1 13 -7 3.17 0.57
0 -13 7 9.01 0.66
0 -13 -7 9.3 0.7
0 -13 7 9.51 0.68
0 13 -7 9.31 0.72
0 13 7 9.39 0.91
0 13 -7 8.74 0.79
1 -13 7 5.8 0.61
-1 -13 -7 5.37 0.59
1 -13 7 5.5 0.57
-1 13 -7 5.98 0.79
-1 13 -7 5.88 0.68
1 13 7 5.53 0.56
1 13 7 5.47 0.78
-2 -13 -7 3.09 0.48
2 -13 7 3.81 0.51
2 -13 7 3.68 0.53
-2 13 -7 2.81 0.5
2 13 7 3.72 0.63
-2 13 -7 4.79 0.73
-3 -13 -7 3.73 0.57
-3 -13 -7 5.28 0.57
3 -13 7 5.53 0.66
3 13 7 5.05 0.75
-3 13 -7 3.21 0.61
-3 13 -7 4.75 0.61
2 -14 -7 5.28 0.59
2 14 -7 4.35 0.65
2 14 -7 4.69 0.67
1 -14 -7 3.76 0.53
-1 -14 7 3.43 0.51
-1 14 7 3.47 0.7
1 14 -7 4.91 0.66
1 14 -7 6.05 0.8
0 -14 -7 6.34 0.66
0 -14 7 6.45 0.64
0 -14 7 7.23 0.67
0 14 7 6.24 0.85
0 14 -7 6.77 0.79
0 14 -7 6.01 0.7
1 -14 7 3.39 0.51
1 -14 7 2.68 0.46
-1 14 -7 2.86 0.58
1 14 7 2.24 0.41
-1 14 -7 2.76 0.5
9 0 -8 3.8 0.56
9 0 -8 2.87 0.56
-9 0 8 3.69 0.58
-8 0 8 9 0.76
-8 0 8 8.59 0.75
8 0 -8 8.1 0.47
8 0 -8 8 0.59
7 0 -8 6.55 0.36
-7 0 8 6.58 0.65
-7 0 8 7.06 0.63
7 0 -8 6.27 0.54
7 0 -8 6.63 0.42
-6 0 8 0.83 0.28
6 0 -8 0.99 0.26
-6 0 8 1.15 0.32
6 0 -8 0.97 0.22
6 0 -8 0.93 0.18
5 0 -8 0.36 0.19
-5 0 8 0.25 0.25
5 0 -8 0.3 0.16
5 0 -8 0.21 0.12
-5 0 8 0.27 0.21
5 0 -8 0.21 0.14
-4 0 8 15.46 0.66
-4 0 8 16.57 0.59
-4 0 8 15.63 0.57
4 0 -8 15.17 0.47
4 0 -8 17.14 0.57
4 0 -8 15.44 0.47
3 0 -8 0.07 0.11
-3 0 8 -0.13 0.16
3 0 -8 0.23 0.11
3 0 -8 0.15 0.15
3 0 -8 0.24 0.12
-3 0 8 0.21 0.13
-3 0 8 0.15 0.19
-2 0 8 0.27 0.12
-2 0 8 0.09 0.17
-2 0 8 0.16 0.16
2 0 -8 0.11 0.09
2 0 -8 0.17 0.12
2 0 -8 0.11 0.14
-2 0 8 0.22 0.09
1 0 -8 6.83 0.33
1 0 -8 7.43 0.36
-1 0 8 7.17 0.4
-1 0 8 7.3 0.35
0 0 -8 28.49 0.7
0 0 8 30.45 0.72
0 0 -8 28.68 0.71
0 0 8 28.42 0.6
0 0 8 27.9 0.61
0 0 8 28.46 0.76
0 0 -8 28.46 0.77
0 0 8 28.44 0.7
0 0 8 30.06 0.82
1 0 8 2.98 0.25
-1 0 -8 3.42 0.24
1 0 8 3.24 0.23
-1 0 -8 3.03 0.33
1 0 8 3.37 0.27
1 0 8 3.54 0.34
-1 0 -8 3.33 0.25
-2 0 -8 62.98 1.22
2 0 8 62.47 1.42
2 0 8 63.43 1.23
2 0 8 63.69 1.48
2 0 8 63.28 1.29
-2 0 -8 63.74 1.47
-2 0 -8 64.23 1.29
-2 0 -8 62.97 1.41
-3 0 -8 10.05 0.3
3 0 8 9.84 0.3
3 0 8 9.62 0.4
-3 0 -8 9.45 0.52
-3 0 -8 9.31 0.49
3 0 8 8.84 0.53
-4 0 -8 15.5 0.35
4 0 8 16.51 0.72
-4 0 -8 15.62 0.69
4 0 8 14.49 0.52
-4 0 -8 14.55 0.68
-5 0 -8 30.95 1.03
-5 0 -8 29.95 1.08
5 0 8 30.32 0.85
5 0 8 32.59 1.11
6 0 8 -0.09 0.18
6 0 8 0.37 0.31
-6 0 -8 -0.13 0.26
-6 0 -8 0.4 0.29
7 0 8 5.65 0.46
-7 0 -8 6.88 0.7
7 0 8 5.12 0.67
-7 0 -8 5.25 0.59
-8 0 -8 4.95 0.6
-8 0 -8 5.7 0.74
8 0 8 6.21 0.82
9 -1 -8 3.58 0.61
9 -1 -8 3.52 0.49
-9 -1 8 2.35 0.48
9 1 -8 3.51 0.53
-9 1 8 4.91 0.71
9 1 -8 4.58 0.67
8 -1 -8 2.26 0.31
8 -1 -8 2.33 0.41
-8 -1 8 3.01 0.5
8 1 -8 2.36 0.39
-8 1 8 2.13 0.49
8 1 -8 2.24 0.32
-8 1 8 2.76 0.52
-7 -1 8 -0.08 0.31
7 -1 -8 0.08 0.15
7 -1 -8 -0.1 0.22
-7 -1 8 -0.34 0.24
7 1 -8 -0.09 0.22
-7 1 8 0.56 0.32
7 1 -8 -0.17 0.16
-7 1 8 0.52 0.34
7 1 -8 0.15 0.17
6 -1 -8 0.36 0.13
-6 -1 8 -0.07 0.24
6 -1 -8 0.5 0.17
-6 -1 8 0.48 0.27
6 -1 -8 0.32 0.23
-6 1 8 0.16 0.29
-6 1 8 -0.12 0.25
6 1 -8 0.62 0.18
6 1 -8 0.26 0.17
6 1 -8 0.19 0.21
-5 -1 8 -0.22 0.21
-5 -1 8 -0.05 0.2
5 -1 -8 0.15 0.18
5 -1 -8 -0.11 0.13
5 -1 -8 -0.02 0.1
5 -1 -8 0.16 0.11
5 1 -8 0.17 0.15
-5 1 8 -0.28 0.21
5 1 -8 0.12 0.14
-5 1 8 -0.18 0.2
-4 -1 8 2.73 0.31
-4 -1 8 2.32 0.31
-4 -1 8 2.3 0.32
4 -1 -8 2.55 0.18
4 -1 -8 1.87 0.26
4 -1 -8 2.47 0.19
4 -1 -8 1.98 0.28
-4 1 8 2.81 0.32
4 1 -8 2.03 0.24
4 1 -8 2.52 0.28
4 1 -8 2.34 0.25
-4 1 8 2.28 0.33
3 -1 -8 25.07 0.69
-3 -1 8 23.26 0.63
-3 -1 8 26.02 0.74
3 -1 -8 23.13 0.57
3 -1 -8 23.43 0.64
-3 -1 8 24.76 0.77
3 1 -8 24.28 0.69
-3 1 8 23.88 0.71
-3 1 8 24.15 0.67
3 1 -8 24.4 0.65
-3 1 8 24.43 0.79
3 1 -8 24.31 0.64
3 1 -8 24.5 0.62
-2 -1 8 19.31 0.6
2 -1 -8 19.28 0.51
2 -1 -8 20.05 0.59
-2 -1 8 18.31 0.61
2 -1 -8 18.23 0.48
2 1 -8 19.09 0.42
-2 1 8 18.15 0.49
-2 1 8 18.38 0.64
2 1 -8 19.64 0.58
2 1 -8 19.29 0.56
-2 1 8 18.99 0.58
-2 1 8 18.56 0.48
-1 -1 8 29.45 0.8
1 -1 -8 29.14 0.74
1 -1 -8 28.64 0.74
-1 -1 8 30.7 0.77
1 -1 -8 29.39 0.62
-1 -1 8 30.08 0.75
1 1 -8 30.88 0.78
-1 1 8 28.96 0.71
-1 1 8 30.94 0.85
-1 1 8 30.32 0.74
1 1 -8 30.62 0.8
1 1 -8 30.17 0.74
-1 1 8 28.42 0.63
0 -1 -8 24.58 0.69
0 -1 8 23.95 0.65
0 -1 -8 25.1 0.64
0 -1 8 24.14 0.71
0 1 8 23.61 0.56
0 1 -8 24.96 0.7
0 1 8 23.89 0.62
0 1 8 24.98 0.75
0 1 -8 24 0.62
0 1 8 24.04 0.57
0 1 -8 24.17 0.51
0 1 -8 23.84 0.62
0 1 -8 24.02 0.71
0 1 8 24.33 0.68
-1 -1 -8 114.77 2.31
1 -1 8 117.43 2.33
-1 -1 -8 114.28 2.11
1 -1 8 114.04 2.21
1 -1 8 116.69 2.17
-1 -1 -8 118.18 2.13
1 1 8 113.8 2.13
1 1 8 113.06 2.22
-1 1 -8 116.74 2.12
1 1 8 117.13 2.11
-1 1 -8 117.23 2.22
1 1 8 114.89 2.38
-1 1 -8 114.74 2.11
-1 1 -8 115.55 2.33
1 1 8 116.02 2.25
-2 -1 -8 11.53 0.52
2 -1 8 11.57 0.53
-2 -1 -8 11.69 0.38
-2 -1 -8 11.41 0.49
-2 -1 -8 11.64 0.37
2 -1 8 12.12 0.45
2 -1 8 11.52 0.47
2 1 8 12.79 0.57
-2 1 -8 12.39 0.55
-2 1 -8 12.09 0.36
2 1 8 11.84 0.39
-2 1 -8 11.64 0.35
-2 1 -8 11.39 0.48
2 1 8 12 0.38
3 -1 8 25.92 0.84
-3 -1 -8 23.36 0.8
-3 -1 -8 24.11 0.83
-3 -1 -8 25.56 0.63
3 -1 8 25.25 0.71
-3 -1 -8 24.48 0.58
3 1 8 24.92 0.85
-3 1 -8 24.8 0.82
-3 1 -8 24.67 0.54
-3 1 -8 26.74 0.87
3 1 8 24.67 0.59
3 1 8 25.09 0.64
-3 1 -8 25.27 0.54
-4 -1 -8 36.75 1.12
-4 -1 -8 36.68 1.08
4 -1 8 35.76 0.94
-4 -1 -8 35.65 0.73
4 -1 8 36.03 1.1
-4 1 -8 36.51 1.12
4 1 8 35.33 1.12
4 1 8 35.35 0.86
-4 1 -8 37.23 1.1
4 1 8 36.56 0.76
5 -1 8 17.73 0.83
-5 -1 -8 17.41 0.83
-5 -1 -8 17.05 0.78
5 -1 8 17.32 0.64
-5 1 -8 17.39 0.82
-5 1 -8 17.54 0.79
5 1 8 16.6 0.81
5 1 8 16.73 0.57
6 -1 8 0.32 0.23
-6 -1 -8 -0.06 0.26
6 -1 8 -0.11 0.31
-6 -1 -8 -0.26 0.24
-6 1 -8 0.09 0.29
6 1 8 -0.18 0.15
6 1 8 0.86 0.34
-6 1 -8 -0.37 0.21
-7 -1 -8 6.26 0.64
7 -1 8 7.73 0.53
7 -1 8 7.3 0.73
-7 -1 -8 7.28 0.71
7 1 8 6.93 0.73
-7 1 -8 7.99 0.65
-7 1 -8 7.55 0.72
7 1 8 6.41 0.45
-8 -1 -8 1.14 0.42
8 -1 8 1.29 0.31
8 -1 8 1.44 0.49
-8 -1 -8 1.52 0.44
8 1 8 0.98 0.46
-8 1 -8 0.8 0.44
-8 1 -8 0.2 0.33
-9 -2 8 0.15 0.33
9 -2 -8 0.11 0.29
9 2 -8 0.01 0.24
9 2 -8 -0.21 0.31
-9 2 8 -0.76 0.3
-8 -2 8 -0.3 0.28
8 -2 -8 0.03 0.27
-8 2 8 -0.13 0.35
8 2 -8 0.04 0.34
8 2 -8 -0.14 0.18
-8 2 8 0.35 0.37
8 2 -8 0.35 0.24
7 -2 -8 5.26 0.38
-7 -2 8 5.01 0.59
7 -2 -8 4.96 0.51
-7 -2 8 5.13 0.56
-7 2 8 5.56 0.65
7 2 -8 4.24 0.38
7 2 -8 4.95 0.46
7 2 -8 4.18 0.41
-7 2 8 5.33 0.65
-6 -2 8 -0.11 0.26
6 -2 -8 0.23 0.22
6 -2 -8 0.4 0.17
-6 -2 8 0.15 0.25
-6 2 8 0.15 0.28
6 2 -8 0.22 0.17
6 2 -8 0.3 0.17
6 2 -8 -0.05 0.19
-6 2 8 0.05 0.28
5 -2 -8 2.28 0.29
-5 -2 8 2.3 0.33
5 -2 -8 1.73 0.28
-5 -2 8 2.17 0.31
-5 -2 8 2.12 0.34
-5 2 8 2.35 0.37
5 2 -8 1.87 0.28
5 2 -8 1.69 0.26
-5 2 8 1.39 0.32
-4 -2 8 0.19 0.16
4 -2 -8 0.19 0.18
4 -2 -8 -0.01 0.14
-4 -2 8 0.03 0.18
-4 -2 8 0.23 0.2
-4 2 8 0.22 0.23
4 2 -8 0.02 0.15
4 2 -8 0.08 0.13
-4 2 8 -0.15 0.18
3 -2 -8 13.6 0.51
-3 -2 8 14.97 0.54
3 -2 -8 13.9 0.35
3 -2 -8 13.35 0.49
-3 -2 8 13.73 0.54
3 -2 -8 14.64 0.37
3 -2 -8 14.47 0.52
-3 2 8 14.26 0.61
3 2 -8 14.29 0.46
3 2 -8 14.64 0.52
-3 2 8 15.03 0.53
3 2 -8 15.03 0.5
3 2 -8 14.6 0.45
-2 -2 8 0.7 0.18
2 -2 -8 0.7 0.17
2 -2 -8 0.7 0.14
2 -2 -8 0.73 0.13
-2 -2 8 0.81 0.19
2 2 -8 0.67 0.11
2 2 -8 0.8 0.17
-2 2 8 1 0.19
2 2 -8 0.72 0.16
-2 2 8 1.06 0.18
2 2 -8 0.62 0.17
2 2 -8 0.76 0.11
-2 2 8 1.09 0.24
-2 2 8 0.66 0.11
1 -2 -8 1.84 0.23
-1 -2 8 1.41 0.21
1 -2 -8 1.38 0.19
-1 -2 8 1.2 0.21
1 -2 -8 1.27 0.19
1 -2 -8 1.4 0.19
-1 2 8 1.68 0.21
1 2 -8 1.54 0.2
-1 2 8 2.1 0.24
-1 2 8 1.32 0.25
1 2 -8 1.16 0.19
-1 2 8 1.68 0.21
1 2 -8 1.36 0.21
0 -2 8 3.06 0.29
0 -2 -8 3.19 0.26
0 -2 8 3.16 0.18
0 -2 -8 2.99 0.22
0 -2 -8 3.2 0.29
0 -2 8 2.8 0.29
0 -2 -8 3.31 0.23
0 2 -8 3.1 0.19
0 2 -8 3.26 0.25
0 2 8 3.03 0.24
0 2 8 2.92 0.24
0 2 -8 2.72 0.26
0 2 -8 3.18 0.31
0 2 8 3.45 0.34
1 -2 8 19.14 0.59
1 -2 8 19.14 0.6
1 -2 8 19.25 0.54
-1 -2 -8 19.03 0.63
-1 -2 -8 18.52 0.54
-1 -2 -8 18.85 0.49
-1 2 -8 19.58 0.56
-1 2 -8 19.09 0.6
1 2 8 18.52 0.49
-1 2 -8 18.77 0.52
-1 2 -8 18.39 0.5
1 2 8 17.65 0.58
-1 2 -8 20.45 0.66
1 2 8 18.32 0.56
1 2 8 19.58 0.69
-2 -2 -8 1.34 0.2
2 -2 8 1.61 0.23
-2 -2 -8 1.33 0.16
2 -2 8 1.2 0.24
-2 -2 -8 0.75 0.22
-2 2 -8 1.38 0.18
-2 2 -8 1.63 0.25
2 2 8 1.54 0.29
2 2 8 1.44 0.18
2 2 8 1.33 0.22
2 2 8 1.5 0.18
-2 2 -8 1.28 0.15
-2 2 -8 1.25 0.21
-3 -2 -8 1.74 0.27
-3 -2 -8 2.26 0.18
3 -2 8 2.61 0.3
3 -2 8 2.43 0.35
-3 -2 -8 2.14 0.2
-3 2 -8 2.2 0.3
3 2 8 2.21 0.2
-3 2 -8 2.58 0.37
-3 2 -8 2.26 0.15
-3 2 -8 2.03 0.14
3 2 8 2.27 0.33
3 2 8 2.38 0.21
-4 -2 -8 0.98 0.14
4 -2 8 1.26 0.3
-4 -2 -8 0.97 0.13
4 -2 8 0.75 0.22
-4 -2 -8 1 0.27
-4 -2 -8 0.66 0.25
4 2 8 0.94 0.14
4 2 8 0.82 0.15
-4 2 -8 1.12 0.3
-4 2 -8 1.28 0.3
4 2 8 0.76 0.27
-5 -2 -8 8.01 0.57
-5 -2 -8 7.84 0.6
-5 -2 -8 8.51 0.28
5 -2 8 8.26 0.49
5 -2 8 7.64 0.6
5 2 8 7.99 0.62
-5 2 -8 8.17 0.61
-5 2 -8 7.21 0.55
5 2 8 8.11 0.37
6 -2 8 1.79 0.31
-6 -2 -8 0.78 0.32
6 -2 8 1.73 0.42
-6 -2 -8 1.7 0.4
6 2 8 0.95 0.38
6 2 8 1.93 0.27
-6 2 -8 1.54 0.38
-6 2 -8 1.25 0.38
7 -2 8 0.48 0.26
-7 -2 -8 -0.24 0.3
7 -2 8 -0.19 0.34
-7 -2 -8 -0.48 0.27
-7 2 -8 0.1 0.34
7 2 8 -0.15 0.35
-7 2 -8 0.43 0.32
-8 -2 -8 0.12 0.33
8 -2 8 0.02 0.24
8 -2 8 0.21 0.41
-8 -2 -8 0.42 0.37
-8 2 -8 -0.21 0.29
8 2 8 0.33 0.42
-8 2 -8 0.24 0.37
9 -3 -8 5.36 0.64
9 3 -8 5.53 0.7
9 3 -8 4.93 0.51
9 3 -8 4.87 0.6
-9 3 8 5.03 0.78
-9 3 8 4.2 0.68
8 -3 -8 0.54 0.32
8 3 -8 0.05 0.21
-8 3 8 0.12 0.37
-8 3 8 0.41 0.41
8 3 -8 -0.09 0.29
8 3 -8 -0.29 0.2
8 3 -8 0.28 0.22
7 -3 -8 0.3 0.18
7 -3 -8 0.39 0.29
-7 3 8 0.33 0.35
7 3 -8 -0.1 0.17
7 3 -8 -0.4 0.23
7 3 -8 0.1 0.2
-7 3 8 0.42 0.34
7 3 -8 -0.21 0.16
6 -3 -8 0.48 0.24
6 -3 -8 0.84 0.21
-6 -3 8 0.57 0.3
6 3 -8 0.91 0.22
6 3 -8 0.79 0.24
-6 3 8 0.59 0.34
6 3 -8 0.91 0.22
-6 3 8 0.42 0.34
-5 -3 8 0.94 0.25
5 -3 -8 1.44 0.29
5 -3 -8 0.84 0.2
-5 -3 8 1.98 0.32
-5 3 8 1.5 0.33
5 3 -8 1.59 0.24
5 3 -8 1.65 0.26
-5 3 8 1.28 0.34
5 3 -8 1.09 0.23
4 -3 -8 0.12 0.16
-4 -3 8 0.12 0.19
-4 -3 8 0.47 0.2
4 -3 -8 0.04 0.17
4 3 -8 0.42 0.17
4 3 -8 0.31 0.16
4 3 -8 0.27 0.17
-4 3 8 0.03 0.22
-4 3 8 0.32 0.22
-3 -3 8 2.13 0.31
3 -3 -8 2.3 0.28
3 -3 -8 2.3 0.28
-3 -3 8 2.17 0.3
-3 3 8 2.21 0.33
-3 3 8 2.26 0.33
3 3 -8 2.21 0.24
3 3 -8 2.13 0.23
3 3 -8 2.71 0.29
-2 -3 8 26.59 0.75
2 -3 -8 27.28 0.59
2 -3 -8 26.71 0.71
2 -3 -8 25.61 0.72
2 -3 -8 24.72 0.7
-2 -3 8 26.6 0.7
2 3 -8 27.36 0.71
-2 3 8 26.73 0.84
2 3 -8 27.76 0.77
-2 3 8 26.7 0.75
-2 3 8 26.52 0.59
2 3 -8 26.34 0.64
2 3 -8 27.27 0.63
-1 -3 8 75.37 1.54
-1 -3 8 74.64 1.44
1 -3 -8 75.17 1.54
-1 -3 8 76.02 1.52
1 -3 -8 75.88 1.5
-1 -3 8 76.25 1.57
1 3 -8 75.59 1.61
-1 3 8 76.4 1.48
1 3 -8 75.91 1.45
-1 3 8 76.58 1.5
1 3 -8 74.19 1.53
-1 3 8 75.28 1.57
-1 3 8 69.99 1.67
0 -3 8 0.15 0.15
0 -3 8 0.13 0.15
0 -3 -8 0.42 0.14
0 -3 8 0.16 0.14
0 -3 -8 -0.1 0.13
0 -3 -8 0.19 0.11
0 -3 -8 0.08 0.13
0 -3 8 0.14 0.1
0 3 -8 0.19 0.13
0 3 8 0.28 0.15
0 3 -8 0.25 0.16
0 3 8 0.19 0.19
0 3 8 0.12 0.12
0 3 -8 0.12 0.11
1 -3 8 1.46 0.22
-1 -3 -8 1.2 0.22
1 -3 8 1.3 0.19
-1 -3 -8 1.7 0.16
-1 -3 -8 1.49 0.2
1 -3 8 1.69 0.26
-1 3 -8 1.48 0.2
-1 3 -8 1.58 0.19
-1 3 -8 1.31 0.17
-1 3 -8 1.5 0.25
1 3 8 1.62 0.22
1 3 8 1.78 0.17
-1 3 -8 1.29 0.2
1 3 8 1.43 0.25
-2 -3 -8 5.21 0.4
2 -3 8 5.31 0.37
-2 -3 -8 5.57 0.21
2 -3 8 5.11 0.35
-2 -3 -8 5.83 0.3
-2 3 -8 4.53 0.38
2 3 8 5.65 0.39
-2 3 -8 5.15 0.26
-2 3 -8 5.05 0.23
-2 3 -8 5.35 0.37
2 3 8 5.39 0.22
2 3 8 5.22 0.43
3 -3 8 21.76 0.7
-3 -3 -8 19.94 0.76
-3 -3 -8 20.41 0.47
3 -3 8 21.54 0.75
-3 -3 -8 21.15 0.58
3 3 8 21.05 0.74
-3 3 -8 20.67 0.49
3 3 8 21.06 0.48
-3 3 -8 20.21 0.76
3 3 8 20.67 0.8
-3 3 -8 20.69 0.48
-3 3 -8 20.76 0.77
4 -3 8 -0.2 0.21
-4 -3 -8 0.06 0.11
-4 -3 -8 -0.03 0.07
-4 -3 -8 0.15 0.21
4 -3 8 -0.06 0.18
-4 3 -8 0.42 0.26
4 3 8 -0.17 0.1
4 3 8 -0.07 0.23
-4 3 -8 0.1 0.22
4 3 8 0.08 0.21
-5 -3 -8 2.31 0.2
5 -3 8 2.07 0.32
-5 -3 -8 1.91 0.35
5 -3 8 2.42 0.4
5 3 8 2.76 0.45
5 3 8 2.66 0.23
-5 3 -8 1.97 0.39
-5 3 -8 2.86 0.42
5 3 8 1.96 0.36
6 -3 8 -0.05 0.23
-6 -3 -8 -0.41 0.25
6 -3 8 0.58 0.34
-6 3 -8 0.28 0.31
-6 3 -8 0.38 0.29
6 3 8 0.41 0.34
7 -3 8 0.68 0.3
7 -3 8 0.62 0.4
-7 -3 -8 0.82 0.36
7 3 8 0.9 0.44
-7 3 -8 1.04 0.34
-7 3 -8 0.92 0.41
-8 -3 -8 0.51 0.37
8 -3 8 0.44 0.29
8 -3 8 0.53 0.42
8 3 8 -0.31 0.37
-8 3 -8 -0.18 0.33
8 3 8 0.63 0.39
-8 3 -8 0.32 0.39
9 -4 -8 2.04 0.46
9 4 -8 2.42 0.43
-9 4 8 2.76 0.56
9 4 -8 2.38 0.51
9 4 -8 2.37 0.39
-9 4 8 1.76 0.56
8 -4 -8 0.04 0.3
8 4 -8 0.22 0.25
8 4 -8 -0.12 0.19
8 4 -8 -0.12 0.25
8 4 -8 0.28 0.21
-8 4 8 0.31 0.4
8 4 -8 0.12 0.21
-8 4 8 0.1 0.37
7 -4 -8 0 0.25
7 -4 -8 0.14 0.18
7 4 -8 -0.09 0.17
7 4 -8 0.01 0.18
7 4 -8 -0.06 0.23
-7 4 8 -0.14 0.33
7 4 -8 0.05 0.22
-7 4 8 0.07 0.34
7 4 -8 -0.53 0.15
6 -4 -8 7.8 0.46
6 -4 -8 7.02 0.52
-6 -4 8 7.81 0.51
6 4 -8 7.81 0.47
-6 4 8 7.51 0.67
-6 4 8 5.84 0.61
6 4 -8 7.35 0.47
6 4 -8 7.17 0.49
5 -4 -8 -0.04 0.17
-5 -4 8 0.02 0.21
5 -4 -8 -0.16 0.2
-5 -4 8 -0.02 0.19
5 4 -8 0.18 0.17
-5 4 8 0.19 0.27
-5 4 8 -0.09 0.27
5 4 -8 0.12 0.18
-4 -4 8 2.17 0.32
4 -4 -8 2.61 0.31
4 -4 -8 2.43 0.33
-4 -4 8 2.55 0.31
-4 -4 8 2.44 0.34
-4 4 8 2.22 0.34
4 4 -8 2.05 0.3
-4 4 8 2.34 0.36
4 4 -8 2.09 0.29
-3 -4 8 3.04 0.33
3 -4 -8 3.07 0.31
-3 -4 8 3.09 0.29
3 -4 -8 3.8 0.32
-3 -4 8 3.27 0.34
-3 4 8 3.47 0.4
3 4 -8 3.57 0.33
3 4 -8 3.03 0.27
-3 4 8 3.48 0.39
3 4 -8 3.89 0.29
3 4 -8 3.26 0.26
-2 -4 8 0.02 0.12
-2 -4 8 -0.02 0.15
2 -4 -8 0.04 0.14
2 -4 -8 0.06 0.09
-2 -4 8 0.12 0.15
2 -4 -8 0.09 0.14
2 4 -8 0.14 0.11
-2 4 8 0.31 0.21
2 4 -8 0 0.16
-2 4 8 -0.02 0.16
2 4 -8 -0.04 0.11
-2 4 8 0.26 0.09
-1 -4 8 29.8 0.81
1 -4 -8 27.79 0.77
1 -4 -8 29.01 0.7
-1 -4 8 28.24 0.77
-1 -4 8 29 0.68
1 -4 -8 28.08 0.7
-1 -4 8 28.43 0.69
-1 4 8 28.14 0.71
-1 4 8 27.98 0.88
1 4 -8 28.54 0.68
-1 4 8 28.2 0.8
1 4 -8 28.74 0.82
1 4 -8 29.63 0.7
0 -4 8 2.35 0.26
0 -4 -8 2.41 0.26
0 -4 -8 2.18 0.2
0 -4 8 2.34 0.22
0 -4 8 2.28 0.22
0 -4 -8 2.02 0.2
0 -4 -8 2.35 0.27
0 -4 8 2.07 0.3
0 4 -8 2.03 0.21
0 4 -8 2.09 0.29
0 4 -8 2.43 0.25
0 4 8 2.32 0.3
0 4 8 2.49 0.36
-1 -4 -8 27.65 0.73
-1 -4 -8 29.28 0.82
1 -4 8 28.84 0.72
1 -4 8 27.72 0.75
1 -4 8 28.05 0.74
1 -4 8 28.3 0.81
-1 -4 -8 27.67 0.6
-1 4 -8 28.15 0.72
-1 4 -8 27.04 0.78
1 4 8 27.97 0.81
1 4 8 26.27 0.88
-1 4 -8 27.55 0.84
-2 -4 -8 34.58 0.85
2 -4 8 33.63 0.93
2 -4 8 34.51 0.92
-2 -4 -8 33.75 0.97
2 -4 8 35.16 0.8
2 4 8 34.23 0.97
2 4 8 33.82 1.04
-2 4 -8 33.57 0.76
-2 4 -8 33.64 0.99
-2 4 -8 33.73 0.96
-3 -4 -8 74.83 1.51
3 -4 8 73.73 1.65
-3 -4 -8 74.81 1.75
3 -4 8 76.17 1.71
-3 4 -8 74.58 1.76
-3 4 -8 74.77 1.41
-3 4 -8 73.46 1.77
-3 4 -8 72.13 1.39
3 4 8 74.65 1.77
3 4 8 73.33 1.81
-4 -4 -8 9.13 0.39
4 -4 8 8.88 0.56
-4 -4 -8 8.94 0.58
4 -4 8 10.72 0.56
4 4 8 10.23 0.6
-4 4 -8 9.09 0.27
4 4 8 9.33 0.62
-4 4 -8 9.06 0.26
-4 4 -8 9.53 0.62
-4 4 -8 9.11 0.6
5 -4 8 11.5 0.69
-5 -4 -8 11.13 0.7
5 -4 8 12.69 0.63
-5 -4 -8 11.65 0.43
-5 4 -8 11.86 0.73
-5 4 -8 10.9 0.69
5 4 8 13.93 0.76
5 4 8 10.85 0.68
6 -4 8 6.37 0.65
6 -4 8 5.17 0.51
-6 -4 -8 5.54 0.6
6 4 8 5.7 0.61
-6 4 -8 5.27 0.56
-6 4 -8 5.66 0.65
6 4 8 4.91 0.64
7 -4 8 9.92 0.79
-7 -4 -8 8.48 0.72
7 -4 8 8.11 0.63
7 4 8 7.73 0.79
-7 4 -8 8.1 0.79
-7 4 -8 9.19 0.73
7 4 8 8.34 0.76
-8 -4 -8 -0.5 0.3
8 -4 8 0.25 0.42
8 -4 8 0.35 0.31
8 4 8 -0.52 0.4
-8 4 -8 -0.03 0.36
8 4 8 0.54 0.39
-8 4 -8 -0.44 0.3
9 -5 -8 -0.32 0.32
9 5 -8 0.4 0.32
-9 5 8 0.37 0.45
9 5 -8 0.03 0.3
-9 5 8 0.24 0.45
8 -5 -8 0.15 0.32
-8 5 8 -0.05 0.38
8 5 -8 0 0.21
-8 5 8 0.38 0.42
8 5 -8 -0.28 0.23
8 5 -8 -0.08 0.27
8 5 -8 -0.27 0.18
8 5 -8 0.06 0.21
7 -5 -8 6.75 0.47
7 -5 -8 7.89 0.64
7 5 -8 7.79 0.53
7 5 -8 7.17 0.54
-7 5 8 8.02 0.73
-7 5 8 8.59 0.82
7 5 -8 6.74 0.49
7 5 -8 6.54 0.55
7 5 -8 7.31 0.5
6 -5 -8 5.39 0.42
6 -5 -8 5.73 0.51
-6 -5 8 5.71 0.48
6 5 -8 5.88 0.47
-6 5 8 5.84 0.65
6 5 -8 6.43 0.49
6 5 -8 5.57 0.48
-6 5 8 5.86 0.7
-5 -5 8 4.14 0.42
5 -5 -8 4.18 0.38
-5 -5 8 3.98 0.41
5 -5 -8 4.91 0.46
5 5 -8 4.48 0.41
-5 5 8 3.86 0.54
-5 5 8 4.4 0.54
5 5 -8 5.45 0.43
-4 -5 8 0.69 0.2
-4 -5 8 0.63 0.23
-4 -5 8 0.1 0.19
4 -5 -8 0.38 0.2
4 -5 -8 0.5 0.19
4 5 -8 0.68 0.21
4 5 -8 0.15 0.19
-4 5 8 0.36 0.27
-4 5 8 0.66 0.29
-3 -5 8 8.05 0.36
3 -5 -8 7.62 0.42
-3 -5 8 7.88 0.45
3 -5 -8 8.09 0.43
-3 -5 8 8.29 0.46
3 5 -8 8.14 0.48
3 5 -8 8.01 0.35
-3 5 8 8.56 0.54
-3 5 8 8.27 0.55
3 5 -8 8.01 0.41
2 -5 -8 0.07 0.09
-2 -5 8 0.06 0.1
-2 -5 8 0.13 0.1
-2 -5 8 -0.05 0.14
2 -5 -8 0.12 0.16
2 -5 -8 0.3 0.15
-2 -5 8 -0.02 0.17
-2 5 8 -0.01 0.19
2 5 -8 -0.06 0.13
2 5 -8 -0.13 0.09
2 5 -8 -0.12 0.16
-2 5 8 -0.01 0.09
-2 5 8 -0.03 0.21
1 -5 -8 4.16 0.29
1 -5 -8 4.07 0.33
-1 -5 8 4.68 0.29
-1 -5 8 4.94 0.37
1 -5 -8 3.96 0.28
-1 -5 8 3.85 0.21
-1 -5 8 4.29 0.32
-1 5 8 4.33 0.41
1 5 -8 4.64 0.32
-1 5 8 4.35 0.4
1 5 -8 4.25 0.22
1 5 -8 4.25 0.35
-1 5 8 4.33 0.27
0 -5 8 1.86 0.25
0 -5 8 1.88 0.26
0 -5 -8 1.64 0.18
0 -5 -8 1.9 0.2
0 -5 8 1.45 0.23
0 -5 8 2.02 0.19
0 -5 -8 1.5 0.23
0 -5 -8 1.81 0.24
0 5 8 1.65 0.3
0 5 -8 1.97 0.18
0 5 8 1.83 0.26
0 5 -8 1.87 0.28
0 5 -8 1.78 0.24
1 -5 8 18.53 0.66
-1 -5 -8 17.96 0.43
1 -5 8 18.82 0.55
-1 -5 -8 18.32 0.44
-1 -5 -8 19.04 0.61
-1 -5 -8 18.66 0.66
1 -5 8 19.4 0.59
-1 5 -8 19.57 0.71
1 5 8 18.08 0.68
1 5 8 19.6 0.74
-1 5 -8 18.49 0.66
-1 5 -8 17.88 0.53
-2 -5 -8 28.06 0.77
2 -5 8 27.92 0.72
2 -5 8 26.6 0.83
2 -5 8 27.42 0.79
-2 -5 -8 28.63 0.89
-2 5 -8 28.68 0.9
2 5 8 27.26 0.93
-2 5 -8 29.03 0.93
2 5 8 26.01 0.88
-3 -5 -8 5.02 0.45
3 -5 8 5.57 0.42
-3 -5 -8 5.46 0.35
3 -5 8 5.11 0.29
3 -5 8 5.85 0.43
3 5 8 5.35 0.46
-3 5 -8 5.08 0.25
-3 5 -8 5.71 0.48
3 5 8 4.81 0.48
-3 5 -8 4.87 0.44
-4 -5 -8 8.4 0.41
4 -5 8 8.01 0.53
-4 -5 -8 7.62 0.55
4 -5 8 8.36 0.56
4 5 8 8.36 0.63
-4 5 -8 9.84 0.59
4 5 8 8.45 0.6
-4 5 -8 8.14 0.29
-4 5 -8 8.46 0.62
-5 -5 -8 14.19 0.75
-5 -5 -8 14.09 0.51
5 -5 8 14.79 0.7
5 -5 8 13.7 0.75
-5 5 -8 13.42 0.72
5 5 8 13.33 0.77
-5 5 -8 13.57 0.82
5 5 8 13.52 0.79
6 -5 8 9.98 0.68
6 -5 8 11.24 0.77
-6 -5 -8 10 0.72
6 5 8 10.28 0.81
6 5 8 10.34 0.75
-6 5 -8 10 0.79
-6 5 -8 11.03 0.72
-7 -5 -8 3.18 0.53
7 -5 8 3.02 0.55
7 -5 8 2.83 0.45
7 5 8 2.57 0.54
7 5 8 3.65 0.57
-7 5 -8 4.15 0.58
-7 5 -8 2.79 0.54
-8 -5 -8 1.01 0.4
8 -5 8 -0.17 0.36
8 -5 8 0.59 0.34
8 5 8 0.38 0.38
-8 5 -8 1.29 0.47
8 5 8 0.9 0.48
-8 5 -8 0.37 0.35
8 -6 -8 0.04 0.31
8 6 -8 -0.08 0.21
-8 6 8 -0.64 0.4
8 6 -8 -0.35 0.18
8 6 -8 -0.1 0.23
-8 6 8 0.04 0.43
8 6 -8 -0.2 0.23
8 6 -8 -0.07 0.22
7 -6 -8 3.38 0.48
7 -6 -8 3.54 0.41
7 6 -8 4.12 0.44
-7 6 8 3.79 0.59
7 6 -8 3.88 0.48
-7 6 8 5.07 0.75
7 6 -8 4.94 0.45
7 6 -8 2.92 0.44
7 6 -8 4.7 0.51
6 -6 -8 1.18 0.27
6 -6 -8 0.92 0.32
-6 -6 8 1.21 0.31
-6 -6 8 1.1 0.3
-6 6 8 0.88 0.39
-6 6 8 0.6 0.38
6 6 -8 1.46 0.31
6 6 -8 0.9 0.29
6 6 -8 0.92 0.26
-5 -6 8 9.7 0.58
5 -6 -8 9.46 0.52
5 -6 -8 10.14 0.6
-5 -6 8 10.63 0.57
5 6 -8 10.8 0.52
-5 6 8 9.92 0.76
-5 6 8 9.63 0.69
5 6 -8 9.98 0.58
5 6 -8 10.68 0.58
-4 -6 8 9.05 0.53
4 -6 -8 10.02 0.54
-4 -6 8 9.29 0.51
4 -6 -8 9.21 0.5
4 6 -8 8.92 0.42
-4 6 8 9.69 0.62
4 6 -8 9.76 0.51
4 6 -8 8.78 0.53
-4 6 8 9.68 0.67
3 -6 -8 0.66 0.22
-3 -6 8 1.09 0.24
3 -6 -8 0.76 0.21
-3 -6 8 0.85 0.22
-3 6 8 1.21 0.32
3 6 -8 0.38 0.22
-3 6 8 1.04 0.3
3 6 -8 0.97 0.15
3 6 -8 1 0.22
2 -6 -8 17.93 0.64
2 -6 -8 18.95 0.62
-2 -6 8 18.22 0.43
-2 -6 8 19.13 0.67
-2 -6 8 16.82 0.64
2 -6 -8 18.52 0.48
-2 6 8 18.32 0.75
-2 6 8 19.51 0.76
2 6 -8 17.76 0.69
2 6 -8 19.39 0.64
2 6 -8 17.49 0.44
-2 6 8 17.91 0.49
1 -6 -8 5.52 0.32
1 -6 -8 5.23 0.37
-1 -6 8 4.81 0.36
-1 -6 8 5.63 0.4
1 -6 -8 4.88 0.31
1 6 -8 5.84 0.39
-1 6 8 5.61 0.46
-1 6 8 4.64 0.43
1 6 -8 4.69 0.4
-1 6 8 5.05 0.31
0 -6 -8 0.48 0.19
0 -6 -8 0.51 0.12
0 -6 8 0.21 0.19
0 -6 8 0.5 0.18
0 -6 -8 0.31 0.12
0 -6 8 0.26 0.09
0 -6 -8 -0.09 0.16
0 6 -8 0.52 0.21
0 6 -8 0.13 0.17
0 6 8 0.44 0.21
0 6 8 0.38 0.24
1 -6 8 -0.06 0.18
-1 -6 -8 0.09 0.08
-1 -6 -8 0.24 0.21
1 -6 8 0.17 0.16
1 -6 8 -0.08 0.1
1 -6 8 0.05 0.1
-1 -6 -8 0.06 0.15
-1 -6 -8 0.09 0.07
1 6 8 -0.1 0.23
1 6 8 0.03 0.19
-1 6 -8 0.01 0.19
-1 6 -8 0.18 0.19
2 -6 8 4.56 0.32
2 -6 8 4.8 0.34
-2 -6 -8 4.69 0.36
-2 -6 -8 4.73 0.44
2 -6 8 4.77 0.41
2 6 8 4.61 0.46
-2 6 -8 5.16 0.46
2 6 8 3.91 0.43
-2 6 -8 5.39 0.45
3 -6 8 11.01 0.53
3 -6 8 10.18 0.57
-3 -6 -8 12 0.51
-3 -6 -8 11.88 0.64
3 -6 8 10.57 0.43
-3 6 -8 11.62 0.63
3 6 8 12.1 0.68
3 6 8 11.98 0.66
-3 6 -8 11.6 0.65
4 -6 8 1.75 0.33
-4 -6 -8 2.1 0.39
4 -6 8 2.53 0.23
-4 -6 -8 2.2 0.31
4 -6 8 2.02 0.35
-4 6 -8 2.46 0.39
-4 6 -8 2.12 0.4
4 6 8 2.14 0.37
4 6 8 2.83 0.46
-5 -6 -8 0.7 0.21
5 -6 8 0.05 0.26
5 -6 8 0.37 0.3
-5 -6 -8 0.8 0.33
5 6 8 0.73 0.31
5 6 8 0.95 0.38
-5 6 -8 0.68 0.36
-5 6 -8 0.17 0.29
6 -6 8 0.7 0.34
6 -6 8 0.49 0.32
-6 -6 -8 0.73 0.38
6 6 8 0.95 0.39
-6 6 -8 0.93 0.38
-6 6 -8 0.09 0.31
6 6 8 1.12 0.4
-7 -6 -8 -0.01 0.33
7 -6 8 0.16 0.31
7 -6 8 0.4 0.38
7 6 8 -0.17 0.38
-7 6 -8 -0.36 0.37
7 6 8 -0.45 0.33
-7 6 -8 -0.28 0.29
-8 -6 -8 0.15 0.33
8 -6 8 0.83 0.38
8 -6 8 0.49 0.43
8 6 8 1.3 0.5
-8 6 -8 0.9 0.47
8 6 8 1.22 0.46
8 -7 -8 3.45 0.55
8 7 -8 3.19 0.46
-8 7 8 4.12 0.71
8 7 -8 4.6 0.59
8 7 -8 2.34 0.43
-8 7 8 3.16 0.61
7 -7 -8 1.3 0.41
7 -7 -8 0.69 0.27
7 7 -8 1.19 0.35
7 7 -8 1.58 0.37
-7 7 8 0.82 0.41
-7 7 8 1.13 0.49
6 -7 -8 -0.09 0.28
6 -7 -8 -0.07 0.2
-6 -7 8 -0.02 0.22
-6 -7 8 -0.41 0.2
6 7 -8 0.12 0.25
-6 7 8 0.62 0.37
-6 7 8 -0.2 0.33
6 7 -8 0.01 0.23
5 -7 -8 0.3 0.26
5 -7 -8 0.48 0.23
-5 -7 8 0.56 0.25
-5 -7 8 0.47 0.24
5 7 -8 0.68 0.28
-5 7 8 0.62 0.38
-5 7 8 1.17 0.37
5 7 -8 0.5 0.2
5 7 -8 0.6 0.24
-4 -7 8 0.14 0.21
-4 -7 8 0.06 0.21
4 -7 -8 -0.12 0.21
4 -7 -8 0.04 0.19
4 7 -8 -0.03 0.2
4 7 -8 0.2 0.15
4 7 -8 0.11 0.23
-4 7 8 0.04 0.31
-4 7 8 -0.02 0.28
3 -7 -8 4.2 0.4
-3 -7 8 4.35 0.41
-3 -7 8 3.87 0.39
3 -7 -8 3.99 0.38
-3 7 8 4.49 0.49
3 7 -8 4.61 0.44
3 7 -8 4.03 0.22
-3 7 8 4.29 0.53
3 7 -8 4.32 0.42
2 -7 -8 0.05 0.18
-2 -7 8 0.27 0.21
-2 -7 8 -0.07 0.17
2 -7 -8 0.55 0.19
2 7 -8 0.23 0.22
2 7 -8 0.33 0.22
-2 7 8 0.37 0.27
-2 7 8 0.03 0.11
-2 7 8 0.25 0.27
1 -7 -8 3.75 0.3
1 -7 -8 3.23 0.35
-1 -7 8 3.41 0.37
1 -7 -8 3.52 0.3
-1 -7 8 3.71 0.39
1 7 -8 3.88 0.4
-1 7 8 3.45 0.43
1 7 -8 3.8 0.39
-1 7 8 3.7 0.47
0 -7 -8 7.17 0.32
0 -7 -8 7.05 0.3
0 -7 8 6.2 0.42
0 -7 -8 7.63 0.45
0 -7 8 7.11 0.46
0 -7 -8 6.6 0.42
0 7 -8 7.66 0.48
0 7 8 6.74 0.52
0 7 -8 6.7 0.48
0 7 8 6.64 0.53
1 -7 8 22.09 0.56
1 -7 8 22.96 0.72
-1 -7 -8 22.04 0.51
-1 -7 -8 24.39 0.79
1 -7 8 22.74 0.81
-1 -7 -8 22.91 0.75
1 -7 8 21.98 0.57
-1 -7 -8 22.58 0.51
-1 7 -8 23.08 0.82
1 7 8 21.73 0.86
1 7 8 23.43 0.88
-1 7 -8 22.14 0.83
2 -7 8 0.19 0.14
-2 -7 -8 0.05 0.18
-2 -7 -8 0.11 0.22
2 -7 8 0.05 0.22
2 -7 8 0.1 0.16
2 7 8 0.21 0.27
-2 7 -8 0.05 0.22
-2 7 -8 0.36 0.25
2 7 8 0.08 0.23
-3 -7 -8 0.77 0.23
3 -7 8 1.4 0.22
3 -7 8 1.05 0.29
-3 -7 -8 1.09 0.3
3 -7 8 1.42 0.25
3 7 8 1.74 0.37
3 7 8 1 0.3
-3 7 -8 0.58 0.31
-3 7 -8 0.8 0.32
4 -7 8 3.34 0.48
-4 -7 -8 4 0.49
-4 -7 -8 3.43 0.37
4 -7 8 4.02 0.45
4 -7 8 3.56 0.3
4 7 8 4.58 0.59
-4 7 -8 3.1 0.45
4 7 8 3.95 0.54
-4 7 -8 3.53 0.54
5 -7 8 7.97 0.62
-5 -7 -8 8.32 0.65
5 -7 8 8.15 0.63
-5 -7 -8 8.23 0.48
-5 7 -8 7.3 0.63
-5 7 -8 8.98 0.74
5 7 8 7.91 0.67
5 7 8 8.1 0.72
6 -7 8 0.41 0.32
6 -7 8 0.26 0.31
-6 -7 -8 0.26 0.33
-6 7 -8 0.31 0.32
-6 7 -8 0.62 0.38
6 7 8 0.03 0.37
6 7 8 0.26 0.31
7 -7 8 0.15 0.35
-7 -7 -8 0.69 0.38
7 -7 8 1.01 0.38
-7 7 -8 0.68 0.41
-7 7 -8 0.41 0.34
7 7 8 0.43 0.43
7 7 8 0.37 0.34
-8 8 8 4.58 0.7
8 8 -8 4.29 0.56
-8 8 8 3.66 0.68
8 8 -8 4.68 0.66
7 -8 -8 3.64 0.55
-7 -8 8 5.65 0.59
7 8 -8 4.09 0.58
-7 8 8 4.71 0.72
7 8 -8 5.7 0.61
-7 8 8 3.18 0.55
-6 -8 8 1.41 0.3
-6 -8 8 1.35 0.33
6 -8 -8 1.47 0.32
6 -8 -8 1.32 0.39
-6 8 8 1.69 0.47
6 8 -8 1.6 0.36
6 8 -8 1.46 0.36
-6 8 8 1.61 0.48
5 -8 -8 0.66 0.26
-5 -8 8 0.7 0.29
-5 -8 8 0.6 0.26
5 -8 -8 0.22 0.3
-5 8 8 1.97 0.46
5 8 -8 0.48 0.29
5 8 -8 0.79 0.29
-5 8 8 0.7 0.35
-4 -8 8 0.26 0.22
4 -8 -8 0.72 0.29
4 -8 -8 0.28 0.25
-4 -8 8 0.34 0.23
4 8 -8 1.04 0.3
-4 8 8 0.8 0.32
-4 8 8 0.01 0.33
4 8 -8 0.5 0.26
3 -8 -8 17.35 0.7
-3 -8 8 17.4 0.7
3 -8 -8 16.3 0.7
-3 -8 8 17.16 0.72
3 8 -8 17.53 0.74
3 8 -8 16.68 0.76
-3 8 8 17.02 0.88
-3 8 8 18.57 0.85
-2 -8 8 18.07 0.71
2 -8 -8 18.69 0.68
2 -8 -8 18.52 0.72
-2 -8 8 17.97 0.72
-2 8 8 17.54 0.52
-2 8 8 17.8 0.86
2 8 -8 17.93 0.74
-2 8 8 17.73 0.8
2 8 -8 16.64 0.74
1 -8 -8 7.18 0.41
-1 -8 8 7.2 0.49
-1 -8 8 7.75 0.49
1 -8 -8 8 0.42
1 -8 -8 7.82 0.47
1 8 -8 7.65 0.51
1 8 -8 6.7 0.53
-1 8 8 7.95 0.62
-1 8 8 7.07 0.54
0 -8 -8 7.65 0.48
0 -8 -8 7.61 0.35
0 -8 8 8.26 0.51
0 -8 -8 8.46 0.46
0 -8 8 7.56 0.48
0 8 8 7.3 0.57
0 8 -8 8.02 0.55
0 8 8 7.68 0.6
0 8 -8 8.4 0.55
1 -8 8 48.48 1.31
1 -8 8 47.81 1.21
-1 -8 -8 48.02 1.28
-1 -8 -8 48.98 1.24
-1 -8 -8 47.18 0.93
1 8 8 46.86 1.4
-1 8 -8 47.47 1.34
1 8 8 46.49 1.35
-1 8 -8 49.28 1.37
-2 -8 -8 19.92 0.73
2 -8 8 18.22 0.57
2 -8 8 19.1 0.68
-2 -8 -8 19.24 0.79
2 -8 8 20.11 0.81
2 8 8 19.85 0.83
2 8 8 19.66 0.86
-2 8 -8 19.86 0.88
-2 8 -8 18.46 0.81
3 -8 8 10.75 0.65
-3 -8 -8 10.12 0.63
3 -8 8 9.58 0.47
3 -8 8 9.2 0.48
-3 -8 -8 10 0.55
3 8 8 10.3 0.67
-3 8 -8 10.1 0.65
-3 8 -8 9.55 0.68
3 8 8 8.88 0.68
-4 -8 -8 17.82 0.71
4 -8 8 17.01 0.75
-4 -8 -8 17.98 0.88
4 -8 8 17.79 0.82
4 -8 8 17.63 0.62
4 8 8 18.59 0.91
4 8 8 18.4 0.94
-4 8 -8 17.17 0.92
-4 8 -8 18.61 0.88
-5 -8 -8 16.33 0.88
5 -8 8 18.4 0.85
5 -8 8 17.02 0.88
-5 -8 -8 16.15 0.69
5 8 8 16.04 0.93
-5 8 -8 17.3 0.88
-5 8 -8 14.59 0.96
5 8 8 17.04 0.96
6 -8 8 3.51 0.52
6 -8 8 3.51 0.54
-6 -8 -8 2.94 0.53
-6 8 -8 2.97 0.47
6 8 8 5.05 0.7
-6 8 -8 3.66 0.6
6 8 8 3.9 0.59
7 -8 8 10.65 0.83
-7 -8 -8 10.75 0.86
7 -8 8 10.85 0.81
7 8 8 11.23 0.94
7 8 8 10.55 0.9
-7 8 -8 11.58 0.99
7 -9 -8 0.8 0.4
-7 -9 8 0.65 0.33
-7 9 8 1.37 0.54
7 9 -8 1.05 0.38
7 9 -8 0.98 0.38
-7 9 8 1.19 0.48
6 -9 -8 0.43 0.28
6 -9 -8 0.2 0.35
-6 -9 8 0.83 0.33
6 9 -8 1.07 0.37
-6 9 8 1.1 0.52
6 9 -8 1.09 0.36
-6 9 8 0.55 0.43
-5 -9 8 2.25 0.39
-5 -9 8 2.3 0.35
5 -9 -8 1.67 0.41
5 -9 -8 2.48 0.37
5 9 -8 2.51 0.42
-5 9 8 2.01 0.5
-5 9 8 2.34 0.46
5 9 -8 2.61 0.45
-4 -9 8 0.26 0.23
-4 -9 8 1.16 0.31
4 -9 -8 0.18 0.27
4 -9 -8 0.24 0.24
-4 9 8 0.77 0.39
-4 9 8 0 0.3
4 9 -8 0.28 0.29
4 9 -8 0.55 0.31
-3 -9 8 -0.02 0.22
-3 -9 8 -0.24 0.2
3 -9 -8 0.25 0.25
3 -9 -8 -0.08 0.21
3 9 -8 0.17 0.25
3 9 -8 -0.11 0.26
-3 9 8 -0.18 0.29
-3 9 8 0.45 0.36
-2 -9 8 -0.25 0.19
2 -9 -8 -0.24 0.2
-2 -9 8 0.19 0.23
2 -9 -8 -0.18 0.2
-2 9 8 -0.14 0.12
-2 9 8 -0.04 0.26
-2 9 8 -0.31 0.3
2 9 -8 0.28 0.25
2 9 -8 -0.03 0.24
1 -9 -8 5.9 0.48
-1 -9 8 6.27 0.5
-1 -9 8 6.55 0.48
1 -9 -8 6.21 0.42
1 -9 -8 6.81 0.44
-1 9 8 6.34 0.63
1 9 -8 6.8 0.54
-1 9 8 7.01 0.55
1 9 -8 5.91 0.54
0 -9 -8 0.48 0.16
0 -9 -8 0.83 0.26
0 -9 8 0.72 0.25
0 -9 8 0.51 0.24
0 -9 -8 0.06 0.21
0 9 -8 0.53 0.29
0 9 8 1.36 0.33
0 9 8 0.79 0.34
0 9 -8 0.62 0.28
-1 -9 -8 0.78 0.27
1 -9 8 1.83 0.33
1 -9 8 0.9 0.25
-1 -9 -8 1.55 0.31
1 9 8 1.31 0.33
-1 9 -8 1.22 0.34
-1 9 -8 0.98 0.3
1 9 8 1.26 0.35
-2 -9 -8 0.38 0.23
2 -9 8 0.22 0.26
-2 -9 -8 0.06 0.26
2 -9 8 0.5 0.23
-2 9 -8 0.24 0.29
-2 9 -8 0.08 0.28
2 9 8 -0.05 0.28
2 9 8 0.4 0.31
3 -9 8 0.25 0.28
-3 -9 -8 0.25 0.28
-3 -9 -8 0.24 0.22
3 -9 8 0.18 0.19
3 9 8 -0.27 0.27
3 9 8 -0.12 0.31
-3 9 -8 -0.1 0.27
-3 9 -8 -0.06 0.3
-4 -9 -8 3.13 0.43
4 -9 8 2.96 0.45
-4 -9 -8 2.46 0.43
4 9 8 2.44 0.48
4 9 8 3.56 0.51
-4 9 -8 3.26 0.52
-4 9 -8 2.58 0.45
-5 -9 -8 0.4 0.23
5 -9 8 0.02 0.3
-5 -9 -8 0.55 0.36
5 9 8 -0.06 0.39
-5 9 -8 -0.12 0.35
5 9 8 0.04 0.34
-5 9 -8 0.27 0.31
6 -9 8 0.44 0.37
-6 -9 -8 1.03 0.41
6 9 8 0.27 0.41
-6 9 -8 0.35 0.34
6 9 8 0.64 0.37
-6 9 -8 0.78 0.46
-6 -10 8 0.26 0.3
6 -10 -8 -0.05 0.27
6 -10 -8 -0.04 0.36
6 10 -8 0.97 0.37
-6 10 8 -0.87 0.32
-6 10 8 0.47 0.49
6 10 -8 0.07 0.33
5 -10 -8 -0.41 0.29
-5 -10 8 -0.05 0.28
5 -10 -8 -0.09 0.29
-5 10 8 -0.49 0.35
5 10 -8 0.15 0.29
5 10 -8 0.29 0.35
-5 10 8 0.05 0.34
4 -10 -8 0.18 0.3
-4 -10 8 -0.23 0.21
4 -10 -8 -0.29 0.23
-4 -10 8 0.32 0.26
4 10 -8 0.4 0.29
-4 10 8 0.97 0.45
-4 10 8 0.4 0.33
4 10 -8 0.05 0.29
-3 -10 8 0.02 0.25
3 -10 -8 -0.16 0.25
-3 -10 8 0.19 0.23
3 -10 -8 0.3 0.27
-3 10 8 -0.03 0.3
3 10 -8 0.03 0.26
3 10 -8 0.59 0.33
-3 10 8 0.17 0.36
-2 -10 8 0.08 0.23
-2 -10 8 0.23 0.25
2 -10 -8 0.02 0.24
2 -10 -8 -0.04 0.22
-2 10 8 -0.49 0.32
2 10 -8 0.1 0.27
2 10 -8 0.17 0.28
-2 10 8 0.03 0.26
1 -10 -8 0.28 0.25
-1 -10 8 0.1 0.24
1 -10 -8 0.08 0.19
-1 -10 8 0.12 0.24
-1 10 8 -0.14 0.16
-1 10 8 -0.14 0.32
1 10 -8 0.18 0.29
1 10 -8 -0.15 0.25
-1 10 8 0.02 0.26
0 -10 -8 8.93 0.57
0 -10 8 9.74 0.59
0 -10 -8 9.09 0.55
0 -10 8 9.29 0.61
0 10 -8 11.03 0.7
0 10 8 9.39 0.63
0 10 8 9.69 0.74
0 10 -8 8.53 0.63
1 -10 8 5.65 0.54
1 -10 8 5.11 0.46
-1 -10 -8 5.18 0.51
-1 -10 -8 5.1 0.51
-1 10 -8 5.56 0.6
-1 10 -8 5.19 0.57
1 10 8 4.4 0.54
1 10 8 5.3 0.62
2 -10 8 2.76 0.36
-2 -10 -8 2.94 0.41
-2 -10 -8 2.81 0.43
2 -10 8 2.18 0.4
2 10 8 2.59 0.44
-2 10 -8 2.09 0.42
-2 10 -8 2.19 0.44
2 10 8 3.2 0.51
-3 -10 -8 -0.01 0.3
3 -10 8 0.05 0.2
3 -10 8 0.09 0.28
-3 -10 -8 0.01 0.23
-3 10 -8 0.55 0.36
-3 10 -8 -0.09 0.3
3 10 8 -0.46 0.27
3 10 8 0.04 0.32
-4 -10 -8 9.07 0.73
-4 -10 -8 8.64 0.6
4 -10 8 9 0.69
-4 10 -8 7.59 0.67
-4 10 -8 8.34 0.8
4 10 8 8.22 0.75
4 10 8 7.37 0.75
5 -10 8 0.27 0.31
-5 -10 -8 -0.13 0.33
-5 -10 -8 0.32 0.27
5 10 8 -0.5 0.32
5 10 8 0.3 0.35
-5 10 -8 0.31 0.33
-5 10 -8 -0.1 0.38
-6 -10 -8 0.43 0.39
6 -10 8 0.51 0.36
6 10 8 -0.01 0.42
-6 10 -8 0.54 0.43
6 10 8 0.28 0.4
6 -11 -8 3.55 0.52
-6 -11 8 2.15 0.45
6 -11 -8 1.9 0.49
-6 11 8 2.23 0.52
6 11 -8 2.45 0.51
6 11 -8 1.73 0.47
-6 11 8 3.2 0.69
5 -11 -8 -0.32 0.25
-5 -11 8 0.59 0.31
5 -11 -8 0.29 0.34
5 11 -8 0.6 0.38
-5 11 8 -0.01 0.43
-5 11 8 0.02 0.35
5 11 -8 -0.29 0.3
-4 -11 8 -0.25 0.21
4 -11 -8 0.36 0.3
4 -11 -8 -0.12 0.3
-4 -11 8 -0.14 0.27
4 11 -8 -0.26 0.3
-4 11 8 -0.72 0.35
4 11 -8 -0.3 0.28
-4 11 8 -0.25 0.34
-3 -11 8 -0.04 0.23
3 -11 -8 0.26 0.28
-3 -11 8 0.34 0.27
3 -11 -8 0.65 0.3
-3 11 8 0.71 0.43
3 11 -8 0.05 0.28
-3 11 8 0.29 0.29
3 11 -8 -0.43 0.28
-2 -11 8 2.29 0.37
-2 -11 8 2.36 0.42
2 -11 -8 1.83 0.33
2 -11 -8 1.9 0.38
-2 11 8 1.9 0.4
-2 11 8 1.32 0.47
2 11 -8 2.09 0.46
2 11 -8 1.99 0.43
-1 -11 8 0.27 0.27
-1 -11 8 -0.31 0.23
1 -11 -8 0.44 0.28
-1 11 8 0.42 0.21
1 11 -8 0.12 0.29
-1 11 8 0.34 0.31
1 11 -8 0.48 0.34
-1 11 8 0.79 0.4
0 -11 8 0.31 0.26
0 -11 8 0.18 0.26
0 -11 -8 0.73 0.31
0 11 8 0.01 0.34
0 11 8 0.01 0.27
0 11 -8 -0.06 0.28
0 11 -8 0.1 0.3
1 -11 8 0.88 0.29
1 -11 8 1.18 0.35
-1 -11 -8 1.43 0.35
-1 -11 -8 0.47 0.29
-1 11 -8 1.12 0.37
1 11 8 0.8 0.39
1 11 8 0.67 0.33
-1 11 -8 0.68 0.38
-2 -11 -8 3.2 0.45
-2 -11 -8 3.27 0.48
2 -11 8 2.45 0.43
2 -11 8 2.41 0.37
2 11 8 2.22 0.48
2 11 8 2.44 0.42
-2 11 -8 2.63 0.46
-2 11 -8 2.41 0.48
3 -11 8 8.92 0.57
-3 -11 -8 9.06 0.75
-3 -11 -8 10.05 0.64
3 -11 8 10.17 0.74
3 11 8 9.28 0.73
-3 11 -8 10.27 0.82
3 11 8 10.49 0.86
-3 11 -8 9.41 0.74
-4 -11 -8 -0.24 0.31
-4 -11 -8 -0.09 0.24
4 -11 8 0.37 0.35
-4 11 -8 -0.17 0.38
-4 11 -8 -0.13 0.3
4 11 8 -0.29 0.32
-5 -11 -8 1.65 0.45
5 -11 8 0.92 0.4
-5 -11 -8 0.69 0.31
-5 11 -8 0.68 0.42
5 11 8 1.01 0.44
5 -12 -8 0.67 0.33
5 -12 -8 0.46 0.37
-5 -12 8 0.4 0.33
5 12 -8 0.71 0.42
-5 12 8 0.96 0.42
-5 12 8 0.21 0.45
5 12 -8 0.48 0.37
4 -12 -8 1.98 0.44
-4 -12 8 2.34 0.44
4 -12 -8 2.28 0.43
-4 12 8 2.44 0.59
-4 12 8 2.26 0.46
4 12 -8 2.03 0.46
4 12 -8 2.1 0.49
-3 -12 8 0.5 0.33
3 -12 -8 -0.19 0.27
3 -12 -8 0.55 0.32
-3 -12 8 0.8 0.3
-3 12 8 0.18 0.44
-3 12 8 -0.03 0.31
3 12 -8 0.7 0.39
3 12 -8 0.49 0.35
-2 -12 8 0.43 0.28
2 -12 -8 0.37 0.32
-2 -12 8 0.54 0.32
-2 12 8 -0.18 0.29
2 12 -8 0.03 0.34
-2 12 8 0.24 0.43
2 12 -8 0.46 0.35
-1 -12 8 7.83 0.62
-1 -12 8 7.22 0.6
1 -12 -8 7.51 0.63
-1 12 8 7.83 0.61
1 12 -8 7.62 0.69
1 12 -8 6.56 0.73
-1 12 8 7.87 0.83
0 -12 -8 15.01 0.82
0 -12 8 14.64 0.78
0 -12 8 16.65 0.82
0 12 -8 16.84 0.95
0 12 8 15.28 1.02
0 12 -8 14.55 0.88
0 12 8 16.87 0.73
-1 -12 -8 10.37 0.69
1 -12 8 10.56 0.66
-1 -12 -8 10.85 0.7
1 -12 8 10.2 0.68
-1 12 -8 8.79 0.8
1 12 8 10.86 0.86
-1 12 -8 11.59 0.76
2 -12 8 10.4 0.65
-2 -12 -8 11.38 0.71
2 -12 8 10.02 0.72
-2 -12 -8 9.98 0.73
-2 12 -8 10.56 0.84
-2 12 -8 10.4 0.78
2 12 8 9.37 0.84
-3 -12 -8 6.72 0.67
3 -12 8 7.01 0.56
-3 -12 -8 5.72 0.57
3 -12 8 6.57 0.69
3 12 8 7.1 0.77
-3 12 -8 6.57 0.77
-3 12 -8 7.19 0.68
-4 -12 -8 1.39 0.36
-4 -12 -8 1.75 0.48
4 -12 8 0.9 0.38
-4 12 -8 1.73 0.53
-4 12 -8 1.2 0.41
4 12 8 1.55 0.51
3 -13 -8 -0.06 0.33
-3 -13 8 0.23 0.3
-3 13 8 0.7 0.49
3 13 -8 -0.17 0.36
3 13 -8 -0.06 0.34
2 -13 -8 4 0.59
-2 -13 8 2.58 0.46
-2 -13 8 3.07 0.45
2 13 -8 2.67 0.55
-2 13 8 2.52 0.58
2 13 -8 3.44 0.54
-1 -13 8 2.85 0.44
1 -13 -8 2.32 0.44
-1 -13 8 2.09 0.44
-1 13 8 2.26 0.57
1 13 -8 1.87 0.5
1 13 -8 2.89 0.49
0 -13 -8 1.79 0.41
0 -13 8 1.21 0.37
0 -13 8 1.24 0.38
0 13 -8 2.11 0.51
0 13 8 1.35 0.52
0 13 -8 1.38 0.44
1 -13 8 2.58 0.43
-1 -13 -8 3.96 0.56
1 -13 8 3.36 0.49
1 13 8 2.67 0.58
-1 13 -8 2.99 0.6
1 13 8 3.19 0.47
-1 13 -8 2.69 0.51
2 -13 8 8.7 0.72
-2 -13 -8 8.16 0.67
-2 -13 -8 7.32 0.71
2 -13 8 6.37 0.6
-2 13 -8 9.69 0.88
-2 13 -8 8.16 0.76
2 13 8 7 0.83
-3 -13 -8 5.22 0.68
-3 -13 -8 4.83 0.56
3 -13 8 4.13 0.6
-3 13 -8 3.36 0.54
-3 13 -8 3.48 0.58
3 13 8 3.55 0.67
-1 -14 8 0.7 0.36
-1 -14 8 0.88 0.33
1 14 -8 -0.04 0.32
0 -14 8 -0.09 0.33
0 -14 8 1.51 0.38
0 14 8 0.64 0.5
0 14 -8 1.12 0.44
0 14 -8 1.23 0.46
9 0 -9 0.22 0.3
-9 0 9 -0.22 0.34
9 0 -9 -0.04 0.38
8 0 -9 0.12 0.25
-8 0 9 -0.1 0.29
-8 0 9 -0.27 0.33
8 0 -9 -0.18 0.16
-7 0 9 -0.06 0.28
7 0 -9 -0.22 0.22
7 0 -9 -0.16 0.15
-7 0 9 -0.04 0.3
6 0 -9 -0.05 0.13
6 0 -9 -0.1 0.15
6 0 -9 0.4 0.23
-6 0 9 -0.13 0.22
-6 0 9 -0.03 0.27
5 0 -9 0.34 0.17
-5 0 9 0.19 0.21
5 0 -9 0.13 0.18
5 0 -9 0.02 0.13
-5 0 9 0.01 0.23
4 0 -9 -0.07 0.15
4 0 -9 -0.1 0.11
-4 0 9 0 0.17
-4 0 9 0.08 0.16
-4 0 9 -0.3 0.19
4 0 -9 0.03 0.11
4 0 -9 -0.17 0.11
3 0 -9 -0.07 0.15
3 0 -9 -0.15 0.09
-3 0 9 -0.05 0.18
3 0 -9 -0.11 0.1
-3 0 9 0.28 0.18
-3 0 9 -0.01 0.11
-3 0 9 0.02 0.09
-2 0 9 -0.09 0.1
-2 0 9 -0.08 0.16
-2 0 9 -0.03 0.18
2 0 -9 0.14 0.13
2 0 -9 0.01 0.14
-1 0 9 -0.03 0.18
1 0 -9 -0.18 0.13
1 0 -9 0 0.15
-1 0 9 0.12 0.16
0 0 9 -0.13 0.18
0 0 -9 -0.26 0.15
0 0 9 -0.05 0.07
0 0 9 -0.17 0.13
0 0 -9 0.02 0.13
0 0 9 -0.08 0.08
1 0 9 0.07 0.11
-1 0 -9 -0.03 0.11
-1 0 -9 0.28 0.2
-1 0 -9 -0.1 0.12
1 0 9 -0.14 0.11
1 0 9 0.11 0.14
1 0 9 0.13 0.2
-2 0 -9 -0.04 0.1
2 0 9 -0.26 0.19
-2 0 -9 -0.19 0.18
2 0 9 -0.15 0.13
2 0 9 -0.05 0.09
-2 0 -9 -0.14 0.14
3 0 9 0 0.09
-3 0 -9 0.21 0.21
-3 0 -9 -0.01 0.17
-3 0 -9 0.04 0.09
3 0 9 -0.09 0.14
3 0 9 0.14 0.21
-4 0 -9 0.06 0.23
4 0 9 -0.24 0.24
4 0 9 -0.01 0.15
-4 0 -9 0.12 0.07
-4 0 -9 -0.01 0.21
5 0 9 0 0.28
-5 0 -9 -0.16 0.23
5 0 9 0.12 0.17
-5 0 -9 -0.06 0.24
-6 0 -9 0.02 0.28
6 0 9 0.03 0.19
6 0 9 0.07 0.32
-6 0 -9 -0.11 0.27
-7 0 -9 -0.15 0.29
7 0 9 0.08 0.21
-7 0 -9 -0.21 0.28
7 0 9 0.14 0.36
8 0 9 0.72 0.45
-8 0 -9 -0.06 0.35
-8 0 -9 -0.25 0.32
-9 -1 9 4.89 0.67
9 -1 -9 3.88 0.53
-9 1 9 4.95 0.7
9 1 -9 3.8 0.54
9 1 -9 3.47 0.6
-8 -1 9 2.04 0.47
8 -1 -9 2.5 0.43
-8 -1 9 3.25 0.5
8 -1 -9 3.05 0.35
8 1 -9 2.43 0.36
8 1 -9 2.67 0.42
-8 1 9 2.89 0.49
-8 1 9 2.28 0.5
-7 -1 9 18.34 0.88
7 -1 -9 16.96 0.78
7 -1 -9 17.69 0.68
-7 -1 9 17.98 0.91
7 1 -9 16.81 0.76
7 1 -9 17.87 0.7
7 1 -9 17.46 0.63
-7 1 9 17.69 0.89
-7 1 9 18.41 0.92
6 -1 -9 2.43 0.34
-6 -1 9 3.25 0.45
6 -1 -9 3.33 0.34
-6 -1 9 3.07 0.41
6 -1 -9 2.74 0.23
6 1 -9 2.92 0.31
-6 1 9 2.89 0.4
-6 1 9 2.43 0.42
6 1 -9 2.74 0.37
6 1 -9 2.4 0.32
5 -1 -9 2.09 0.31
5 -1 -9 2.24 0.21
5 -1 -9 2.09 0.3
-5 -1 9 2.61 0.37
-5 -1 9 2.64 0.38
5 -1 -9 2.01 0.2
-5 1 9 2.62 0.41
5 1 -9 1.92 0.26
5 1 -9 1.88 0.28
-5 1 9 3.21 0.43
4 -1 -9 4.31 0.23
4 -1 -9 4.16 0.23
-4 -1 9 4.62 0.33
4 -1 -9 4.14 0.34
-4 -1 9 3.88 0.37
4 -1 -9 4.3 0.35
-4 -1 9 4.18 0.41
4 1 -9 3.76 0.29
-4 1 9 3.85 0.41
-4 1 9 4.15 0.35
4 1 -9 4.38 0.35
4 1 -9 3.97 0.29
-3 -1 9 0.01 0.1
3 -1 -9 0.28 0.16
3 -1 -9 0.04 0.12
3 -1 -9 0.04 0.1
-3 -1 9 0.21 0.19
-3 -1 9 0.14 0.18
3 1 -9 0.02 0.14
3 1 -9 0.27 0.11
-3 1 9 0.19 0.17
3 1 -9 -0.03 0.12
-3 1 9 -0.02 0.13
-3 1 9 -0.16 0.18
-3 1 9 0.13 0.09
-2 -1 9 29.81 0.82
2 -1 -9 31.44 0.8
2 -1 -9 30.19 0.67
2 -1 -9 31.17 0.74
-2 -1 9 30.43 0.84
-2 1 9 30.46 0.69
2 1 -9 32.07 0.81
2 1 -9 30.38 0.78
-2 1 9 30.52 0.72
-2 1 9 30.6 0.9
-2 1 9 30.24 0.8
-1 -1 9 14.83 0.52
-1 -1 9 14.81 0.56
1 -1 -9 14.67 0.37
1 -1 -9 14.78 0.51
1 -1 -9 14.39 0.49
1 1 -9 14.83 0.5
-1 1 9 14.53 0.48
-1 1 9 14.51 0.5
-1 1 9 15.28 0.6
-1 1 9 13.94 0.37
1 1 -9 15.8 0.53
0 -1 9 9.76 0.47
0 -1 -9 9.32 0.39
0 -1 9 9.07 0.4
0 -1 -9 9.6 0.44
0 1 9 8.66 0.3
0 1 -9 8.21 0.43
0 1 9 8.84 0.31
0 1 9 8.88 0.47
0 1 -9 8.38 0.36
0 1 9 8.84 0.38
-1 -1 -9 1.91 0.27
-1 -1 -9 1.75 0.2
-1 -1 -9 2.19 0.23
1 -1 9 2.15 0.22
1 -1 9 1.91 0.27
1 -1 9 1.64 0.24
1 1 9 2.43 0.34
-1 1 -9 1.79 0.27
-1 1 -9 1.91 0.2
1 1 9 2.11 0.23
1 1 9 1.68 0.23
-1 1 -9 2.07 0.23
1 1 9 1.63 0.19
-1 1 -9 1.72 0.21
-2 -1 -9 1.7 0.28
2 -1 9 0.87 0.19
-2 -1 -9 1.41 0.19
-2 -1 -9 1.37 0.17
2 -1 9 1.1 0.26
2 1 9 1.4 0.28
-2 1 -9 1.34 0.26
-2 1 -9 1.39 0.16
-2 1 -9 1.22 0.21
-2 1 -9 1.12 0.15
2 1 9 1.62 0.22
2 1 9 1.32 0.19
-3 -1 -9 1.56 0.3
3 -1 9 2.09 0.28
-3 -1 -9 1.91 0.19
3 -1 9 1.72 0.3
-3 -1 -9 1.95 0.29
-3 1 -9 1.92 0.29
3 1 9 2.53 0.35
-3 1 -9 2.04 0.17
3 1 9 2.58 0.25
3 1 9 1.74 0.19
-3 1 -9 1.84 0.15
-3 1 -9 2.34 0.35
4 -1 9 16.33 0.61
-4 -1 -9 16.15 0.42
-4 -1 -9 16.62 0.74
-4 -1 -9 15.97 0.73
4 -1 9 16.38 0.74
4 1 9 16.14 0.44
4 1 9 16.4 0.77
4 1 9 16.62 0.54
-4 1 -9 15.93 0.73
-4 1 -9 15.81 0.72
5 -1 9 9.45 0.49
-5 -1 -9 9.15 0.63
-5 -1 -9 8.98 0.63
5 -1 9 8.76 0.63
5 1 9 9.15 0.66
-5 1 -9 8.81 0.64
-5 1 -9 8.99 0.63
5 1 9 8.78 0.43
6 -1 9 2.46 0.46
-6 -1 -9 3.01 0.46
6 -1 9 2.79 0.4
-6 -1 -9 2.45 0.43
6 1 9 2.61 0.47
6 1 9 2.94 0.34
-6 1 -9 2.68 0.45
-6 1 -9 2.66 0.41
-7 -1 -9 4.21 0.56
7 -1 9 2.91 0.38
7 -1 9 3.19 0.54
-7 -1 -9 3.78 0.59
-7 1 -9 2.9 0.5
-7 1 -9 3.33 0.51
7 1 9 3.33 0.57
-8 -1 -9 9.75 0.86
-8 -1 -9 10.69 0.82
8 -1 9 9.88 0.87
-8 1 -9 9.1 0.75
-8 1 -9 8.24 0.83
8 1 9 9.17 0.87
-9 -2 9 3.22 0.56
9 -2 -9 2.55 0.45
-9 2 9 3.56 0.6
9 2 -9 3.12 0.45
9 2 -9 2.99 0.54
-9 2 9 2.69 0.54
8 -2 -9 1.22 0.25
-8 -2 9 1.88 0.42
8 -2 -9 0.38 0.3
8 2 -9 1.35 0.34
8 2 -9 1.05 0.28
-8 2 9 0.78 0.39
-8 2 9 0.78 0.41
-7 -2 9 7.8 0.64
-7 -2 9 8.99 0.69
7 -2 -9 9.41 0.64
7 -2 -9 8.84 0.49
7 2 -9 7.52 0.49
7 2 -9 8.59 0.48
-7 2 9 7.68 0.69
7 2 -9 8.72 0.58
-7 2 9 8.32 0.68
-6 -2 9 5.11 0.55
-6 -2 9 5.97 0.52
6 -2 -9 5.39 0.4
6 -2 -9 4.72 0.48
6 2 -9 5.72 0.41
6 2 -9 5.81 0.45
-6 2 9 5.15 0.58
6 2 -9 5.37 0.39
-6 2 9 5.63 0.56
5 -2 -9 21.5 0.72
-5 -2 9 22.17 0.76
-5 -2 9 22.01 0.84
5 -2 -9 22.12 0.77
-5 -2 9 22.21 0.79
5 2 -9 20.63 0.68
-5 2 9 21.99 0.82
-5 2 9 19.47 0.87
5 2 -9 23.2 0.74
-4 -2 9 12.32 0.58
4 -2 -9 10.99 0.3
4 -2 -9 10.98 0.49
4 -2 -9 10.63 0.29
4 -2 -9 10.44 0.5
-4 -2 9 10.69 0.51
-4 2 9 11.9 0.53
4 2 -9 11.47 0.46
4 2 -9 10.94 0.45
-4 2 9 10.03 0.59
4 2 -9 10.92 0.49
-3 -2 9 6.14 0.39
-3 -2 9 4.86 0.38
3 -2 -9 5.3 0.31
3 -2 -9 6.14 0.25
3 -2 -9 5.12 0.34
3 2 -9 5.55 0.28
-3 2 9 5.47 0.35
-3 2 9 5.7 0.21
3 2 -9 5.54 0.34
-3 2 9 5.58 0.44
3 2 -9 5.87 0.37
3 2 -9 5.18 0.27
2 -2 -9 1.33 0.17
2 -2 -9 1.75 0.25
-2 -2 9 1.81 0.24
2 -2 -9 1.68 0.2
-2 -2 9 1.21 0.22
2 2 -9 1.36 0.22
2 2 -9 1.33 0.21
-2 2 9 1.61 0.17
-2 2 9 1.41 0.19
-2 2 9 1.64 0.23
-2 2 9 1.37 0.28
1 -2 -9 23.21 0.64
-1 -2 9 23.1 0.68
1 -2 -9 22.46 0.65
1 -2 -9 22.26 0.57
-1 -2 9 23.05 0.68
1 2 -9 22.66 0.69
-1 2 9 22.01 0.76
-1 2 9 21.8 0.62
1 2 -9 23.44 0.67
1 2 -9 23.5 0.65
-1 2 9 22.48 0.61
-1 2 9 22.38 0.58
0 -2 9 0.37 0.09
0 -2 -9 0.38 0.14
0 -2 -9 0.25 0.12
0 -2 9 0.21 0.18
0 -2 9 0.52 0.17
0 -2 -9 0.17 0.17
0 2 -9 0.26 0.14
0 2 -9 0.35 0.19
0 2 -9 0.26 0.16
0 2 9 0.55 0.23
0 2 9 0.35 0.13
0 2 -9 0.4 0.1
0 2 9 0.12 0.14
1 -2 9 0.42 0.19
-1 -2 -9 0.25 0.11
-1 -2 -9 0.03 0.17
1 -2 9 0.37 0.12
-1 -2 -9 0.04 0.13
1 -2 9 0.35 0.16
-1 2 -9 0.28 0.13
-1 2 -9 0.15 0.13
1 2 9 0.12 0.2
1 2 9 0.18 0.13
-1 2 -9 0.38 0.2
1 2 9 0.06 0.12
1 2 9 0.16 0.14
-2 -2 -9 4.92 0.24
2 -2 9 5.31 0.36
-2 -2 -9 4.65 0.42
-2 -2 -9 4.68 0.28
2 -2 9 4.61 0.4
2 2 9 4.77 0.43
-2 2 -9 5.65 0.37
2 2 9 4.62 0.35
-2 2 -9 5.15 0.26
-2 2 -9 5.31 0.25
-2 2 -9 4.25 0.39
2 2 9 4.35 0.26
-3 -2 -9 13.26 0.4
3 -2 9 13.53 0.54
3 -2 9 13.59 0.62
-3 -2 -9 12.46 0.42
3 2 9 13.01 0.42
3 2 9 12.85 0.65
3 2 9 14.38 0.6
-3 2 -9 13.3 0.36
-3 2 -9 13.23 0.64
-3 2 -9 14.11 0.62
-3 2 -9 12.78 0.37
-4 -2 -9 18.83 0.5
4 -2 9 18.52 0.68
-4 -2 -9 18.17 0.51
-4 -2 -9 17.7 0.77
4 -2 9 18.53 0.78
-4 -2 -9 19.38 0.8
4 2 9 19.18 0.55
-4 2 -9 20.19 0.82
4 2 9 19.76 0.83
-4 2 -9 19.09 0.79
4 2 9 19.22 0.52
-5 -2 -9 2.22 0.39
-5 -2 -9 2.47 0.18
5 -2 9 3.27 0.39
5 -2 9 2.9 0.44
-5 -2 -9 3.21 0.45
5 2 9 2.74 0.27
-5 2 -9 3.12 0.49
5 2 9 2.21 0.41
-5 2 -9 2.2 0.38
6 -2 9 6.64 0.52
-6 -2 -9 6.26 0.59
-6 -2 -9 5.95 0.61
6 -2 9 6.69 0.66
6 2 9 6.96 0.42
-6 2 -9 6.35 0.64
6 2 9 6.51 0.66
-6 2 -9 6.18 0.6
-7 -2 -9 13.02 0.84
-7 -2 -9 12.87 0.87
7 -2 9 11.32 0.86
7 -2 9 12.33 0.68
-7 2 -9 13.63 0.81
-7 2 -9 12.76 0.88
7 2 9 12.87 0.93
8 -2 9 2.83 0.43
-8 -2 -9 4.04 0.64
8 -2 9 3.85 0.65
-8 -2 -9 6.13 0.66
-8 2 -9 3.74 0.61
8 2 9 2.96 0.6
-8 2 -9 3.61 0.55
9 -3 -9 2.13 0.46
9 3 -9 1.32 0.44
9 3 -9 2.4 0.42
-9 3 9 1.54 0.5
9 3 -9 2.43 0.43
-9 3 9 2.71 0.57
8 -3 -9 0.11 0.29
8 3 -9 0.02 0.23
-8 3 9 0.27 0.4
8 3 -9 -0.35 0.18
-8 3 9 -0.09 0.37
8 3 -9 -0.28 0.28
8 3 -9 0.01 0.22
8 3 -9 0.13 0.2
-7 -3 9 2.99 0.45
7 -3 -9 2.16 0.39
7 -3 -9 2.67 0.34
7 3 -9 2.09 0.31
7 3 -9 2.78 0.41
-7 3 9 2.99 0.48
7 3 -9 2.36 0.33
-7 3 9 2.39 0.49
7 3 -9 2.06 0.34
6 -3 -9 0.34 0.25
-6 -3 9 0.99 0.31
6 -3 -9 0.9 0.23
6 3 -9 0.67 0.21
-6 3 9 0.9 0.36
-6 3 9 1.14 0.38
6 3 -9 0.87 0.23
6 3 -9 1.29 0.26
5 -3 -9 12.1 0.6
-5 -3 9 13.49 0.64
5 -3 -9 12.8 0.55
-5 -3 9 12.96 0.6
-5 3 9 13.04 0.67
5 3 -9 12.74 0.58
-5 3 9 13.7 0.74
5 3 -9 13.39 0.55
5 3 -9 12.05 0.55
-4 -3 9 2.6 0.37
4 -3 -9 2.56 0.32
-4 -3 9 2.78 0.36
4 -3 -9 2.39 0.31
-4 3 9 2.37 0.32
4 3 -9 2.02 0.28
4 3 -9 2.27 0.29
4 3 -9 2.71 0.33
-4 3 9 1.94 0.34
3 -3 -9 4.67 0.34
-3 -3 9 4.76 0.37
-3 -3 9 4.3 0.34
3 -3 -9 4.16 0.33
-3 3 9 4.66 0.43
3 3 -9 4.11 0.33
3 3 -9 4.52 0.28
-3 3 9 5.07 0.37
3 3 -9 4.32 0.28
3 3 -9 4.25 0.33
2 -3 -9 6.18 0.36
2 -3 -9 5.92 0.33
-2 -3 9 5.87 0.38
-2 -3 9 6.21 0.35
2 -3 -9 5.87 0.35
2 -3 -9 5.82 0.27
-2 3 9 5.66 0.45
2 3 -9 6.02 0.34
-2 3 9 6.08 0.25
2 3 -9 5.63 0.25
-2 3 9 6.21 0.37
2 3 -9 6.44 0.39
2 3 -9 5.14 0.24
2 3 -9 6.16 0.36
1 -3 -9 23.12 0.63
-1 -3 9 24.51 0.66
1 -3 -9 22.35 0.63
-1 -3 9 22.8 0.52
-1 -3 9 23.31 0.7
1 -3 -9 21.8 0.66
1 3 -9 23.39 0.66
-1 3 9 22.02 0.65
1 3 -9 23.13 0.72
1 3 -9 23.19 0.53
-1 3 9 22.18 0.62
1 3 -9 23.27 0.65
-1 3 9 22.48 0.79
-1 3 9 22.41 0.63
0 -3 -9 1.4 0.22
0 -3 -9 1.91 0.26
0 -3 -9 1.89 0.2
0 -3 9 1.4 0.17
0 -3 9 1.56 0.23
0 -3 9 1.69 0.25
0 -3 -9 1.79 0.23
0 3 9 1.89 0.25
0 3 -9 1.8 0.24
0 3 9 1.69 0.28
0 3 -9 1.47 0.26
0 3 -9 1.45 0.22
0 3 9 1.63 0.21
0 3 -9 1.62 0.2
1 -3 9 2.17 0.24
-1 -3 -9 2.64 0.19
-1 -3 -9 2.59 0.26
1 -3 9 2.62 0.32
-1 -3 -9 2.63 0.3
1 -3 9 2.55 0.29
-1 3 -9 2.2 0.3
-1 3 -9 2.48 0.23
1 3 9 2.61 0.29
1 3 9 2.48 0.21
-1 3 -9 2.52 0.27
1 3 9 2.04 0.32
-2 -3 -9 0.54 0.23
2 -3 9 0.65 0.22
-2 -3 -9 0.8 0.11
2 -3 9 0.91 0.22
-2 -3 -9 0.93 0.17
-2 3 -9 0.91 0.22
-2 3 -9 0.67 0.22
2 3 9 0.65 0.12
-2 3 -9 0.65 0.14
2 3 9 0.44 0.2
-2 3 -9 0.51 0.11
2 3 9 0.83 0.27
3 -3 9 12.12 0.58
-3 -3 -9 11.9 0.6
-3 -3 -9 10.8 0.32
3 -3 9 11.48 0.52
-3 -3 -9 11.24 0.41
-3 3 -9 11.03 0.35
-3 3 -9 11.23 0.33
3 3 9 10.92 0.55
-3 3 -9 11.41 0.6
3 3 9 10.31 0.62
3 3 9 11.37 0.34
-3 3 -9 11.07 0.56
4 -3 9 3.77 0.4
4 -3 9 4.47 0.48
-4 -3 -9 3.42 0.25
-4 -3 -9 3.53 0.2
-4 -3 -9 4.26 0.46
-4 3 -9 3.47 0.48
4 3 9 3.43 0.48
-4 3 -9 3.58 0.45
4 3 9 3.82 0.24
4 3 9 3.59 0.43
5 -3 9 0.64 0.32
-5 -3 -9 0.68 0.13
5 -3 9 0.77 0.26
-5 -3 -9 0.91 0.31
5 3 9 0.56 0.15
5 3 9 0.57 0.28
5 3 9 0.79 0.32
-5 3 -9 1.13 0.35
-5 3 -9 0.36 0.29
6 -3 9 1.68 0.33
-6 -3 -9 1.03 0.36
6 -3 9 1.39 0.42
-6 3 -9 1.54 0.38
6 3 9 0.99 0.41
6 3 9 1.47 0.38
-6 3 -9 1.54 0.4
-7 -3 -9 4.1 0.57
7 -3 9 3.78 0.61
7 -3 9 4.57 0.53
7 3 9 3.99 0.63
-7 3 -9 4.15 0.57
7 3 9 3.31 0.53
-7 3 -9 4.57 0.66
-8 -3 -9 0.9 0.41
8 -3 9 1.27 0.36
8 -3 9 0.41 0.44
-8 3 -9 1.14 0.39
-8 3 -9 1.52 0.48
8 3 9 1.69 0.55
8 3 9 1.03 0.43
9 -4 -9 -0.13 0.27
9 4 -9 0.35 0.25
-9 4 9 0.43 0.45
9 4 -9 0.36 0.26
9 4 -9 0.02 0.31
-9 4 9 0.42 0.43
8 -4 -9 5.1 0.59
8 4 -9 3.55 0.47
8 4 -9 4.12 0.43
8 4 -9 3.43 0.53
-8 4 9 3.98 0.62
8 4 -9 4.2 0.44
8 4 -9 4.58 0.47
-8 4 9 3.76 0.62
7 -4 -9 0.97 0.34
7 -4 -9 0.99 0.27
7 4 -9 0.87 0.32
7 4 -9 1.21 0.29
-7 4 9 1.32 0.44
7 4 -9 1.22 0.27
7 4 -9 1.29 0.27
-7 4 9 0.69 0.4
7 4 -9 1.54 0.29
-6 -4 9 1.04 0.29
6 -4 -9 0.52 0.21
6 -4 -9 0.37 0.25
-6 -4 9 0.84 0.3
6 4 -9 0.89 0.25
6 4 -9 0.96 0.23
6 4 -9 1.03 0.26
-6 4 9 1.02 0.34
-6 4 9 0.95 0.35
-5 -4 9 4.18 0.43
5 -4 -9 5.1 0.45
5 -4 -9 4.33 0.38
-5 -4 9 5 0.45
-5 4 9 5.21 0.58
-5 4 9 5.55 0.56
5 4 -9 4.5 0.4
5 4 -9 4.12 0.39
5 4 -9 4.62 0.41
-4 -4 9 1.14 0.25
4 -4 -9 0.89 0.22
4 -4 -9 1.26 0.25
-4 -4 9 1.2 0.26
-4 4 9 1.45 0.31
4 4 -9 1.27 0.22
-4 4 9 1.37 0.34
4 4 -9 1.46 0.25
-3 -4 9 2.6 0.29
3 -4 -9 2.08 0.27
-3 -4 9 2.14 0.31
-3 -4 9 2.09 0.29
3 -4 -9 2.47 0.29
3 4 -9 2.2 0.25
-3 4 9 2.37 0.35
3 4 -9 2.12 0.33
-3 4 9 1.82 0.29
3 4 -9 2.42 0.26
2 -4 -9 7.95 0.3
2 -4 -9 8.81 0.43
-2 -4 9 8.04 0.44
2 -4 -9 8.35 0.4
-2 -4 9 8.63 0.37
-2 4 9 8.63 0.52
2 4 -9 7.84 0.36
-2 4 9 7.97 0.29
2 4 -9 7.82 0.34
2 4 -9 8.36 0.47
-2 4 9 8.79 0.45
2 4 -9 8.31 0.33
-1 -4 9 0.02 0.12
1 -4 -9 -0.02 0.14
1 -4 -9 0.26 0.15
1 -4 -9 -0.04 0.12
-1 -4 9 0.32 0.18
-1 -4 9 0.13 0.15
-1 -4 9 0.14 0.09
1 4 -9 0.11 0.12
1 4 -9 0.19 0.12
-1 4 9 0.22 0.13
-1 4 9 -0.07 0.16
-1 4 9 0.26 0.24
1 4 -9 0.16 0.18
0 -4 9 0.84 0.15
0 -4 -9 0.81 0.18
0 -4 -9 0.95 0.21
0 -4 9 0.52 0.19
0 -4 9 0.94 0.19
0 -4 9 0.95 0.18
0 -4 -9 0.88 0.15
0 4 -9 1.01 0.24
0 4 9 0.98 0.21
0 4 9 0.77 0.25
0 4 -9 0.86 0.16
0 4 -9 0.89 0.17
-1 -4 -9 0.37 0.1
1 -4 9 0.42 0.17
1 -4 9 0.18 0.15
-1 -4 -9 0.03 0.18
1 -4 9 0.19 0.18
1 -4 9 0.42 0.14
-1 -4 -9 0.36 0.16
-1 4 -9 0.32 0.17
-1 4 -9 0.52 0.15
1 4 9 0.03 0.23
-1 4 -9 0.3 0.21
1 4 9 0.16 0.17
1 4 9 0.25 0.11
2 -4 9 2.96 0.33
-2 -4 -9 3.66 0.3
-2 -4 -9 3.51 0.16
2 -4 9 3.88 0.36
-2 -4 -9 2.97 0.36
2 4 9 3 0.35
2 4 9 3.13 0.42
-2 4 -9 2.67 0.34
-2 4 -9 3.5 0.4
2 4 9 3.43 0.18
-2 4 -9 3.21 0.24
3 -4 9 0.25 0.2
-3 -4 -9 -0.01 0.13
-3 -4 -9 -0.21 0.19
3 -4 9 0.1 0.21
-3 4 -9 0.22 0.21
3 4 9 0.2 0.25
3 4 9 0.05 0.2
-3 4 -9 -0.23 0.21
-3 4 -9 0.17 0.08
-3 4 -9 -0.12 0.09
-4 -4 -9 3.19 0.44
4 -4 9 3.6 0.4
4 -4 9 3 0.43
-4 -4 -9 2.77 0.27
-4 4 -9 3.58 0.47
-4 4 -9 3.5 0.46
-4 4 -9 3.31 0.17
4 4 9 3.61 0.46
4 4 9 4.51 0.53
-5 -4 -9 8.99 0.64
-5 -4 -9 9.68 0.4
5 -4 9 9.05 0.59
5 -4 9 9.98 0.69
5 4 9 10.26 0.67
-5 4 -9 9.36 0.65
-5 4 -9 10.1 0.69
5 4 9 9.15 0.69
-6 -4 -9 9.59 0.72
6 -4 9 8.73 0.75
6 -4 9 9.85 0.64
-6 4 -9 9.53 0.76
6 4 9 9.07 0.71
-6 4 -9 9.1 0.68
6 4 9 9.35 0.75
-7 -4 -9 9.5 0.76
7 -4 9 11.57 0.89
7 -4 9 11.31 0.71
7 4 9 10.54 0.88
7 4 9 11.24 0.84
-7 4 -9 11.33 0.79
-7 4 -9 11.6 0.87
8 -4 9 3.91 0.65
8 -4 9 5.69 0.62
-8 -4 -9 5.19 0.68
-8 4 -9 5.87 0.66
-8 4 -9 5.82 0.78
8 4 9 5.71 0.81
8 4 9 4.12 0.64
8 -5 -9 2.07 0.44
8 5 -9 2.8 0.39
-8 5 9 1.55 0.51
8 5 -9 3.17 0.48
8 5 -9 3.01 0.43
8 5 -9 2.6 0.44
-8 5 9 2.82 0.56
8 5 -9 2.22 0.35
7 -5 -9 1.05 0.27
7 -5 -9 1.51 0.39
7 5 -9 1.91 0.31
-7 5 9 0.57 0.41
7 5 -9 0.98 0.27
7 5 -9 1.26 0.32
7 5 -9 1.49 0.29
7 5 -9 1.14 0.31
-7 5 9 1.28 0.48
6 -5 -9 1.84 0.3
6 -5 -9 1.55 0.35
-6 -5 9 2.43 0.37
6 5 -9 1.87 0.32
6 5 -9 2.55 0.39
-6 5 9 2.49 0.48
-6 5 9 1.64 0.44
6 5 -9 2.08 0.33
6 5 -9 1.63 0.3
-5 -5 9 14.05 0.64
5 -5 -9 13.53 0.66
-5 -5 9 12.29 0.58
5 -5 -9 11.72 0.57
-5 5 9 13.94 0.76
5 5 -9 13.22 0.59
5 5 -9 12.48 0.62
-5 5 9 12.36 0.76
-4 -5 9 5.48 0.38
4 -5 -9 5.15 0.41
-4 -5 9 6.07 0.45
4 -5 -9 5.68 0.45
-4 -5 9 5.44 0.43
-4 5 9 4.91 0.53
-4 5 9 6.23 0.54
4 5 -9 5.3 0.37
4 5 -9 5.32 0.45
-3 -5 9 4.02 0.3
-3 -5 9 4.25 0.38
3 -5 -9 3.9 0.36
-3 -5 9 4.06 0.39
3 -5 -9 3.67 0.37
-3 5 9 3.46 0.44
3 5 -9 3.92 0.27
3 5 -9 4.35 0.38
3 5 -9 4.56 0.32
-3 5 9 4.28 0.44
-2 -5 9 1.78 0.28
2 -5 -9 1.72 0.19
-2 -5 9 2.16 0.3
2 -5 -9 2.01 0.28
2 -5 -9 1.91 0.28
-2 -5 9 2.03 0.22
-2 -5 9 1.91 0.21
2 5 -9 1.84 0.2
2 5 -9 2.26 0.27
2 5 -9 1.63 0.26
-2 5 9 2.01 0.18
-2 5 9 2.05 0.33
-2 5 9 2.22 0.35
-1 -5 9 15.33 0.61
-1 -5 9 15.52 0.44
1 -5 -9 15.04 0.58
1 -5 -9 15.27 0.5
-1 -5 9 15.45 0.59
-1 -5 9 15 0.49
1 -5 -9 16.13 0.51
-1 5 9 15.21 0.52
-1 5 9 16.2 0.64
1 5 -9 15.02 0.45
-1 5 9 16.78 0.7
1 5 -9 15.6 0.64
1 5 -9 16.42 0.53
0 -5 9 0 0.12
0 -5 -9 -0.06 0.16
0 -5 -9 0.13 0.11
0 -5 9 0.07 0.16
0 -5 9 0.19 0.17
0 -5 -9 0.13 0.16
0 -5 9 0.03 0.11
0 -5 -9 -0.18 0.1
0 5 9 -0.21 0.21
0 5 -9 0.02 0.16
0 5 -9 -0.08 0.11
0 5 -9 -0.07 0.13
0 5 9 -0.14 0.16
-1 -5 -9 0.56 0.11
-1 -5 -9 0.66 0.11
-1 -5 -9 0.62 0.18
1 -5 9 0.41 0.2
-1 -5 -9 0.56 0.21
1 -5 9 0.6 0.17
1 -5 9 0.75 0.19
-1 5 -9 0.74 0.16
-1 5 -9 0.41 0.19
1 5 9 0.19 0.18
-1 5 -9 0.45 0.23
1 5 9 0.53 0.26
-2 -5 -9 6.92 0.49
-2 -5 -9 6.54 0.39
2 -5 9 6.11 0.44
2 -5 9 6.94 0.35
2 -5 9 6.73 0.4
2 5 9 7.02 0.47
-2 5 -9 7.09 0.46
-2 5 -9 5.96 0.49
2 5 9 6.32 0.53
3 -5 9 11.86 0.59
3 -5 9 11.93 0.57
-3 -5 -9 13.02 0.51
-3 -5 -9 12.35 0.64
3 5 9 12.63 0.64
-3 5 -9 11.72 0.63
3 5 9 11.81 0.68
-3 5 -9 12.19 0.67
4 -5 9 21.12 0.81
-4 -5 -9 21.03 0.87
4 -5 9 21.59 0.84
-4 -5 -9 21.1 0.66
-4 5 -9 20.57 0.9
4 5 9 21.42 0.93
-4 5 -9 20.06 0.51
4 5 9 20.77 0.88
-4 5 -9 21.12 0.87
-5 -5 -9 7.99 0.41
5 -5 9 8.37 0.58
5 -5 9 7.96 0.64
-5 -5 -9 7.03 0.6
5 5 9 7.62 0.64
-5 5 -9 8.08 0.62
5 5 9 8.32 0.69
-5 5 -9 8.02 0.69
-6 -5 -9 15.64 0.87
6 -5 9 15.68 0.91
6 -5 9 16.34 0.8
-6 5 -9 16.61 0.94
-6 5 -9 15.81 0.87
6 5 9 17.52 0.93
6 5 9 17.35 0.99
7 -5 9 18.87 1.07
-7 -5 -9 17.58 1.01
7 -5 9 19.07 0.91
7 5 9 19.24 1.04
-7 5 -9 19.52 0.97
7 5 9 19 1.1
-7 5 -9 17.87 1.08
-8 -5 -9 13.26 0.9
8 -5 9 11.7 0.95
8 -5 9 11.9 0.82
-8 5 -9 12.79 0.99
8 5 9 13.15 0.95
-8 5 -9 12.45 0.81
8 5 9 13.49 1
8 -6 -9 5.26 0.68
-8 6 9 5.12 0.81
8 6 -9 5.87 0.52
-8 6 9 5.99 0.77
8 6 -9 4.99 0.5
8 6 -9 4.64 0.49
8 6 -9 4.74 0.54
7 -6 -9 14.27 0.68
7 -6 -9 13.94 0.82
7 6 -9 15.56 0.77
7 6 -9 14.66 0.74
7 6 -9 14.35 0.71
7 6 -9 14.41 0.73
-7 6 9 16.02 0.97
-7 6 9 14.16 0.94
6 -6 -9 1.5 0.3
-6 -6 9 1.68 0.33
6 -6 -9 2 0.37
6 6 -9 1.62 0.33
-6 6 9 2.18 0.46
-6 6 9 1.07 0.4
6 6 -9 1.82 0.32
6 6 -9 2.05 0.33
5 -6 -9 2.65 0.34
5 -6 -9 2.49 0.39
-5 -6 9 2.94 0.43
-5 -6 9 2.7 0.36
-5 6 9 4.16 0.59
5 6 -9 2.85 0.38
5 6 -9 2.89 0.35
5 6 -9 2.47 0.37
-5 6 9 3.08 0.49
-4 -6 9 9.79 0.55
4 -6 -9 10.5 0.58
4 -6 -9 10.13 0.53
-4 -6 9 9.9 0.55
-4 6 9 9.19 0.65
4 6 -9 10.17 0.52
-4 6 9 10.08 0.68
4 6 -9 10.86 0.59
-3 -6 9 13.81 0.63
-3 -6 9 13.89 0.62
3 -6 -9 15.03 0.6
3 -6 -9 13.66 0.59
-3 -6 9 13.27 0.45
3 6 -9 14.36 0.57
-3 6 9 13.64 0.7
-3 6 9 13.7 0.71
3 6 -9 13.68 0.63
3 6 -9 13.22 0.45
2 -6 -9 1.31 0.19
2 -6 -9 1.12 0.22
-2 -6 9 1.32 0.17
-2 -6 9 1.17 0.27
-2 -6 9 1.08 0.24
2 -6 -9 1.48 0.26
-2 6 9 0.95 0.28
2 6 -9 2 0.32
2 6 -9 1.44 0.17
-2 6 9 1.43 0.32
-2 6 9 1.22 0.17
2 6 -9 1.29 0.26
-1 -6 9 1.48 0.14
1 -6 -9 1.54 0.24
-1 -6 9 1.36 0.24
1 -6 -9 1.47 0.2
1 -6 -9 1.76 0.25
-1 -6 9 1.48 0.27
-1 6 9 1.44 0.3
-1 6 9 1.4 0.31
1 6 -9 1.61 0.14
1 6 -9 1.28 0.23
1 6 -9 1.42 0.28
0 -6 -9 0.58 0.13
0 -6 9 1.02 0.21
0 -6 9 1.26 0.17
0 -6 -9 0.6 0.14
0 -6 9 1.18 0.25
0 -6 -9 0.79 0.21
0 -6 -9 0.76 0.21
0 6 9 0.76 0.27
0 6 9 0.56 0.22
0 6 -9 0.77 0.23
0 6 -9 0.67 0.12
0 6 -9 1 0.22
-1 -6 -9 3.59 0.38
1 -6 9 3.84 0.38
-1 -6 -9 3.48 0.36
1 -6 9 3.55 0.27
-1 -6 -9 4.01 0.19
-1 -6 -9 3.72 0.2
1 -6 9 3.49 0.33
-1 6 -9 3.57 0.24
1 6 9 3.11 0.43
-1 6 -9 4.38 0.44
-1 6 -9 3.36 0.39
1 6 9 4 0.41
-2 -6 -9 0.25 0.18
2 -6 9 0.21 0.16
2 -6 9 0.04 0.21
2 -6 9 0.03 0.16
-2 -6 -9 0.27 0.23
-2 6 -9 0.22 0.23
2 6 9 0.05 0.21
2 6 9 0.37 0.28
-2 6 -9 0.06 0.24
3 -6 9 0.49 0.17
-3 -6 -9 0.38 0.27
3 -6 9 0.76 0.25
-3 -6 -9 0.56 0.2
3 -6 9 0.7 0.27
-3 6 -9 0.36 0.26
3 6 9 0.73 0.28
-3 6 -9 0.6 0.27
3 6 9 0.01 0.29
-4 -6 -9 4.5 0.38
-4 -6 -9 5.49 0.53
4 -6 9 5.42 0.5
4 -6 9 5.25 0.51
4 6 9 4.75 0.6
-4 6 -9 5.11 0.26
4 6 9 5.72 0.53
-4 6 -9 5.89 0.56
-4 6 -9 5.51 0.56
5 -6 9 8.95 0.66
5 -6 9 8.01 0.62
-5 -6 -9 8.85 0.68
-5 -6 -9 9.28 0.47
-5 6 -9 9.22 0.74
-5 6 -9 10.09 0.71
5 6 9 9.95 0.75
5 6 9 9.21 0.68
6 -6 9 2.81 0.48
-6 -6 -9 2.01 0.45
6 -6 9 2.21 0.42
-6 6 -9 1.34 0.42
6 6 9 2.11 0.49
-6 6 -9 2.3 0.47
6 6 9 1.61 0.44
-7 -6 -9 1.45 0.42
7 -6 9 1.39 0.4
7 -6 9 1.06 0.45
-7 6 -9 0.96 0.38
7 6 9 1.6 0.45
-7 6 -9 0.69 0.4
7 6 9 1.13 0.45
8 -7 -9 4.32 0.62
-8 7 9 4.1 0.66
8 7 -9 4.49 0.53
8 7 -9 4.23 0.56
-8 7 9 3.12 0.62
8 7 -9 4.13 0.47
7 -7 -9 13.52 0.82
7 -7 -9 11.94 0.63
7 7 -9 12.81 0.75
7 7 -9 12.48 0.75
-7 7 9 10.98 0.89
-7 7 9 12.87 0.99
-6 -7 9 5.15 0.51
6 -7 -9 5.9 0.49
-6 -7 9 5.98 0.56
6 -7 -9 4.24 0.56
6 7 -9 6.17 0.52
-6 7 9 4.93 0.68
6 7 -9 5.44 0.56
-6 7 9 4.51 0.64
5 -7 -9 0.03 0.22
5 -7 -9 0.19 0.26
-5 -7 9 0.3 0.25
-5 -7 9 -0.11 0.21
5 7 -9 -0.03 0.19
-5 7 9 0.47 0.36
5 7 -9 0.27 0.27
-5 7 9 0.05 0.34
-4 -7 9 11.05 0.62
4 -7 -9 10.77 0.57
-4 -7 9 10.59 0.58
4 -7 -9 9.66 0.58
4 7 -9 9.74 0.61
4 7 -9 11.22 0.58
4 7 -9 10.82 0.43
-4 7 9 11.64 0.76
-4 7 9 9.85 0.68
3 -7 -9 0.59 0.24
-3 -7 9 0.83 0.25
3 -7 -9 0.55 0.22
-3 -7 9 0.95 0.25
-3 7 9 -0.12 0.28
-3 7 9 0.46 0.3
3 7 -9 0.61 0.12
3 7 -9 0.49 0.21
3 7 -9 0.61 0.24
-2 -7 9 0.11 0.21
2 -7 -9 0.03 0.13
-2 -7 9 0.07 0.19
2 -7 -9 0.38 0.2
2 -7 -9 0.12 0.18
-2 7 9 0.37 0.3
2 7 -9 0.06 0.2
-2 7 9 0.23 0.27
2 7 -9 0.11 0.2
-1 -7 9 0.54 0.24
1 -7 -9 0.4 0.17
1 -7 -9 0.13 0.18
1 -7 -9 0.23 0.17
-1 -7 9 0.12 0.19
1 7 -9 0.56 0.22
-1 7 9 0.23 0.26
-1 7 9 0.37 0.25
1 7 -9 0.22 0.22
0 -7 -9 1.17 0.25
0 -7 -9 0.94 0.24
0 -7 -9 1.23 0.17
0 -7 9 1.05 0.27
0 -7 9 0.81 0.23
0 7 -9 1.2 0.29
0 7 9 0.39 0.29
0 7 9 1.12 0.29
0 7 -9 1.26 0.27
-1 -7 -9 9.6 0.53
1 -7 9 10.8 0.5
1 -7 9 10.52 0.56
1 -7 9 9.82 0.37
-1 -7 -9 9.45 0.5
1 -7 9 9.69 0.37
-1 -7 -9 9.93 0.31
-1 7 -9 9.15 0.6
1 7 9 10.19 0.63
-1 7 -9 11.36 0.58
1 7 9 9.74 0.61
2 -7 9 0.02 0.16
-2 -7 -9 -0.23 0.22
2 -7 9 -0.05 0.15
2 -7 9 0.1 0.22
-2 -7 -9 0.37 0.2
2 7 9 -0.29 0.25
2 7 9 0.09 0.23
-2 7 -9 -0.17 0.22
-2 7 -9 -0.17 0.23
-3 -7 -9 0.72 0.29
3 -7 9 0.3 0.17
-3 -7 -9 0.31 0.2
3 -7 9 0.2 0.2
3 -7 9 -0.06 0.23
-3 7 -9 0.4 0.28
-3 7 -9 0.18 0.27
3 7 9 -0.01 0.28
3 7 9 0.16 0.25
4 -7 9 0.92 0.3
4 -7 9 0.82 0.28
-4 -7 -9 0.36 0.2
-4 -7 -9 0.97 0.34
4 7 9 0.92 0.33
-4 7 -9 1.08 0.34
-4 7 -9 1.38 0.39
4 7 9 0.79 0.38
5 -7 9 7.66 0.62
-5 -7 -9 7.51 0.47
-5 -7 -9 7.24 0.64
5 -7 9 8.16 0.62
-5 7 -9 6.6 0.68
-5 7 -9 7.91 0.67
5 7 9 8.9 0.76
5 7 9 7.42 0.68
6 -7 9 4.93 0.61
6 -7 9 3.15 0.52
-6 -7 -9 3.94 0.59
-6 7 -9 3.82 0.59
-6 7 -9 5.67 0.63
6 7 9 4.46 0.62
6 7 9 4.66 0.65
7 -7 9 4.91 0.71
-7 -7 -9 6.62 0.7
7 -7 9 5.23 0.64
7 7 9 5.8 0.83
-7 7 -9 6.4 0.67
7 7 9 7.75 0.77
-7 7 -9 5.07 0.77
7 -8 -9 -0.16 0.28
7 -8 -9 -0.11 0.33
-7 -8 9 0.4 0.3
-7 8 9 0.37 0.47
7 8 -9 0.69 0.34
-7 8 9 0.46 0.43
7 8 -9 0.47 0.28
6 -8 -9 -0.03 0.32
6 -8 -9 0.46 0.27
-6 -8 9 -0.06 0.25
-6 -8 9 0.34 0.26
-6 8 9 -0.78 0.34
-6 8 9 -0.03 0.37
6 8 -9 -0.23 0.27
6 8 -9 0.92 0.3
5 -8 -9 0.11 0.24
5 -8 -9 -0.12 0.29
-5 -8 9 0.39 0.26
-5 -8 9 0.27 0.24
-5 8 9 -0.12 0.33
5 8 -9 0.64 0.27
-5 8 9 0.14 0.37
5 8 -9 0.26 0.28
-4 -8 9 0.86 0.28
4 -8 -9 0.38 0.27
4 -8 -9 0.03 0.23
-4 -8 9 0.41 0.24
4 8 -9 0.95 0.32
4 8 -9 0.55 0.26
-4 8 9 0.89 0.39
-4 8 9 0.37 0.33
3 -8 -9 4.67 0.44
-3 -8 9 5.1 0.48
-3 -8 9 4.77 0.45
3 -8 -9 4.99 0.46
-3 8 9 5 0.62
3 8 -9 4.86 0.5
-3 8 9 4.15 0.52
3 8 -9 4.61 0.47
2 -8 -9 0.81 0.24
-2 -8 9 0.96 0.26
-2 -8 9 1.02 0.27
2 -8 -9 0.55 0.24
-2 8 9 0.64 0.33
2 8 -9 0.95 0.27
2 8 -9 0.88 0.29
-2 8 9 0.44 0.3
1 -8 -9 0.14 0.22
-1 -8 9 0.06 0.2
-1 -8 9 0.34 0.25
1 -8 -9 0.14 0.19
1 -8 -9 0.55 0.19
-1 8 9 0.97 0.34
1 8 -9 -0.18 0.21
-1 8 9 0.5 0.29
1 8 -9 -0.01 0.22
0 -8 -9 0.04 0.2
0 -8 9 -0.02 0.22
0 -8 9 0.01 0.2
0 -8 -9 0.03 0.19
0 -8 -9 0.14 0.14
0 8 9 0.13 0.27
0 8 9 0.44 0.29
0 8 -9 0.03 0.21
0 8 -9 0.54 0.27
-1 -8 -9 5.19 0.47
-1 -8 -9 6.25 0.47
1 -8 9 6.02 0.51
1 -8 9 6.08 0.44
-1 -8 -9 5.46 0.23
-1 8 -9 5.56 0.53
1 8 9 5.69 0.54
-1 8 -9 6.35 0.51
1 8 9 5.69 0.53
2 -8 9 -0.07 0.22
-2 -8 -9 -0.19 0.25
2 -8 9 0 0.13
2 -8 9 0.22 0.2
-2 -8 -9 0.71 0.25
2 8 9 0.38 0.31
-2 8 -9 0.52 0.28
2 8 9 0.1 0.26
-2 8 -9 0.32 0.26
3 -8 9 0.31 0.26
3 -8 9 0.29 0.19
-3 -8 -9 0.35 0.23
-3 -8 -9 0.29 0.29
3 -8 9 0.19 0.19
3 8 9 0.58 0.32
3 8 9 0.27 0.33
-3 8 -9 0.4 0.32
-3 8 -9 0.08 0.29
-4 -8 -9 0.03 0.19
-4 -8 -9 0.15 0.29
4 -8 9 0.01 0.25
4 -8 9 -0.1 0.21
4 8 9 0.01 0.28
-4 8 -9 -0.14 0.28
-4 8 -9 -0.3 0.3
4 8 9 -0.56 0.29
-5 -8 -9 0.52 0.35
5 -8 9 -0.23 0.24
5 -8 9 0.06 0.28
-5 -8 -9 0.18 0.2
-5 8 -9 0.01 0.29
5 8 9 0.37 0.36
-5 8 -9 0.04 0.34
5 8 9 -0.2 0.31
6 -8 9 0.28 0.36
6 -8 9 0.99 0.38
-6 -8 -9 1.22 0.42
-6 8 -9 0.99 0.37
-6 8 -9 0.9 0.42
6 8 9 0.45 0.38
6 8 9 0.6 0.43
7 -8 9 2.95 0.54
7 -8 9 2.75 0.52
-7 8 -9 2.4 0.55
7 8 9 2.8 0.59
7 8 9 2.15 0.54
-7 -9 9 4.99 0.62
7 -9 -9 4.76 0.63
-7 9 9 6.03 0.89
7 9 -9 5.77 0.65
7 9 -9 6.07 0.68
-7 9 9 6.37 0.79
-6 -9 9 5.13 0.58
6 -9 -9 6.65 0.69
-6 -9 9 6.16 0.55
6 -9 -9 4.62 0.51
-6 9 9 5.26 0.82
6 9 -9 5.74 0.6
-6 9 9 5.26 0.74
6 9 -9 4.41 0.59
-5 -9 9 4.07 0.48
5 -9 -9 2.85 0.41
5 -9 -9 3.76 0.51
-5 -9 9 3.79 0.5
-5 9 9 3.94 0.6
-5 9 9 3.48 0.55
5 9 -9 4.16 0.57
5 9 -9 2.74 0.45
-4 -9 9 -0.21 0.21
4 -9 -9 0.04 0.25
-4 -9 9 -0.34 0.22
4 -9 -9 -0.41 0.25
-4 9 9 0.24 0.36
-4 9 9 0.12 0.3
4 9 -9 0.22 0.26
4 9 -9 0.23 0.27
3 -9 -9 1.99 0.34
-3 -9 9 2.95 0.42
-3 -9 9 2.22 0.36
3 -9 -9 2.04 0.35
3 9 -9 2.97 0.42
3 9 -9 2.57 0.41
-3 9 9 2.91 0.46
-3 9 9 3.29 0.53
-2 -9 9 0.24 0.24
2 -9 -9 0.07 0.24
2 -9 -9 -0.04 0.21
-2 -9 9 -0.1 0.21
-2 9 9 0.28 0.14
-2 9 9 -0.14 0.32
2 9 -9 0.33 0.26
2 9 -9 0.56 0.28
-2 9 9 0.08 0.3
1 -9 -9 0.86 0.23
-1 -9 9 1.02 0.3
-1 -9 9 1.36 0.3
1 -9 -9 0.86 0.22
1 -9 -9 0.86 0.27
-1 9 9 0.64 0.32
-1 9 9 1.11 0.37
1 9 -9 0.73 0.29
1 9 -9 1.29 0.32
0 -9 9 0.06 0.23
0 -9 -9 -0.05 0.22
0 -9 -9 -0.09 0.13
0 -9 9 0.03 0.21
0 -9 -9 0.82 0.26
0 9 9 0.11 0.27
0 9 9 0.07 0.28
0 9 -9 -0.19 0.25
0 9 -9 0.07 0.24
1 -9 9 0.81 0.29
1 -9 9 0.38 0.23
-1 -9 -9 0.74 0.27
-1 -9 -9 0.89 0.29
1 9 9 1.23 0.36
-1 9 -9 0.88 0.32
-1 9 -9 0.47 0.29
1 9 9 1.44 0.35
2 -9 9 0.88 0.24
2 -9 9 0.68 0.3
-2 -9 -9 0.46 0.26
-2 -9 -9 1.17 0.32
2 9 9 0.93 0.36
2 9 9 0.66 0.35
-2 9 -9 0.06 0.29
-2 9 -9 0.97 0.33
-3 -9 -9 0.63 0.34
-3 -9 -9 0.61 0.26
3 -9 9 0.41 0.22
3 -9 9 0.3 0.3
3 9 9 0.04 0.3
-3 9 -9 0.45 0.34
-3 9 -9 0.46 0.33
3 9 9 0.24 0.34
-4 -9 -9 -0.1 0.32
4 -9 9 -0.07 0.26
-4 -9 -9 0.22 0.25
4 9 9 0.15 0.37
4 9 9 -0.12 0.31
-4 9 -9 0.15 0.33
-4 9 -9 0.49 0.34
5 -9 9 2.27 0.43
-5 -9 -9 1.66 0.45
-5 -9 -9 2.93 0.42
-5 9 -9 2.24 0.45
5 9 9 2.1 0.5
-5 9 -9 1.54 0.46
5 9 9 1.97 0.46
-6 -9 -9 4.68 0.68
6 -9 9 4.56 0.61
-6 9 -9 5.97 0.66
6 9 9 3.96 0.62
-6 9 -9 4.59 0.68
6 9 9 5.74 0.74
-6 -10 9 6.77 0.64
6 -10 -9 6.6 0.71
6 -10 -9 5.29 0.55
6 10 -9 6.6 0.7
-6 10 9 6.59 0.91
-6 10 9 5.73 0.77
6 10 -9 5.89 0.7
-5 -10 9 3.49 0.46
5 -10 -9 3.66 0.5
5 -10 -9 3.92 0.52
-5 -10 9 2.9 0.45
-5 10 9 3.09 0.54
5 10 -9 3.29 0.51
5 10 -9 3.99 0.61
-5 10 9 3.88 0.61
4 -10 -9 0.61 0.31
-4 -10 9 0.77 0.28
-4 -10 9 1 0.34
4 -10 -9 0.68 0.31
4 10 -9 0.71 0.31
-4 10 9 0.32 0.35
4 10 -9 1.07 0.35
-4 10 9 1.02 0.45
-3 -10 9 -0.08 0.23
3 -10 -9 -0.12 0.25
3 -10 -9 -0.45 0.24
-3 -10 9 0.12 0.24
-3 10 9 -0.02 0.33
3 10 -9 -0.01 0.28
-3 10 9 0.66 0.4
3 10 -9 0.31 0.29
-2 -10 9 2.3 0.39
2 -10 -9 1.41 0.3
-2 -10 9 2.73 0.39
2 -10 -9 1.67 0.34
-2 10 9 1.26 0.37
2 10 -9 1.83 0.4
-2 10 9 1.67 0.46
2 10 -9 1.7 0.39
-1 -10 9 0.29 0.26
-1 -10 9 0.06 0.25
1 -10 -9 0.04 0.18
1 -10 -9 0.18 0.24
-1 10 9 0.04 0.28
1 10 -9 0.36 0.27
1 10 -9 0.16 0.31
-1 10 9 -0.06 0.34
0 -10 -9 4.8 0.45
0 -10 9 4.41 0.5
0 -10 9 4.87 0.48
0 -10 -9 4.51 0.49
0 10 9 4.41 0.58
0 10 -9 3.81 0.53
0 10 -9 4.42 0.53
0 10 9 4.2 0.61
1 -10 9 5.63 0.51
1 -10 9 6.5 0.58
-1 -10 -9 6.37 0.55
-1 -10 -9 6.09 0.52
1 10 9 7.39 0.69
-1 10 -9 7.12 0.61
-1 10 -9 6.34 0.61
1 10 9 6.81 0.62
-2 -10 -9 1.76 0.34
2 -10 9 1.91 0.32
-2 -10 -9 2.3 0.39
2 -10 9 3.25 0.46
-2 10 -9 3 0.47
2 10 9 2.63 0.46
-2 10 -9 1.7 0.42
2 10 9 1.73 0.45
-3 -10 -9 10.81 0.63
3 -10 9 8.46 0.52
-3 -10 -9 9.21 0.67
3 -10 9 8.41 0.67
-3 10 -9 8.76 0.72
3 10 9 10.1 0.74
-3 10 -9 8.97 0.77
3 10 9 9.54 0.79
-4 -10 -9 3.06 0.51
4 -10 9 3.49 0.51
-4 -10 -9 2.42 0.39
-4 10 -9 3.28 0.51
4 10 9 3.05 0.54
-4 10 -9 2.36 0.5
4 10 9 4.29 0.66
-5 -10 -9 3.42 0.55
5 -10 9 2.75 0.48
-5 -10 -9 3.81 0.47
-5 10 -9 3.79 0.55
5 10 9 4.26 0.67
-5 10 -9 3.8 0.62
5 10 9 3.12 0.58
-5 -11 9 0.13 0.3
5 -11 -9 0.62 0.4
5 -11 -9 0.3 0.33
5 11 -9 -0.17 0.31
-5 11 9 -0.09 0.42
5 11 -9 0.74 0.38
-5 11 9 0.84 0.38
-4 -11 9 3.75 0.5
4 -11 -9 2.82 0.47
4 -11 -9 2.75 0.44
-4 -11 9 4.22 0.49
4 11 -9 4.06 0.62
-4 11 9 3.8 0.56
4 11 -9 4.03 0.6
-4 11 9 3.97 0.62
3 -11 -9 3.66 0.51
-3 -11 9 3.68 0.51
3 -11 -9 2.7 0.42
-3 -11 9 3.66 0.48
3 11 -9 2.62 0.47
3 11 -9 3.16 0.48
-3 11 9 2.59 0.46
-3 11 9 3.74 0.62
2 -11 -9 9.56 0.59
2 -11 -9 10.53 0.66
-2 -11 9 10.08 0.67
-2 -11 9 10.15 0.64
-2 11 9 9.37 0.84
2 11 -9 9.8 0.72
2 11 -9 10.84 0.74
-2 11 9 10.24 0.71
-1 -11 9 0.46 0.31
-1 -11 9 0.73 0.3
1 -11 -9 0.5 0.31
1 11 -9 0.2 0.35
-1 11 9 1.04 0.39
1 11 -9 0.35 0.32
-1 11 9 0.24 0.31
0 -11 -9 1.4 0.33
0 -11 -9 1.25 0.35
0 -11 9 1.56 0.36
0 -11 9 1.12 0.32
0 11 9 1.15 0.39
0 11 -9 0.73 0.35
0 11 -9 1.22 0.39
0 11 9 0.84 0.41
1 -11 9 0.87 0.32
-1 -11 -9 0.89 0.32
1 -11 9 1.34 0.32
-1 -11 -9 0.86 0.31
-1 11 -9 1.19 0.38
1 11 9 0.7 0.38
1 11 9 1.14 0.37
-1 11 -9 0.62 0.35
2 -11 9 -0.21 0.26
-2 -11 -9 0.29 0.34
2 -11 9 0.12 0.24
-2 -11 -9 0.34 0.3
-2 11 -9 -0.42 0.27
-2 11 -9 0.79 0.39
2 11 9 0.19 0.34
2 11 9 0.63 0.36
-3 -11 -9 8.93 0.74
3 -11 9 8.93 0.71
-3 -11 -9 10.2 0.66
3 -11 9 8.72 0.56
3 11 9 9.32 0.74
3 11 9 9.05 0.83
-3 11 -9 10.63 0.78
-3 11 -9 7.47 0.79
-4 -11 -9 6.13 0.68
4 -11 9 6.86 0.7
-4 -11 -9 7.21 0.6
4 11 9 6.25 0.8
4 11 9 6.2 0.69
-4 11 -9 7.85 0.71
-4 11 -9 7.21 0.82
5 -11 9 1.04 0.42
-5 -11 -9 1.51 0.36
-5 -11 -9 1.8 0.5
-5 11 -9 1.29 0.47
-5 11 -9 0.73 0.42
5 11 9 1.1 0.47
4 -12 -9 -0.23 0.29
-4 -12 9 0.71 0.33
4 -12 -9 -0.04 0.31
4 12 -9 1.21 0.4
-4 12 9 0.06 0.39
-4 12 9 0.34 0.43
4 12 -9 1.13 0.42
-3 -12 9 -0.35 0.23
-3 -12 9 0.29 0.31
3 -12 -9 0.15 0.29
3 -12 -9 0.14 0.34
-3 12 9 0 0.31
3 12 -9 0.22 0.35
3 12 -9 0.26 0.34
-3 12 9 0.56 0.45
-2 -12 9 0.05 0.27
-2 -12 9 -0.05 0.28
2 -12 -9 0.43 0.32
2 12 -9 0.03 0.31
-2 12 9 0.1 0.32
-2 12 9 0.29 0.43
2 12 -9 -0.19 0.29
1 -12 -9 0.01 0.29
-1 -12 9 -0.04 0.26
-1 -12 9 0.41 0.31
-1 12 9 0.84 0.43
-1 12 9 0.02 0.3
1 12 -9 0.35 0.38
1 12 -9 -0.12 0.28
0 -12 9 0.97 0.35
0 -12 -9 0.48 0.33
0 -12 9 0.7 0.32
0 12 -9 0.06 0.33
0 12 -9 0.36 0.34
0 12 9 0.38 0.31
0 12 9 -0.45 0.38
1 -12 9 0.23 0.27
1 -12 9 0.19 0.3
-1 -12 -9 0.38 0.31
-1 -12 -9 0.13 0.29
1 12 9 0.06 0.37
-1 12 -9 0.31 0.31
-1 12 -9 0.08 0.33
2 -12 9 0.94 0.36
-2 -12 -9 0.55 0.33
-2 -12 -9 0.81 0.35
2 -12 9 1.14 0.32
2 12 9 0.51 0.43
-2 12 -9 0.86 0.39
-2 12 -9 0.63 0.41
-3 -12 -9 0.8 0.38
-3 -12 -9 0.29 0.3
3 -12 9 -0.1 0.31
3 12 9 0.44 0.41
-3 12 -9 0.48 0.38
-3 12 -9 -0.05 0.36
-4 -12 -9 -0.29 0.37
4 -12 9 -0.2 0.33
-4 -12 -9 0.38 0.28
4 12 9 -0.71 0.33
-4 12 -9 0.2 0.43
-4 12 -9 0.02 0.33
3 -13 -9 2.54 0.46
-3 -13 9 2.08 0.44
3 13 -9 2.02 0.48
-3 13 9 1.63 0.58
3 13 -9 2.33 0.52
-2 -13 9 4.91 0.62
-2 -13 9 3.67 0.54
2 -13 -9 4.51 0.61
2 13 -9 3.82 0.6
-2 13 9 4.25 0.7
2 13 -9 3.6 0.56
1 -13 -9 -0.32 0.31
-1 -13 9 -0.14 0.26
-1 -13 9 -0.36 0.27
-1 13 9 -0.08 0.45
1 13 -9 -0.17 0.32
1 13 -9 -0.05 0.35
0 -13 9 1.16 0.36
0 -13 -9 1.1 0.36
0 -13 9 0.61 0.32
0 13 9 1 0.5
0 13 -9 0.57 0.41
0 13 -9 0.74 0.39
-1 -13 -9 1.13 0.37
1 -13 9 1.54 0.38
1 -13 9 1.39 0.39
-1 13 -9 1.45 0.41
1 13 9 0.71 0.47
-1 13 -9 1.36 0.45
-2 -13 -9 0.43 0.35
2 -13 9 0.81 0.32
-2 -13 -9 0.12 0.33
2 -13 9 0.45 0.35
-2 13 -9 0.49 0.4
-2 13 -9 1.12 0.46
2 13 9 0.48 0.44
9 0 -10 1.9 0.42
-9 0 10 3.07 0.56
8 0 -10 3.24 0.47
-8 0 10 3.81 0.6
8 0 -10 3.13 0.37
-8 0 10 5.21 0.63
-7 0 10 38.88 1.35
7 0 -10 38.4 1.18
7 0 -10 36.63 1.08
-7 0 10 38.67 1.26
6 0 -10 30.11 1
-6 0 10 31.81 1.04
6 0 -10 31.1 0.95
-6 0 10 33.59 1.16
6 0 -10 31.28 0.82
5 0 -10 70.7 1.57
5 0 -10 67.36 1.43
-5 0 10 68.96 1.75
-5 0 10 68.17 1.6
5 0 -10 67.14 1.59
4 0 -10 52.34 1.26
4 0 -10 52.28 1.14
-4 0 10 51.94 1.29
-4 0 10 54.74 1.39
4 0 -10 52.95 1.15
-4 0 10 52.73 1.21
4 0 -10 49.54 1.17
3 0 -10 120.99 2.3
-3 0 10 118.9 2.26
-3 0 10 116.79 2.25
-3 0 10 121.25 2.5
3 0 -10 119.18 2.35
-3 0 10 118.83 2.35
3 0 -10 117.81 2.24
-2 0 10 23.42 0.8
2 0 -10 25.07 0.68
2 0 -10 23.7 0.7
-2 0 10 24.09 0.72
1 0 -10 35.01 0.9
-1 0 10 34.85 0.88
1 0 -10 34.26 0.86
-1 0 10 34.01 0.96
0 0 -10 16.36 0.6
0 0 10 14.75 0.37
0 0 10 15.52 0.61
0 0 10 14.69 0.38
0 0 10 15.59 0.53
0 0 -10 15.01 0.51
1 0 10 87.89 1.78
1 0 10 91.42 1.98
-1 0 -10 88.22 1.74
1 0 10 89.58 1.77
-1 0 -10 89.86 1.95
-2 0 -10 1.85 0.21
2 0 10 2.15 0.33
2 0 10 1.66 0.22
-2 0 -10 2.3 0.29
-2 0 -10 1.75 0.29
3 0 10 0.14 0.16
-3 0 -10 0.37 0.11
3 0 10 0.28 0.11
-3 0 -10 0.47 0.21
3 0 10 0.39 0.25
-3 0 -10 0.1 0.24
-4 0 -10 0.27 0.09
4 0 10 -0.06 0.25
-4 0 -10 0.3 0.25
-4 0 -10 0.35 0.23
-4 0 -10 0.38 0.09
4 0 10 0.75 0.2
-5 0 -10 0.28 0.27
5 0 10 0.4 0.31
-5 0 -10 -0.07 0.27
5 0 10 -0.23 0.16
6 0 10 11.27 0.56
-6 0 -10 11.44 0.77
6 0 10 12.02 0.82
-6 0 -10 12.67 0.77
7 0 10 3.08 0.57
-7 0 -10 2.28 0.49
7 0 10 2.7 0.37
-7 0 -10 2.57 0.49
-8 0 -10 11.61 0.84
8 0 10 13.02 0.99
-8 0 -10 12.22 0.92
-9 -1 10 -0.37 0.27
9 -1 -10 -0.5 0.27
9 1 -10 0.05 0.26
-9 1 10 0.36 0.4
9 1 -10 -0.19 0.39
-9 1 10 0.28 0.35
-8 -1 10 -0.08 0.36
-8 -1 10 1.05 0.37
8 -1 -10 0.2 0.19
8 -1 -10 0.63 0.31
-8 1 10 0.04 0.36
-8 1 10 0.58 0.34
8 1 -10 0.41 0.22
8 1 -10 -0.66 0.19
-7 -1 10 1.2 0.41
-7 -1 10 1.6 0.37
7 -1 -10 1.56 0.35
7 -1 -10 1.3 0.27
-7 1 10 1.93 0.4
7 1 -10 1.38 0.33
-7 1 10 1.57 0.43
7 1 -10 1.53 0.26
7 1 -10 1.5 0.28
6 -1 -10 1.12 0.29
-6 -1 10 0.58 0.28
6 -1 -10 1.16 0.25
-6 -1 10 0.7 0.33
-6 1 10 1.11 0.36
6 1 -10 0.66 0.21
6 1 -10 0.83 0.2
-6 1 10 0.7 0.29
6 1 -10 1.06 0.28
5 -1 -10 2.03 0.3
5 -1 -10 2.21 0.32
5 -1 -10 1.52 0.2
-5 -1 10 1.66 0.28
-5 -1 10 2.55 0.34
-5 -1 10 2.43 0.37
-5 1 10 2.34 0.33
5 1 -10 1.99 0.25
5 1 -10 2.23 0.31
-5 1 10 2.3 0.4
-4 -1 10 0.56 0.21
-4 -1 10 0.39 0.16
4 -1 -10 0.19 0.17
4 -1 -10 0.09 0.11
4 -1 -10 0.47 0.13
-4 -1 10 0.3 0.22
4 1 -10 0.27 0.18
-4 1 10 0.36 0.25
4 1 -10 0.41 0.16
4 1 -10 0.48 0.14
-4 1 10 0.48 0.18
3 -1 -10 2.03 0.22
3 -1 -10 2.05 0.29
-3 -1 10 1.43 0.24
3 -1 -10 1.7 0.2
-3 -1 10 1.87 0.29
3 1 -10 1.77 0.25
-3 1 10 2.06 0.23
3 1 -10 1.82 0.25
-3 1 10 1.46 0.28
-3 1 10 1.83 0.27
3 1 -10 1.99 0.18
-3 1 10 1.83 0.17
-2 -1 10 1.3 0.23
2 -1 -10 1.22 0.21
2 -1 -10 1.38 0.19
2 -1 -10 1.29 0.15
-2 -1 10 1.61 0.26
-2 1 10 1.56 0.27
2 1 -10 1.37 0.22
-2 1 10 1.31 0.17
-2 1 10 1.47 0.24
2 1 -10 1.33 0.22
-2 1 10 1.06 0.16
1 -1 -10 2 0.27
1 -1 -10 2.38 0.29
-1 -1 10 2.62 0.3
-1 -1 10 2.54 0.33
-1 1 10 2.31 0.16
-1 1 10 2.08 0.27
1 1 -10 2.15 0.31
1 1 -10 2.5 0.26
-1 1 10 1.96 0.3
0 -1 -10 0.15 0.18
0 -1 -10 0.35 0.15
0 -1 10 0.1 0.16
0 -1 10 0.15 0.19
0 1 -10 0.09 0.14
0 1 -10 0.42 0.18
0 1 10 0.06 0.09
0 1 10 0.31 0.11
0 1 10 0.02 0.2
0 1 10 -0.04 0.13
-1 -1 -10 20.92 0.71
-1 -1 -10 19.8 0.58
1 -1 10 19.63 0.63
1 -1 10 19.72 0.56
1 -1 10 20.16 0.71
1 1 10 19.89 0.59
1 1 10 19.68 0.57
1 1 10 19.93 0.58
-1 1 -10 19.96 0.56
-1 1 -10 20.52 0.72
1 1 10 18.96 0.72
-1 1 -10 20.78 0.57
-2 -1 -10 0.67 0.23
2 -1 10 0.45 0.23
-2 -1 -10 0.69 0.15
2 -1 10 0.57 0.19
-2 1 -10 0.96 0.26
2 1 10 0.5 0.16
2 1 10 0.62 0.24
-2 1 -10 0.64 0.19
-2 1 -10 0.52 0.13
-2 1 -10 0.46 0.12
-3 -1 -10 0.4 0.24
3 -1 10 0.12 0.24
3 -1 10 0.25 0.18
-3 -1 -10 0.47 0.13
-3 -1 -10 0.39 0.21
3 1 10 0.47 0.16
3 1 10 0.42 0.13
3 1 10 0.42 0.24
-3 1 -10 0.32 0.1
-3 1 -10 0.49 0.11
-3 1 -10 0.3 0.24
-3 1 -10 0.31 0.2
4 -1 10 1.49 0.26
-4 -1 -10 1.42 0.31
4 -1 10 1.39 0.36
-4 -1 -10 0.96 0.14
-4 -1 -10 1 0.29
4 1 10 1.14 0.17
-4 1 -10 1.02 0.12
4 1 10 0.98 0.19
4 1 10 1.63 0.36
-4 1 -10 1.25 0.12
-4 1 -10 1.31 0.29
-4 1 -10 1.06 0.3
-5 -1 -10 3.12 0.47
5 -1 10 3.35 0.38
5 -1 10 4.45 0.55
-5 -1 -10 3.32 0.47
-5 1 -10 3.43 0.48
5 1 10 2.51 0.44
5 1 10 2.99 0.32
-5 1 -10 3.13 0.48
6 -1 10 8.71 0.76
6 -1 10 7.5 0.51
-6 -1 -10 7.6 0.65
-6 -1 -10 6.64 0.63
6 1 10 7.91 0.73
6 1 10 8.33 0.46
-6 1 -10 7.84 0.66
-6 1 -10 7.59 0.63
-7 -1 -10 0.53 0.34
7 -1 10 0.88 0.41
-7 -1 -10 0.69 0.34
7 -1 10 0.78 0.26
-7 1 -10 1.21 0.37
-7 1 -10 0.26 0.34
7 1 10 0.48 0.41
8 -1 10 0.07 0.4
-8 -1 -10 0.54 0.41
-8 -1 -10 1.69 0.48
-8 1 -10 0.44 0.35
8 1 10 0.2 0.45
-8 1 -10 1.93 0.49
9 -2 -10 0.43 0.34
-9 2 10 1.06 0.5
-9 2 10 -0.17 0.36
9 2 -10 1.07 0.35
9 2 -10 0.61 0.42
8 -2 -10 0.18 0.31
8 -2 -10 0.11 0.19
-8 -2 10 0.28 0.33
-8 -2 10 1.03 0.39
8 2 -10 0.4 0.23
-8 2 10 0.39 0.39
-8 2 10 0.4 0.36
8 2 -10 0.62 0.29
-7 -2 10 3.66 0.5
7 -2 -10 3.31 0.45
7 -2 -10 3.5 0.39
-7 -2 10 3.39 0.5
7 2 -10 2.9 0.37
7 2 -10 3.31 0.43
-7 2 10 2.77 0.46
-7 2 10 2.83 0.53
7 2 -10 3.06 0.39
-6 -2 10 0.06 0.23
-6 -2 10 0.05 0.26
6 -2 -10 0.09 0.22
6 -2 -10 0.6 0.21
6 2 -10 0.02 0.19
-6 2 10 0.24 0.32
6 2 -10 -0.02 0.18
-6 2 10 0.58 0.29
-5 -2 10 3.06 0.43
-5 -2 10 3.12 0.42
5 -2 -10 3.48 0.36
5 -2 -10 3.16 0.37
-5 2 10 3.37 0.43
5 2 -10 3.3 0.31
5 2 -10 2.57 0.36
-5 2 10 3.05 0.48
4 -2 -10 1.88 0.17
4 -2 -10 1.45 0.26
-4 -2 10 1.61 0.3
4 -2 -10 1.49 0.25
4 -2 -10 1.45 0.15
-4 -2 10 1.28 0.26
4 2 -10 1.26 0.23
4 2 -10 1.59 0.23
4 2 -10 1.83 0.27
4 2 -10 1.38 0.2
-4 2 10 1.29 0.24
-4 2 10 0.79 0.29
3 -2 -10 0.23 0.11
-3 -2 10 -0.02 0.19
3 -2 -10 0.02 0.12
3 -2 -10 0.21 0.16
-3 -2 10 0.09 0.18
3 2 -10 -0.06 0.09
3 2 -10 0.04 0.14
-3 2 10 0 0.21
-3 2 10 0.09 0.18
-3 2 10 -0.14 0.13
-3 2 10 -0.01 0.08
3 2 -10 0.11 0.1
3 2 -10 0.09 0.15
2 -2 -10 24.09 0.71
-2 -2 10 23.62 0.73
2 -2 -10 23.5 0.6
2 -2 -10 24.06 0.64
-2 -2 10 23.87 0.73
-2 2 10 23.55 0.71
-2 2 10 24.25 0.64
2 2 -10 24.05 0.73
-2 2 10 22.81 0.6
-2 2 10 25.2 0.85
2 2 -10 23.31 0.7
-1 -2 10 0.64 0.2
-1 -2 10 0.44 0.21
1 -2 -10 0.85 0.18
1 -2 -10 0.55 0.18
1 -2 -10 0.64 0.13
-1 2 10 0.86 0.17
1 2 -10 0.59 0.21
-1 2 10 0.63 0.24
1 2 -10 0.54 0.16
-1 2 10 0.62 0.17
-1 2 10 0.74 0.14
0 -2 10 2.53 0.31
0 -2 -10 2.51 0.27
0 -2 10 2.37 0.28
0 -2 10 2.35 0.15
0 -2 -10 2.54 0.31
0 2 -10 2.21 0.17
0 2 10 2.08 0.21
0 2 10 2.08 0.32
0 2 -10 1.97 0.24
0 2 10 2.34 0.22
0 2 10 2.45 0.25
0 2 -10 2.28 0.33
-1 -2 -10 1.4 0.26
1 -2 10 1.49 0.23
1 -2 10 1.44 0.26
1 -2 10 1.41 0.21
-1 -2 -10 1.8 0.2
-1 -2 -10 1.38 0.2
1 2 10 1.12 0.18
-1 2 -10 1.54 0.22
-1 2 -10 1.63 0.29
-1 2 -10 1.7 0.23
1 2 10 1.24 0.18
1 2 10 1.51 0.24
1 2 10 1.27 0.28
-2 -2 -10 1.84 0.23
-2 -2 -10 1.68 0.19
-2 -2 -10 1.81 0.29
2 -2 10 1.71 0.25
2 -2 10 2.41 0.37
2 2 10 1.66 0.22
-2 2 -10 2.01 0.26
-2 2 -10 1.58 0.2
2 2 10 1.88 0.28
2 2 10 1.59 0.32
-2 2 -10 1.53 0.3
-3 -2 -10 3.38 0.41
-3 -2 -10 3.03 0.22
3 -2 10 2.39 0.37
-3 -2 -10 2.68 0.23
3 -2 10 2.67 0.34
-3 2 -10 2.68 0.36
-3 2 -10 2.87 0.2
3 2 10 3.12 0.43
3 2 10 3.02 0.35
-3 2 -10 2.89 0.18
-3 2 -10 2.75 0.41
3 2 10 2.39 0.24
4 -2 10 2.35 0.39
-4 -2 -10 1.6 0.33
4 -2 10 2.07 0.29
-4 -2 -10 1.77 0.21
4 2 10 1.98 0.39
-4 2 -10 1.55 0.13
4 2 10 2.18 0.25
-4 2 -10 1.55 0.35
-4 2 -10 1.69 0.33
-5 -2 -10 0.19 0.09
5 -2 10 0.16 0.29
5 -2 10 0.27 0.23
-5 -2 -10 -0.12 0.25
-5 -2 -10 -0.23 0.24
-5 2 -10 0.17 0.25
5 2 10 0.07 0.3
-5 2 -10 0.06 0.27
5 2 10 -0.08 0.14
-6 -2 -10 1.95 0.41
6 -2 10 1.9 0.33
6 -2 10 2.72 0.49
-6 -2 -10 1.37 0.39
-6 2 -10 2.13 0.43
-6 2 -10 1.88 0.42
6 2 10 2.28 0.49
7 -2 10 0.35 0.26
7 -2 10 -0.3 0.31
-7 -2 -10 0.82 0.36
-7 -2 -10 0.34 0.34
-7 2 -10 -0.35 0.31
7 2 10 0.49 0.43
-7 2 -10 0.57 0.33
-8 -2 -10 7.09 0.72
8 -2 10 7.99 0.62
8 -2 10 8.42 0.84
8 2 10 7.63 0.88
-8 2 -10 7.55 0.76
-8 2 -10 7.55 0.81
9 -3 -10 0.72 0.38
9 3 -10 1.14 0.33
-9 3 10 -0.05 0.41
-9 3 10 1.09 0.46
9 3 -10 0.95 0.43
8 -3 -10 0.26 0.33
8 -3 -10 0.41 0.21
-8 3 10 -0.66 0.3
8 3 -10 -0.14 0.3
-8 3 10 0.87 0.44
8 3 -10 -0.01 0.21
8 3 -10 0.13 0.24
8 3 -10 -0.14 0.21
7 -3 -10 0.44 0.21
7 -3 -10 0.23 0.28
-7 -3 10 0.19 0.31
-7 3 10 1.04 0.4
7 3 -10 0.3 0.22
-7 3 10 0.38 0.34
7 3 -10 -0.21 0.22
7 3 -10 0.2 0.19
7 3 -10 0.19 0.2
-6 -3 10 0.11 0.24
6 -3 -10 0.47 0.22
-6 -3 10 0.3 0.29
6 -3 -10 0.76 0.28
-6 3 10 0.11 0.29
6 3 -10 0.39 0.21
-6 3 10 0.09 0.32
6 3 -10 0.46 0.23
6 3 -10 0.23 0.2
5 -3 -10 16.46 0.7
5 -3 -10 17.3 0.67
-5 -3 10 16.85 0.73
-5 -3 10 16.48 0.71
-5 3 10 16.73 0.82
5 3 -10 15.58 0.61
5 3 -10 17.65 0.68
-5 3 10 16.47 0.74
5 3 -10 17.33 0.64
4 -3 -10 3.3 0.36
-4 -3 10 3.24 0.38
4 -3 -10 2.56 0.34
-4 -3 10 2.86 0.38
-4 3 10 3.08 0.4
4 3 -10 3.45 0.33
4 3 -10 3.16 0.29
-4 3 10 3.13 0.46
4 3 -10 3.3 0.36
4 3 -10 2.6 0.28
-3 -3 10 0.78 0.22
3 -3 -10 0.7 0.12
3 -3 -10 0.75 0.2
3 -3 -10 0.78 0.21
-3 -3 10 0.42 0.21
-3 3 10 0.82 0.11
-3 3 10 0.38 0.26
-3 3 10 0.75 0.21
3 3 -10 0.9 0.21
3 3 -10 0.73 0.2
3 3 -10 0.66 0.14
3 3 -10 0.68 0.14
-2 -3 10 6.14 0.4
-2 -3 10 6.24 0.36
2 -3 -10 5.28 0.29
2 -3 -10 4.83 0.35
2 -3 -10 5.25 0.31
-2 3 10 5.51 0.26
2 3 -10 5.19 0.39
2 3 -10 5.06 0.35
-2 3 10 5.81 0.36
-2 3 10 5.31 0.46
1 -3 -10 103.59 2.07
-1 -3 10 109.48 2.14
1 -3 -10 107.01 2.09
-1 -3 10 106.95 2.13
1 -3 -10 102.76 2.09
1 3 -10 105.53 2.19
-1 3 10 106.13 2.31
-1 3 10 105.69 2.08
-1 3 10 105.59 2.1
-1 3 10 104.75 2.03
1 3 -10 104.9 2.13
1 3 -10 103.33 2.08
0 -3 -10 6.08 0.35
0 -3 10 5.4 0.36
0 -3 10 6.1 0.25
0 -3 -10 6 0.34
0 -3 10 6.48 0.41
0 -3 -10 5.79 0.38
0 3 10 6.11 0.32
0 3 -10 5.52 0.34
0 3 10 5.41 0.47
0 3 -10 5.92 0.41
0 3 -10 5.95 0.27
0 3 10 5.73 0.35
-1 -3 -10 8.48 0.4
-1 -3 -10 8.59 0.33
1 -3 10 8.56 0.46
1 -3 10 8.57 0.37
1 -3 10 8.74 0.45
-1 -3 -10 8.88 0.49
-1 3 -10 8.3 0.5
1 3 10 9 0.35
1 3 10 9.12 0.43
-1 3 -10 9.11 0.39
1 3 10 9.92 0.57
-1 3 -10 9.15 0.39
-2 -3 -10 0.18 0.19
2 -3 10 0.33 0.21
-2 -3 -10 0.04 0.09
-2 -3 -10 0.07 0.13
2 -3 10 0.25 0.18
-2 3 -10 0.2 0.17
2 3 10 0.38 0.12
2 3 10 0.48 0.19
2 3 10 0.25 0.25
-2 3 -10 0.2 0.19
-2 3 -10 0.19 0.12
-3 -3 -10 5.16 0.31
-3 -3 -10 4.86 0.45
3 -3 10 4.65 0.39
-3 -3 -10 4.29 0.22
3 -3 10 4.38 0.44
-3 3 -10 4.71 0.22
3 3 10 4.42 0.25
3 3 10 4.29 0.41
-3 3 -10 4.75 0.42
-3 3 -10 4.18 0.24
-3 3 -10 4.96 0.48
3 3 10 3.78 0.47
4 -3 10 3.66 0.48
-4 -3 -10 3.59 0.46
4 -3 10 3.12 0.41
-4 -3 -10 3.09 0.26
4 3 10 3.68 0.44
-4 3 -10 3.76 0.48
4 3 10 3.18 0.24
4 3 10 4.27 0.52
-4 3 -10 3.1 0.48
-4 3 -10 3.23 0.17
-5 -3 -10 0.25 0.11
5 -3 10 0.35 0.23
-5 -3 -10 0.15 0.26
5 -3 10 0.16 0.29
-5 3 -10 0.52 0.29
5 3 10 0.33 0.28
-5 3 -10 0.28 0.31
5 3 10 0.41 0.34
-6 -3 -10 3.94 0.55
6 -3 10 3.99 0.47
6 -3 10 4.17 0.57
6 3 10 4.8 0.64
6 3 10 3.95 0.56
-6 3 -10 3.88 0.58
-6 3 -10 4.56 0.62
7 -3 10 4.97 0.67
7 -3 10 4.32 0.53
-7 -3 -10 5.08 0.68
7 3 10 4.44 0.59
-7 3 -10 3.95 0.57
-7 3 -10 4.33 0.64
7 3 10 3.98 0.65
8 -3 10 9.52 0.69
8 -3 10 9.55 0.9
-8 -3 -10 10.4 0.85
8 3 10 8.9 0.85
-8 3 -10 9.54 0.79
8 3 10 8.64 0.96
-8 3 -10 9.9 0.91
9 -4 -10 0.06 0.35
-9 4 10 1.18 0.47
9 4 -10 0.86 0.36
9 4 -10 0.92 0.33
8 -4 -10 4.69 0.62
8 4 -10 4.16 0.45
8 4 -10 4.89 0.5
8 4 -10 4.84 0.46
8 4 -10 4.68 0.57
8 4 -10 4.48 0.48
-8 4 10 4.73 0.71
-8 4 10 4.68 0.72
7 -4 -10 2.98 0.4
7 -4 -10 2.33 0.41
7 4 -10 3.64 0.44
7 4 -10 3.69 0.43
-7 4 10 2.61 0.49
7 4 -10 3.03 0.41
7 4 -10 2.93 0.39
-7 4 10 2.59 0.51
6 -4 -10 0.88 0.29
-6 -4 10 0.24 0.27
6 -4 -10 0.59 0.23
-6 -4 10 0.81 0.32
6 4 -10 0.42 0.23
-6 4 10 1.23 0.37
-6 4 10 0.31 0.31
6 4 -10 0.44 0.21
6 4 -10 0.61 0.24
-5 -4 10 32.43 0.99
-5 -4 10 31.26 0.98
5 -4 -10 30.29 0.99
5 -4 -10 30.04 0.92
5 4 -10 30.23 0.91
5 4 -10 30.93 0.95
-5 4 10 31.57 1.08
-5 4 10 30.32 1.13
5 4 -10 31.11 0.96
-4 -4 10 8.68 0.49
4 -4 -10 9.02 0.5
4 -4 -10 8.67 0.48
-4 -4 10 8.41 0.52
4 4 -10 8.72 0.43
-4 4 10 8.35 0.56
-4 4 10 8.63 0.62
4 4 -10 8.45 0.48
4 4 -10 9.52 0.51
3 -4 -10 2.61 0.33
-3 -4 10 2.8 0.34
3 -4 -10 2.82 0.31
-3 -4 10 2.43 0.31
3 4 -10 2.72 0.25
3 4 -10 3.04 0.27
-3 4 10 2.84 0.44
3 4 -10 3.58 0.37
-3 4 10 3.55 0.39
-2 -4 10 20.2 0.7
-2 -4 10 19.6 0.59
2 -4 -10 20.12 0.53
2 -4 -10 19.04 0.65
2 -4 -10 20.11 0.63
-2 4 10 17.7 0.64
2 4 -10 19.67 0.69
2 4 -10 18.66 0.53
2 4 -10 19.08 0.52
2 4 -10 19.29 0.61
-2 4 10 19.08 0.78
-2 4 10 18.53 0.51
1 -4 -10 86.75 1.67
1 -4 -10 83.71 1.72
-1 -4 10 87.07 1.81
1 -4 -10 80.29 1.75
-1 -4 10 85.16 1.72
-1 -4 10 83.55 1.64
-1 4 10 85.48 1.73
-1 4 10 82.81 1.8
1 4 -10 82.54 1.65
1 4 -10 82.7 1.72
1 4 -10 84.83 1.87
-1 4 10 84.87 1.97
0 -4 10 -0.12 0.15
0 -4 -10 0.36 0.17
0 -4 10 0.69 0.21
0 -4 10 0.26 0.12
0 -4 -10 0.35 0.19
0 4 -10 0.47 0.22
0 4 10 0.16 0.23
0 4 -10 0.46 0.14
0 4 10 0.3 0.14
0 4 10 0.1 0.18
0 4 -10 0.3 0.15
-1 -4 -10 3.97 0.22
-1 -4 -10 4.31 0.38
1 -4 10 3.95 0.29
1 -4 10 3.09 0.33
-1 -4 -10 4.23 0.33
1 -4 10 4.14 0.38
1 4 10 3.88 0.24
1 4 10 4.47 0.37
-1 4 -10 3.89 0.32
-1 4 -10 4.16 0.3
-1 4 -10 3.93 0.4
1 4 10 4 0.45
-2 -4 -10 2.86 0.3
2 -4 10 2.37 0.34
-2 -4 -10 2.68 0.17
-2 -4 -10 2.23 0.33
2 -4 10 2.33 0.33
-2 4 -10 2.68 0.33
2 4 10 2.82 0.36
2 4 10 2.44 0.19
-2 4 -10 3.12 0.4
2 4 10 2.21 0.38
-2 4 -10 2.97 0.25
-3 -4 -10 0.89 0.12
-3 -4 -10 0.89 0.19
-3 -4 -10 0.49 0.25
3 -4 10 1.09 0.27
3 -4 10 1.13 0.28
3 4 10 0.7 0.26
-3 4 -10 1.18 0.29
-3 4 -10 1.21 0.16
3 4 10 1.48 0.34
-3 4 -10 1.12 0.3
4 -4 10 4 0.46
-4 -4 -10 3.68 0.3
4 -4 10 2.89 0.45
-4 -4 -10 3.44 0.46
-4 4 -10 3.62 0.52
4 4 10 4.14 0.54
4 4 10 3.67 0.46
-4 4 -10 4.26 0.48
-4 4 -10 3.32 0.19
-5 -4 -10 1.46 0.2
5 -4 10 2.4 0.37
5 -4 10 2.22 0.4
-5 -4 -10 1.25 0.35
-5 4 -10 2.49 0.44
5 4 10 2.14 0.43
-5 4 -10 1.9 0.39
5 4 10 1.61 0.37
6 -4 10 1.52 0.42
6 -4 10 1.3 0.34
-6 -4 -10 1.51 0.42
6 4 10 2.16 0.47
6 4 10 1.09 0.38
-6 4 -10 1.28 0.4
-6 4 -10 1.87 0.43
7 -4 10 0.83 0.33
-7 -4 -10 0.33 0.36
7 -4 10 0.55 0.4
-7 4 -10 0.82 0.4
-7 4 -10 0.85 0.38
7 4 10 1.2 0.48
7 4 10 2.01 0.46
8 -4 10 0.92 0.34
8 -4 10 0.88 0.44
-8 -4 -10 0.91 0.43
-8 4 -10 1.1 0.42
-8 4 -10 0.98 0.41
8 4 10 1.04 0.51
8 4 10 0.71 0.41
8 -5 -10 8.88 0.72
-8 5 10 9.08 0.86
8 5 -10 8.97 0.66
8 5 -10 8.68 0.6
8 5 -10 9.46 0.61
8 5 -10 9.82 0.62
-8 5 10 8.35 0.84
8 5 -10 8.67 0.66
7 -5 -10 3.14 0.47
7 -5 -10 2.81 0.4
-7 5 10 3.81 0.58
7 5 -10 2.35 0.39
7 5 -10 2.95 0.4
-7 5 10 2.45 0.5
7 5 -10 3.16 0.43
7 5 -10 3.04 0.45
6 -5 -10 -0.3 0.22
6 -5 -10 0.03 0.21
-6 -5 10 0.24 0.26
-6 5 10 -0.18 0.31
6 5 -10 0.13 0.22
6 5 -10 0.41 0.22
-6 5 10 -0.13 0.33
6 5 -10 0.15 0.19
5 -5 -10 7.77 0.55
-5 -5 10 7.71 0.53
-5 -5 10 7.73 0.52
5 -5 -10 7.66 0.5
5 5 -10 7.55 0.54
5 5 -10 7.16 0.51
-5 5 10 7.52 0.62
-5 5 10 7.85 0.66
5 5 -10 7.51 0.47
-4 -5 10 19.42 0.66
4 -5 -10 17.63 0.71
4 -5 -10 18.05 0.69
-4 -5 10 18.32 0.73
-4 -5 10 19.3 0.75
4 5 -10 17.96 0.63
-4 5 10 16.36 0.83
-4 5 10 18.32 0.79
4 5 -10 18.33 0.72
-3 -5 10 6.11 0.35
3 -5 -10 5.77 0.41
3 -5 -10 5.78 0.42
-3 -5 10 6.21 0.45
-3 -5 10 5.52 0.43
3 5 -10 5.38 0.34
3 5 -10 6.32 0.48
-3 5 10 5.4 0.52
-3 5 10 6.87 0.49
-2 -5 10 3.81 0.27
2 -5 -10 3.56 0.34
-2 -5 10 3.48 0.35
-2 -5 10 3.58 0.39
2 -5 -10 4.21 0.35
2 -5 -10 3.44 0.24
2 5 -10 3.96 0.29
2 5 -10 3.86 0.39
2 5 -10 3.38 0.26
-2 5 10 3.52 0.44
-2 5 10 3.52 0.23
-2 5 10 4.01 0.4
1 -5 -10 5.27 0.38
1 -5 -10 5.37 0.33
-1 -5 10 5.06 0.28
-1 -5 10 5.28 0.4
-1 -5 10 5.52 0.28
-1 -5 10 5.11 0.39
1 -5 -10 5.2 0.34
1 5 -10 5.58 0.32
1 5 -10 5.56 0.43
-1 5 10 4.45 0.47
1 5 -10 4.92 0.28
-1 5 10 4.96 0.42
0 -5 10 0.86 0.21
0 -5 10 0.66 0.15
0 -5 -10 0.63 0.21
0 -5 10 0.57 0.22
0 -5 -10 0.61 0.19
0 -5 -10 0.62 0.14
0 -5 10 0.36 0.16
0 5 10 0.45 0.25
0 5 -10 0.58 0.17
0 5 -10 0.83 0.24
0 5 -10 0.83 0.15
0 5 10 0.72 0.21
-1 -5 -10 1.75 0.29
-1 -5 -10 2.02 0.18
-1 -5 -10 2.01 0.29
1 -5 10 1.9 0.3
-1 -5 -10 2.19 0.18
1 -5 10 2.19 0.27
1 -5 10 2.19 0.27
1 5 10 1.54 0.32
-1 5 -10 2.67 0.38
1 5 10 1.85 0.29
-1 5 -10 2 0.28
2 -5 10 10.56 0.51
-2 -5 -10 10.96 0.49
-2 -5 -10 11.44 0.6
2 -5 10 10.51 0.55
-2 5 -10 11.01 0.64
-2 5 -10 10.97 0.56
2 5 10 11.16 0.57
2 5 10 11.88 0.66
3 -5 10 2.67 0.38
3 -5 10 2.11 0.33
-3 -5 -10 1.66 0.25
-3 -5 -10 1.97 0.36
-3 5 -10 1.8 0.21
-3 5 -10 1.96 0.33
-3 5 -10 1.34 0.34
3 5 10 2.15 0.39
3 5 10 2.12 0.34
4 -5 10 0.9 0.3
4 -5 10 0.89 0.3
-4 -5 -10 0.22 0.17
-4 -5 -10 0.52 0.3
4 5 10 0.46 0.32
4 5 10 0.28 0.26
-4 5 -10 0.82 0.31
-4 5 -10 0.67 0.13
-4 5 -10 0.65 0.3
5 -5 10 0.04 0.24
5 -5 10 -0.4 0.24
-5 -5 -10 0.04 0.14
-5 -5 -10 0.27 0.29
-5 5 -10 0.36 0.29
-5 5 -10 -0.29 0.28
5 5 10 -0.19 0.27
5 5 10 -0.22 0.32
-6 -5 -10 0.04 0.33
6 -5 10 0.78 0.32
6 -5 10 1.15 0.39
-6 5 -10 -0.08 0.33
-6 5 -10 0.66 0.34
6 5 10 0.47 0.39
6 5 10 0.89 0.38
7 -5 10 0.93 0.35
7 -5 10 0.88 0.43
-7 -5 -10 0.43 0.38
-7 5 -10 0.92 0.39
7 5 10 0.79 0.41
7 5 10 1.14 0.48
-7 5 -10 1.11 0.44
8 -6 -10 0.03 0.34
-8 6 10 0.43 0.43
-8 6 10 -0.61 0.4
8 6 -10 0.43 0.28
8 6 -10 0.48 0.25
8 6 -10 0.61 0.27
7 -6 -10 0 0.24
7 -6 -10 -0.1 0.3
-7 6 10 -0.56 0.33
7 6 -10 -0.49 0.19
7 6 -10 -0.47 0.19
7 6 -10 0 0.2
-7 6 10 0.45 0.43
6 -6 -10 1.37 0.36
-6 -6 10 1.62 0.34
6 -6 -10 1.1 0.28
6 6 -10 0.69 0.25
6 6 -10 1.39 0.31
-6 6 10 1.2 0.42
6 6 -10 1.22 0.28
6 6 -10 1.1 0.3
-6 6 10 1.62 0.44
-5 -6 10 0.21 0.23
5 -6 -10 0.04 0.25
-5 -6 10 0.23 0.24
5 -6 -10 0.28 0.21
5 6 -10 0.15 0.2
-5 6 10 -0.04 0.31
5 6 -10 -0.31 0.22
-5 6 10 0.52 0.37
-4 -6 10 3.15 0.41
-4 -6 10 2.98 0.31
4 -6 -10 3.2 0.37
4 -6 -10 3.53 0.4
-4 -6 10 3.96 0.42
4 6 -10 2.5 0.36
-4 6 10 3.5 0.53
4 6 -10 3.42 0.35
-4 6 10 3.65 0.57
-3 -6 10 0.25 0.21
-3 -6 10 -0.1 0.17
-3 -6 10 0.07 0.13
3 -6 -10 0.02 0.19
3 -6 -10 0.22 0.21
-3 6 10 0.08 0.28
-3 6 10 -0.19 0.25
3 6 -10 0.1 0.15
3 6 -10 -0.11 0.21
-2 -6 10 0.16 0.21
2 -6 -10 -0.21 0.16
-2 -6 10 0.01 0.11
-2 -6 10 0.25 0.2
2 -6 -10 0.18 0.13
2 -6 -10 0.1 0.19
2 6 -10 0.12 0.17
2 6 -10 0.16 0.13
-2 6 10 0.01 0.23
2 6 -10 0.16 0.21
-2 6 10 0.33 0.12
-2 6 10 0.61 0.28
1 -6 -10 0.54 0.18
1 -6 -10 0.55 0.21
1 -6 -10 0.76 0.19
-1 -6 10 0.56 0.21
-1 -6 10 0.38 0.11
-1 -6 10 0.44 0.22
-1 6 10 0.6 0.28
1 6 -10 0.47 0.12
-1 6 10 0.71 0.26
1 6 -10 0.56 0.24
1 6 -10 0.7 0.2
0 -6 10 0.22 0.19
0 -6 10 0.45 0.21
0 -6 -10 -0.02 0.16
0 -6 10 0.35 0.13
0 -6 -10 0.22 0.18
0 -6 -10 0.06 0.12
0 6 -10 0.45 0.13
0 6 10 0.07 0.26
0 6 10 0.12 0.21
0 6 -10 0.13 0.17
0 6 -10 -0.16 0.18
1 -6 10 0.03 0.14
-1 -6 -10 0.23 0.19
-1 -6 -10 0.2 0.21
1 -6 10 0.09 0.17
1 -6 10 0.04 0.2
-1 -6 -10 0.26 0.1
-1 -6 -10 0.14 0.09
1 6 10 0.12 0.27
-1 6 -10 0.15 0.23
-1 6 -10 0.03 0.13
1 6 10 0.44 0.23
-1 6 -10 0.05 0.18
2 -6 10 7.74 0.42
2 -6 10 9.21 0.47
-2 -6 -10 7.94 0.46
2 -6 10 8.65 0.55
-2 -6 -10 8.73 0.54
-2 6 -10 9.85 0.56
2 6 10 8.88 0.64
-2 6 -10 9 0.6
2 6 10 9.65 0.59
-3 -6 -10 1.78 0.36
3 -6 10 1.53 0.31
3 -6 10 2.16 0.33
-3 -6 -10 1.64 0.27
-3 6 -10 1.6 0.34
3 6 10 1.42 0.38
3 6 10 1.69 0.34
-3 6 -10 1.65 0.34
4 -6 10 0.32 0.26
4 -6 10 -0.09 0.25
-4 -6 -10 -0.07 0.17
-4 -6 -10 -0.31 0.26
4 6 10 0.11 0.34
-4 6 -10 0.1 0.28
-4 6 -10 0.31 0.27
4 6 10 -0.27 0.22
-5 -6 -10 6.72 0.63
5 -6 10 6.42 0.58
-5 -6 -10 6.24 0.42
5 -6 10 6.83 0.6
5 6 10 7.92 0.74
5 6 10 6.41 0.63
-5 6 -10 5.79 0.65
-5 6 -10 6.83 0.66
6 -6 10 0.74 0.36
6 -6 10 0.54 0.32
-6 -6 -10 0.55 0.38
6 6 10 0.45 0.42
-6 6 -10 0.29 0.34
-6 6 -10 0.5 0.36
6 6 10 0.61 0.37
-7 -6 -10 1.36 0.45
7 -6 10 2.33 0.45
7 -6 10 2.9 0.55
-7 6 -10 2.67 0.55
-7 6 -10 1.3 0.41
7 6 10 2.39 0.57
7 6 10 1.35 0.48
8 -7 -10 0.36 0.39
-8 7 10 0.05 0.44
8 7 -10 -0.18 0.22
8 7 -10 0.05 0.27
-8 7 10 0.64 0.49
7 -7 -10 0.69 0.37
7 -7 -10 1.03 0.3
-7 -7 10 1.45 0.34
-7 7 10 1.38 0.48
-7 7 10 1.29 0.51
7 7 -10 1.98 0.4
7 7 -10 1.31 0.34
7 7 -10 0.83 0.32
6 -7 -10 0.69 0.32
-6 -7 10 0.67 0.28
6 -7 -10 0.27 0.25
6 7 -10 0.63 0.25
-6 7 10 0.04 0.36
6 7 -10 0.77 0.32
-6 7 10 0.53 0.37
5 -7 -10 2.33 0.4
-5 -7 10 2.62 0.38
5 -7 -10 1.66 0.33
-5 -7 10 2.67 0.4
-5 7 10 2.35 0.47
5 7 -10 1.9 0.32
5 7 -10 1.47 0.37
-5 7 10 1.51 0.43
4 -7 -10 1.25 0.31
-4 -7 10 1.45 0.31
4 -7 -10 1.65 0.32
-4 -7 10 1.68 0.31
4 7 -10 0.96 0.3
-4 7 10 2.47 0.45
-4 7 10 1.22 0.38
4 7 -10 2.44 0.37
3 -7 -10 30.69 0.93
-3 -7 10 28.48 0.96
3 -7 -10 29.25 0.93
-3 -7 10 28.56 0.94
-3 7 10 28.82 1.06
-3 7 10 28.98 1.08
3 7 -10 30.33 0.9
3 7 -10 29.1 1.01
2 -7 -10 3.06 0.27
-2 -7 10 2.79 0.41
2 -7 -10 3.22 0.35
-2 -7 10 3.16 0.41
2 -7 -10 2.75 0.38
2 7 -10 2.88 0.42
-2 7 10 2.86 0.42
2 7 -10 2.85 0.37
-2 7 10 3.35 0.48
-1 -7 10 3.27 0.42
-1 -7 10 3.51 0.38
1 -7 -10 3.86 0.34
1 -7 -10 4.36 0.34
1 -7 -10 3.93 0.39
1 7 -10 4.43 0.45
1 7 -10 4.26 0.4
-1 7 10 4.3 0.49
-1 7 10 4.59 0.5
0 -7 -10 2.96 0.37
0 -7 10 4 0.43
0 -7 10 3.58 0.19
0 -7 -10 3.37 0.35
0 -7 10 3.4 0.38
0 -7 -10 3.05 0.26
0 7 -10 3.99 0.41
0 7 -10 3.77 0.44
0 7 10 3.42 0.45
0 7 10 3.53 0.45
-1 -7 -10 32.79 0.96
-1 -7 -10 32.14 1
-1 -7 -10 33.39 0.7
1 -7 10 34.62 0.96
1 -7 10 32.08 0.81
1 -7 10 32.12 1.02
-1 7 -10 33.76 1.11
-1 7 -10 31.19 1.02
1 7 10 33.84 1.14
1 7 10 34.69 1.11
2 -7 10 0.11 0.24
-2 -7 -10 -0.13 0.24
-2 -7 -10 0.13 0.19
2 -7 10 0.35 0.19
2 -7 10 0.04 0.15
2 7 10 -0.07 0.28
2 7 10 0.38 0.26
-2 7 -10 -0.08 0.25
-2 7 -10 0.03 0.23
3 -7 10 2.23 0.34
3 -7 10 2.18 0.3
-3 -7 -10 1.61 0.37
3 -7 10 2.43 0.38
-3 -7 -10 1.89 0.29
3 7 10 2.36 0.4
-3 7 -10 2.36 0.41
3 7 10 1.61 0.39
-3 7 -10 2.4 0.4
-4 -7 -10 0.7 0.24
-4 -7 -10 0.15 0.31
4 -7 10 0.49 0.29
4 -7 10 0.42 0.26
-4 7 -10 0.33 0.32
4 7 10 0.28 0.29
4 7 10 0.83 0.38
-4 7 -10 0.71 0.35
5 -7 10 0.12 0.3
5 -7 10 0.03 0.27
-5 -7 -10 0.03 0.32
-5 -7 -10 0.26 0.2
5 7 10 0.29 0.3
5 7 10 0.23 0.36
-5 7 -10 -0.28 0.3
-5 7 -10 0.32 0.32
6 -7 10 1.67 0.41
6 -7 10 1.27 0.39
-6 -7 -10 1.14 0.42
-6 7 -10 1.77 0.46
6 7 10 1.48 0.47
-6 7 -10 0.94 0.39
6 7 10 1.06 0.39
7 -7 10 0.39 0.39
-7 -7 -10 0.08 0.32
7 -7 10 0.13 0.31
7 7 10 0.6 0.36
-7 7 -10 0 0.32
7 7 10 1.84 0.51
-7 7 -10 0.09 0.36
7 -8 -10 3.39 0.54
7 -8 -10 3.34 0.48
-7 8 10 3.58 0.62
-7 8 10 3.79 0.66
7 8 -10 4.15 0.59
-6 -8 10 2.62 0.39
6 -8 -10 2.51 0.39
-6 -8 10 2 0.39
6 -8 -10 2.41 0.46
6 8 -10 2.87 0.46
-6 8 10 2.52 0.5
-6 8 10 2.52 0.55
6 8 -10 1.89 0.38
5 -8 -10 1.39 0.36
-5 -8 10 0.98 0.32
5 -8 -10 1 0.3
-5 -8 10 1.55 0.33
-5 8 10 2.37 0.5
-5 8 10 0.84 0.4
5 8 -10 1.92 0.35
5 8 -10 1.78 0.4
4 -8 -10 1.26 0.32
-4 -8 10 1.13 0.29
-4 -8 10 0.95 0.3
4 -8 -10 1.19 0.29
-4 8 10 1.07 0.4
-4 8 10 0.9 0.38
4 8 -10 1.29 0.29
4 8 -10 1.42 0.34
-3 -8 10 9.88 0.59
3 -8 -10 9.05 0.57
-3 -8 10 9.07 0.6
3 -8 -10 9.42 0.56
-3 8 10 9.86 0.72
3 8 -10 8.79 0.62
3 8 -10 9.21 0.58
-3 8 10 9.35 0.69
-2 -8 10 1.7 0.31
-2 -8 10 1.42 0.31
2 -8 -10 2.48 0.27
2 -8 -10 2.31 0.3
2 -8 -10 1.58 0.3
2 8 -10 2.57 0.38
2 8 -10 1.89 0.33
-2 8 10 2.2 0.42
-2 8 10 2.07 0.4
-1 -8 10 0.08 0.23
1 -8 -10 0.07 0.17
1 -8 -10 0.15 0.18
1 -8 -10 0.16 0.23
-1 -8 10 0.21 0.22
1 8 -10 -0.03 0.22
-1 8 10 0.42 0.3
1 8 -10 -0.27 0.22
-1 8 10 -0.09 0.28
0 -8 10 0.73 0.25
0 -8 -10 0.78 0.25
0 -8 -10 0.43 0.15
0 -8 10 0.92 0.28
0 -8 -10 0.48 0.23
0 8 10 0.85 0.31
0 8 -10 0.74 0.3
0 8 10 0.84 0.34
0 8 -10 0.68 0.27
-1 -8 -10 7.93 0.53
-1 -8 -10 7.25 0.49
1 -8 10 7 0.55
1 -8 10 7.22 0.47
1 8 10 7.65 0.63
-1 8 -10 5.87 0.53
-1 8 -10 7.15 0.58
1 8 10 7.54 0.59
2 -8 10 1.46 0.27
2 -8 10 1.21 0.33
-2 -8 -10 1.07 0.31
-2 -8 -10 1.12 0.27
-2 8 -10 2.09 0.39
2 8 10 1.15 0.34
-2 8 -10 1.54 0.36
2 8 10 1.35 0.38
3 -8 10 3.52 0.49
-3 -8 -10 3.56 0.42
3 -8 10 2.83 0.35
-3 -8 -10 3.67 0.49
3 -8 10 3.46 0.35
3 8 10 2.82 0.46
3 8 10 2.71 0.47
-3 8 -10 2.7 0.44
-3 8 -10 3.58 0.5
-4 -8 -10 5.02 0.45
4 -8 10 4.75 0.56
-4 -8 -10 4.28 0.55
4 -8 10 4.22 0.47
4 8 10 3.8 0.59
-4 8 -10 4.56 0.62
-4 8 -10 3.86 0.58
4 8 10 4.52 0.61
5 -8 10 0.01 0.28
5 -8 10 0 0.28
-5 -8 -10 0.66 0.24
-5 -8 -10 0.21 0.32
5 8 10 0.3 0.34
5 8 10 0.17 0.39
-5 8 -10 0.35 0.32
-5 8 -10 0.26 0.35
6 -8 10 3.59 0.54
-6 -8 -10 4.64 0.68
6 -8 10 4.19 0.59
-6 8 -10 5.71 0.65
-6 8 -10 5.21 0.74
6 8 10 4.72 0.7
6 8 10 4.62 0.7
-7 -9 10 7.6 0.71
7 -9 -10 7.61 0.79
-7 9 10 9.62 0.95
7 9 -10 9.83 0.78
-7 9 10 8.23 0.86
-6 -9 10 12.23 0.78
-6 -9 10 13.7 0.73
6 -9 -10 13.98 0.86
6 -9 -10 13.17 0.75
-6 9 10 12.43 0.93
6 9 -10 13.1 0.85
6 9 -10 13.95 0.83
-6 9 10 13.26 1.04
5 -9 -10 17.33 0.85
-5 -9 10 18.11 0.81
-5 -9 10 17.12 0.84
5 -9 -10 17.49 0.8
-5 9 10 19.03 1.04
-5 9 10 17.56 1
5 9 -10 16.7 0.85
5 9 -10 16.57 0.89
-4 -9 10 18.7 0.8
4 -9 -10 18.73 0.84
4 -9 -10 19.29 0.83
-4 -9 10 18.94 0.86
-4 9 10 18.79 0.92
-4 9 10 18.45 1.01
4 9 -10 18.1 0.88
4 9 -10 20.21 0.85
3 -9 -10 15.08 0.71
-3 -9 10 15.03 0.73
3 -9 -10 13.29 0.69
-3 -9 10 15.53 0.75
3 9 -10 14.97 0.74
3 9 -10 15.36 0.8
-3 9 10 14.57 0.89
-3 9 10 15.61 0.86
-2 -9 10 34.6 1.11
2 -9 -10 35.24 1.01
2 -9 -10 33.94 1.08
-2 -9 10 37.42 1.15
2 9 -10 34.51 1.2
-2 9 10 35.4 1.24
-2 9 10 35.34 1.29
2 9 -10 34.87 1.13
1 -9 -10 8.35 0.55
-1 -9 10 8.92 0.57
1 -9 -10 8.13 0.46
1 -9 -10 8.68 0.46
-1 -9 10 9.45 0.61
1 9 -10 9.93 0.63
-1 9 10 8.72 0.65
1 9 -10 8.56 0.61
-1 9 10 7.81 0.67
0 -9 10 3.77 0.45
0 -9 -10 2.61 0.4
0 -9 10 3.44 0.43
0 -9 -10 4 0.44
0 9 -10 3.56 0.49
0 9 10 3.65 0.54
0 9 10 4.42 0.56
0 9 -10 3.69 0.54
-1 -9 -10 2.89 0.41
-1 -9 -10 2.2 0.36
1 -9 10 3.52 0.42
1 -9 10 2.25 0.38
1 9 10 2.84 0.44
1 9 10 2.81 0.45
-1 9 -10 2.9 0.44
-1 9 -10 3.7 0.51
-2 -9 -10 1.98 0.34
2 -9 10 2.38 0.41
-2 -9 -10 2.19 0.4
2 -9 10 1.6 0.29
-2 9 -10 2.06 0.39
-2 9 -10 1.64 0.38
2 9 10 1.76 0.42
2 9 10 2.44 0.47
-3 -9 -10 0.94 0.35
3 -9 10 1.27 0.27
-3 -9 -10 1.11 0.32
3 -9 10 1.18 0.36
-3 9 -10 1.67 0.42
-3 9 -10 1.31 0.41
3 9 10 1.3 0.43
3 9 10 2.38 0.43
-4 -9 -10 0.39 0.37
-4 -9 -10 0.66 0.25
4 -9 10 0.33 0.33
-4 9 -10 0.34 0.35
-4 9 -10 0.44 0.35
4 9 10 -0.03 0.33
4 9 10 0.36 0.38
-5 -9 -10 1.72 0.32
5 -9 10 0.88 0.37
-5 -9 -10 1.43 0.42
-5 9 -10 1.37 0.46
-5 9 -10 1.8 0.44
5 9 10 1.56 0.47
5 9 10 1.25 0.48
-6 -9 -10 8.97 0.84
6 -9 10 7.97 0.76
6 9 10 7.25 0.87
-6 9 -10 5.65 0.83
-6 9 -10 9.1 0.79
6 9 10 9.81 0.86
6 -10 -10 0.83 0.33
-6 -10 10 1.67 0.4
6 -10 -10 1.24 0.43
-6 10 10 0.99 0.53
6 10 -10 1.03 0.42
-6 10 10 1.93 0.51
-5 -10 10 0.02 0.28
-5 -10 10 1.02 0.3
5 -10 -10 0.9 0.37
5 -10 -10 0.34 0.29
5 10 -10 0.75 0.35
-5 10 10 0.47 0.41
-5 10 10 1.45 0.47
5 10 -10 0.39 0.32
-4 -10 10 0.12 0.24
4 -10 -10 0.25 0.28
-4 -10 10 -0.32 0.26
4 -10 -10 -0.28 0.26
-4 10 10 0.53 0.35
-4 10 10 -0.38 0.37
4 10 -10 -0.07 0.29
4 10 -10 0.09 0.27
3 -10 -10 0.39 0.3
-3 -10 10 1.18 0.32
-3 -10 10 0.3 0.27
3 -10 -10 0.72 0.3
-3 10 10 0.65 0.38
3 10 -10 0.3 0.29
-3 10 10 0.61 0.41
3 10 -10 0.91 0.35
-2 -10 10 1.44 0.34
2 -10 -10 0.86 0.29
2 -10 -10 0.92 0.32
-2 -10 10 0.99 0.3
2 10 -10 1.15 0.37
2 10 -10 1.2 0.34
-2 10 10 1.49 0.46
-2 10 10 1.04 0.38
1 -10 -10 0.84 0.29
-1 -10 10 0.45 0.28
1 -10 -10 0.59 0.23
1 -10 -10 0.49 0.22
-1 -10 10 0.91 0.3
1 10 -10 1.12 0.36
-1 10 10 0.65 0.34
1 10 -10 0.5 0.31
-1 10 10 0.71 0.38
0 -10 10 -0.09 0.25
0 -10 -10 0.14 0.24
0 -10 -10 0.27 0.25
0 -10 10 0.27 0.25
0 10 -10 0.51 0.31
0 10 10 0.46 0.37
0 10 10 0.39 0.33
0 10 -10 0.37 0.3
-1 -10 -10 0.49 0.29
1 -10 10 0.3 0.24
1 -10 10 0.37 0.3
-1 -10 -10 0.16 0.29
-1 10 -10 0.49 0.31
1 10 10 -0.11 0.31
1 10 10 -0.13 0.32
-1 10 -10 0.4 0.31
2 -10 10 0.77 0.28
2 -10 10 0.78 0.33
-2 -10 -10 0.66 0.29
-2 -10 -10 1.25 0.35
-2 10 -10 0.56 0.35
2 10 10 1.33 0.4
-2 10 -10 1.48 0.38
2 10 10 0.93 0.38
-3 -10 -10 11.13 0.75
3 -10 10 9.23 0.55
3 -10 10 9.25 0.7
-3 -10 -10 9.98 0.63
-3 10 -10 10.79 0.8
3 10 10 9.32 0.79
3 10 10 9.88 0.79
-3 10 -10 9.01 0.78
-4 -10 -10 0.21 0.34
4 -10 10 0.07 0.33
-4 -10 -10 -0.1 0.25
4 10 10 0.06 0.34
-4 10 -10 -0.17 0.32
4 10 10 -0.26 0.36
-4 10 -10 -0.24 0.34
5 -10 10 -0.21 0.31
-5 -10 -10 0.38 0.25
-5 -10 -10 -0.45 0.32
5 10 10 -0.17 0.35
5 10 10 0.05 0.4
-5 10 -10 -0.22 0.38
-5 10 -10 -0.01 0.31
5 -11 -10 5.12 0.6
-5 -11 10 6.24 0.65
5 -11 -10 6.45 0.7
-5 11 10 6.92 0.74
5 11 -10 7.34 0.69
-5 11 10 6.83 0.87
-4 -11 10 4.24 0.51
4 -11 -10 4.13 0.56
-4 -11 10 3.41 0.49
4 -11 -10 3.01 0.49
4 11 -10 3.36 0.51
-4 11 10 3.61 0.61
4 11 -10 4.65 0.64
-4 11 10 3.18 0.54
3 -11 -10 4.86 0.54
3 -11 -10 5.6 0.58
-3 -11 10 4.91 0.53
-3 -11 10 5.38 0.57
3 11 -10 4.9 0.6
-3 11 10 5.33 0.66
3 11 -10 5.38 0.63
-3 11 10 5.36 0.76
2 -11 -10 2.15 0.34
-2 -11 10 2.1 0.38
-2 -11 10 1.91 0.39
2 -11 -10 1.41 0.36
2 11 -10 1.06 0.41
-2 11 10 1.49 0.48
2 11 -10 1.47 0.38
-2 11 10 1.94 0.41
-1 -11 10 4.84 0.54
1 -11 -10 4.85 0.55
-1 -11 10 4.48 0.54
1 11 -10 4.27 0.61
-1 11 10 4.22 0.61
1 11 -10 4.7 0.62
-1 11 10 4.62 0.68
0 -11 -10 -0.28 0.24
0 -11 10 -0.04 0.28
0 -11 -10 0.4 0.29
0 -11 10 -0.18 0.25
0 11 10 0.57 0.41
0 11 10 0.04 0.32
0 11 -10 -0.15 0.31
0 11 -10 0.42 0.31
1 -11 10 0.14 0.28
-1 -11 -10 -0.11 0.26
-1 -11 -10 -0.52 0.23
1 -11 10 0.25 0.25
-1 11 -10 0.39 0.32
-1 11 -10 -0.02 0.29
1 11 10 -0.38 0.31
1 11 10 0.54 0.33
-2 -11 -10 -0.13 0.28
2 -11 10 -0.38 0.22
-2 -11 -10 -0.03 0.31
2 -11 10 0.08 0.31
-2 11 -10 -0.16 0.31
2 11 10 0.2 0.35
-2 11 -10 0.51 0.36
2 11 10 -0.27 0.3
3 -11 10 2.02 0.43
-3 -11 -10 2.1 0.39
-3 -11 -10 1.75 0.44
-3 11 -10 1.09 0.44
3 11 10 2.15 0.52
3 11 10 1.09 0.43
-3 11 -10 1.65 0.45
-4 -11 -10 1.7 0.37
4 -11 10 1.16 0.43
-4 -11 -10 1.41 0.45
-4 11 -10 1.45 0.45
-4 11 -10 2.33 0.5
4 11 10 1.05 0.45
4 11 10 2.05 0.49
4 -12 -10 6.64 0.68
-4 -12 10 6.58 0.65
4 -12 -10 6.96 0.65
4 12 -10 6.23 0.7
-4 12 10 8.45 0.91
-4 12 10 6.46 0.76
-3 -12 10 8.15 0.68
3 -12 -10 7.88 0.67
-3 -12 10 8.38 0.64
3 12 -10 8 0.73
-3 12 10 7.91 0.9
3 12 -10 7.55 0.75
-3 12 10 8.17 0.7
2 -12 -10 14.17 0.81
-2 -12 10 13.24 0.79
-2 -12 10 14.72 0.81
2 12 -10 16.28 0.91
-2 12 10 14.45 0.85
-2 12 10 14.4 1.01
2 12 -10 15.23 0.91
1 -12 -10 11.58 0.73
-1 -12 10 11.68 0.74
-1 -12 10 11.77 0.75
-1 12 10 11.39 0.77
1 12 -10 10.5 0.78
-1 12 10 10.48 0.9
1 12 -10 10.79 0.78
0 -12 10 6.85 0.61
0 -12 10 5.72 0.61
0 -12 -10 5.21 0.57
0 12 10 5.99 0.81
0 12 10 6.04 0.63
0 12 -10 4.98 0.67
0 12 -10 4.66 0.69
-1 -12 -10 5.51 0.59
1 -12 10 5.8 0.57
-1 -12 -10 4.24 0.55
1 -12 10 4.3 0.58
-1 12 -10 5.69 0.68
-1 12 -10 5.84 0.68
1 12 10 4.65 0.72
1 12 10 5.81 0.67
-2 -12 -10 8.17 0.65
2 -12 10 7.06 0.69
-2 -12 -10 7.72 0.66
2 -12 10 6.73 0.59
2 12 10 7.08 0.79
-2 12 -10 6.91 0.74
-2 12 -10 6.97 0.73
-3 -12 -10 0.39 0.29
3 -12 10 -0.04 0.32
-3 -12 -10 -0.09 0.35
3 12 10 -0.19 0.37
-3 12 -10 -0.19 0.37
-3 12 -10 0.1 0.39
3 -13 -10 0.47 0.37
-2 -13 10 2.83 0.46
-2 -13 10 3.09 0.5
2 -13 -10 2.77 0.5
-2 13 10 2.93 0.6
2 13 -10 3.41 0.57
2 13 -10 2.67 0.5
-1 -13 10 2.61 0.44
1 -13 -10 2.05 0.45
-1 -13 10 2.91 0.48
-1 13 10 3.35 0.68
1 13 -10 1.92 0.46
1 13 -10 2.53 0.52
0 -13 10 2.04 0.44
0 -13 -10 1.35 0.41
0 -13 10 2.09 0.42
0 13 -10 0.91 0.42
0 13 -10 2.64 0.54
0 13 10 1.86 0.55
1 -13 10 0.17 0.28
-1 -13 -10 0.09 0.32
1 -13 10 0.58 0.34
-1 13 -10 -0.05 0.32
1 13 10 0.03 0.42
-1 13 -10 0 0.38
2 -13 10 0.79 0.32
-2 -13 -10 0.45 0.35
-2 -13 -10 0.42 0.35
2 -13 10 0.41 0.37
2 13 10 0.6 0.48
-2 13 -10 0.42 0.37
-2 13 -10 0.98 0.45
9 0 -11 -0.12 0.29
-9 0 11 -0.23 0.36
8 0 -11 0.11 0.19
-8 0 11 -0.34 0.34
8 0 -11 0.17 0.28
-8 0 11 0.11 0.32
-7 0 11 -0.26 0.25
7 0 -11 -0.13 0.24
-7 0 11 -0.08 0.31
7 0 -11 0.34 0.21
6 0 -11 -0.11 0.18
6 0 -11 0.11 0.15
-6 0 11 -0.4 0.28
6 0 -11 0.11 0.24
-6 0 11 0.35 0.23
5 0 -11 -0.24 0.13
5 0 -11 0.36 0.2
-5 0 11 0.11 0.28
-5 0 11 0.08 0.18
-4 0 11 -0.18 0.24
-4 0 11 -0.29 0.12
-4 0 11 0.09 0.2
4 0 -11 0.16 0.18
4 0 -11 -0.24 0.1
4 0 -11 -0.08 0.12
-3 0 11 -0.05 0.22
-3 0 11 0.17 0.1
-3 0 11 -0.21 0.16
3 0 -11 0.15 0.17
3 0 -11 0.01 0.09
3 0 -11 0.18 0.14
-2 0 11 0.1 0.17
2 0 -11 -0.2 0.13
2 0 -11 0.26 0.17
-2 0 11 0.03 0.21
-1 0 11 0.08 0.15
1 0 -11 -0.03 0.14
-1 0 11 0.26 0.21
1 0 -11 0.15 0.15
0 0 11 0.04 0.16
0 0 -11 0.07 0.18
0 0 11 0.14 0.07
0 0 -11 0.08 0.14
0 0 11 0.2 0.21
0 0 11 0.18 0.08
1 0 11 0.06 0.11
1 0 11 0 0.1
-1 0 -11 0.1 0.13
1 0 11 -0.05 0.2
-1 0 -11 0 0.2
1 0 11 -0.06 0.15
-2 0 -11 0.04 0.12
-2 0 -11 0.2 0.22
2 0 11 0.03 0.21
-2 0 -11 -0.11 0.14
2 0 11 0.06 0.16
-3 0 -11 0.15 0.2
-3 0 -11 -0.09 0.23
3 0 11 0.06 0.16
-3 0 -11 -0.18 0.1
3 0 11 0.02 0.24
-4 0 -11 0.11 0.23
-4 0 -11 -0.03 0.08
-4 0 -11 -0.29 0.23
4 0 11 -0.19 0.25
4 0 11 -0.02 0.17
5 0 11 0.21 0.19
5 0 11 0.21 0.31
-5 0 -11 -0.14 0.24
-5 0 -11 -0.31 0.26
6 0 11 -0.18 0.2
6 0 11 -0.05 0.35
-6 0 -11 0.13 0.31
-6 0 -11 0.32 0.3
7 0 11 -0.76 0.33
-7 0 -11 -0.52 0.27
-7 0 -11 -0.03 0.32
-8 0 -11 0.33 0.35
8 0 11 -0.44 0.43
-8 0 -11 0.38 0.36
9 -1 -11 2.14 0.45
-9 1 11 2.37 0.58
9 1 -11 1.67 0.41
8 -1 -11 0.58 0.23
-8 -1 11 0.57 0.42
-8 -1 11 0.43 0.3
8 -1 -11 0.23 0.33
8 1 -11 0.41 0.22
-8 1 11 1.01 0.43
8 1 -11 0.56 0.3
-8 1 11 0.98 0.36
-7 -1 11 0.67 0.3
7 -1 -11 1.34 0.29
-7 -1 11 1.26 0.41
7 -1 -11 0.71 0.29
-7 1 11 0.76 0.39
-7 1 11 0.12 0.29
7 1 -11 0.96 0.25
7 1 -11 0.6 0.29
6 -1 -11 2.6 0.36
6 -1 -11 2.32 0.36
-6 -1 11 2.2 0.33
-6 -1 11 2.34 0.42
6 1 -11 2.57 0.31
6 1 -11 3.44 0.39
-6 1 11 2.07 0.4
-6 1 11 2.85 0.4
6 1 -11 2.2 0.35
-5 -1 11 0.12 0.18
-5 -1 11 0.28 0.27
-5 -1 11 -0.05 0.23
5 -1 -11 0.09 0.13
5 -1 -11 0.53 0.21
5 -1 -11 0.08 0.21
5 1 -11 0.15 0.19
-5 1 11 0.2 0.21
5 1 -11 -0.02 0.15
-5 1 11 0.36 0.29
-4 -1 11 3.63 0.38
4 -1 -11 4.07 0.26
4 -1 -11 3.58 0.36
4 -1 -11 3.84 0.3
4 -1 -11 3.66 0.24
-4 -1 11 3.94 0.44
-4 -1 11 4.1 0.28
4 1 -11 4.25 0.27
-4 1 11 5.22 0.5
4 1 -11 3.98 0.38
4 1 -11 4 0.31
-4 1 11 4.11 0.32
-4 1 11 4.19 0.38
3 -1 -11 3.03 0.27
3 -1 -11 2.77 0.31
-3 -1 11 2.92 0.38
-3 -1 11 2.39 0.35
3 -1 -11 2.62 0.21
3 1 -11 3.27 0.29
-3 1 11 2.29 0.35
-3 1 11 2.47 0.23
-3 1 11 2.48 0.2
3 1 -11 3.19 0.32
-3 1 11 2.41 0.33
2 -1 -11 4.4 0.32
2 -1 -11 3.98 0.19
2 -1 -11 3.78 0.32
-2 -1 11 3.99 0.38
-2 -1 11 4.36 0.37
-2 1 11 4.26 0.36
2 1 -11 3.89 0.34
-2 1 11 4.65 0.43
2 1 -11 3.27 0.32
1 -1 -11 0.36 0.16
1 -1 -11 0.62 0.19
-1 -1 11 0.43 0.22
-1 -1 11 0.46 0.19
-1 1 11 0.29 0.25
1 1 -11 0.56 0.18
1 1 -11 0.14 0.19
-1 1 11 0.55 0.18
0 -1 -11 20.49 0.63
0 -1 11 18.84 0.63
0 -1 11 20.01 0.71
0 -1 -11 19.37 0.69
0 1 -11 20.94 0.62
0 1 11 19.45 0.51
0 1 -11 19 0.68
0 1 11 19.58 0.74
0 1 11 19.32 0.5
0 1 11 19.01 0.6
-1 -1 -11 20.45 0.75
1 -1 11 20.33 0.66
1 -1 11 21.93 0.75
-1 -1 -11 20.56 0.62
1 -1 11 19.96 0.57
1 1 11 21.57 0.62
-1 1 -11 21.67 0.76
1 1 11 19.7 0.59
1 1 11 21.37 0.78
-1 1 -11 20.67 0.61
-1 1 -11 20.53 0.58
1 1 11 19.81 0.6
2 -1 11 0.91 0.27
2 -1 11 0.64 0.19
-2 -1 -11 0.7 0.27
-2 -1 -11 0.51 0.15
-2 1 -11 0.65 0.18
-2 1 -11 0.79 0.16
2 1 11 0.73 0.17
2 1 11 0.81 0.28
-2 1 -11 0.5 0.25
2 1 11 1 0.2
3 -1 11 10.12 0.6
-3 -1 -11 10.02 0.59
-3 -1 -11 10.24 0.54
-3 -1 -11 10.39 0.39
3 -1 11 10.31 0.49
3 1 11 9.71 0.62
-3 1 -11 9.41 0.34
-3 1 -11 9.86 0.61
-3 1 -11 10.05 0.53
-3 1 -11 10.56 0.36
3 1 11 10.31 0.44
-4 -1 -11 16.36 0.46
-4 -1 -11 16.82 0.8
4 -1 11 16.24 0.78
-4 -1 -11 15.65 0.74
4 -1 11 16.71 0.64
-4 1 -11 15.95 0.72
-4 1 -11 16.52 0.42
4 1 11 15.97 0.8
4 1 11 15.84 0.57
-4 1 -11 16.06 0.79
5 -1 11 7.64 0.7
-5 -1 -11 8.66 0.64
5 -1 11 8.45 0.5
-5 -1 -11 8.86 0.63
-5 1 -11 7.74 0.63
-5 1 -11 8.27 0.61
5 1 11 7.67 0.66
5 1 11 8.47 0.44
-6 -1 -11 1.14 0.38
-6 -1 -11 1.19 0.37
6 -1 11 0.96 0.4
6 -1 11 0.57 0.24
6 1 11 1.02 0.24
6 1 11 0.8 0.4
-6 1 -11 1.5 0.38
-6 1 -11 0.24 0.33
7 -1 11 1.49 0.48
7 -1 11 1.68 0.34
-7 -1 -11 1.59 0.43
-7 -1 -11 2.48 0.47
7 1 11 1.91 0.52
-7 1 -11 2.02 0.47
-7 1 -11 1.21 0.42
-8 -1 -11 2.11 0.47
8 -1 11 3.52 0.67
-8 -1 -11 2.78 0.55
-8 1 -11 2.19 0.49
8 1 11 2.72 0.64
-8 1 -11 1.88 0.5
9 -2 -11 1.77 0.46
-9 2 11 1.81 0.52
9 2 -11 2.14 0.48
-9 2 11 1.58 0.56
9 2 -11 1.86 0.43
8 -2 -11 0.28 0.21
-8 -2 11 0.2 0.35
8 -2 -11 -0.25 0.27
-8 2 11 0.66 0.42
8 2 -11 -0.13 0.25
-8 2 11 0.29 0.36
8 2 -11 -0.03 0.19
-7 -2 11 0.43 0.33
7 -2 -11 0.66 0.24
7 -2 -11 0.33 0.29
7 2 -11 0.15 0.18
7 2 -11 0.05 0.24
7 2 -11 -0.02 0.19
-7 2 11 0.5 0.38
-7 2 11 0.17 0.28
6 -2 -11 1.5 0.33
6 -2 -11 1.61 0.29
-6 -2 11 1.78 0.39
-6 2 11 1.48 0.39
-6 2 11 2.09 0.39
6 2 -11 1.38 0.26
6 2 -11 2.06 0.33
5 -2 -11 4.78 0.44
-5 -2 11 5.78 0.47
5 -2 -11 4.66 0.22
-5 -2 11 5.96 0.52
5 -2 -11 4.98 0.4
-5 2 11 5.2 0.56
-5 2 11 5.21 0.45
5 2 -11 4.61 0.37
5 2 -11 5.11 0.37
5 2 -11 5.61 0.43
4 -2 -11 0.43 0.22
4 -2 -11 0.52 0.21
4 -2 -11 0.75 0.14
4 -2 -11 0.31 0.11
-4 -2 11 0.35 0.23
-4 -2 11 0.62 0.25
-4 2 11 0.47 0.28
4 2 -11 0.48 0.2
4 2 -11 0.6 0.18
-4 2 11 0.64 0.2
4 2 -11 0.19 0.14
4 2 -11 0.39 0.14
3 -2 -11 5.15 0.3
3 -2 -11 5.28 0.39
-3 -2 11 5.19 0.42
-3 -2 11 5.27 0.41
3 -2 -11 5.53 0.29
3 2 -11 6 0.4
-3 2 11 5.01 0.48
-3 2 11 4.95 0.32
-3 2 11 5.22 0.24
3 2 -11 5.15 0.22
-3 2 11 5.77 0.4
3 2 -11 5.42 0.38
-2 -2 11 36.48 1
2 -2 -11 36.88 0.9
2 -2 -11 36.94 0.83
-2 -2 11 36.75 0.99
2 -2 -11 36.72 0.97
-2 2 11 36.84 0.86
-2 2 11 37.67 1.11
2 2 -11 35.97 0.96
-2 2 11 37.33 0.86
2 2 -11 37.12 0.99
-2 2 11 37.67 0.97
1 -2 -11 32.16 0.74
-1 -2 11 32.23 0.9
1 -2 -11 31.81 0.86
-1 -2 11 32.81 0.92
1 -2 -11 31.31 0.86
-1 2 11 32.22 0.84
1 2 -11 32.95 0.86
1 2 -11 32.7 0.92
-1 2 11 32.36 0.75
-1 2 11 33.33 1.02
0 -2 11 23.62 0.74
0 -2 11 23.29 0.75
0 -2 -11 25.37 0.78
0 -2 -11 23.37 0.7
0 2 11 23.52 0.63
0 2 11 23.55 0.67
0 2 -11 24.39 0.8
0 2 11 24.52 0.86
0 2 11 23.24 0.63
0 2 -11 22.25 0.67
1 -2 11 24.14 0.78
1 -2 11 22.79 0.63
-1 -2 -11 22.73 0.66
-1 -2 -11 23.83 0.78
1 -2 11 23.19 0.73
1 2 11 23.43 0.85
1 2 11 22.34 0.66
-1 2 -11 21.44 0.79
-1 2 -11 23.16 0.63
-1 2 -11 22.71 0.65
1 2 11 23.69 0.64
1 2 11 22.25 0.68
-2 -2 -11 15.75 0.68
-2 -2 -11 15.62 0.52
2 -2 11 14.84 0.66
2 -2 11 14.99 0.6
2 2 11 15.1 0.71
2 2 11 14.93 0.58
2 2 11 14.69 0.48
-2 2 -11 15.05 0.57
-2 2 -11 15.41 0.49
-2 2 -11 15.3 0.68
-3 -2 -11 19.84 0.58
3 -2 11 20.44 0.82
-3 -2 -11 19.58 0.83
3 -2 11 20.09 0.7
-3 2 -11 19.96 0.83
3 2 11 19.39 0.73
-3 2 -11 19.54 0.52
3 2 11 21.7 0.87
3 2 11 19.93 0.58
-3 2 -11 19.65 0.53
-3 2 -11 19.44 0.74
-4 -2 -11 27.48 1
4 -2 11 28.46 0.89
-4 -2 -11 26.23 0.68
4 -2 11 28.02 1.02
-4 2 -11 27.3 1.04
4 2 11 28.91 1.08
4 2 11 27.38 0.72
-4 2 -11 27.12 0.98
-4 2 -11 27.85 0.6
4 2 11 25.99 0.95
-5 -2 -11 7.17 0.62
5 -2 11 8.86 0.54
5 -2 11 7.97 0.67
-5 2 -11 7.95 0.62
5 2 11 7.4 0.4
-5 2 -11 7.91 0.62
5 2 11 8.45 0.68
6 -2 11 1.27 0.39
-6 -2 -11 0.57 0.34
6 -2 11 0.22 0.24
-6 2 -11 0.66 0.34
-6 2 -11 0.57 0.35
6 2 11 0.81 0.41
7 -2 11 1.76 0.36
-7 -2 -11 2.14 0.46
7 -2 11 1.73 0.48
-7 2 -11 1.85 0.43
-7 2 -11 1.29 0.42
7 2 11 2.1 0.54
8 -2 11 -0.41 0.38
-8 -2 -11 0.2 0.38
-8 2 -11 0.44 0.34
-8 2 -11 -0.83 0.27
8 2 11 0.81 0.48
9 -3 -11 1.05 0.39
9 3 -11 -0.05 0.33
9 3 -11 0.5 0.31
-9 3 11 0.75 0.4
-9 3 11 0.38 0.52
8 -3 -11 0.29 0.21
8 -3 -11 0.46 0.34
-8 3 11 0 0.38
-8 3 11 0.17 0.36
8 3 -11 0.27 0.22
8 3 -11 0.57 0.31
-7 -3 11 0.51 0.35
7 -3 -11 0.98 0.33
7 -3 -11 0.72 0.25
-7 3 11 0.84 0.41
7 3 -11 1.03 0.28
-7 3 11 1.02 0.37
7 3 -11 0.61 0.27
7 3 -11 0.25 0.2
7 3 -11 0.61 0.29
6 -3 -11 0.47 0.23
-6 -3 11 0.22 0.29
-6 -3 11 0.68 0.29
6 -3 -11 0.54 0.27
-6 3 11 0.59 0.3
6 3 -11 0.24 0.21
-6 3 11 0.54 0.33
6 3 -11 0.14 0.17
6 3 -11 0.47 0.22
5 -3 -11 1.21 0.27
5 -3 -11 0.99 0.28
-5 -3 11 0.98 0.29
-5 -3 11 0.86 0.26
5 3 -11 0.8 0.21
5 3 -11 1.12 0.24
5 3 -11 1.04 0.27
-5 3 11 1.23 0.35
-5 3 11 0.91 0.29
4 -3 -11 0.5 0.22
4 -3 -11 0.18 0.19
-4 -3 11 -0.3 0.2
-4 -3 11 0.09 0.2
4 3 -11 0.12 0.14
4 3 -11 0.36 0.18
4 3 -11 0.01 0.13
-4 3 11 0.01 0.27
-4 3 11 0.42 0.22
4 3 -11 0.19 0.19
3 -3 -11 0.64 0.2
-3 -3 11 1.16 0.26
-3 -3 11 0.89 0.24
3 -3 -11 1.06 0.22
3 -3 -11 0.9 0.14
-3 3 11 1.06 0.13
3 3 -11 1.03 0.23
3 3 -11 0.98 0.14
3 3 -11 0.87 0.21
3 3 -11 0.64 0.13
-3 3 11 0.98 0.22
-3 3 11 0.91 0.3
2 -3 -11 32.09 0.81
2 -3 -11 32.71 0.9
-2 -3 11 33.2 0.94
-2 -3 11 32.6 0.89
2 -3 -11 32.38 0.79
-2 3 11 31.21 0.86
-2 3 11 31.74 1.03
2 3 -11 31.15 0.88
2 3 -11 30.7 0.92
-2 3 11 31.08 0.76
-2 3 11 31.46 0.84
-1 -3 11 26.47 0.83
1 -3 -11 27.45 0.79
1 -3 -11 27.3 0.72
1 -3 -11 27.66 0.77
-1 -3 11 28.46 0.81
-1 3 11 25.92 0.73
-1 3 11 25.59 0.92
1 3 -11 29.76 0.88
1 3 -11 28.54 0.79
-1 3 11 28.01 0.76
0 -3 11 16.01 0.6
0 -3 11 16.22 0.43
0 -3 -11 17.16 0.63
0 -3 11 15.73 0.61
0 -3 -11 16.07 0.58
0 3 -11 16.13 0.66
0 3 11 16.14 0.55
0 3 -11 15.94 0.45
0 3 11 16.01 0.52
0 3 -11 15.94 0.56
0 3 11 17.44 0.73
1 -3 11 24.68 0.69
1 -3 11 26.45 0.81
-1 -3 -11 25.92 0.69
-1 -3 -11 26.64 0.86
-1 -3 -11 26.29 0.75
1 -3 11 26.34 0.82
-1 3 -11 26.45 0.72
1 3 11 25.6 0.76
-1 3 -11 27.07 0.89
1 3 11 26.04 0.93
-1 3 -11 26.73 0.71
1 3 11 26.05 0.67
-2 -3 -11 19.18 0.61
-2 -3 -11 19.49 0.74
2 -3 11 19.04 0.69
2 -3 11 19.01 0.72
-2 -3 -11 19.15 0.52
2 3 11 18.09 0.67
2 3 11 18 0.8
-2 3 -11 18.38 0.65
-2 3 -11 19.87 0.8
2 3 11 19.28 0.53
-2 3 -11 19.17 0.56
-3 -3 -11 15.65 0.52
3 -3 11 14.71 0.69
-3 -3 -11 14.52 0.43
-3 -3 -11 14.18 0.7
3 -3 11 14.47 0.64
3 3 11 15.34 0.66
3 3 11 14.68 0.45
-3 3 -11 14.29 0.45
-3 3 -11 15.19 0.66
3 3 11 14.18 0.74
-3 3 -11 14.66 0.73
-4 -3 -11 5.17 0.53
-4 -3 -11 5.78 0.33
4 -3 11 6.52 0.5
4 -3 11 5.74 0.56
4 3 11 5.99 0.6
4 3 11 5.96 0.3
4 3 11 5.28 0.48
-4 3 -11 5.67 0.23
-4 3 -11 5.67 0.53
-4 3 -11 6.18 0.56
-5 -3 -11 3.19 0.45
5 -3 11 3.46 0.54
5 -3 11 2.97 0.43
-5 3 -11 2.92 0.46
5 3 11 3.15 0.52
-5 3 -11 2.96 0.5
5 3 11 3.13 0.48
-6 -3 -11 0.17 0.32
6 -3 11 0.49 0.29
6 -3 11 0.57 0.39
-6 3 -11 0.59 0.34
6 3 11 1.53 0.39
-6 3 -11 0.78 0.34
6 3 11 0.77 0.41
7 -3 11 1.97 0.39
-7 -3 -11 2.71 0.52
7 -3 11 2.86 0.56
7 3 11 2.64 0.56
7 3 11 2.58 0.51
-7 3 -11 1.91 0.48
-7 3 -11 2.81 0.52
-8 -3 -11 2.19 0.52
8 -3 11 1.66 0.38
8 -3 11 2 0.54
8 3 11 1.95 0.51
8 3 11 1.36 0.57
-8 3 -11 1.4 0.48
-8 3 -11 2.29 0.52
8 -4 -11 0.41 0.36
8 -4 -11 0.48 0.28
8 4 -11 0.32 0.22
-8 4 11 0.08 0.39
-8 4 11 0.74 0.42
8 4 -11 -0.06 0.25
8 4 -11 -0.06 0.28
7 -4 -11 0.08 0.29
7 -4 -11 0.25 0.21
-7 -4 11 0.14 0.3
-7 4 11 -0.25 0.35
-7 4 11 -0.05 0.31
7 4 -11 -0.09 0.2
7 4 -11 -0.38 0.22
7 4 -11 -0.27 0.2
7 4 -11 0.35 0.22
6 -4 -11 0.72 0.25
-6 -4 11 0.59 0.29
6 -4 -11 0.61 0.3
-6 -4 11 0.73 0.3
6 4 -11 0.58 0.22
6 4 -11 0.6 0.25
6 4 -11 0.61 0.25
-6 4 11 0.6 0.37
-6 4 11 0.14 0.31
-5 -4 11 3.72 0.44
5 -4 -11 3.94 0.47
5 -4 -11 4.37 0.42
-5 -4 11 3.97 0.44
-5 4 11 3.95 0.54
5 4 -11 4.18 0.37
-5 4 11 4.21 0.52
5 4 -11 3.89 0.44
5 4 -11 3.34 0.38
-4 -4 11 1.75 0.29
4 -4 -11 1.23 0.27
-4 -4 11 1.37 0.29
4 -4 -11 1.21 0.26
4 4 -11 1.92 0.26
-4 4 11 1.84 0.32
4 4 -11 1.89 0.31
4 4 -11 1.03 0.25
-4 4 11 1.36 0.35
-3 -4 11 3.56 0.33
3 -4 -11 3.43 0.36
3 -4 -11 3.17 0.19
-3 -4 11 3.09 0.37
3 -4 -11 3.24 0.36
3 4 -11 2.68 0.24
-3 4 11 3.08 0.46
3 4 -11 3.52 0.37
-3 4 11 3.05 0.16
3 4 -11 2.99 0.25
-3 4 11 3.2 0.39
3 4 -11 3.63 0.36
2 -4 -11 8.46 0.46
2 -4 -11 8.35 0.42
2 -4 -11 8.03 0.36
-2 -4 11 8.83 0.5
-2 -4 11 7.59 0.4
2 4 -11 8.87 0.31
2 4 -11 8.16 0.48
2 4 -11 7.99 0.31
-2 4 11 8.32 0.44
2 4 -11 7.93 0.44
-2 4 11 7.56 0.56
-2 4 11 7.91 0.33
-1 -4 11 15.1 0.53
-1 -4 11 15.54 0.42
1 -4 -11 15.4 0.59
1 -4 -11 15.01 0.54
-1 -4 11 14.78 0.61
-1 4 11 15.85 0.73
1 4 -11 14.56 0.56
1 4 -11 15.47 0.64
-1 4 11 15.11 0.57
1 4 -11 15 0.43
0 -4 -11 10.08 0.49
0 -4 11 9.28 0.5
0 -4 -11 9.58 0.47
0 -4 11 9.81 0.35
0 -4 11 9.33 0.45
0 4 -11 9.12 0.44
0 4 11 9.3 0.39
0 4 11 9.83 0.47
0 4 -11 9.57 0.37
0 4 -11 10.07 0.54
0 4 11 9.96 0.6
-1 -4 -11 7.44 0.31
-1 -4 -11 7.7 0.42
1 -4 11 7.88 0.44
-1 -4 -11 7.5 0.49
1 -4 11 7.93 0.38
1 -4 11 7.7 0.46
1 4 11 7.11 0.44
-1 4 -11 7.74 0.4
1 4 11 7.88 0.57
-1 4 -11 8.22 0.54
1 4 11 7.52 0.33
-1 4 -11 7.67 0.39
2 -4 11 25.34 0.84
2 -4 11 27.93 0.88
-2 -4 -11 26.8 0.76
-2 -4 -11 26.05 0.61
-2 -4 -11 26.06 0.91
-2 4 -11 25.19 0.83
2 4 11 25.84 0.61
-2 4 -11 24.6 0.91
2 4 11 25.99 0.86
-2 4 -11 26.78 0.71
2 4 11 28.24 1
-3 -4 -11 44.06 1.31
3 -4 11 45.11 1.23
-3 -4 -11 46.47 1.09
3 -4 11 46.27 1.28
3 4 11 44.84 0.9
3 4 11 45.46 1.4
3 4 11 47.07 1.3
-3 4 -11 46.2 1.27
-3 4 -11 46.07 1.35
-3 4 -11 44.11 0.99
-4 -4 -11 31.66 0.84
-4 -4 -11 31.71 1.1
4 -4 11 31.7 1.03
4 -4 11 30.14 1.08
4 4 11 32.42 1.1
-4 4 -11 31.55 1.16
-4 4 -11 32.19 1.1
4 4 11 32.3 1.18
-5 -4 -11 32.39 1.2
5 -4 11 33.17 1.22
5 -4 11 33.66 1.11
-5 -4 -11 34.22 0.85
-5 4 -11 33.27 1.24
-5 4 -11 33.37 1.23
5 4 11 33.56 1.3
5 4 11 34.13 1.21
-6 -4 -11 8.82 0.73
6 -4 11 9.45 0.78
6 -4 11 9.91 0.67
6 4 11 9.16 0.74
-6 4 -11 9.19 0.74
6 4 11 8.38 0.79
-6 4 -11 10.34 0.75
-7 -4 -11 5.07 0.65
7 -4 11 4.08 0.63
7 -4 11 4.41 0.57
-7 4 -11 4.49 0.68
-7 4 -11 3.81 0.58
7 4 11 4.3 0.66
7 4 11 3.6 0.57
8 -5 -11 0.38 0.34
8 5 -11 0.22 0.24
8 5 -11 0.02 0.26
8 5 -11 0.22 0.27
-8 5 11 -0.63 0.36
-8 5 11 0 0.36
8 5 -11 0.83 0.27
7 -5 -11 0.03 0.29
7 -5 -11 -0.31 0.2
7 5 -11 -0.12 0.22
7 5 -11 0.1 0.22
-7 5 11 -0.06 0.35
7 5 -11 -0.49 0.2
-7 5 11 -0.32 0.37
7 5 -11 0.46 0.23
-6 -5 11 0.13 0.26
6 -5 -11 0.27 0.23
-6 -5 11 0.4 0.27
6 -5 -11 0.55 0.29
6 5 -11 0.2 0.21
6 5 -11 -0.07 0.23
-6 5 11 0.26 0.34
6 5 -11 -0.13 0.19
-6 5 11 -0.08 0.31
-5 -5 11 2.56 0.36
5 -5 -11 2.66 0.4
5 -5 -11 2.62 0.39
-5 -5 11 2.53 0.38
5 5 -11 2.3 0.35
5 5 -11 3.32 0.41
-5 5 11 3.43 0.51
5 5 -11 2.16 0.3
-5 5 11 2.91 0.46
-4 -5 11 0.36 0.21
-4 -5 11 -0.1 0.21
4 -5 -11 0.45 0.24
4 -5 -11 0.09 0.2
-4 5 11 0 0.3
4 5 -11 0.22 0.21
-4 5 11 0.25 0.26
4 5 -11 0.04 0.16
4 5 -11 0.8 0.27
-3 -5 11 1.54 0.23
3 -5 -11 1.62 0.28
3 -5 -11 1.66 0.28
-3 -5 11 1.64 0.29
-3 5 11 1.32 0.35
3 5 -11 1.18 0.2
-3 5 11 1.61 0.31
3 5 -11 1.08 0.27
3 5 -11 1.35 0.2
-2 -5 11 8.34 0.49
2 -5 -11 8.38 0.44
-2 -5 11 8.39 0.39
2 -5 -11 8.11 0.47
2 -5 -11 8.53 0.35
-2 -5 11 8.75 0.53
-2 5 11 8.94 0.61
2 5 -11 8.61 0.4
-2 5 11 9.03 0.35
-2 5 11 8.63 0.5
2 5 -11 9.21 0.38
2 5 -11 8.76 0.52
1 -5 -11 10.95 0.51
-1 -5 11 10.07 0.38
1 -5 -11 10.67 0.46
1 -5 -11 11.93 0.45
-1 -5 11 10.98 0.43
-1 -5 11 10.83 0.55
-1 -5 11 10.84 0.51
1 5 -11 10.59 0.42
-1 5 11 10.8 0.54
-1 5 11 9.97 0.63
1 5 -11 10.99 0.58
1 5 -11 10.46 0.42
0 -5 11 0.67 0.15
0 -5 11 0.57 0.21
0 -5 -11 0.23 0.18
0 -5 -11 0.34 0.14
0 -5 11 0.28 0.16
0 -5 11 0.77 0.21
0 -5 -11 0.37 0.2
0 5 11 0.73 0.23
0 5 -11 0.65 0.16
0 5 11 0.78 0.3
0 5 -11 0.38 0.16
0 5 -11 0.52 0.24
-1 -5 -11 2.41 0.19
1 -5 11 1.85 0.31
-1 -5 -11 2.35 0.32
-1 -5 -11 2.33 0.2
-1 -5 -11 1.5 0.28
1 -5 11 2.19 0.29
1 5 11 1.85 0.29
-1 5 -11 2.09 0.31
-1 5 -11 2.1 0.35
1 5 11 1.5 0.35
2 -5 11 6.92 0.45
-2 -5 -11 6.69 0.51
-2 -5 -11 5.66 0.4
2 -5 11 5.54 0.47
-2 -5 -11 5.69 0.22
2 5 11 6.94 0.58
2 5 11 6.41 0.48
-2 5 -11 6.36 0.36
-2 5 -11 6.62 0.54
-2 5 -11 6.38 0.46
-3 -5 -11 13.51 0.56
3 -5 11 14.45 0.66
-3 -5 -11 12.78 0.71
3 -5 11 14.9 0.7
-3 5 -11 13.86 0.69
-3 5 -11 14.86 0.77
3 5 11 14.66 0.83
3 5 11 13.02 0.68
-3 5 -11 13.53 0.46
-4 -5 -11 17.72 0.86
4 -5 11 19.24 0.81
4 -5 11 17.5 0.82
-4 -5 -11 17.09 0.62
4 5 11 16.44 0.89
-4 5 -11 18.68 0.86
4 5 11 16.68 0.82
-4 5 -11 17.74 0.89
-5 -5 -11 7.99 0.41
-5 -5 -11 6.72 0.66
5 -5 11 7.89 0.63
5 -5 11 8.06 0.67
5 5 11 6.69 0.66
-5 5 -11 7.13 0.66
5 5 11 6.91 0.7
-5 5 -11 7.39 0.64
-6 -5 -11 12.83 0.83
6 -5 11 12.29 0.75
6 -5 11 11.45 0.82
6 5 11 11.64 0.91
-6 5 -11 12.55 0.86
-6 5 -11 10.84 0.81
6 5 11 10.92 0.83
-7 -5 -11 6.45 0.72
7 -5 11 8.89 0.7
7 -5 11 9.12 0.82
-7 5 -11 7.94 0.8
-7 5 -11 8.24 0.76
7 5 11 6.22 0.78
7 5 11 9.07 0.92
8 -6 -11 -0.07 0.33
8 6 -11 0.13 0.25
-8 6 11 0.4 0.42
8 6 -11 0.38 0.22
8 6 -11 0.1 0.25
-8 6 11 1.1 0.48
7 -6 -11 2.63 0.47
-7 -6 11 1.75 0.38
7 -6 -11 1.74 0.34
-7 6 11 1.56 0.52
7 6 -11 2.02 0.39
-7 6 11 1.68 0.46
7 6 -11 1.42 0.34
6 -6 -11 0.37 0.26
6 -6 -11 0.12 0.3
-6 -6 11 -0.05 0.24
6 6 -11 -0.35 0.16
-6 6 11 0.05 0.35
6 6 -11 0.2 0.22
-6 6 11 0.2 0.36
6 6 -11 -0.11 0.22
6 6 -11 0.25 0.27
-5 -6 11 2.49 0.38
-5 -6 11 3.31 0.37
5 -6 -11 2.64 0.36
5 -6 -11 3.04 0.42
5 6 -11 2.23 0.34
-5 6 11 2.56 0.47
-5 6 11 2.77 0.49
5 6 -11 2.54 0.39
-4 -6 11 6.5 0.52
-4 -6 11 5.35 0.47
-4 -6 11 6.39 0.39
4 -6 -11 6.06 0.48
4 -6 -11 5.69 0.47
-4 6 11 5.83 0.6
4 6 -11 5.87 0.53
4 6 -11 5.91 0.41
-4 6 11 4.9 0.56
3 -6 -11 6.8 0.48
3 -6 -11 7.29 0.48
-3 -6 11 6.41 0.48
-3 -6 11 6.79 0.35
-3 -6 11 7.16 0.52
-3 6 11 7.28 0.64
3 6 -11 6.48 0.51
3 6 -11 7.67 0.41
-3 6 11 6.02 0.55
-2 -6 11 13.91 0.65
2 -6 -11 14.66 0.46
-2 -6 11 13.85 0.62
2 -6 -11 13.53 0.62
-2 -6 11 14.46 0.46
2 -6 -11 14.12 0.58
2 6 -11 14.59 0.68
-2 6 11 15.26 0.78
2 6 -11 14.71 0.54
-2 6 11 14.78 0.69
-1 -6 11 2.03 0.3
-1 -6 11 1.9 0.21
1 -6 -11 2.01 0.26
1 -6 -11 1.86 0.25
-1 -6 11 2.37 0.32
1 -6 -11 2.22 0.33
1 6 -11 1.8 0.25
1 6 -11 1.48 0.31
-1 6 11 1.77 0.33
1 6 -11 1.76 0.21
-1 6 11 1.72 0.37
0 -6 -11 20.98 0.73
0 -6 11 20.8 0.6
0 -6 11 20.54 0.78
0 -6 11 20.56 0.72
0 -6 -11 20.97 0.59
0 -6 -11 21.77 0.73
0 6 -11 20.78 0.83
0 6 11 19.73 0.78
0 6 -11 20.44 0.58
0 6 -11 20.04 0.69
0 6 11 20.8 0.87
-1 -6 -11 40.09 1.08
-1 -6 -11 39.22 0.83
-1 -6 -11 40.15 1.13
1 -6 11 39.79 1.15
1 -6 11 41.57 1.05
1 -6 11 38.45 1
1 6 11 39.45 1.27
-1 6 -11 40.01 1.21
-1 6 -11 38.82 1.09
1 6 11 40.94 1.18
-2 -6 -11 18.13 0.67
2 -6 11 17.75 0.66
2 -6 11 17.56 0.76
-2 -6 -11 17.17 0.76
-2 6 -11 17.88 0.74
2 6 11 18.34 0.89
-2 6 -11 16.51 0.8
2 6 11 15.57 0.75
-3 -6 -11 5.17 0.42
3 -6 11 5.82 0.47
-3 -6 -11 6.22 0.54
3 -6 11 5.28 0.5
3 6 11 6.39 0.55
-3 6 -11 5.23 0.33
-3 6 -11 5.43 0.55
3 6 11 5.25 0.58
-3 6 -11 5.84 0.53
-4 -6 -11 6.56 0.44
4 -6 11 7.31 0.57
-4 -6 -11 7.16 0.61
4 -6 11 6.81 0.56
4 6 11 7.97 0.73
-4 6 -11 7.27 0.65
-4 6 -11 6.98 0.63
4 6 11 7.26 0.62
-5 -6 -11 6.18 0.65
5 -6 11 6.5 0.61
5 -6 11 6.58 0.63
-5 -6 -11 6.06 0.4
-5 6 -11 6.27 0.67
-5 6 -11 6.09 0.64
5 6 11 5.69 0.73
5 6 11 7.23 0.65
6 -6 11 3.13 0.48
6 -6 11 2.85 0.5
-6 -6 -11 3.3 0.56
-6 6 -11 3.05 0.53
6 6 11 2.66 0.57
-6 6 -11 3.27 0.54
6 6 11 3.08 0.51
7 -6 11 2.05 0.47
7 -6 11 1.73 0.48
-7 -6 -11 2.21 0.51
7 6 11 2.25 0.51
-7 6 -11 1.84 0.46
7 6 11 2.05 0.58
-7 6 -11 1.78 0.5
-8 7 11 0.69 0.5
7 -7 -11 0.01 0.24
7 -7 -11 -0.07 0.32
-7 -7 11 0.04 0.27
7 7 -11 -0.54 0.22
-7 7 11 -0.3 0.41
-7 7 11 0.22 0.4
7 7 -11 -0.08 0.28
6 -7 -11 0.96 0.36
6 -7 -11 0.75 0.29
-6 -7 11 1.06 0.33
6 7 -11 0.67 0.27
6 7 -11 0.73 0.31
-6 7 11 1.14 0.42
-6 7 11 0.78 0.41
-5 -7 11 5.17 0.52
5 -7 -11 4.8 0.49
5 -7 -11 4.84 0.52
-5 -7 11 5.38 0.51
5 7 -11 5.2 0.55
5 7 -11 5.58 0.45
-5 7 11 5.21 0.67
-5 7 11 5.45 0.66
4 -7 -11 1.19 0.3
-4 -7 11 1.38 0.31
-4 -7 11 1.37 0.31
4 -7 -11 1.09 0.3
4 7 -11 0.73 0.28
4 7 -11 1.05 0.26
-4 7 11 1.68 0.42
-4 7 11 1.64 0.42
3 -7 -11 11.66 0.6
-3 -7 11 10.83 0.6
-3 -7 11 10.22 0.59
3 -7 -11 11.35 0.58
3 7 -11 10.95 0.65
3 7 -11 11.09 0.55
-3 7 11 10.21 0.69
-3 7 11 10.4 0.7
2 -7 -11 4.46 0.3
2 -7 -11 4.7 0.39
-2 -7 11 5 0.46
-2 -7 11 4.41 0.43
2 -7 -11 4.89 0.43
2 7 -11 4.66 0.4
-2 7 11 4.59 0.53
-2 7 11 4.17 0.52
2 7 -11 4.31 0.46
-1 -7 11 0.73 0.27
1 -7 -11 0.49 0.21
-1 -7 11 0.47 0.23
1 -7 -11 0.4 0.18
1 -7 -11 0.69 0.2
-1 7 11 0.29 0.3
-1 7 11 0.7 0.3
1 7 -11 1 0.31
1 7 -11 0.55 0.21
0 -7 -11 2.15 0.32
0 -7 11 2.26 0.34
0 -7 -11 3.06 0.4
0 -7 11 2.56 0.2
0 -7 -11 2.83 0.26
0 -7 11 2.63 0.37
0 7 -11 3.09 0.37
0 7 11 2.99 0.44
0 7 -11 2.85 0.43
0 7 11 2.2 0.4
1 -7 11 28.51 0.98
1 -7 11 29.27 0.78
-1 -7 -11 28.35 0.64
-1 -7 -11 28.64 0.9
1 -7 11 29.85 0.89
-1 -7 -11 28.46 0.95
1 7 11 29.4 1.1
1 7 11 29.25 1.04
-1 7 -11 28.97 0.93
-1 7 -11 29.12 1.05
2 -7 11 8.98 0.47
-2 -7 -11 10.31 0.56
2 -7 11 10.69 0.62
-2 -7 -11 11.12 0.63
2 -7 11 11.99 0.54
2 7 11 9.82 0.74
-2 7 -11 11.72 0.64
-2 7 -11 10.66 0.69
2 7 11 10.15 0.65
3 -7 11 14.66 0.65
3 -7 11 13.95 0.73
-3 -7 -11 14.03 0.62
-3 -7 -11 13.61 0.74
3 7 11 13.5 0.77
-3 7 -11 13.87 0.77
-3 7 -11 15.12 0.78
3 7 11 14.57 0.85
-4 -7 -11 12.79 0.8
4 -7 11 14.41 0.8
-4 -7 -11 13.26 0.61
4 -7 11 13.66 0.72
-4 7 -11 15.46 0.83
4 7 11 13.75 0.81
4 7 11 14.94 0.93
-4 7 -11 14.56 0.86
5 -7 11 4.02 0.56
-5 -7 -11 3.82 0.56
5 -7 11 3.57 0.5
-5 -7 -11 4.31 0.41
-5 7 -11 3.14 0.52
-5 7 -11 3.78 0.54
5 7 11 4.05 0.61
5 7 11 4.72 0.62
6 -7 11 0.82 0.39
6 -7 11 1.65 0.42
-6 -7 -11 1.59 0.43
6 7 11 1.56 0.45
6 7 11 1.19 0.48
-6 7 -11 2.03 0.51
-6 7 -11 2.25 0.47
7 -7 11 3.86 0.61
7 -7 11 5.33 0.68
-7 7 -11 4.15 0.62
7 7 11 4.62 0.69
7 7 11 3.9 0.65
-7 7 -11 4.74 0.75
-7 -8 11 -0.21 0.27
7 -8 -11 -0.29 0.25
7 -8 -11 -0.35 0.33
-7 8 11 0.51 0.43
7 8 -11 -0.09 0.27
7 8 -11 -0.19 0.3
-7 8 11 0.27 0.46
6 -8 -11 0.01 0.25
-6 -8 11 -0.03 0.28
6 -8 -11 -0.18 0.29
-6 -8 11 0.08 0.26
6 8 -11 -0.12 0.26
-6 8 11 0.03 0.38
-6 8 11 -0.15 0.35
5 -8 -11 1.2 0.35
-5 -8 11 1.39 0.35
-5 -8 11 1.59 0.36
5 -8 -11 0.94 0.3
5 8 -11 0.59 0.3
-5 8 11 0.93 0.44
-5 8 11 1.33 0.45
5 8 -11 1.13 0.3
-4 -8 11 0.62 0.28
-4 -8 11 1.35 0.34
4 -8 -11 0.99 0.3
4 -8 -11 0.62 0.27
-4 8 11 0.79 0.39
4 8 -11 1.05 0.27
-4 8 11 0.05 0.36
4 8 -11 0.84 0.33
3 -8 -11 -0.12 0.22
3 -8 -11 -0.07 0.22
-3 -8 11 0.23 0.26
-3 -8 11 0.29 0.23
-3 8 11 0.52 0.35
3 8 -11 0.29 0.27
-3 8 11 0.49 0.32
3 8 -11 0.3 0.23
2 -8 -11 3.77 0.31
-2 -8 11 3.66 0.44
2 -8 -11 3.14 0.39
-2 -8 11 3.24 0.45
2 -8 -11 3.38 0.45
2 8 -11 4.16 0.42
2 8 -11 3.78 0.48
-2 8 11 4.33 0.57
-2 8 11 3.94 0.58
1 -8 -11 0.23 0.18
-1 -8 11 0.11 0.24
-1 -8 11 0.51 0.26
1 -8 -11 0.33 0.19
1 -8 -11 0.11 0.24
-1 8 11 0.24 0.31
1 8 -11 0.24 0.21
-1 8 11 -0.12 0.28
1 8 -11 0.14 0.27
0 -8 -11 0.53 0.25
0 -8 -11 0.59 0.16
0 -8 -11 0.33 0.24
0 -8 11 0.27 0.23
0 -8 11 0.77 0.29
0 8 -11 0.02 0.25
0 8 -11 0.58 0.24
0 8 11 0.84 0.32
0 8 11 0.4 0.33
1 -8 11 0.24 0.22
-1 -8 -11 -0.14 0.2
-1 -8 -11 0.51 0.26
1 -8 11 -0.07 0.23
1 8 11 0.48 0.29
-1 8 -11 0.42 0.29
1 8 11 0.1 0.31
-1 8 -11 0.12 0.24
-2 -8 -11 1.49 0.32
2 -8 11 1.65 0.28
-2 -8 -11 1.05 0.31
2 -8 11 1.35 0.33
-2 8 -11 1.67 0.36
2 8 11 1.47 0.37
-2 8 -11 1.21 0.38
2 8 11 1.29 0.39
-3 -8 -11 -0.03 0.27
3 -8 11 0.29 0.27
3 -8 11 -0.39 0.16
-3 -8 -11 0.11 0.21
3 8 11 0.09 0.36
-3 8 -11 -0.19 0.29
-3 8 -11 0.8 0.31
3 8 11 -0.56 0.26
-4 -8 -11 0.95 0.27
-4 -8 -11 1.25 0.38
4 -8 11 0.08 0.3
4 8 11 1.07 0.42
-4 8 -11 0.57 0.35
-4 8 -11 0.87 0.41
4 8 11 0.79 0.38
-5 -8 -11 -0.42 0.27
5 -8 11 0.14 0.31
-5 -8 -11 0.52 0.23
-5 8 -11 0.05 0.34
-5 8 -11 0.09 0.34
5 8 11 0.41 0.34
5 8 11 -0.18 0.4
6 -8 11 -0.7 0.29
-6 -8 -11 -0.24 0.31
6 8 11 -0.14 0.41
6 8 11 0.1 0.36
-6 8 -11 0.05 0.32
-6 8 -11 0.18 0.36
6 -9 -11 0.81 0.34
-6 -9 11 0.76 0.31
6 -9 -11 0.63 0.37
-6 -9 11 0.66 0.34
-6 9 11 1.82 0.55
6 9 -11 0.7 0.35
-6 9 11 1.25 0.45
-5 -9 11 0.6 0.3
5 -9 -11 0 0.31
-5 -9 11 0.16 0.25
5 -9 -11 0.24 0.29
-5 9 11 0.54 0.4
-5 9 11 0.1 0.38
5 9 -11 -0.21 0.28
4 -9 -11 4.85 0.53
-4 -9 11 4.32 0.53
4 -9 -11 3.99 0.53
-4 -9 11 3.42 0.48
-4 9 11 3.41 0.57
4 9 -11 4.24 0.51
4 9 -11 3.71 0.52
-4 9 11 3.68 0.56
-3 -9 11 6.62 0.56
3 -9 -11 6.88 0.54
-3 -9 11 7.1 0.58
3 -9 -11 6.64 0.55
-3 9 11 6.15 0.72
3 9 -11 7.16 0.56
3 9 -11 6.43 0.6
-3 9 11 8.22 0.71
2 -9 -11 0.39 0.24
2 -9 -11 0.48 0.3
-2 -9 11 0.31 0.26
-2 -9 11 0.29 0.26
2 9 -11 0.39 0.26
-2 9 11 0.41 0.35
2 9 -11 0.17 0.29
-2 9 11 0.34 0.34
-1 -9 11 1.55 0.33
-1 -9 11 0.44 0.28
1 -9 -11 1.26 0.25
1 -9 -11 0.9 0.25
1 -9 -11 0.84 0.27
-1 9 11 1.86 0.42
1 9 -11 1.13 0.3
-1 9 11 1.52 0.41
1 9 -11 1.56 0.38
0 -9 -11 4.35 0.46
0 -9 11 4.09 0.49
0 -9 -11 5.02 0.45
0 -9 11 3.33 0.45
0 9 11 4.47 0.57
0 9 -11 4.53 0.52
0 9 -11 4.54 0.53
0 9 11 4.73 0.6
1 -9 11 2.3 0.41
-1 -9 -11 1.89 0.35
-1 -9 -11 2.09 0.37
1 -9 11 2.18 0.36
1 9 11 1.45 0.39
1 9 11 1.46 0.4
-1 9 -11 2.34 0.43
-1 9 -11 1.85 0.38
2 -9 11 2.38 0.34
-2 -9 -11 1.93 0.34
-2 -9 -11 2.3 0.41
2 -9 11 2.53 0.43
-2 9 -11 2.12 0.41
-2 9 -11 2.2 0.43
2 9 11 1.47 0.41
2 9 11 3.27 0.53
-3 -9 -11 11.15 0.74
3 -9 11 11.42 0.57
3 -9 11 12.2 0.75
-3 -9 -11 10.41 0.64
-3 9 -11 11.71 0.78
3 9 11 13.24 0.87
-3 9 -11 12.57 0.81
3 9 11 11.43 0.8
-4 -9 -11 4.06 0.61
-4 -9 -11 3.83 0.45
4 -9 11 3.46 0.5
-4 9 -11 4.35 0.61
4 9 11 3.84 0.61
-4 9 -11 2.4 0.49
4 9 11 3.48 0.55
-5 -9 -11 0.31 0.37
5 -9 11 0.1 0.34
-5 -9 -11 0.36 0.25
5 9 11 0.05 0.36
5 9 11 0.75 0.44
-5 9 -11 0.07 0.34
-5 9 -11 0.38 0.35
-6 9 -11 0.54 0.42
6 -10 -11 0.28 0.3
6 -10 -11 0.45 0.39
-6 -10 11 0.96 0.36
6 10 -11 0.98 0.38
-6 10 11 1.47 0.55
-6 10 11 0.58 0.41
-5 -10 11 0.44 0.29
5 -10 -11 0.72 0.39
5 -10 -11 0.28 0.31
-5 -10 11 0.13 0.29
5 10 -11 0.46 0.34
-5 10 11 0.49 0.41
-5 10 11 0.02 0.38
-4 -10 11 0.96 0.32
-4 -10 11 1.43 0.35
4 -10 -11 1.84 0.39
4 -10 -11 1.38 0.37
-4 10 11 1.99 0.49
4 10 -11 1.52 0.41
-4 10 11 1.29 0.43
-3 -10 11 3.46 0.49
-3 -10 11 4.09 0.56
3 -10 -11 4.56 0.53
3 -10 -11 4.56 0.54
3 10 -11 4.15 0.54
-3 10 11 4.52 0.68
-3 10 11 6 0.67
3 10 -11 4.63 0.58
-2 -10 11 2.79 0.42
-2 -10 11 2.6 0.41
2 -10 -11 3.37 0.45
2 -10 -11 2.21 0.4
-2 10 11 2.48 0.5
-2 10 11 3.13 0.52
2 10 -11 2.75 0.47
2 10 -11 3.26 0.49
-1 -10 11 8.78 0.64
-1 -10 11 10.05 0.65
1 -10 -11 9.42 0.64
-1 10 11 9.44 0.77
1 10 -11 8.37 0.61
-1 10 11 9.78 0.71
1 10 -11 8.13 0.67
0 -10 11 6.38 0.54
0 -10 -11 5.29 0.55
0 -10 -11 5.79 0.51
0 -10 11 5.16 0.56
0 10 11 5.9 0.7
0 10 11 6.21 0.64
0 10 -11 6.64 0.63
0 10 -11 7.26 0.61
1 -10 11 12.63 0.68
1 -10 11 10.94 0.7
-1 -10 -11 11.26 0.66
-1 -10 -11 11.66 0.68
1 10 11 12.2 0.82
-1 10 -11 10.64 0.8
1 10 11 12.4 0.83
-1 10 -11 12.21 0.76
2 -10 11 8.03 0.68
-2 -10 -11 8.19 0.6
-2 -10 -11 8.07 0.64
2 -10 11 8.27 0.55
2 10 11 9.41 0.76
-2 10 -11 8.16 0.69
2 10 11 8.14 0.73
-2 10 -11 7.66 0.69
-3 -10 -11 12.69 0.81
-3 -10 -11 13.79 0.74
3 -10 11 13.98 0.82
3 10 11 13.63 0.91
3 10 11 13.9 0.93
-3 10 -11 14.13 0.9
-3 10 -11 15.74 0.94
4 -10 11 2.47 0.46
-4 -10 -11 3.4 0.54
-4 -10 -11 3.3 0.47
-4 10 -11 3.66 0.57
4 10 11 2.4 0.52
4 10 11 2.53 0.54
-4 10 -11 2.37 0.52
5 -10 11 0.62 0.41
-5 -10 -11 0.47 0.39
-5 -10 -11 0.82 0.3
-5 10 -11 1.36 0.42
5 10 11 0.64 0.47
-5 10 -11 0.64 0.4
5 10 11 0.58 0.44
5 -11 -11 1.14 0.38
-5 -11 11 1.77 0.41
5 -11 -11 0.91 0.41
5 11 -11 0.76 0.38
-5 11 11 1.89 0.52
-5 11 11 1.03 0.48
-4 -11 11 2.5 0.45
4 -11 -11 2.41 0.46
4 -11 -11 2.02 0.41
-4 -11 11 1.98 0.4
-4 11 11 1.44 0.49
-4 11 11 2.18 0.51
4 11 -11 2.41 0.5
3 -11 -11 2.7 0.45
-3 -11 11 2.36 0.42
3 -11 -11 1.69 0.38
-3 -11 11 2.43 0.45
3 11 -11 1.96 0.46
-3 11 11 3.03 0.53
3 11 -11 2.45 0.49
-3 11 11 2.85 0.59
2 -11 -11 3.9 0.55
-2 -11 11 3.55 0.48
-2 -11 11 4.34 0.57
2 11 -11 3.93 0.59
-2 11 11 3.63 0.6
2 11 -11 5.33 0.61
-2 11 11 4.16 0.6
-1 -11 11 6.73 0.61
1 -11 -11 6.32 0.61
-1 -11 11 7.38 0.62
-1 11 11 5.94 0.65
-1 11 11 6.51 0.76
1 11 -11 7.42 0.65
1 11 -11 6.26 0.69
0 -11 11 9.79 0.67
0 -11 -11 9.75 0.6
0 -11 11 9.3 0.64
0 -11 -11 9.81 0.66
0 11 -11 10.27 0.75
0 11 -11 9.65 0.73
0 11 11 8.78 0.82
0 11 11 8.36 0.74
1 -11 11 13.67 0.73
-1 -11 -11 12.74 0.75
1 -11 11 13.47 0.78
-1 -11 -11 13.58 0.77
1 11 11 13.87 0.86
-1 11 -11 13.41 0.86
1 11 11 10.73 0.87
-1 11 -11 13.11 0.85
-2 -11 -11 5.17 0.61
2 -11 11 5.91 0.63
-2 -11 -11 5.1 0.57
2 -11 11 5.04 0.53
2 11 11 4.85 0.66
2 11 11 5 0.68
-2 11 -11 6.37 0.68
-2 11 -11 4.31 0.62
3 -11 11 2.29 0.46
-3 -11 -11 1.83 0.37
-3 -11 -11 1.43 0.42
-3 11 -11 1.73 0.47
3 11 11 1.22 0.48
3 11 11 1.38 0.46
-3 11 -11 1.09 0.45
4 -11 11 1.09 0.4
-4 -11 -11 0.71 0.4
-4 -11 -11 0.84 0.32
-4 11 -11 0.3 0.38
4 11 11 1.32 0.47
-4 11 -11 0.75 0.4
4 11 11 0.08 0.4
4 -12 -11 0.11 0.32
4 -12 -11 -0.32 0.28
-4 12 11 0.91 0.49
-4 12 11 0.79 0.41
3 -12 -11 0.28 0.32
-3 -12 11 0.39 0.29
-3 -12 11 -0.21 0.3
-3 12 11 -0.1 0.43
3 12 -11 -0.05 0.34
-3 12 11 0.37 0.38
2 -12 -11 0.83 0.36
-2 -12 11 1 0.36
-2 -12 11 0.69 0.34
-2 12 11 0.73 0.4
-2 12 11 0.81 0.44
2 12 -11 1.38 0.45
1 -12 -11 0.93 0.36
-1 -12 11 0.87 0.35
-1 -12 11 0.1 0.29
1 12 -11 1 0.42
1 12 -11 0.94 0.37
-1 12 11 0.53 0.39
-1 12 11 0.07 0.39
0 -12 -11 2.11 0.44
0 -12 11 3.67 0.53
0 -12 11 3.27 0.46
0 12 11 1.82 0.54
0 12 -11 2.11 0.47
0 12 11 2.39 0.46
0 12 -11 1.78 0.46
1 -12 11 2.26 0.4
-1 -12 -11 2.21 0.44
1 -12 11 2.26 0.46
-1 -12 -11 2.25 0.41
1 12 11 2.08 0.52
-1 12 -11 2.67 0.49
-1 12 -11 1.78 0.47
1 12 11 1.61 0.45
-2 -12 -11 0.13 0.32
2 -12 11 0.08 0.27
-2 -12 -11 0.21 0.29
2 -12 11 0.66 0.35
-2 12 -11 0.31 0.34
2 12 11 0.63 0.44
-2 12 -11 0.15 0.34
-3 -12 -11 1.61 0.39
-3 -12 -11 1.47 0.49
3 -12 11 2.8 0.51
3 12 11 1.68 0.51
-3 12 -11 1.77 0.51
-3 12 -11 2.44 0.55
-2 -13 11 1.6 0.44
-2 -13 11 1.86 0.44
-2 13 11 1.96 0.56
-1 -13 11 7.84 0.68
-1 -13 11 10.24 0.75
1 -13 -11 8.04 0.73
1 13 -11 9.74 0.82
-1 13 11 9.49 0.94
0 -13 11 11.67 0.77
0 -13 -11 11.61 0.81
0 -13 11 13.36 0.86
0 13 -11 11.01 0.86
0 13 -11 13.28 0.9
0 13 11 13.15 1.03
1 -13 11 31.94 1.26
1 -13 11 32.07 1.19
-1 13 -11 30.83 1.36
1 13 11 34.76 1.51
-1 13 -11 31.94 1.37
-9 0 12 0.73 0.44
9 0 -12 -0.27 0.32
8 0 -12 1.16 0.36
8 0 -12 1.88 0.33
-8 0 12 1.29 0.46
-7 0 12 2.14 0.47
-7 0 12 1.8 0.37
7 0 -12 2.42 0.39
7 0 -12 2.34 0.35
6 0 -12 0.36 0.21
6 0 -12 0.69 0.27
-6 0 12 0.33 0.31
-6 0 12 0.47 0.24
-5 0 12 0.87 0.34
-5 0 12 1.01 0.29
-5 0 12 0.53 0.2
5 0 -12 1.37 0.28
5 0 -12 0.82 0.18
4 0 -12 -0.18 0.11
-4 0 12 0.21 0.14
-4 0 12 -0.12 0.19
-4 0 12 0.43 0.27
4 0 -12 0.06 0.15
4 0 -12 0.29 0.2
-3 0 12 3.5 0.43
3 0 -12 3.15 0.34
-3 0 12 3.67 0.39
-2 0 12 1.14 0.24
-2 0 12 1.1 0.28
2 0 -12 1.2 0.23
2 0 -12 0.77 0.2
1 0 -12 9.84 0.48
-1 0 12 8.07 0.44
1 0 -12 8.86 0.44
-1 0 12 8.62 0.52
0 0 -12 6.42 0.45
0 0 -12 6.56 0.38
0 0 12 6.9 0.49
0 0 12 7.08 0.4
1 0 12 10.54 0.4
1 0 12 11.99 0.5
1 0 12 10.97 0.39
1 0 12 11.16 0.59
-1 0 -12 11.33 0.58
-1 0 -12 10.79 0.45
-2 0 -12 -0.01 0.16
-2 0 -12 -0.08 0.21
-2 0 -12 0.63 0.16
2 0 12 0.27 0.18
2 0 12 0.08 0.23
-3 0 -12 7.33 0.57
3 0 12 7.78 0.43
3 0 12 7.33 0.57
-3 0 -12 8.53 0.49
-3 0 -12 7.36 0.34
-4 0 -12 32.6 1.14
4 0 12 32.3 0.91
4 0 12 32.39 1.16
-4 0 -12 31.76 0.73
-4 0 -12 31.88 1.07
-5 0 -12 2.08 0.43
-5 0 -12 1.95 0.39
5 0 12 2.65 0.48
5 0 12 2.6 0.36
6 0 12 20.85 0.78
6 0 12 20.1 1.06
-6 0 -12 20.89 1
-6 0 -12 22.11 1.04
7 0 12 6.6 0.79
-7 0 -12 7.24 0.72
-7 0 -12 6.79 0.7
-8 0 -12 2.59 0.51
-8 0 -12 2.12 0.49
8 0 12 1.57 0.62
9 -1 -12 7.03 0.67
-9 -1 12 6.58 0.76
9 1 -12 6.2 0.67
-9 1 12 6.53 0.83
-8 -1 12 1.58 0.48
8 -1 -12 2.07 0.34
8 -1 -12 2.27 0.43
8 1 -12 1.88 0.33
8 1 -12 1.88 0.4
-8 1 12 2.42 0.55
7 -1 -12 7.98 0.56
-7 -1 12 9.45 0.76
-7 -1 12 8.02 0.59
7 -1 -12 9.03 0.62
-7 1 12 8.35 0.64
-7 1 12 9.52 0.81
7 1 -12 7.83 0.62
7 1 -12 9.11 0.57
-6 -1 12 5.67 0.45
6 -1 -12 4.85 0.49
-6 -1 12 4.78 0.59
6 -1 -12 4.39 0.42
6 1 -12 4.66 0.47
-6 1 12 5.11 0.49
6 1 -12 4.74 0.37
-6 1 12 5.94 0.61
6 1 -12 4.74 0.48
5 -1 -12 6.88 0.33
5 -1 -12 6.55 0.48
-5 -1 12 6.38 0.57
-5 -1 12 6.95 0.4
-5 -1 12 6.77 0.52
5 -1 -12 7.36 0.5
5 1 -12 6.9 0.4
-5 1 12 7.26 0.6
5 1 -12 6.37 0.48
-5 1 12 7.26 0.45
4 -1 -12 0.91 0.17
4 -1 -12 0.49 0.15
4 -1 -12 1.05 0.18
4 -1 -12 1.06 0.24
-4 -1 12 0.78 0.29
-4 -1 12 0.84 0.26
4 1 -12 1.26 0.26
4 1 -12 0.61 0.14
-4 1 12 0.55 0.18
-4 1 12 0.76 0.32
-4 1 12 1.17 0.27
4 1 -12 1 0.2
3 -1 -12 2.03 0.3
3 -1 -12 1.98 0.26
-3 -1 12 1.49 0.29
3 -1 -12 1.78 0.18
-3 -1 12 2.05 0.29
-3 1 12 2.24 0.33
-3 1 12 1.83 0.34
3 1 -12 2.43 0.3
3 1 -12 2.37 0.33
-3 1 12 2.03 0.2
2 -1 -12 1.55 0.23
-2 -1 12 1.91 0.31
2 -1 -12 1.83 0.25
-2 -1 12 0.94 0.23
-2 1 12 1.56 0.3
2 1 -12 2.11 0.3
2 1 -12 1.89 0.27
-2 1 12 1.69 0.26
-1 -1 12 2.72 0.36
-1 -1 12 2.53 0.32
1 -1 -12 3.33 0.32
1 -1 -12 2.88 0.34
-1 1 12 3.03 0.33
1 1 -12 3.31 0.31
1 1 -12 2.58 0.36
-1 1 12 2.41 0.35
0 -1 -12 6.68 0.38
0 -1 12 7.17 0.47
0 -1 12 7.98 0.44
0 -1 -12 7.57 0.47
0 1 -12 8.35 0.49
0 1 12 7.46 0.4
0 1 12 7.55 0.52
0 1 -12 7.31 0.39
0 1 12 6.96 0.28
0 1 12 6.79 0.29
1 -1 12 0.17 0.21
1 -1 12 -0.03 0.16
-1 -1 -12 -0.18 0.19
-1 -1 -12 0.2 0.15
1 -1 12 0.13 0.11
1 1 12 0.12 0.12
-1 1 -12 -0.09 0.19
1 1 12 0.01 0.11
-1 1 -12 0.06 0.14
1 1 12 0.25 0.17
1 1 12 -0.24 0.22
-1 1 -12 0.05 0.12
-2 -1 -12 8.27 0.55
2 -1 12 8.05 0.45
2 -1 12 7.75 0.54
-2 -1 -12 8.56 0.39
2 1 12 8.46 0.41
2 1 12 7.56 0.57
-2 1 -12 8.84 0.38
-2 1 -12 8.31 0.57
2 1 12 8.34 0.42
-2 1 -12 8.99 0.44
3 -1 12 17.96 0.68
-3 -1 -12 19.55 0.56
-3 -1 -12 21.3 0.85
3 -1 12 19.63 0.83
3 1 12 17.23 0.61
-3 1 -12 18.97 0.54
-3 1 -12 18.85 0.84
3 1 12 17.52 0.82
-3 1 -12 18.36 0.71
-4 -1 -12 4.79 0.26
-4 -1 -12 5.31 0.54
4 -1 12 5.04 0.42
4 -1 12 4.98 0.56
-4 -1 -12 4.38 0.48
-4 1 -12 5.22 0.24
-4 1 -12 4.87 0.48
4 1 12 5.11 0.57
4 1 12 4.54 0.36
-4 1 -12 5.27 0.55
-5 -1 -12 0.19 0.27
-5 -1 -12 -0.01 0.28
5 -1 12 -0.04 0.21
5 -1 12 0.04 0.29
-5 1 -12 0.21 0.3
5 1 12 0.37 0.2
-5 1 -12 0.24 0.27
5 1 12 0.33 0.34
-6 -1 -12 4.92 0.6
6 -1 12 4.58 0.67
-6 -1 -12 5.14 0.61
6 -1 12 4.89 0.48
-6 1 -12 5.31 0.61
6 1 12 6.51 0.71
-6 1 -12 5.11 0.61
-7 -1 -12 0.69 0.37
-7 -1 -12 1.48 0.43
7 -1 12 1.64 0.53
-7 1 -12 1.23 0.42
-7 1 -12 0.88 0.37
7 1 12 0.73 0.46
-8 -1 -12 -0.04 0.34
8 -1 12 0.04 0.48
-8 -1 -12 0.26 0.35
-8 1 -12 0 0.37
-8 1 -12 -0.63 0.29
9 -2 -12 0.19 0.35
9 2 -12 -0.34 0.3
-9 2 12 -0.36 0.46
8 -2 -12 1.47 0.31
-8 -2 12 1.84 0.48
8 -2 -12 1.75 0.42
-8 2 12 1.59 0.45
8 2 -12 2.02 0.4
8 2 -12 2.28 0.36
-8 2 12 1.82 0.51
7 -2 -12 0.86 0.27
7 -2 -12 0.92 0.34
-7 -2 12 0.84 0.36
7 2 -12 0.52 0.28
7 2 -12 0.9 0.27
-7 2 12 0.24 0.37
-7 2 12 0.58 0.33
6 -2 -12 1.18 0.32
6 -2 -12 1.55 0.3
-6 -2 12 0.91 0.32
-6 -2 12 1.3 0.37
-6 2 12 0.71 0.36
6 2 -12 1.11 0.26
6 2 -12 0.69 0.28
-6 2 12 0.26 0.28
6 2 -12 0.96 0.23
5 -2 -12 2.34 0.35
-5 -2 12 2.99 0.42
5 -2 -12 1.94 0.3
-5 -2 12 2.98 0.41
-5 2 12 2.35 0.32
5 2 -12 2.41 0.29
5 2 -12 2.9 0.41
-5 2 12 2.47 0.42
5 2 -12 2.08 0.3
-4 -2 12 0.71 0.26
4 -2 -12 0.84 0.15
4 -2 -12 0.68 0.23
-4 -2 12 0.96 0.27
4 -2 -12 0.38 0.22
-4 2 12 0.57 0.3
4 2 -12 0.75 0.15
-4 2 12 0.53 0.19
4 2 -12 0.93 0.22
4 2 -12 0.84 0.23
-3 -2 12 0.02 0.19
3 -2 -12 0.16 0.14
-3 -2 12 -0.15 0.2
3 -2 -12 0.08 0.17
3 -2 -12 0.25 0.13
-3 2 12 -0.36 0.18
-3 2 12 0.04 0.09
-3 2 12 0.07 0.14
3 2 -12 0.15 0.16
3 2 -12 -0.08 0.16
-3 2 12 0.04 0.25
2 -2 -12 0.66 0.19
-2 -2 12 0.42 0.21
2 -2 -12 0.53 0.13
2 -2 -12 0.57 0.18
-2 -2 12 0.53 0.21
2 2 -12 0.4 0.19
2 2 -12 0.54 0.21
-2 2 12 0.7 0.26
-2 2 12 0.62 0.14
-2 2 12 0.47 0.21
1 -2 -12 20.39 0.67
1 -2 -12 20.07 0.66
-1 -2 12 19.21 0.69
-1 -2 12 19.09 0.71
-1 2 12 19.14 0.53
-1 2 12 18.53 0.77
-1 2 12 19.43 0.63
1 2 -12 20.56 0.73
1 2 -12 20.25 0.66
0 -2 12 0.72 0.24
0 -2 -12 0.7 0.19
0 -2 12 0.84 0.22
0 -2 -12 1.15 0.25
0 2 -12 1 0.21
0 2 -12 0.63 0.24
0 2 12 0.85 0.15
0 2 12 1.01 0.17
0 2 12 1.06 0.29
0 2 12 0.88 0.2
-1 -2 -12 0.67 0.17
-1 -2 -12 1.2 0.27
1 -2 12 0.46 0.14
1 -2 12 0.65 0.22
1 -2 12 0.89 0.24
-1 2 -12 0.74 0.17
1 2 12 0.51 0.17
-1 2 -12 0.66 0.15
1 2 12 0.9 0.19
1 2 12 0.67 0.28
-1 2 -12 0.27 0.22
-2 -2 -12 5.75 0.48
-2 -2 -12 6.6 0.37
2 -2 12 6.84 0.48
2 -2 12 5.98 0.41
2 2 12 5.6 0.52
2 2 12 5.59 0.39
2 2 12 5.45 0.34
-2 2 -12 6.72 0.51
-2 2 -12 6.39 0.39
-2 2 -12 5.73 0.33
3 -2 12 6.49 0.55
-3 -2 -12 6.69 0.54
-3 -2 -12 6.11 0.35
3 -2 12 6.59 0.46
3 2 12 4.75 0.52
3 2 12 6.35 0.35
-3 2 -12 6.34 0.31
-3 2 -12 6.55 0.56
3 2 12 6.45 0.46
-3 2 -12 6.63 0.47
-4 -2 -12 5.45 0.3
4 -2 12 4.4 0.52
-4 -2 -12 5.87 0.53
4 -2 12 5.31 0.45
4 2 12 4.94 0.34
-4 2 -12 5.02 0.24
-4 2 -12 4.97 0.49
4 2 12 6.25 0.61
-4 2 -12 5.06 0.57
4 2 12 5.4 0.5
5 -2 12 0.86 0.38
-5 -2 -12 0.54 0.32
5 -2 12 0.24 0.24
5 2 12 0.34 0.28
-5 2 -12 -0.27 0.25
5 2 12 0.02 0.34
-5 2 -12 0.4 0.28
6 -2 12 1.67 0.48
6 -2 12 1.6 0.34
-6 -2 -12 1.33 0.42
-6 2 -12 1.09 0.37
-6 2 -12 1.5 0.43
6 2 12 1.28 0.45
7 -2 12 1.26 0.34
-7 -2 -12 1.04 0.4
7 -2 12 1.23 0.49
-7 2 -12 0.95 0.39
7 2 12 1.3 0.48
-7 2 -12 1.06 0.4
8 -3 -12 1.26 0.29
-8 -3 12 1.47 0.43
8 -3 -12 0.73 0.37
8 3 -12 0.42 0.32
-8 3 12 0.81 0.39
-8 3 12 0.53 0.45
8 3 -12 0.9 0.27
7 -3 -12 1 0.34
-7 -3 12 0.27 0.33
7 -3 -12 0.6 0.26
7 3 -12 1.07 0.32
-7 3 12 0.14 0.38
7 3 -12 0.37 0.22
7 3 -12 1.19 0.31
-7 3 12 1.03 0.38
-6 -3 12 0.24 0.3
6 -3 -12 -0.06 0.2
-6 -3 12 0.17 0.27
6 -3 -12 0.19 0.26
-6 3 12 -0.18 0.34
-6 3 12 0.48 0.29
6 3 -12 0.54 0.25
6 3 -12 0.2 0.2
6 3 -12 0.2 0.19
-5 -3 12 7.72 0.57
-5 -3 12 7.73 0.55
5 -3 -12 8.04 0.52
5 -3 -12 7.54 0.53
5 3 -12 7.58 0.48
5 3 -12 8.35 0.54
-5 3 12 7.45 0.63
-5 3 12 7.01 0.53
5 3 -12 7.6 0.42
4 -3 -12 2.97 0.18
-4 -3 12 3.01 0.4
4 -3 -12 2.94 0.36
-4 -3 12 2.49 0.35
4 -3 -12 3.06 0.38
-4 3 12 1.96 0.38
-4 3 12 2.89 0.38
4 3 -12 2.58 0.25
4 3 -12 2.89 0.36
4 3 -12 3.03 0.35
-3 -3 12 0.78 0.25
-3 -3 12 0.45 0.22
3 -3 -12 0.47 0.2
3 -3 -12 0.7 0.14
3 -3 -12 0.41 0.19
-3 3 12 0.68 0.19
3 3 -12 0.44 0.19
-3 3 12 0.34 0.29
-3 3 12 0.46 0.11
3 3 -12 0.45 0.22
-2 -3 12 9.46 0.47
2 -3 -12 9.34 0.41
2 -3 -12 8.78 0.37
-2 -3 12 9.29 0.52
2 -3 -12 8.8 0.47
2 3 -12 8.71 0.47
2 3 -12 10.1 0.51
-2 3 12 8.91 0.37
-2 3 12 8.95 0.47
-2 3 12 9.33 0.6
-2 3 12 8.41 0.41
1 -3 -12 5.97 0.38
1 -3 -12 5.98 0.32
-1 -3 12 5.94 0.43
-1 -3 12 5.78 0.44
1 -3 -12 6.67 0.41
-1 3 12 6.7 0.52
1 3 -12 6.07 0.47
-1 3 12 5.79 0.33
1 3 -12 6.23 0.4
-1 3 12 5.85 0.37
0 -3 12 0.53 0.1
0 -3 -12 0.5 0.19
0 -3 12 0.61 0.23
0 -3 -12 0.67 0.22
0 -3 12 0.61 0.21
0 3 12 0.42 0.14
0 3 -12 0.67 0.19
0 3 12 0.54 0.17
0 3 12 0.41 0.27
0 3 -12 0.76 0.25
0 3 12 0.76 0.18
0 3 -12 0.62 0.12
-1 -3 -12 1.64 0.24
-1 -3 -12 1.33 0.29
1 -3 12 2.07 0.23
1 -3 12 1.65 0.29
1 -3 12 1.39 0.26
1 3 12 1.4 0.34
1 3 12 1.83 0.24
-1 3 -12 1.97 0.25
-1 3 -12 1.46 0.29
1 3 12 1.61 0.24
-1 3 -12 1.65 0.25
2 -3 12 0.66 0.24
2 -3 12 0.95 0.27
-2 -3 -12 0.94 0.2
-2 -3 -12 0.93 0.28
-2 3 -12 1.1 0.23
-2 3 -12 1.14 0.19
2 3 12 0.92 0.29
2 3 12 1.24 0.19
-2 3 -12 1.36 0.31
2 3 12 1.55 0.26
3 -3 12 0.1 0.24
-3 -3 -12 -0.25 0.23
3 -3 12 0.01 0.21
-3 -3 -12 -0.03 0.14
3 3 12 0.28 0.28
-3 3 -12 0.16 0.2
3 3 12 0.21 0.2
3 3 12 0.06 0.13
-3 3 -12 -0.27 0.24
-3 3 -12 0.09 0.12
-4 -3 -12 9.94 0.42
-4 -3 -12 8.86 0.65
4 -3 12 10.34 0.59
4 -3 12 8.43 0.64
4 3 12 9.1 0.6
-4 3 -12 9.61 0.61
4 3 12 9.25 0.69
-4 3 -12 9.55 0.67
4 3 12 9.42 0.39
5 -3 12 0.19 0.32
5 -3 12 0.78 0.28
-5 -3 -12 0.12 0.29
-5 3 -12 0.1 0.34
5 3 12 0.53 0.29
-5 3 -12 0.3 0.28
5 3 12 0.32 0.38
6 -3 12 0.74 0.31
6 -3 12 1.28 0.45
-6 -3 -12 1.08 0.38
-6 3 -12 1.08 0.37
6 3 12 1.29 0.45
6 3 12 0.81 0.35
-6 3 -12 0.7 0.39
7 -3 12 1.01 0.33
7 -3 12 1.06 0.46
-7 -3 -12 1.31 0.44
-7 3 -12 0.95 0.4
7 3 12 1.53 0.43
-7 3 -12 0.93 0.41
7 3 12 1.21 0.5
8 -4 -12 1.28 0.42
8 -4 -12 0.79 0.31
8 4 -12 0.75 0.33
-8 4 12 1.26 0.48
8 4 -12 0.46 0.32
-8 4 12 1.03 0.46
8 4 -12 1.29 0.32
-7 -4 12 6.82 0.66
7 -4 -12 6.65 0.53
7 -4 -12 6.75 0.63
-7 4 12 6.23 0.78
7 4 -12 8.55 0.59
-7 4 12 7.59 0.69
7 4 -12 6.1 0.48
6 -4 -12 0.6 0.26
-6 -4 12 0.28 0.3
-6 -4 12 0.51 0.31
6 -4 -12 0.26 0.29
6 4 -12 0.89 0.25
6 4 -12 0.38 0.25
-6 4 12 0.2 0.38
-6 4 12 0.46 0.31
6 4 -12 0.34 0.22
5 -4 -12 12.92 0.63
-5 -4 12 13.72 0.69
5 -4 -12 12 0.65
-5 -4 12 12.66 0.68
-5 4 12 13.39 0.72
5 4 -12 12.39 0.54
5 4 -12 14.06 0.65
5 4 -12 13.04 0.65
-5 4 12 13.06 0.78
4 -4 -12 3.95 0.41
4 -4 -12 4.86 0.41
-4 -4 12 4.99 0.45
-4 -4 12 5.03 0.46
4 4 -12 4.41 0.43
-4 4 12 4.02 0.45
-4 4 12 4.35 0.54
4 4 -12 4.83 0.44
4 4 -12 4.69 0.32
3 -4 -12 -0.06 0.2
3 -4 -12 -0.07 0.11
3 -4 -12 0.05 0.18
-3 -4 12 0.05 0.21
-3 -4 12 -0.15 0.19
-3 4 12 0.15 0.08
3 4 -12 0.02 0.21
3 4 -12 0.26 0.2
-3 4 12 -0.09 0.19
3 4 -12 0.13 0.12
-3 4 12 -0.18 0.26
3 4 -12 -0.18 0.11
-2 -4 12 15.38 0.58
2 -4 -12 16.16 0.59
-2 -4 12 15.69 0.66
2 -4 -12 15.97 0.53
2 -4 -12 15.98 0.64
-2 4 12 15.3 0.59
-2 4 12 16.36 0.77
-2 4 12 15.79 0.5
2 4 -12 16.31 0.63
2 4 -12 15.13 0.66
-1 -4 12 1.99 0.3
1 -4 -12 1.92 0.29
-1 -4 12 1.84 0.28
1 -4 -12 1.59 0.25
1 4 -12 2 0.31
-1 4 12 1.44 0.24
1 4 -12 2.3 0.3
-1 4 12 1.63 0.35
-1 4 12 1.94 0.25
0 -4 -12 25.96 0.8
0 -4 12 25.88 0.64
0 -4 12 25.54 0.85
0 -4 12 25.93 0.8
0 -4 -12 26.57 0.82
0 4 12 26.23 0.78
0 4 -12 26.2 0.78
0 4 12 26.19 0.71
0 4 -12 25.11 0.89
0 4 -12 25.44 0.66
0 4 12 26.25 0.97
1 -4 12 26.22 0.83
1 -4 12 24.96 0.72
-1 -4 -12 25.8 0.88
1 -4 12 25.89 0.86
-1 -4 -12 25.68 0.79
-1 4 -12 25.63 0.93
1 4 12 24.85 0.81
1 4 12 25.65 0.66
-1 4 -12 26.09 0.75
1 4 12 24.46 0.96
-1 4 -12 26.09 0.75
-2 -4 -12 32.22 0.76
2 -4 12 32.85 1
-2 -4 -12 32.84 1.07
2 -4 12 31.41 0.98
-2 -4 -12 33.32 0.89
-2 4 -12 31.14 1.08
2 4 12 33.1 0.75
-2 4 -12 32.2 0.95
2 4 12 32.36 0.99
2 4 12 32.75 1.14
-2 4 -12 32.5 0.84
3 -4 12 17.2 0.73
-3 -4 -12 17.59 0.61
3 -4 12 16.72 0.75
-3 -4 -12 15.57 0.79
-3 4 -12 16.84 0.53
3 4 12 16.48 0.46
3 4 12 17.42 0.74
-3 4 -12 17.11 0.82
3 4 12 17.31 0.87
-3 4 -12 17.45 0.74
4 -4 12 17.92 0.83
-4 -4 -12 16.42 0.59
4 -4 12 18.78 0.8
-4 -4 -12 15.85 0.8
-4 4 -12 16.58 0.8
-4 4 -12 17.34 0.89
4 4 12 16.77 0.81
4 4 12 17.06 0.9
-5 -4 -12 4.97 0.61
5 -4 12 4.81 0.59
5 -4 12 5.71 0.56
-5 4 -12 4.83 0.58
-5 4 -12 6.5 0.67
5 4 12 5.16 0.66
5 4 12 4.85 0.56
6 -4 12 5.32 0.68
6 -4 12 5.6 0.57
-6 -4 -12 4.81 0.61
6 4 12 5.26 0.64
6 4 12 6.65 0.76
-6 4 -12 7 0.69
-6 4 -12 5.72 0.67
-7 -4 -12 2.44 0.5
7 -4 12 2.04 0.42
7 -4 12 1.22 0.46
7 4 12 2.54 0.6
-7 4 -12 1.67 0.46
7 4 12 2.44 0.5
-7 4 -12 1.26 0.41
8 -5 -12 6.78 0.67
-8 5 12 6.14 0.87
8 5 -12 4.79 0.54
-8 5 12 7.04 0.81
8 5 -12 6.42 0.55
7 -5 -12 7.05 0.59
-7 -5 12 7.82 0.63
7 -5 -12 7.27 0.65
7 5 -12 7.5 0.59
-7 5 12 8.37 0.78
7 5 -12 8.84 0.57
-7 5 12 8.28 0.81
6 -5 -12 -0.27 0.22
-6 -5 12 -0.43 0.25
6 -5 -12 -0.02 0.27
-6 -5 12 0.06 0.26
6 5 -12 0.13 0.21
-6 5 12 -0.46 0.35
-6 5 12 0.45 0.32
6 5 -12 0.12 0.24
5 -5 -12 -0.18 0.25
-5 -5 12 0.08 0.23
-5 -5 12 -0.27 0.24
5 -5 -12 0.02 0.22
-5 5 12 -0.23 0.27
-5 5 12 0.1 0.32
5 5 -12 0.04 0.22
5 5 -12 -0.08 0.18
5 5 -12 -0.44 0.19
-4 -5 12 1.28 0.31
4 -5 -12 1.27 0.29
4 -5 -12 1.24 0.29
-4 -5 12 1.72 0.28
-4 5 12 1.39 0.33
4 5 -12 1.22 0.22
-4 5 12 1.65 0.41
4 5 -12 1.17 0.29
4 5 -12 0.92 0.29
3 -5 -12 3.56 0.41
-3 -5 12 4.08 0.42
3 -5 -12 3.74 0.2
-3 -5 12 3.09 0.35
3 -5 -12 2.71 0.35
-3 5 12 3.13 0.47
3 5 -12 3.03 0.37
3 5 -12 3.59 0.42
-3 5 12 3.94 0.45
3 5 -12 3.33 0.29
-2 -5 12 0.28 0.16
-2 -5 12 0 0.21
2 -5 -12 0.2 0.15
2 -5 -12 -0.17 0.16
2 -5 -12 0.27 0.2
-2 5 12 0.22 0.21
-2 5 12 0.09 0.28
2 5 -12 0.03 0.12
2 5 -12 0.17 0.19
-2 5 12 0.11 0.11
2 5 -12 0.67 0.26
2 5 -12 0.15 0.13
1 -5 -12 0.9 0.21
-1 -5 12 0.81 0.14
-1 -5 12 0.74 0.18
-1 -5 12 0.66 0.24
1 -5 -12 1.08 0.25
1 -5 -12 0.66 0.2
-1 5 12 0.28 0.22
-1 5 12 1.29 0.35
1 5 -12 1.01 0.25
1 5 -12 0.57 0.16
1 5 -12 0.67 0.25
0 -5 -12 28.89 0.88
0 -5 12 28.2 0.81
0 -5 -12 28.34 0.73
0 -5 12 27.99 0.73
0 -5 -12 28.92 0.87
0 -5 12 28.9 0.94
0 5 12 27.59 0.87
0 5 -12 27.09 0.76
0 5 -12 28.2 0.98
0 5 12 29.37 1.04
0 5 -12 29.12 0.84
-1 -5 -12 60.48 1.27
-1 -5 -12 63.81 1.55
1 -5 12 63.57 1.55
-1 -5 -12 63.43 1.46
1 -5 12 63.38 1.48
-1 -5 -12 60.59 1.24
-1 5 -12 61.79 1.45
1 5 12 64.75 1.71
1 5 12 62.67 1.54
-1 5 -12 65.13 1.42
-1 5 -12 61.56 1.64
-2 -5 -12 5 0.39
-2 -5 -12 4.88 0.49
2 -5 12 4.46 0.42
2 -5 12 4.84 0.47
2 5 12 5.54 0.46
2 5 12 5.54 0.57
-2 5 -12 4.98 0.34
-2 5 -12 4.93 0.52
-2 5 -12 5.2 0.43
-3 -5 -12 13.25 0.56
3 -5 12 12.7 0.67
-3 -5 -12 12.64 0.7
3 -5 12 12.54 0.65
3 5 12 12.06 0.68
-3 5 -12 11.55 0.72
-3 5 -12 12.51 0.46
3 5 12 13.49 0.82
-3 5 -12 12.21 0.66
4 -5 12 16.88 0.8
-4 -5 -12 18.73 0.9
4 -5 12 15.51 0.78
-4 -5 -12 17.71 0.63
-4 5 -12 17.74 0.83
4 5 12 17.34 0.84
-4 5 -12 17.22 0.89
4 5 12 17.74 0.95
-5 -5 -12 17.77 0.96
5 -5 12 16.52 0.82
5 -5 12 18.11 0.93
-5 5 -12 20.17 0.99
5 5 12 18.1 0.92
-5 5 -12 17.84 0.92
5 5 12 19.03 1.01
-6 -5 -12 6.67 0.68
6 -5 12 7.66 0.65
6 -5 12 7.87 0.78
-6 5 -12 7.53 0.75
6 5 12 6.56 0.71
-6 5 -12 6.63 0.72
6 5 12 5.35 0.78
7 -5 12 6.58 0.78
7 -5 12 4.69 0.62
-7 -5 -12 5.63 0.69
-7 5 -12 4.87 0.7
-7 5 -12 5.77 0.74
7 5 12 5.67 0.81
7 5 12 4.99 0.71
8 -6 -12 2.28 0.48
8 6 -12 2.05 0.38
8 6 -12 2.9 0.42
-8 6 12 3.9 0.64
8 6 -12 4.25 0.5
-8 6 12 2.42 0.6
7 -6 -12 -0.56 0.28
-7 -6 12 -0.55 0.24
7 -6 -12 -0.03 0.24
-7 6 12 0.46 0.39
-7 6 12 -0.53 0.37
7 6 -12 0.13 0.27
7 6 -12 0 0.21
6 -6 -12 2.32 0.38
-6 -6 12 3.38 0.49
6 -6 -12 2.5 0.44
6 6 -12 3.53 0.48
-6 6 12 2.42 0.48
6 6 -12 2.41 0.41
-6 6 12 2.44 0.55
-5 -6 12 2.63 0.4
5 -6 -12 3.05 0.42
-5 -6 12 3.58 0.48
5 -6 -12 2.93 0.4
5 6 -12 2.51 0.33
5 6 -12 2.53 0.39
5 6 -12 3.2 0.43
-5 6 12 2.72 0.45
-5 6 12 3.01 0.5
-4 -6 12 0.12 0.23
4 -6 -12 -0.3 0.22
-4 -6 12 0 0.15
4 -6 -12 0.38 0.25
-4 6 12 0.11 0.28
-4 6 12 0.46 0.35
4 6 -12 0.06 0.17
4 6 -12 -0.26 0.23
-3 -6 12 6.54 0.37
-3 -6 12 6.39 0.52
-3 -6 12 6.66 0.51
3 -6 -12 6.94 0.5
3 -6 -12 7.28 0.5
-3 6 12 7.43 0.64
3 6 -12 6.26 0.51
-3 6 12 7.43 0.56
3 6 -12 7.71 0.41
-2 -6 12 2.37 0.24
2 -6 -12 2.68 0.27
2 -6 -12 2.17 0.33
-2 -6 12 1.9 0.31
-2 -6 12 2.94 0.42
2 -6 -12 2.03 0.29
-2 6 12 2.35 0.36
-2 6 12 2.07 0.42
2 6 -12 2.63 0.3
2 6 -12 2.32 0.37
-1 -6 12 12.79 0.6
-1 -6 12 13.01 0.45
1 -6 -12 11.91 0.52
-1 -6 12 11.69 0.61
1 -6 -12 13.2 0.61
1 -6 -12 12.37 0.5
1 6 -12 12.4 0.5
-1 6 12 12.23 0.72
-1 6 12 11.68 0.63
1 6 -12 13.04 0.67
0 -6 -12 5.27 0.43
0 -6 12 5.2 0.46
0 -6 -12 5.56 0.32
0 -6 -12 5.67 0.43
0 -6 12 5.54 0.43
0 -6 12 5.34 0.33
0 6 -12 5.95 0.38
0 6 -12 5.65 0.52
0 6 12 5.07 0.46
0 6 12 6.54 0.58
-1 -6 -12 -0.22 0.22
-1 -6 -12 0.08 0.19
1 -6 12 0.37 0.18
-1 -6 -12 0.3 0.12
1 -6 12 0.31 0.23
-1 6 -12 0.16 0.26
-1 6 -12 0.23 0.19
1 6 12 0.44 0.26
1 6 12 -0.3 0.3
2 -6 12 18.59 0.79
-2 -6 -12 19.52 0.84
2 -6 12 19.8 0.73
-2 -6 -12 19.26 0.72
-2 6 -12 18.68 0.89
-2 6 -12 18.31 0.76
-2 6 -12 19.36 0.65
2 6 12 20.1 0.95
2 6 12 19.19 0.83
-3 -6 -12 4.48 0.54
3 -6 12 3.92 0.45
3 -6 12 4.35 0.49
-3 -6 -12 3.9 0.4
-3 6 -12 3.86 0.31
-3 6 -12 4.08 0.48
3 6 12 4.15 0.51
3 6 12 4.14 0.58
-3 6 -12 4.29 0.58
-4 -6 -12 0.22 0.2
4 -6 12 0.38 0.28
-4 -6 -12 0.24 0.3
4 -6 12 0.08 0.25
4 6 12 0.1 0.25
4 6 12 0.04 0.36
-4 6 -12 0.52 0.29
-4 6 -12 0.15 0.33
-5 -6 -12 0.23 0.17
5 -6 12 -0.28 0.29
5 -6 12 -0.14 0.3
-5 -6 -12 0.14 0.33
5 6 12 0.97 0.33
-5 6 -12 0.82 0.35
-5 6 -12 0.44 0.37
5 6 12 0.45 0.38
6 -6 12 0.01 0.34
-6 -6 -12 -0.24 0.3
6 -6 12 -0.24 0.28
-6 6 -12 0.11 0.36
-6 6 -12 -0.14 0.31
6 6 12 0.36 0.4
6 6 12 -0.17 0.27
7 -6 12 2.93 0.57
7 -6 12 2.47 0.46
-7 6 -12 2.62 0.53
7 6 12 2.06 0.57
-7 6 -12 2.19 0.52
7 6 12 3.56 0.6
7 -7 -12 1.64 0.37
-7 -7 12 2.04 0.43
7 -7 -12 1.86 0.44
-7 7 12 1.88 0.51
7 7 -12 1.97 0.42
-7 7 12 2.56 0.59
7 7 -12 2.02 0.39
6 -7 -12 -0.05 0.25
6 -7 -12 -0.2 0.3
-6 -7 12 -0.11 0.25
-6 7 12 -0.15 0.42
6 7 -12 0.07 0.28
6 7 -12 0.54 0.3
-6 7 12 0.18 0.35
5 -7 -12 0.18 0.27
-5 -7 12 -0.01 0.25
5 -7 -12 0.22 0.29
-5 7 12 0.23 0.36
5 7 -12 0.2 0.26
-5 7 12 0.35 0.35
4 -7 -12 2.89 0.4
-4 -7 12 3.09 0.45
-4 -7 12 2.79 0.4
4 -7 -12 4.25 0.49
-4 7 12 4.22 0.59
4 7 -12 3.7 0.52
-4 7 12 2.93 0.51
4 7 -12 3.61 0.37
3 -7 -12 0.33 0.23
3 -7 -12 0.15 0.22
-3 -7 12 0.09 0.25
-3 -7 12 0.18 0.23
3 7 -12 0.54 0.28
3 7 -12 0.53 0.22
-3 7 12 0.51 0.35
-3 7 12 0.5 0.31
2 -7 -12 0.25 0.23
2 -7 -12 0.26 0.2
2 -7 -12 0.55 0.17
-2 -7 12 0.03 0.21
-2 -7 12 0.67 0.27
-2 7 12 0.98 0.32
-2 7 12 0.15 0.32
2 7 -12 0.08 0.19
2 7 -12 0.24 0.26
1 -7 -12 2.22 0.3
-1 -7 12 2.48 0.37
1 -7 -12 1.83 0.32
1 -7 -12 2.71 0.33
-1 -7 12 1.59 0.3
1 7 -12 2.43 0.34
1 7 -12 2.13 0.37
-1 7 12 1.8 0.41
-1 7 12 1.7 0.35
0 -7 -12 12.4 0.62
0 -7 -12 12.65 0.45
0 -7 12 11.83 0.6
0 -7 12 13.25 0.67
0 -7 -12 12.94 0.61
0 -7 12 12.42 0.43
0 7 -12 12.49 0.59
0 7 12 12.65 0.69
0 7 12 13.18 0.77
0 7 -12 12.09 0.7
-1 -7 -12 0.58 0.25
1 -7 12 0.41 0.26
1 -7 12 0.5 0.22
1 -7 12 0.69 0.18
-1 -7 -12 0.88 0.28
1 7 12 0.45 0.28
-1 7 -12 0.67 0.25
-1 7 -12 0.66 0.31
1 7 12 0.45 0.36
2 -7 12 6.52 0.43
2 -7 12 5.8 0.54
-2 -7 -12 6.52 0.48
-2 -7 -12 4.91 0.52
2 7 12 6.2 0.63
-2 7 -12 5.19 0.58
2 7 12 5.36 0.55
-2 7 -12 6.06 0.51
3 -7 12 2.89 0.43
3 -7 12 2.96 0.38
-3 -7 -12 2.7 0.35
-3 -7 -12 2.9 0.44
-3 7 -12 2.49 0.29
-3 7 -12 2.91 0.48
3 7 12 2.58 0.44
-3 7 -12 1.86 0.37
3 7 12 2.35 0.48
4 -7 12 8.17 0.58
-4 -7 -12 7.92 0.51
-4 -7 -12 6.97 0.64
4 -7 12 7.02 0.63
4 7 12 7.59 0.66
-4 7 -12 7.2 0.67
4 7 12 8.12 0.75
-4 7 -12 7.23 0.71
-5 -7 -12 5.07 0.63
-5 -7 -12 5.09 0.43
5 -7 12 5.91 0.61
5 -7 12 4.7 0.63
5 7 12 5.56 0.66
5 7 12 6.33 0.74
-5 7 -12 4.65 0.64
-5 7 -12 4.43 0.66
6 -7 12 9.58 0.77
6 -7 12 8.98 0.78
-6 -7 -12 11.32 0.85
-6 7 -12 10.84 0.84
6 7 12 11.98 0.87
6 7 12 10.44 0.94
-6 7 -12 9.01 0.83
-7 -8 12 8.92 0.71
7 -8 -12 8.64 0.65
7 -8 -12 7.7 0.77
7 8 -12 9.04 0.7
7 8 -12 8.63 0.69
-7 8 12 9.37 0.95
-7 8 12 9.21 0.89
6 -8 -12 2.29 0.44
-6 -8 12 3.33 0.45
6 -8 -12 2.46 0.4
6 8 -12 1.77 0.41
-6 8 12 3.03 0.6
-6 8 12 4.76 0.72
-5 -8 12 1.16 0.36
-5 -8 12 2.74 0.42
5 -8 -12 2.25 0.42
5 -8 -12 1.85 0.37
5 8 -12 2.38 0.43
-5 8 12 2.1 0.5
-5 8 12 3.23 0.55
4 -8 -12 0.04 0.26
-4 -8 12 0.12 0.26
-4 -8 12 0.41 0.26
4 -8 -12 -0.07 0.26
-4 8 12 0.83 0.41
-4 8 12 0.27 0.37
4 8 -12 -0.04 0.27
3 -8 -12 0.13 0.24
-3 -8 12 -0.13 0.22
3 -8 -12 0.1 0.24
-3 -8 12 0 0.25
-3 8 12 0.23 0.34
-3 8 12 -0.25 0.3
3 8 -12 -0.07 0.2
3 8 -12 -0.14 0.24
-2 -8 12 0.15 0.27
2 -8 -12 -0.12 0.21
-2 -8 12 0.15 0.23
2 -8 -12 0.15 0.22
-2 8 12 0.33 0.3
2 8 -12 0.1 0.21
-2 8 12 0.05 0.32
2 8 -12 0.13 0.26
1 -8 -12 0.02 0.2
-1 -8 12 0.11 0.23
1 -8 -12 -0.13 0.21
-1 -8 12 -0.17 0.21
1 -8 -12 -0.21 0.16
1 8 -12 0.02 0.21
-1 8 12 -0.06 0.29
-1 8 12 0.33 0.35
1 8 -12 -0.33 0.23
0 -8 12 7.23 0.55
0 -8 12 6.87 0.51
0 -8 -12 7.32 0.5
0 -8 -12 6.69 0.53
0 -8 -12 6.61 0.34
0 8 -12 7.13 0.6
0 8 12 6.2 0.58
0 8 12 6.74 0.65
0 8 -12 6.55 0.5
1 -8 12 3.12 0.45
-1 -8 -12 2.9 0.41
-1 -8 -12 2.46 0.37
1 -8 12 2.42 0.34
1 8 12 2.54 0.4
-1 8 -12 2.71 0.41
1 8 12 2.73 0.47
-1 8 -12 2.53 0.44
-2 -8 -12 5.24 0.55
-2 -8 -12 5.39 0.48
2 -8 12 5.48 0.45
2 -8 12 5.42 0.56
2 8 12 5.79 0.69
-2 8 -12 5.62 0.61
2 8 12 6.26 0.62
-2 8 -12 5.31 0.54
3 -8 12 12.78 0.78
-3 -8 -12 12.55 0.65
-3 -8 -12 13.3 0.77
-3 8 -12 14.84 0.85
-3 8 -12 13.56 0.79
3 8 12 14.16 0.9
3 8 12 12.83 0.81
-4 -8 -12 8.09 0.69
-4 -8 -12 9.03 0.57
4 -8 12 9.09 0.69
-4 8 -12 8.51 0.77
-4 8 -12 9.16 0.73
4 8 12 8.26 0.74
4 8 12 9.99 0.81
-5 -8 -12 4.35 0.45
-5 -8 -12 3.98 0.57
5 -8 12 3.16 0.51
5 8 12 3.24 0.53
-5 8 -12 4.21 0.6
5 8 12 3.81 0.62
-5 8 -12 3.24 0.55
6 -8 12 9.8 0.82
-6 -8 -12 8.93 0.79
6 8 12 9.46 0.85
6 8 12 8.69 0.9
-6 8 -12 10.3 0.83
-6 8 -12 11.5 0.9
-6 -9 12 0.1 0.32
6 -9 -12 -0.05 0.27
6 -9 -12 -0.13 0.34
-6 9 12 -0.29 0.43
-6 9 12 0.8 0.44
6 9 -12 0.58 0.36
-5 -9 12 0.02 0.24
-5 -9 12 0.35 0.3
5 -9 -12 -0.31 0.29
5 -9 -12 0.36 0.31
-5 9 12 -0.42 0.35
-5 9 12 0.28 0.38
5 9 -12 0.01 0.31
4 -9 -12 0.11 0.28
-4 -9 12 0.4 0.28
-4 -9 12 0.16 0.26
4 -9 -12 0.31 0.28
-4 9 12 0.37 0.38
4 9 -12 -0.19 0.28
-4 9 12 0.32 0.38
-3 -9 12 -0.09 0.25
3 -9 -12 0.2 0.28
-3 -9 12 0.18 0.26
3 -9 -12 -0.01 0.23
-3 9 12 0.14 0.36
3 9 -12 0.38 0.3
-3 9 12 0.31 0.34
3 9 -12 0.21 0.26
2 -9 -12 1.89 0.32
2 -9 -12 1.56 0.35
-2 -9 12 2.32 0.41
-2 -9 12 2.18 0.39
-2 9 12 2.15 0.47
-2 9 12 1.76 0.42
2 9 -12 2.36 0.36
2 9 -12 2.11 0.41
1 -9 -12 -0.24 0.19
-1 -9 12 -0.36 0.21
1 -9 -12 -0.08 0.24
-1 -9 12 -0.17 0.24
1 -9 -12 -0.16 0.17
-1 9 12 -0.04 0.31
1 9 -12 -0.12 0.23
1 9 -12 0.04 0.29
-1 9 12 -0.34 0.3
0 -9 -12 -0.22 0.23
0 -9 12 -0.04 0.24
0 -9 -12 -0.14 0.21
0 -9 12 -0.09 0.26
0 9 12 0.13 0.3
0 9 12 0.18 0.31
0 9 -12 0.07 0.22
0 9 -12 0.18 0.31
1 -9 12 -0.14 0.22
-1 -9 -12 -0.07 0.26
-1 -9 -12 0.69 0.28
1 -9 12 0.04 0.26
-1 9 -12 -0.01 0.3
-1 9 -12 0.18 0.24
1 9 12 0.01 0.3
1 9 12 0.15 0.33
-2 -9 -12 0.02 0.28
2 -9 12 -0.07 0.26
2 -9 12 0.19 0.23
-2 -9 -12 0.42 0.26
-2 9 -12 0.06 0.34
-2 9 -12 0.13 0.29
2 9 12 -0.16 0.34
2 9 12 0.69 0.33
-3 -9 -12 8.17 0.59
3 -9 12 7.56 0.66
-3 -9 -12 8.36 0.69
3 9 12 7.21 0.7
-3 9 -12 8.06 0.68
-3 9 -12 7.57 0.7
3 9 12 7.32 0.76
-4 -9 -12 0.23 0.24
-4 -9 -12 -0.03 0.32
4 -9 12 0 0.29
4 9 12 0.39 0.42
-4 9 -12 0.28 0.36
4 9 12 -0.43 0.3
-4 9 -12 -0.02 0.37
5 -9 12 0.2 0.36
-5 -9 -12 1.01 0.41
-5 -9 -12 0.89 0.29
5 9 12 0.58 0.4
-5 9 -12 0.68 0.39
-5 9 -12 0.68 0.4
5 9 12 -0.08 0.42
6 -10 -12 2.36 0.43
6 10 -12 2.71 0.49
5 -10 -12 -0.17 0.28
-5 -10 12 0.27 0.28
5 -10 -12 -0.15 0.32
-5 -10 12 0.47 0.31
-5 10 12 -0.06 0.36
5 10 -12 0.11 0.33
-5 10 12 0.38 0.42
-4 -10 12 1 0.33
-4 -10 12 1.02 0.34
4 -10 -12 1.44 0.38
4 -10 -12 1.25 0.37
-4 10 12 1.1 0.45
-4 10 12 -0.14 0.39
4 10 -12 0.76 0.36
-3 -10 12 0.57 0.32
3 -10 -12 0.38 0.29
-3 -10 12 0.56 0.29
3 -10 -12 0.9 0.34
-3 10 12 0.82 0.44
3 10 -12 0.69 0.36
-3 10 12 0.66 0.39
2 -10 -12 0.59 0.31
2 -10 -12 1.03 0.28
-2 -10 12 1.34 0.36
-2 -10 12 1.02 0.34
2 10 -12 0.44 0.34
-2 10 12 1.01 0.42
2 10 -12 0.88 0.32
-2 10 12 0.56 0.4
-1 -10 12 1.92 0.39
1 -10 -12 2.09 0.38
-1 -10 12 1.73 0.38
-1 10 12 1.49 0.43
-1 10 12 2.45 0.48
1 10 -12 2.22 0.38
1 10 -12 1.96 0.46
0 -10 -12 0.51 0.3
0 -10 -12 1.01 0.31
0 -10 12 1.46 0.35
0 -10 12 1.5 0.37
0 10 12 0.65 0.4
0 10 -12 1.44 0.41
0 10 -12 1.09 0.33
0 10 12 0.99 0.42
1 -10 12 0.7 0.3
-1 -10 -12 0.27 0.28
-1 -10 -12 0.42 0.29
1 -10 12 0.3 0.31
1 10 12 0.51 0.39
-1 10 -12 0.96 0.35
1 10 12 0.48 0.38
-1 10 -12 0.45 0.36
-2 -10 -12 -0.11 0.28
2 -10 12 0.3 0.23
-2 -10 -12 0.39 0.29
2 -10 12 -0.17 0.29
-2 10 -12 -0.04 0.27
2 10 12 0.12 0.34
2 10 12 -0.19 0.34
-2 10 -12 0.09 0.31
-3 -10 -12 0.67 0.37
3 -10 12 1.01 0.37
-3 -10 -12 1.11 0.35
3 10 12 0.48 0.39
3 10 12 0.48 0.45
-3 10 -12 0.38 0.37
-3 10 -12 0.23 0.3
-4 -10 -12 1.81 0.36
-4 -10 -12 1.14 0.44
4 -10 12 1.24 0.39
4 10 12 1.13 0.44
4 10 12 1.63 0.5
-4 10 -12 1.2 0.46
-4 10 -12 1.45 0.44
5 -11 -12 1.39 0.4
5 -11 -12 1.11 0.43
-5 11 12 1.28 0.49
-5 11 12 1.76 0.55
4 -11 -12 0.12 0.33
-4 -11 12 0.55 0.31
-4 -11 12 0.19 0.27
4 -11 -12 0.08 0.33
4 11 -12 0.98 0.38
-4 11 12 0.59 0.4
-4 11 12 0.88 0.46
-3 -11 12 2.58 0.44
3 -11 -12 2.34 0.41
-3 -11 12 2.38 0.46
3 -11 -12 2.66 0.46
-3 11 12 1.94 0.5
-3 11 12 2.01 0.55
3 11 -12 2.61 0.49
2 -11 -12 0.41 0.32
-2 -11 12 0.16 0.29
-2 -11 12 1.22 0.35
-2 11 12 0.01 0.37
2 11 -12 0.79 0.36
-2 11 12 -0.53 0.34
-1 -11 12 1.22 0.35
1 -11 -12 0.57 0.33
-1 -11 12 0.1 0.28
-1 11 12 -0.28 0.32
-1 11 12 0.1 0.37
1 11 -12 0.55 0.37
0 -11 12 -0.34 0.26
0 -11 -12 -0.09 0.27
0 -11 12 -0.13 0.29
0 11 12 -0.06 0.37
0 11 -12 0.25 0.29
0 11 -12 0.42 0.36
0 11 12 0.24 0.39
-1 -11 -12 0.62 0.33
-1 -11 -12 0.47 0.31
1 -11 12 0.05 0.27
1 -11 12 0.93 0.34
-1 11 -12 0.07 0.33
1 11 12 0.2 0.38
-1 11 -12 0.27 0.36
1 11 12 0.92 0.42
-2 -11 -12 2.96 0.45
2 -11 12 2.63 0.4
2 -11 12 3.35 0.52
-2 -11 -12 3.57 0.55
2 11 12 3.39 0.56
2 11 12 2.87 0.52
-2 11 -12 2.67 0.49
-2 11 -12 2.4 0.49
-3 -11 -12 0.1 0.28
3 -11 12 -0.14 0.31
-3 -11 -12 0.25 0.35
3 11 12 -0.06 0.39
3 11 12 0.04 0.38
-3 11 -12 0.76 0.37
-3 11 -12 -0.38 0.34
-3 -12 12 0.14 0.3
-3 -12 12 0.11 0.31
3 -12 -12 0.5 0.35
-3 12 12 0.53 0.41
3 12 -12 0.46 0.37
-3 12 12 0.32 0.45
-2 -12 12 0.22 0.32
2 -12 -12 0.88 0.37
-2 -12 12 -0.14 0.28
-2 12 12 0.89 0.45
2 12 -12 0.84 0.4
-2 12 12 0.42 0.37
1 -12 -12 0.52 0.33
-1 -12 12 0.21 0.3
-1 -12 12 -0.04 0.31
-1 12 12 0.47 0.43
1 12 -12 0.14 0.38
-1 12 12 -0.03 0.39
0 -12 12 1.39 0.41
0 -12 -12 1.11 0.37
0 -12 12 1.72 0.4
0 12 -12 2.24 0.5
0 12 12 1.15 0.44
0 12 12 1.24 0.52
1 -12 12 4.8 0.59
1 -12 12 5.03 0.62
-1 -12 -12 4.26 0.56
-1 12 -12 3.51 0.59
-1 12 -12 6.21 0.72
1 12 12 4.89 0.75
1 12 12 5.39 0.68
-2 -12 -12 1.21 0.38
2 -12 12 1.92 0.46
2 -12 12 1.33 0.35
-2 -12 -12 0.91 0.4
-2 12 -12 1.13 0.44
-2 12 -12 0.73 0.43
2 12 12 1.53 0.49
2 12 12 0.83 0.47
8 0 -13 0.38 0.25
-8 0 13 -0.12 0.37
8 0 -13 0.09 0.3
7 0 -13 -0.34 0.24
7 0 -13 -0.05 0.22
-7 0 13 -0.65 0.32
-6 0 13 -0.2 0.19
6 0 -13 0.15 0.25
-6 0 13 0.47 0.33
6 0 -13 0.21 0.23
5 0 -13 -0.05 0.21
5 0 -13 -0.12 0.13
-5 0 13 -0.1 0.14
-5 0 13 0.05 0.28
-5 0 13 -0.06 0.23
4 0 -13 0.14 0.19
-4 0 13 0.16 0.28
4 0 -13 0.14 0.15
-4 0 13 -0.02 0.11
-4 0 13 0.04 0.22
-3 0 13 0.25 0.22
3 0 -13 -0.26 0.15
-3 0 13 -0.24 0.25
3 0 -13 0.22 0.18
2 0 -13 0.01 0.17
2 0 -13 -0.18 0.16
-2 0 13 -0.41 0.16
-2 0 13 0.36 0.25
1 0 -13 0.14 0.19
-1 0 13 -0.25 0.21
-1 0 13 0.09 0.18
1 0 -13 -0.06 0.16
0 0 13 0.27 0.24
0 0 -13 0.55 0.23
0 0 13 0.22 0.18
0 0 -13 0.24 0.17
1 0 13 0.01 0.1
-1 0 -13 0.01 0.22
1 0 13 0.02 0.11
1 0 13 -0.05 0.23
1 0 13 0.07 0.18
-1 0 -13 0.1 0.15
2 0 13 -0.08 0.16
-2 0 -13 -0.23 0.12
2 0 13 0.14 0.25
-2 0 -13 0.26 0.27
3 0 13 -0.07 0.18
-3 0 -13 -0.03 0.12
-3 0 -13 0.14 0.19
3 0 13 0.24 0.27
-3 0 -13 0.06 0.25
-4 0 -13 0.1 0.23
-4 0 -13 0.03 0.26
4 0 13 0.4 0.32
-4 0 -13 -0.15 0.09
4 0 13 0.45 0.2
-5 0 -13 -0.06 0.23
-5 0 -13 0.26 0.3
5 0 13 0.46 0.21
5 0 13 -0.31 0.3
6 0 13 -0.46 0.32
6 0 13 -0.17 0.21
-6 0 -13 0.22 0.33
-6 0 -13 0.23 0.29
-7 0 -13 -0.18 0.34
7 0 13 -0.26 0.37
-7 0 -13 -0.13 0.29
-8 -1 13 6.56 0.74
8 -1 -13 6.07 0.63
8 -1 -13 5.94 0.53
-8 1 13 6.76 0.76
8 1 -13 7.17 0.57
8 1 -13 5.96 0.63
7 -1 -13 3.3 0.46
-7 -1 13 3.49 0.55
7 -1 -13 4.46 0.56
7 1 -13 5.38 0.51
-7 1 13 5.3 0.68
7 1 -13 3.67 0.47
6 -1 -13 0.38 0.27
-6 -1 13 0.77 0.35
6 -1 -13 0.65 0.25
6 1 -13 0.96 0.27
-6 1 13 0.63 0.36
-6 1 13 0.27 0.23
6 1 -13 0.39 0.2
-5 -1 13 5.68 0.53
5 -1 -13 4.34 0.3
5 -1 -13 4.46 0.44
5 -1 -13 3.43 0.43
-5 -1 13 4.95 0.57
-5 1 13 3.24 0.51
5 1 -13 4 0.45
5 1 -13 3.72 0.35
-5 1 13 3.28 0.35
4 -1 -13 1.39 0.21
-4 -1 13 1.02 0.33
-4 -1 13 1.88 0.32
4 -1 -13 1.73 0.3
-4 1 13 1.89 0.39
4 1 -13 1.29 0.24
4 1 -13 1.79 0.3
-4 1 13 1.54 0.2
4 1 -13 1.64 0.19
-4 1 13 1.21 0.29
-3 -1 13 0.14 0.21
-3 -1 13 -0.37 0.21
3 -1 -13 0.11 0.17
3 -1 -13 0.12 0.18
-3 1 13 0.35 0.27
-3 1 13 0.23 0.11
-3 1 13 0.17 0.21
3 1 -13 0.15 0.2
3 1 -13 0.05 0.17
2 -1 -13 2.81 0.35
-2 -1 13 2.17 0.34
2 -1 -13 2.66 0.33
-2 -1 13 2.42 0.35
-2 1 13 2.31 0.3
2 1 -13 2.16 0.32
2 1 -13 1.8 0.29
-2 1 13 1.55 0.32
1 -1 -13 4.35 0.37
-1 -1 13 4.05 0.44
1 -1 -13 3.83 0.38
-1 -1 13 3.83 0.38
-1 1 13 4.06 0.45
-1 1 13 4.73 0.39
1 1 -13 3.87 0.4
1 1 -13 4.19 0.35
0 -1 -13 0.89 0.26
0 -1 -13 1.16 0.22
0 -1 13 0.82 0.27
0 -1 13 1.01 0.24
0 1 13 0.89 0.29
0 1 13 0.51 0.2
0 1 -13 0.68 0.19
0 1 13 0.85 0.13
0 1 -13 0.35 0.22
0 1 13 0.95 0.14
1 -1 13 4.08 0.36
1 -1 13 4.02 0.26
-1 -1 -13 4.43 0.34
1 -1 13 3.91 0.43
-1 -1 -13 4.49 0.46
1 1 13 4.14 0.34
1 1 13 3.79 0.27
-1 1 -13 4.13 0.32
-1 1 -13 5.38 0.46
1 1 13 4.99 0.49
1 1 13 4.55 0.29
-2 -1 -13 1.36 0.21
2 -1 13 1.54 0.35
2 -1 13 1.46 0.27
-2 -1 -13 1.46 0.32
2 1 13 1.46 0.35
2 1 13 1.83 0.25
-2 1 -13 1.66 0.22
-2 1 -13 1.8 0.37
2 1 13 1.45 0.24
-2 1 -13 1.33 0.22
3 -1 13 0.9 0.25
-3 -1 -13 0.83 0.18
3 -1 13 0.31 0.27
-3 -1 -13 0.62 0.29
-3 1 -13 0.62 0.23
-3 1 -13 1.14 0.32
-3 1 -13 0.65 0.16
3 1 13 0.75 0.2
3 1 13 0.6 0.23
3 1 13 0.94 0.33
4 -1 13 8.47 0.66
-4 -1 -13 8.74 0.65
-4 -1 -13 8.28 0.35
4 -1 13 7.64 0.51
-4 1 -13 7.79 0.56
4 1 13 7.77 0.44
-4 1 -13 8.83 0.66
4 1 13 6.86 0.65
-5 -1 -13 1.86 0.4
-5 -1 -13 2.12 0.43
5 -1 13 2.66 0.4
5 -1 13 2.3 0.47
-5 1 -13 2.06 0.4
-5 1 -13 3.28 0.5
5 1 13 2.39 0.34
5 1 13 3.42 0.56
-6 -1 -13 3.45 0.52
6 -1 13 3.49 0.58
-6 -1 -13 4.38 0.6
6 -1 13 3.22 0.44
-6 1 -13 3.98 0.57
6 1 13 3.17 0.57
-6 1 -13 4.07 0.6
7 -1 13 2.35 0.56
-7 -1 -13 2.14 0.48
-7 -1 -13 1.72 0.45
-7 1 -13 2.34 0.51
-7 1 -13 1.56 0.45
7 1 13 2.52 0.58
8 -2 -13 2.81 0.41
-8 -2 13 2.15 0.5
8 -2 -13 1.17 0.4
8 2 -13 2.32 0.37
8 2 -13 2.36 0.43
-8 2 13 2.27 0.54
-7 -2 13 3.57 0.53
7 -2 -13 4.2 0.47
7 -2 -13 4.28 0.53
7 2 -13 3.97 0.51
-7 2 13 5 0.72
7 2 -13 4.65 0.5
-6 -2 13 5.45 0.55
-6 -2 13 4.8 0.6
6 -2 -13 5.3 0.52
6 -2 -13 5.63 0.49
-6 2 13 4.84 0.51
-6 2 13 6.12 0.68
6 2 -13 6.06 0.53
6 2 -13 5.21 0.4
5 -2 -13 18.79 0.78
-5 -2 13 20.44 0.87
5 -2 -13 21 0.82
-5 -2 13 20.06 0.84
5 2 -13 21.4 0.81
-5 2 13 20.32 0.92
5 2 -13 20.54 0.73
5 2 -13 19.07 0.61
-5 2 13 19.88 0.73
-4 -2 13 2.06 0.35
-4 -2 13 1.9 0.33
4 -2 -13 1.75 0.29
4 -2 -13 1.91 0.24
-4 2 13 1.86 0.39
-4 2 13 1.9 0.25
4 2 -13 1.54 0.19
4 2 -13 1.64 0.31
4 2 -13 1.76 0.27
-3 -2 13 2.1 0.33
3 -2 -13 1.97 0.31
3 -2 -13 2.28 0.22
-3 -2 13 1.97 0.31
3 -2 -13 1.87 0.29
-3 2 13 2.01 0.36
3 2 -13 1.8 0.28
3 2 -13 2.34 0.35
-3 2 13 1.88 0.31
-3 2 13 1.54 0.24
2 -2 -13 0.17 0.11
2 -2 -13 0.09 0.16
-2 -2 13 -0.04 0.2
-2 -2 13 0.08 0.2
2 -2 -13 0.06 0.16
2 2 -13 0.22 0.2
2 2 -13 -0.01 0.16
-2 2 13 0.11 0.11
-2 2 13 0.29 0.25
-2 2 13 0.17 0.2
1 -2 -13 6.89 0.43
-1 -2 13 6.88 0.47
-1 -2 13 7.01 0.45
1 -2 -13 7.2 0.44
-1 2 13 6.59 0.28
-1 2 13 6.31 0.41
1 2 -13 6.64 0.42
1 2 -13 7.17 0.48
-1 2 13 6.77 0.54
-1 2 13 6.01 0.29
0 -2 -13 -0.06 0.15
0 -2 13 -0.07 0.19
0 -2 -13 0.05 0.21
0 -2 13 0.15 0.23
0 2 13 0.03 0.16
0 2 13 0.3 0.27
0 2 -13 0.17 0.22
0 2 -13 0.03 0.15
0 2 13 0.03 0.11
0 2 13 -0.06 0.11
-1 -2 -13 2.63 0.35
-1 -2 -13 2.28 0.29
1 -2 13 2.87 0.35
1 -2 13 2.28 0.34
1 -2 13 2.62 0.23
1 2 13 2 0.26
-1 2 -13 2.29 0.35
1 2 13 2.36 0.38
-1 2 -13 2.53 0.3
1 2 13 2.49 0.29
-1 2 -13 2.7 0.24
-2 -2 -13 9.78 0.6
2 -2 13 9.48 0.59
-2 -2 -13 10.43 0.46
2 -2 13 10.66 0.54
-2 2 -13 9.82 0.43
-2 2 -13 10.15 0.47
2 2 13 10.47 0.65
-2 2 -13 10.84 0.64
2 2 13 9.79 0.45
2 2 13 9.49 0.49
-3 -2 -13 2.75 0.41
3 -2 13 3.79 0.41
3 -2 13 3.57 0.46
-3 -2 -13 3.64 0.31
3 2 13 2.98 0.31
3 2 13 3.63 0.39
-3 2 -13 3.42 0.39
-3 2 -13 3.73 0.49
-3 2 -13 3.58 0.27
3 2 13 3.64 0.52
4 -2 13 2.69 0.44
-4 -2 -13 1.95 0.24
4 -2 13 2.15 0.33
-4 -2 -13 2.33 0.41
4 2 13 2.64 0.42
-4 2 -13 2.43 0.44
4 2 13 2.58 0.3
4 2 13 2.46 0.46
-4 2 -13 2.45 0.37
5 -2 13 0.38 0.26
5 -2 13 0.13 0.33
-5 -2 -13 -0.01 0.29
-5 2 -13 0.7 0.34
5 2 13 0.67 0.37
5 2 13 0.96 0.32
-5 2 -13 0.05 0.26
6 -2 13 8.47 0.59
-6 -2 -13 7.19 0.71
6 -2 13 9.41 0.81
6 2 13 8.52 0.71
6 2 13 7.04 0.76
-6 2 -13 7.71 0.68
-6 2 -13 9.02 0.76
7 -2 13 2.98 0.44
-7 -2 -13 2.97 0.53
7 -2 13 3.13 0.62
-7 2 -13 2.73 0.52
-7 2 -13 2.9 0.52
7 2 13 4.08 0.64
7 2 13 3.17 0.54
8 -3 -13 0.62 0.36
8 -3 -13 0.65 0.29
-8 -3 13 0.19 0.35
8 3 -13 0.6 0.34
8 3 -13 0.98 0.29
-8 3 13 -0.04 0.43
7 -3 -13 1.14 0.37
-7 -3 13 1.91 0.43
7 -3 -13 1.6 0.34
7 3 -13 1.5 0.36
7 3 -13 1.94 0.32
7 3 -13 1.42 0.36
-7 3 13 1.13 0.4
-7 3 13 1.85 0.48
6 -3 -13 3.89 0.49
-6 -3 13 4.76 0.56
6 -3 -13 4.39 0.46
-6 -3 13 4.02 0.51
-6 3 13 5.14 0.53
-6 3 13 3.68 0.58
6 3 -13 4.29 0.42
6 3 -13 4.55 0.48
-5 -3 13 9.93 0.62
5 -3 -13 9.22 0.58
-5 -3 13 10.16 0.61
5 -3 -13 9.12 0.6
5 3 -13 10.85 0.55
5 3 -13 9.91 0.6
-5 3 13 9.41 0.58
-5 3 13 9.92 0.71
4 -3 -13 3.25 0.41
-4 -3 13 4.44 0.46
4 -3 -13 3.68 0.23
4 -3 -13 3.27 0.39
-4 -3 13 3.64 0.45
-4 3 13 3.45 0.38
4 3 -13 4.16 0.42
4 3 -13 3.08 0.41
4 3 -13 3.48 0.25
-4 3 13 4.26 0.54
-3 -3 13 4.1 0.44
3 -3 -13 3.69 0.4
3 -3 -13 3.65 0.28
-3 -3 13 3.68 0.42
-3 3 13 3.37 0.33
-3 3 13 4.03 0.51
3 3 -13 3.46 0.39
3 3 -13 3.19 0.39
-2 -3 13 2.17 0.34
2 -3 -13 2.15 0.3
2 -3 -13 2.58 0.29
-2 -3 13 2.62 0.37
2 -3 -13 1.77 0.23
-2 3 13 2.35 0.34
2 3 -13 2.47 0.33
-2 3 13 2.05 0.27
2 3 -13 2.44 0.34
-2 3 13 2.63 0.4
1 -3 -13 -0.21 0.15
-1 -3 13 0.02 0.19
1 -3 -13 0.09 0.16
-1 -3 13 0.3 0.22
1 -3 -13 0.37 0.14
1 3 -13 0.06 0.21
1 3 -13 0.15 0.17
-1 3 13 0.15 0.27
-1 3 13 -0.1 0.12
-1 3 13 0.25 0.19
0 -3 13 2.53 0.37
0 -3 -13 2.62 0.32
0 -3 13 2.06 0.32
0 -3 -13 2.68 0.37
0 3 13 2.28 0.39
0 3 13 2.11 0.27
0 3 -13 1.97 0.27
0 3 -13 2.37 0.37
0 3 13 2.05 0.28
1 -3 13 0.56 0.14
-1 -3 -13 0.23 0.18
-1 -3 -13 0.64 0.26
1 -3 13 0.67 0.26
1 -3 13 0.26 0.21
-1 3 -13 0.44 0.18
1 3 13 0.5 0.19
-1 3 -13 0.46 0.24
1 3 13 0.36 0.29
1 3 13 0.44 0.17
-1 3 -13 0.3 0.15
2 -3 13 15.75 0.68
2 -3 13 17.14 0.75
-2 -3 -13 15.62 0.73
-2 -3 -13 15.51 0.59
2 3 13 15.5 0.63
-2 3 -13 16.46 0.61
-2 3 -13 15.81 0.55
-2 3 -13 14.4 0.75
2 3 13 16.24 0.53
2 3 13 16.68 0.81
-3 -3 -13 5.38 0.52
3 -3 13 5.69 0.54
3 -3 13 5.52 0.47
-3 -3 -13 6.24 0.38
-3 3 -13 6.64 0.48
3 3 13 6.24 0.35
3 3 13 6.01 0.49
-3 3 -13 5.24 0.3
3 3 13 6.63 0.62
-3 3 -13 5.98 0.58
4 -3 13 -0.01 0.3
-4 -3 -13 0.02 0.14
4 -3 13 0.26 0.24
-4 -3 -13 -0.36 0.26
4 3 13 0.13 0.23
4 3 13 -0.28 0.29
-4 3 -13 0.46 0.26
-4 3 -13 0.49 0.32
5 -3 13 0.71 0.29
5 -3 13 0.66 0.36
-5 -3 -13 0.41 0.33
5 3 13 0 0.33
-5 3 -13 0.24 0.27
5 3 13 0.28 0.28
-5 3 -13 0.16 0.33
6 -3 13 9.44 0.65
-6 -3 -13 7.62 0.73
6 -3 13 8.12 0.76
-6 3 -13 8.44 0.76
6 3 13 7.86 0.8
-6 3 -13 9.36 0.75
6 3 13 8.33 0.71
7 -3 13 0.17 0.3
7 -3 13 -0.46 0.37
-7 -3 -13 -0.23 0.34
7 3 13 0.7 0.37
-7 3 -13 0.03 0.31
-7 3 -13 -0.69 0.29
7 3 13 -0.11 0.39
8 -4 -13 3.27 0.47
8 -4 -13 2.94 0.51
8 4 -13 3.32 0.49
-8 4 13 2.69 0.61
8 4 -13 3.46 0.47
-7 -4 13 2.57 0.47
7 -4 -13 1.84 0.41
7 -4 -13 2.45 0.38
-7 4 13 3.18 0.57
7 4 -13 2 0.35
-7 4 13 2.53 0.46
7 4 -13 3.44 0.46
6 -4 -13 0.53 0.27
-6 -4 13 0.58 0.29
6 -4 -13 0.12 0.28
-6 -4 13 0.16 0.28
6 4 -13 0.6 0.24
6 4 -13 0.23 0.25
-6 4 13 -0.07 0.36
-6 4 13 0.64 0.33
5 -4 -13 5.44 0.52
-5 -4 13 5.24 0.53
-5 -4 13 4.79 0.52
5 -4 -13 4.94 0.47
5 4 -13 5.61 0.48
5 4 -13 6.21 0.52
-5 4 13 4.87 0.53
-5 4 13 6.01 0.64
4 -4 -13 18.43 0.74
4 -4 -13 18.66 0.76
-4 -4 13 18.64 0.77
-4 -4 13 21.22 0.83
-4 4 13 21.07 0.76
4 4 -13 19.93 0.79
4 4 -13 18.94 0.78
4 4 -13 18.8 0.6
-4 4 13 18.9 0.91
3 -4 -13 50 1.07
3 -4 -13 49.48 1.3
3 -4 -13 47.96 1.25
-3 -4 13 52.02 1.29
-3 -4 13 49.59 1.34
3 4 -13 48.78 1.34
3 4 -13 49.6 1.3
-3 4 13 50.52 1.27
-3 4 13 49.03 1.48
-2 -4 13 47.28 1.25
2 -4 -13 44.13 1.04
2 -4 -13 43.65 1.16
2 -4 -13 43.37 1.11
-2 -4 13 42.95 1.13
2 4 -13 43.95 1.23
2 4 -13 43.59 1.17
-2 4 13 42.55 1.11
-2 4 13 43.6 1.36
1 -4 -13 47.15 1.19
-1 -4 13 44.84 1.23
1 -4 -13 44.66 1.11
-1 -4 13 44.18 1.13
1 4 -13 45.33 1.16
-1 4 13 43.58 1.08
-1 4 13 44.17 1.36
-1 4 13 42 1.1
1 4 -13 43.31 1.26
0 -4 13 16.96 0.69
0 -4 13 16.21 0.65
0 -4 -13 15.87 0.64
0 -4 13 16.33 0.45
0 -4 -13 15.89 0.65
0 4 13 15.81 0.55
0 4 13 16.23 0.6
0 4 -13 16.35 0.62
0 4 -13 16.18 0.48
0 4 13 16.71 0.81
0 4 -13 15.37 0.73
-1 -4 -13 32.37 1.03
1 -4 13 32.93 1
-1 -4 -13 33.87 0.94
1 -4 13 31.33 0.84
1 -4 13 32.33 0.99
-1 4 -13 31.89 1.08
1 4 13 32.54 1.13
1 4 13 33.16 0.96
-1 4 -13 32.06 0.85
1 4 13 33.23 0.81
-1 4 -13 32.16 0.89
-2 -4 -13 30.14 1.04
2 -4 13 29.07 0.99
2 -4 13 29.86 0.98
-2 -4 -13 31.32 0.89
-2 4 -13 29.94 0.82
-2 4 -13 30.11 0.9
-2 4 -13 30.23 1.09
2 4 13 30.77 1.14
2 4 13 30.12 0.74
2 4 13 30.92 0.96
-3 -4 -13 11.45 0.52
-3 -4 -13 11.78 0.7
3 -4 13 13.07 0.66
3 -4 13 10.85 0.65
-3 4 -13 10.65 0.61
3 4 13 10.91 0.75
-3 4 -13 12.4 0.73
-3 4 -13 11.99 0.45
3 4 13 10.84 0.61
3 4 13 11.15 0.41
-4 -4 -13 1.81 0.39
-4 -4 -13 1.99 0.27
4 -4 13 2.27 0.37
4 -4 13 2.03 0.4
-4 4 -13 1.93 0.43
4 4 13 2.37 0.39
-4 4 -13 1.92 0.37
4 4 13 2.73 0.5
5 -4 13 1.43 0.36
-5 -4 -13 0.71 0.36
5 -4 13 1.2 0.38
5 4 13 0.94 0.34
5 4 13 0.9 0.42
-5 4 -13 0.45 0.3
-5 4 -13 1.09 0.41
6 -4 13 -0.15 0.37
-6 -4 -13 0.04 0.35
6 -4 13 0.48 0.31
6 4 13 0.22 0.32
6 4 13 -0.09 0.37
-6 4 -13 0.3 0.33
-6 4 -13 0.44 0.36
7 -4 13 -0.39 0.37
7 -4 13 -0.34 0.28
-7 -4 -13 -0.13 0.35
-7 4 -13 0.21 0.39
7 4 13 -0.31 0.43
7 4 13 -0.1 0.31
-7 4 -13 -0.03 0.33
8 -5 -13 0.04 0.26
8 -5 -13 0.43 0.37
8 5 -13 0.42 0.26
-8 5 13 -0.09 0.45
8 5 -13 0 0.27
7 -5 -13 1.35 0.36
7 -5 -13 1.53 0.41
-7 -5 13 1.93 0.4
-7 5 13 1.76 0.53
-7 5 13 1.09 0.44
7 5 -13 1.35 0.33
7 5 -13 1.36 0.34
-6 -5 13 20.65 0.88
6 -5 -13 19.2 0.88
6 -5 -13 19.99 0.85
-6 -5 13 17.78 0.87
-6 5 13 19.09 1.05
6 5 -13 19.7 0.85
6 5 -13 19.61 0.87
-6 5 13 19.45 0.94
5 -5 -13 31.84 1.06
-5 -5 13 31.65 1.09
5 -5 -13 32.5 1.09
-5 -5 13 33.9 1.04
5 5 -13 30.63 1.07
-5 5 13 30.51 1.23
5 5 -13 32.15 1.07
-5 5 13 30.23 1.09
4 -5 -13 26.64 0.93
-4 -5 13 27.11 0.98
4 -5 -13 26.26 0.94
-4 -5 13 29.2 0.89
4 5 -13 28.12 0.98
-4 5 13 26.8 0.97
4 5 -13 27.96 0.97
-4 5 13 25.69 1.09
3 -5 -13 61.09 1.5
3 -5 -13 58.25 1.42
-3 -5 13 58.97 1.51
-3 -5 13 59.11 1.38
3 5 -13 56.8 1.23
3 5 -13 57.26 1.53
-3 5 13 55.89 1.67
-3 5 13 58.86 1.48
3 5 -13 58.94 1.48
2 -5 -13 49.77 1.31
-2 -5 13 52.32 1.38
2 -5 -13 50.74 1.15
-2 -5 13 51.28 1.2
2 -5 -13 49.1 1.22
2 5 -13 47.95 1.29
-2 5 13 50.35 1.29
2 5 -13 49.61 1.06
-2 5 13 49.17 1.5
2 5 -13 51.6 1.4
1 -5 -13 59.46 1.42
-1 -5 13 57.97 1.47
1 -5 -13 57.7 1.34
1 -5 -13 58.3 1.29
-1 -5 13 55.34 1.32
-1 5 13 55.12 1.4
1 5 -13 54.02 1.5
-1 5 13 56.36 1.62
1 5 -13 55.03 1.19
1 5 -13 56.32 1.39
0 -5 -13 29.56 0.92
0 -5 13 29.85 0.98
0 -5 -13 29.8 0.77
0 -5 13 30.44 0.88
0 -5 -13 31.6 0.94
0 5 13 28.08 0.9
0 5 -13 30.98 1.04
0 5 13 29 1.09
0 5 -13 29.15 0.78
0 5 -13 30.1 0.89
1 -5 13 41.19 1.12
-1 -5 -13 40.77 1.11
-1 -5 -13 41.91 1.19
1 -5 13 41.38 1.2
1 5 13 41.15 1.34
-1 5 -13 40.38 1.29
-1 5 -13 40.33 1.05
-1 5 -13 40.53 1.06
1 5 13 40.38 1.15
-2 -5 -13 0.81 0.3
2 -5 13 0.57 0.25
-2 -5 -13 1.14 0.25
2 -5 13 1.15 0.3
-2 5 -13 0.76 0.24
-2 5 -13 0.89 0.2
2 5 13 0.41 0.34
-2 5 -13 1.18 0.34
2 5 13 0.7 0.26
3 -5 13 1.02 0.32
-3 -5 -13 1.3 0.35
-3 -5 -13 1.07 0.25
3 -5 13 0.79 0.3
-3 5 -13 0.92 0.36
3 5 13 1.21 0.31
-3 5 -13 1.05 0.19
-3 5 -13 1.44 0.3
3 5 13 0.91 0.38
-4 -5 -13 0.11 0.29
4 -5 13 0.46 0.32
4 -5 13 0.24 0.29
-4 -5 -13 0.8 0.23
4 5 13 0.59 0.29
4 5 13 0.36 0.38
-4 5 -13 0.98 0.3
-4 5 -13 0.25 0.33
5 -5 13 0.82 0.33
-5 -5 -13 0.44 0.34
5 -5 13 0.94 0.36
-5 5 -13 0.7 0.4
5 5 13 0.32 0.29
-5 5 -13 0.46 0.32
5 5 13 0.6 0.39
6 -5 13 2.25 0.49
-6 -5 -13 3.27 0.55
6 -5 13 2.86 0.48
6 5 13 1.58 0.43
-6 5 -13 1.81 0.44
6 5 13 2.72 0.56
-6 5 -13 2.66 0.54
7 -5 13 0.09 0.41
7 -5 13 0.84 0.38
7 5 13 0.86 0.5
-7 5 -13 0.06 0.4
-7 5 -13 0.51 0.38
7 5 13 0.51 0.41
-7 -6 13 7.13 0.64
7 -6 -13 6.79 0.7
7 -6 -13 7.24 0.59
-7 6 13 8.65 0.85
-7 6 13 7.62 0.8
7 6 -13 8.55 0.63
7 6 -13 7.9 0.65
6 -6 -13 2.28 0.4
6 -6 -13 2.66 0.45
-6 -6 13 2.38 0.42
6 6 -13 2.49 0.42
-6 6 13 2.29 0.49
-6 6 13 2.81 0.55
6 6 -13 2.13 0.38
5 -6 -13 8.95 0.64
-5 -6 13 7.96 0.62
5 -6 -13 8.34 0.58
5 6 -13 9.72 0.67
-5 6 13 9.22 0.76
5 6 -13 7.87 0.59
-5 6 13 9.67 0.7
-4 -6 13 6.37 0.43
4 -6 -13 6.5 0.51
4 -6 -13 6.52 0.55
-4 -6 13 7.04 0.57
4 6 -13 5.43 0.55
-4 6 13 7.22 0.58
-4 6 13 5.52 0.64
4 6 -13 5.97 0.51
3 -6 -13 11.35 0.61
-3 -6 13 13.01 0.67
-3 -6 13 12.13 0.5
3 -6 -13 11.43 0.61
3 6 -13 11.89 0.63
3 6 -13 11.54 0.67
-3 6 13 11.46 0.77
-3 6 13 12.46 0.68
-2 -6 13 10.15 0.44
-2 -6 13 9.67 0.61
2 -6 -13 10.83 0.44
2 -6 -13 9.89 0.57
2 -6 -13 10.35 0.53
2 6 -13 10.32 0.43
-2 6 13 10.63 0.59
2 6 -13 10.01 0.64
-2 6 13 10.06 0.72
-1 -6 13 1.76 0.24
1 -6 -13 1.34 0.27
-1 -6 13 2.17 0.35
1 -6 -13 1.75 0.25
1 -6 -13 1.74 0.26
1 6 -13 1.79 0.27
-1 6 13 1.79 0.33
-1 6 13 1.29 0.38
1 6 -13 1.42 0.33
0 -6 -13 3.09 0.28
0 -6 -13 2.1 0.32
0 -6 -13 2.78 0.4
0 -6 13 3.11 0.42
0 -6 13 2.69 0.29
0 6 13 2.13 0.34
0 6 -13 2.51 0.35
0 6 -13 2.34 0.31
0 6 13 1.84 0.41
0 6 -13 2.67 0.41
-1 -6 -13 1.27 0.17
-1 -6 -13 1.32 0.26
1 -6 13 1.38 0.26
-1 -6 -13 1.38 0.32
1 -6 13 0.92 0.29
1 6 13 0.93 0.29
-1 6 -13 1.4 0.26
1 6 13 1.86 0.42
-1 6 -13 1.49 0.37
-1 6 -13 1.53 0.26
-2 -6 -13 -0.13 0.19
-2 -6 -13 0.38 0.28
2 -6 13 0.06 0.25
2 -6 13 -0.23 0.21
-2 6 -13 0.2 0.21
-2 6 -13 0.32 0.18
2 6 13 0.35 0.35
-2 6 -13 -0.02 0.27
2 6 13 0.25 0.27
-3 -6 -13 0.3 0.3
-3 -6 -13 0.72 0.24
3 -6 13 0.07 0.25
3 -6 13 0.57 0.29
3 6 13 0.47 0.28
-3 6 -13 0.55 0.18
3 6 13 0.22 0.35
-3 6 -13 0.28 0.32
-3 6 -13 0.23 0.26
-4 -6 -13 8.41 0.7
4 -6 13 6.71 0.61
4 -6 13 8.44 0.65
-4 -6 -13 8.29 0.5
4 6 13 8.71 0.76
-4 6 -13 8.41 0.64
4 6 13 7.37 0.64
-4 6 -13 8.03 0.72
5 -6 13 2.8 0.45
-5 -6 -13 2.99 0.5
5 -6 13 3.36 0.5
-5 6 -13 4.02 0.56
5 6 13 3.51 0.54
5 6 13 3.44 0.6
-5 6 -13 3.68 0.58
6 -6 13 5.88 0.68
6 -6 13 6.93 0.72
-6 -6 -13 5.8 0.74
6 6 13 6.97 0.85
6 6 13 7.73 0.74
-6 6 -13 6.06 0.74
-6 6 -13 6.84 0.74
-7 -7 13 2.64 0.46
7 -7 -13 2.36 0.5
7 -7 -13 2.03 0.4
7 7 -13 2.53 0.44
-7 7 13 4.19 0.61
7 7 -13 2.72 0.46
-7 7 13 3.15 0.6
6 -7 -13 0.27 0.31
-6 -7 13 0.14 0.29
6 -7 -13 0.17 0.3
6 7 -13 0.45 0.31
6 7 -13 0.29 0.29
-6 7 13 0.52 0.37
-6 7 13 -0.16 0.42
5 -7 -13 2.39 0.41
-5 -7 13 2.43 0.41
5 -7 -13 1.78 0.38
5 7 -13 2.46 0.44
5 7 -13 2.49 0.41
-5 7 13 2.38 0.48
-5 7 13 2.44 0.5
4 -7 -13 -0.21 0.24
4 -7 -13 0.1 0.25
-4 -7 13 0.02 0.24
4 7 -13 -0.19 0.26
-4 7 13 0.12 0.3
-4 7 13 0.6 0.36
3 -7 -13 0.42 0.23
3 -7 -13 0.16 0.24
-3 -7 13 0.42 0.25
-3 -7 13 0.24 0.27
-3 7 13 0.36 0.33
-3 7 13 0.37 0.34
3 7 -13 -0.08 0.24
-2 -7 13 1.52 0.33
2 -7 -13 1.07 0.23
-2 -7 13 1.49 0.31
2 -7 -13 1.34 0.3
2 -7 -13 1.67 0.28
2 7 -13 0.95 0.34
-2 7 13 1.26 0.39
2 7 -13 1.41 0.23
-2 7 13 1.62 0.36
1 -7 -13 0.33 0.23
-1 -7 13 0.07 0.23
1 -7 -13 0.33 0.21
1 -7 -13 0.29 0.19
-1 -7 13 0.02 0.23
1 7 -13 0.38 0.19
1 7 -13 0.45 0.28
-1 7 13 0.59 0.31
-1 7 13 0.22 0.32
0 -7 -13 3.45 0.42
0 -7 -13 2.88 0.38
0 -7 -13 2.56 0.27
0 -7 13 3.25 0.46
0 -7 13 2.85 0.41
0 7 -13 3.47 0.36
0 7 13 3.23 0.48
0 7 -13 3.29 0.48
0 7 13 3.25 0.5
-1 -7 -13 -0.18 0.2
1 -7 13 0.1 0.15
1 -7 13 -0.04 0.24
-1 -7 -13 0.48 0.26
1 7 13 -0.72 0.29
1 7 13 0.01 0.25
-1 7 -13 -0.16 0.2
-1 7 -13 0.01 0.27
-2 -7 -13 0.93 0.27
2 -7 13 1.11 0.33
2 -7 13 0.72 0.23
-2 -7 -13 1.35 0.34
-2 7 -13 1.08 0.23
2 7 13 0.5 0.3
2 7 13 1.17 0.39
-2 7 -13 1.08 0.39
-2 7 -13 0.75 0.28
3 -7 13 0.43 0.3
3 -7 13 0.39 0.25
-3 -7 -13 0.9 0.34
-3 -7 -13 0.26 0.24
-3 7 -13 0.46 0.28
3 7 13 0.88 0.4
-3 7 -13 0.33 0.18
-3 7 -13 0.43 0.38
3 7 13 0.77 0.33
-4 -7 -13 1.68 0.43
4 -7 13 2.26 0.4
-4 -7 -13 1.98 0.33
4 -7 13 2.09 0.42
-4 7 -13 2.51 0.45
-4 7 -13 1.93 0.46
4 7 13 1.52 0.46
4 7 13 1.8 0.41
5 -7 13 2.3 0.47
-5 -7 -13 2.6 0.52
5 -7 13 2.67 0.45
5 7 13 2.21 0.47
-5 7 -13 2.34 0.51
5 7 13 3.31 0.61
-5 7 -13 3.47 0.53
6 -7 13 4.37 0.63
6 -7 13 5.14 0.68
-6 -7 -13 4.06 0.63
6 7 13 5.03 0.69
-6 7 -13 4 0.62
6 7 13 3.89 0.68
-6 7 -13 3.95 0.59
-7 -8 13 0.19 0.32
7 -8 -13 0.09 0.35
7 -8 -13 0.32 0.3
7 8 -13 -0.07 0.3
-7 8 13 0.78 0.51
-7 8 13 0.32 0.45
7 8 -13 0.94 0.37
6 -8 -13 0.51 0.35
6 -8 -13 -0.03 0.27
-6 -8 13 -0.06 0.26
6 8 -13 0.29 0.32
-6 8 13 0.48 0.45
-6 8 13 0.41 0.41
6 8 -13 -0.14 0.28
5 -8 -13 -0.05 0.25
5 -8 -13 0.21 0.3
-5 -8 13 0.14 0.27
-5 8 13 0.97 0.42
5 8 -13 0.02 0.29
-5 8 13 0.05 0.39
4 -8 -13 0.36 0.27
-4 -8 13 0.38 0.27
-4 -8 13 0.87 0.32
4 -8 -13 0.71 0.3
4 8 -13 0.15 0.31
-4 8 13 1.01 0.41
-4 8 13 0.79 0.41
3 -8 -13 1.71 0.32
3 -8 -13 1.17 0.31
-3 -8 13 1.16 0.33
-3 -8 13 1.87 0.37
3 8 -13 1.32 0.36
-3 8 13 1.75 0.42
-3 8 13 1.35 0.44
2 -8 -13 1.18 0.3
-2 -8 13 0.76 0.29
2 -8 -13 1.13 0.28
-2 -8 13 1.08 0.33
-2 8 13 1.23 0.4
2 8 -13 0.85 0.34
-2 8 13 0.55 0.32
1 -8 -13 0.21 0.19
-1 -8 13 0.43 0.28
1 -8 -13 -0.05 0.2
-1 -8 13 0.31 0.25
1 -8 -13 -0.06 0.23
1 8 -13 0.46 0.28
1 8 -13 0.12 0.2
-1 8 13 0.11 0.34
-1 8 13 0.1 0.3
0 -8 13 0.36 0.25
0 -8 -13 0.48 0.25
0 -8 13 0.47 0.28
0 -8 -13 0.19 0.25
0 8 -13 0.21 0.31
0 8 13 0.08 0.27
0 8 13 0.5 0.37
0 8 -13 0.32 0.22
1 -8 13 -0.16 0.21
-1 -8 -13 -0.23 0.23
1 -8 13 0.05 0.27
-1 -8 -13 0.17 0.24
-1 8 -13 0.11 0.29
1 8 13 0.06 0.32
1 8 13 -0.04 0.27
-1 8 -13 0.06 0.23
-2 -8 -13 -0.11 0.23
2 -8 13 0.27 0.3
-2 -8 -13 0.6 0.31
-2 8 -13 0.29 0.26
2 8 13 -0.39 0.27
-2 8 -13 -0.2 0.32
2 8 13 -0.51 0.35
3 -8 13 3.47 0.49
-3 -8 -13 4.15 0.47
-3 -8 -13 3.51 0.51
3 8 13 4.33 0.67
-3 8 -13 4.24 0.59
-3 8 -13 4.81 0.57
3 8 13 4.92 0.59
-4 -8 -13 0.71 0.28
4 -8 13 0.65 0.36
-4 -8 -13 0.96 0.39
-4 8 -13 1.13 0.41
4 8 13 -0.21 0.39
4 8 13 1 0.39
-4 8 -13 0.6 0.34
-5 -8 -13 -0.19 0.32
5 -8 13 0.09 0.3
5 8 13 0.13 0.35
-5 8 -13 0.72 0.38
5 8 13 -0.6 0.38
-5 8 -13 0.31 0.37
6 -9 -13 0.14 0.36
-6 -9 13 0.89 0.34
6 -9 -13 0.21 0.32
6 9 -13 -0.05 0.29
-6 9 13 0.79 0.47
-6 9 13 0.19 0.47
-5 -9 13 0.7 0.35
5 -9 -13 1.68 0.39
-5 -9 13 1.54 0.37
5 -9 -13 2.36 0.43
-5 9 13 1.66 0.48
5 9 -13 1.58 0.42
-5 9 13 0.93 0.44
4 -9 -13 1.46 0.35
4 -9 -13 1.72 0.41
-4 -9 13 1.86 0.39
-4 -9 13 2.06 0.39
4 9 -13 1.36 0.41
-4 9 13 1.29 0.44
-4 9 13 1.18 0.46
3 -9 -13 0.98 0.32
-3 -9 13 1.68 0.37
3 -9 -13 1.37 0.32
-3 -9 13 1.42 0.35
-3 9 13 1.19 0.43
-3 9 13 1 0.44
3 9 -13 1.4 0.39
2 -9 -13 -0.35 0.24
-2 -9 13 -0.06 0.27
-2 -9 13 0 0.24
2 -9 -13 0.18 0.22
2 9 -13 -0.21 0.27
-2 9 13 -0.24 0.34
-2 9 13 0.52 0.35
-1 -9 13 3.97 0.52
-1 -9 13 4.98 0.51
1 -9 -13 3.72 0.49
-1 9 13 4.86 0.59
-1 9 13 4.07 0.62
1 9 -13 4.17 0.6
0 -9 -13 1.85 0.37
0 -9 -13 2.36 0.37
0 -9 13 1.87 0.35
0 -9 13 2.15 0.41
0 9 -13 2.52 0.46
0 9 13 2.36 0.48
0 9 -13 2.29 0.36
0 9 13 2.33 0.43
-1 -9 -13 -0.09 0.25
-1 -9 -13 0.22 0.28
1 -9 13 0.27 0.31
1 -9 13 0.43 0.25
-1 9 -13 0.33 0.26
-1 9 -13 0.52 0.36
1 9 13 0.17 0.32
1 9 13 0.22 0.37
2 -9 13 0.13 0.3
-2 -9 -13 -0.38 0.25
2 -9 13 0.13 0.23
-2 -9 -13 0.11 0.26
2 9 13 0.06 0.37
2 9 13 -0.26 0.3
-2 9 -13 0.31 0.35
-2 9 -13 -0.08 0.25
-3 -9 -13 0.55 0.35
-3 -9 -13 1.27 0.32
3 -9 13 0.39 0.31
-3 9 -13 1.23 0.38
-3 9 -13 1.41 0.41
3 9 13 0.77 0.37
3 9 13 1.07 0.47
-4 -9 -13 1.68 0.35
-4 -9 -13 2.04 0.45
4 -9 13 1.89 0.43
-4 9 -13 1.88 0.44
-4 9 -13 1.87 0.49
4 9 13 1.82 0.53
4 9 13 2.1 0.48
-5 -9 -13 2.5 0.5
5 -9 13 2.82 0.5
-5 9 -13 2.32 0.51
5 9 13 1.73 0.56
-5 9 -13 2.67 0.55
5 9 13 3.51 0.59
-5 -10 13 4.28 0.58
5 -10 -13 3.09 0.5
-5 -10 13 5.04 0.63
5 -10 -13 3.52 0.51
-5 10 13 5 0.77
-5 10 13 4.14 0.63
5 10 -13 3.78 0.58
-4 -10 13 2.71 0.45
-4 -10 13 2.73 0.47
4 -10 -13 3.09 0.48
4 -10 -13 2.72 0.44
4 10 -13 2.53 0.49
-4 10 13 2.34 0.54
-4 10 13 2.88 0.57
3 -10 -13 6.61 0.58
-3 -10 13 5.47 0.61
3 -10 -13 5.73 0.61
-3 -10 13 7.22 0.63
-3 10 13 6.46 0.74
3 10 -13 5.59 0.64
-3 10 13 6.28 0.69
-2 -10 13 2.66 0.46
-2 -10 13 2.29 0.41
2 -10 -13 1.29 0.37
-2 10 13 2.14 0.49
-2 10 13 2.98 0.55
2 10 -13 3.37 0.52
-1 -10 13 1.39 0.37
1 -10 -13 0.82 0.31
-1 -10 13 1.28 0.34
1 10 -13 1.72 0.42
-1 10 13 0.58 0.41
-1 10 13 1.06 0.4
0 -10 13 0.85 0.35
0 -10 13 -0.37 0.23
0 -10 -13 0.18 0.26
0 -10 -13 0.12 0.29
0 10 13 -0.1 0.33
0 10 13 0.41 0.39
0 10 -13 0.07 0.34
1 -10 13 0.51 0.28
-1 -10 -13 0.64 0.3
-1 -10 -13 0.64 0.32
1 -10 13 0.3 0.32
-1 10 -13 0.71 0.3
1 10 13 0.01 0.34
1 10 13 0.78 0.42
-1 10 -13 0.7 0.38
2 -10 13 0.83 0.29
-2 -10 -13 1.24 0.34
2 -10 13 1.55 0.42
-2 -10 -13 0.28 0.34
2 10 13 1.22 0.42
-2 10 -13 1.3 0.41
2 10 13 1.93 0.47
-2 10 -13 1.45 0.4
-3 -10 -13 0 0.28
3 -10 13 0.32 0.34
-3 -10 -13 -0.14 0.33
-3 10 -13 -0.19 0.34
-3 10 -13 0.37 0.33
3 10 13 -0.42 0.34
3 10 13 0.09 0.42
-4 -10 -13 0.58 0.28
-4 -10 -13 0.36 0.37
4 -10 13 0.57 0.38
4 10 13 0.58 0.45
-4 10 -13 -0.67 0.36
4 10 13 0.16 0.39
-4 10 -13 0.54 0.4
4 -11 -13 3 0.49
-4 -11 13 2.42 0.44
4 -11 -13 3.45 0.49
-4 -11 13 3.11 0.49
4 11 -13 2.74 0.53
-4 11 13 1.24 0.48
-4 11 13 4.06 0.61
-3 -11 13 4.52 0.61
3 -11 -13 4.44 0.56
-3 -11 13 5.59 0.61
-3 11 13 4.99 0.73
-3 11 13 5.48 0.8
3 11 -13 8.01 0.75
-2 -11 13 3.65 0.52
2 -11 -13 2.36 0.45
-2 -11 13 2.55 0.45
-2 11 13 2.24 0.51
-2 11 13 1.98 0.51
2 11 -13 2.96 0.53
1 -11 -13 0.63 0.35
-1 -11 13 0.46 0.34
-1 -11 13 0.86 0.33
-1 11 13 1.37 0.44
-1 11 13 0.72 0.41
1 11 -13 0.77 0.4
0 -11 -13 0.19 0.29
0 -11 13 0.49 0.33
0 -11 13 0.65 0.3
0 11 13 0.09 0.39
0 11 13 0.12 0.41
0 11 -13 0.29 0.35
1 -11 13 1.14 0.38
1 -11 13 0.91 0.32
-1 -11 -13 -0.48 0.29
-1 -11 -13 -0.17 0.27
-1 11 -13 -0.42 0.32
1 11 13 0.46 0.4
1 11 13 0.12 0.39
-2 -11 -13 0.89 0.38
-2 -11 -13 0.04 0.28
2 -11 13 0.57 0.29
2 -11 13 1.07 0.39
-2 11 -13 1.08 0.43
2 11 13 0.47 0.43
2 11 13 0.05 0.36
-3 -11 -13 0.63 0.39
3 -11 13 0.49 0.35
-3 -11 -13 0.49 0.31
-3 11 -13 1.87 0.49
3 11 13 1.7 0.51
3 11 13 1.26 0.47
-3 11 -13 1.06 0.43
3 -12 -13 2.62 0.51
-3 -12 13 3.9 0.58
-3 12 13 3.87 0.68
-3 12 13 3.47 0.6
-2 -12 13 0.96 0.37
-2 -12 13 1.49 0.39
2 -12 -13 1.08 0.4
2 12 -13 1.43 0.46
-2 12 13 1.49 0.45
-2 12 13 1.26 0.49
-1 -12 13 1.66 0.42
1 -12 -13 1.12 0.38
-1 -12 13 1.73 0.42
-1 12 13 1.23 0.5
1 12 -13 1.28 0.45
-1 12 13 1.37 0.47
0 -12 13 1.69 0.4
0 -12 13 0.93 0.38
0 -12 -13 1.13 0.4
0 12 -13 1.6 0.47
0 12 13 0.75 0.44
0 12 13 0.52 0.48
1 -12 13 3.66 0.54
1 -12 13 2.5 0.42
-1 -12 -13 2.81 0.47
-1 12 -13 2.76 0.56
1 12 13 3.51 0.58
1 12 13 2.25 0.54
8 0 -14 9.37 0.64
-8 0 14 7.91 0.79
8 0 -14 8.61 0.71
-7 0 14 3.98 0.59
7 0 -14 3.94 0.5
7 0 -14 4.56 0.55
6 0 -14 7.71 0.58
6 0 -14 7.28 0.6
-6 0 14 6.8 0.67
-5 0 14 10.97 0.64
5 0 -14 11.75 0.5
-5 0 14 12.36 0.73
5 0 -14 12.77 0.65
4 0 -14 26.1 0.9
-4 0 14 25.83 1
4 0 -14 27.02 0.81
-4 0 14 26.45 0.94
-3 0 14 6.98 0.49
3 0 -14 6.72 0.45
-3 0 14 7.01 0.56
3 0 -14 7.24 0.49
-2 0 14 20.07 0.83
2 0 -14 19.64 0.72
-2 0 14 19.35 0.74
2 0 -14 20.91 0.74
-1 0 14 20.36 0.84
-1 0 14 19.45 0.72
1 0 -14 19.87 0.76
1 0 -14 19.27 0.69
0 0 14 36.4 1
0 0 14 36.72 1.15
0 0 -14 34.43 1.07
0 0 -14 35.65 0.97
-1 0 -14 5.73 0.39
1 0 14 5.17 0.28
-1 0 -14 5.47 0.5
1 0 14 5.71 0.42
1 0 14 5.12 0.28
1 0 14 5.36 0.51
-2 0 -14 8.19 0.42
-2 0 -14 9.08 0.61
2 0 14 8.5 0.47
2 0 14 7.68 0.58
2 0 14 7.63 0.41
-3 0 -14 3.4 0.29
-3 0 -14 3.33 0.47
3 0 14 4.09 0.4
3 0 14 3.37 0.49
-4 0 -14 0.23 0.24
4 0 14 -0.19 0.27
-4 0 -14 0.12 0.29
4 0 14 0.27 0.22
5 0 14 9.26 0.77
-5 0 -14 9.8 0.68
5 0 14 9.72 0.55
-5 0 -14 9.89 0.75
6 0 14 1.29 0.48
-6 0 -14 1.07 0.36
-6 0 -14 1.44 0.41
7 0 14 12.07 0.96
-7 0 -14 11.26 0.87
-7 0 -14 11.68 0.89
8 -1 -14 3.44 0.48
8 -1 -14 2.23 0.44
-8 -1 14 2.01 0.5
8 1 -14 3.58 0.48
-8 1 14 2.03 0.54
8 1 -14 2.21 0.45
-7 -1 14 0.25 0.36
7 -1 -14 0.44 0.31
7 -1 -14 -0.07 0.23
7 1 -14 0.85 0.34
7 1 -14 0.42 0.27
-7 1 14 0.29 0.37
6 -1 -14 4.24 0.52
-6 -1 14 4.63 0.6
6 -1 -14 4.28 0.49
6 1 -14 3.41 0.48
-6 1 14 4.04 0.62
5 -1 -14 2.68 0.37
-5 -1 14 3.34 0.52
-5 -1 14 2.55 0.4
-5 1 14 2.94 0.47
5 1 -14 2.6 0.37
5 1 -14 2.52 0.32
-4 -1 14 6.17 0.57
4 -1 -14 6.58 0.39
4 -1 -14 5.93 0.49
-4 -1 14 6.56 0.52
-4 1 14 6.78 0.51
-4 1 14 7.39 0.6
-4 1 14 6.2 0.32
4 1 -14 6.26 0.44
4 1 -14 6.56 0.5
3 -1 -14 0.58 0.22
-3 -1 14 0.79 0.26
3 -1 -14 0.82 0.23
-3 -1 14 1.06 0.31
-3 1 14 1.5 0.35
-3 1 14 0.78 0.25
3 1 -14 1.26 0.26
3 1 -14 1.13 0.26
-2 -1 14 10.47 0.56
2 -1 -14 11.19 0.52
-2 -1 14 9.61 0.59
2 -1 -14 10.66 0.54
2 1 -14 9.99 0.56
2 1 -14 9.9 0.52
-2 1 14 10.8 0.64
-2 1 14 10.8 0.55
-1 -1 14 10.34 0.55
1 -1 -14 11.34 0.55
1 -1 -14 11.39 0.57
-1 -1 14 11.56 0.64
-1 1 14 10.3 0.66
-1 1 14 10.5 0.53
1 1 -14 11.03 0.53
1 1 -14 11.11 0.58
0 -1 14 19.63 0.82
0 -1 14 19.06 0.72
0 -1 -14 19.58 0.67
0 -1 -14 20.83 0.77
0 1 14 18.38 0.5
0 1 14 18.27 0.51
0 1 14 18.54 0.83
0 1 14 19.28 0.68
0 1 -14 19.28 0.67
0 1 -14 18.92 0.8
1 -1 14 2.54 0.36
-1 -1 -14 2.34 0.31
1 -1 14 2.65 0.4
-1 -1 -14 2.11 0.36
1 -1 14 2.48 0.23
1 -1 14 2.09 0.21
-1 1 -14 2.99 0.43
1 1 14 2.33 0.33
1 1 14 1.78 0.23
1 1 14 2.18 0.38
1 1 14 2.44 0.25
-1 1 -14 2.79 0.31
2 -1 14 2.6 0.37
2 -1 14 1.96 0.39
-2 -1 -14 2.48 0.4
-2 -1 -14 2.93 0.29
-2 1 -14 2.51 0.31
2 1 14 2.69 0.42
-2 1 -14 2.37 0.29
-2 1 -14 1.82 0.36
2 1 14 2.57 0.33
2 1 14 2.62 0.3
-3 -1 -14 11.1 0.46
3 -1 14 11.71 0.71
3 -1 14 12.17 0.58
-3 -1 -14 10.83 0.7
-3 1 -14 10.54 0.7
-3 1 -14 12.03 0.58
3 1 14 10.88 0.73
3 1 14 11.27 0.52
3 1 14 10.08 0.55
-3 1 -14 11.15 0.45
-4 -1 -14 5.16 0.3
4 -1 14 6.18 0.48
-4 -1 -14 4.87 0.57
4 -1 14 4.66 0.59
-4 1 -14 5.16 0.61
4 1 14 4.73 0.47
4 1 14 5.5 0.6
-4 1 -14 4.22 0.47
4 1 14 5.63 0.41
5 -1 14 0.89 0.39
-5 -1 -14 0.77 0.34
5 -1 14 0.77 0.27
5 1 14 0.84 0.25
-5 1 -14 0.91 0.32
-5 1 -14 1.07 0.4
5 1 14 1.04 0.41
6 -1 14 1.91 0.5
-6 -1 -14 1.59 0.44
6 -1 14 1.41 0.31
-6 1 -14 1.11 0.43
-6 1 -14 1.35 0.39
6 1 14 1.19 0.46
7 -1 14 1.8 0.51
-7 -1 -14 1.17 0.45
-7 1 -14 1.35 0.42
-7 1 -14 1.05 0.44
7 1 14 1.38 0.5
-8 -2 14 1.81 0.48
8 -2 -14 1.75 0.37
8 -2 -14 2.24 0.47
8 2 -14 2.09 0.4
-8 2 14 1.49 0.51
8 2 -14 1.56 0.41
7 -2 -14 2.19 0.42
7 -2 -14 2.22 0.37
-7 -2 14 2.55 0.48
7 2 -14 2.4 0.43
-7 2 14 1.82 0.51
7 2 -14 2.16 0.38
6 -2 -14 0.77 0.27
-6 -2 14 0.22 0.31
-6 -2 14 0.56 0.3
6 -2 -14 0.36 0.27
6 2 -14 0.49 0.28
6 2 -14 0.23 0.18
-6 2 14 0.64 0.4
5 -2 -14 -0.16 0.21
5 -2 -14 -0.11 0.23
-5 -2 14 -0.08 0.29
-5 -2 14 0.22 0.27
-5 2 14 0.16 0.33
5 2 -14 -0.14 0.23
5 2 -14 0.18 0.2
-5 2 14 0.07 0.18
-4 -2 14 0.05 0.26
4 -2 -14 0.33 0.22
4 -2 -14 0.09 0.15
-4 -2 14 -0.07 0.22
4 2 -14 0.2 0.19
-4 2 14 -0.2 0.29
4 2 -14 0.03 0.22
-4 2 14 0.44 0.15
3 -2 -14 0.06 0.2
-3 -2 14 0.25 0.24
-3 -2 14 0.11 0.25
3 -2 -14 0.2 0.18
-3 2 14 0.14 0.12
-3 2 14 0.18 0.22
3 2 -14 -0.03 0.18
-3 2 14 0.31 0.29
3 2 -14 0.21 0.21
2 -2 -14 0.07 0.18
-2 -2 14 0.01 0.2
-2 -2 14 0.43 0.25
2 -2 -14 0.16 0.19
2 2 -14 0.07 0.2
-2 2 14 0.25 0.21
2 2 -14 -0.05 0.2
-2 2 14 -0.23 0.23
-1 -2 14 0.16 0.21
-1 -2 14 -0.05 0.23
1 -2 -14 0.28 0.19
1 -2 -14 0.38 0.21
-1 2 14 0.13 0.18
-1 2 14 -0.01 0.1
-1 2 14 -0.32 0.25
-1 2 14 -0.07 0.08
1 2 -14 -0.07 0.18
1 2 -14 -0.25 0.2
0 -2 14 0.35 0.25
0 -2 -14 0.01 0.18
0 -2 -14 0.08 0.21
0 -2 14 -0.25 0.18
0 2 14 -0.12 0.17
0 2 14 0.14 0.12
0 2 14 0.37 0.3
0 2 -14 -0.09 0.16
0 2 14 0.29 0.12
0 2 -14 0.08 0.2
1 -2 14 4.84 0.43
1 -2 14 5.26 0.49
-1 -2 -14 4.82 0.45
-1 -2 -14 4.78 0.37
1 -2 14 4.99 0.27
1 2 14 4.74 0.37
-1 2 -14 4.63 0.28
1 2 14 4.62 0.53
-1 2 -14 4.07 0.35
-1 2 -14 4.67 0.51
1 2 14 4.79 0.32
2 -2 14 4.27 0.41
-2 -2 -14 4.28 0.36
2 -2 14 4.43 0.49
-2 -2 -14 3.7 0.47
2 2 14 4.2 0.35
2 2 14 4.01 0.52
-2 2 -14 4.47 0.33
-2 2 -14 3.82 0.34
2 2 14 3.91 0.36
-2 2 -14 3.57 0.49
-3 -2 -14 0.36 0.17
3 -2 14 0.64 0.25
-3 -2 -14 0.72 0.34
3 -2 14 0.6 0.3
-3 2 -14 0.58 0.33
-3 2 -14 0.73 0.23
-3 2 -14 0.44 0.16
3 2 14 0.7 0.24
3 2 14 0.59 0.34
3 2 14 0.35 0.18
-4 -2 -14 0.05 0.26
4 -2 14 -0.12 0.22
4 -2 14 0.04 0.3
-4 -2 -14 -0.03 0.14
-4 2 -14 0.07 0.33
-4 2 -14 0.48 0.24
4 2 14 -0.27 0.27
4 2 14 0.31 0.18
4 2 14 0.09 0.23
5 -2 14 1.53 0.44
5 -2 14 1.12 0.31
-5 -2 -14 1.23 0.4
-5 2 -14 1.19 0.4
-5 2 -14 0.92 0.33
5 2 14 0.13 0.37
5 2 14 0.81 0.31
6 -2 14 0.52 0.28
6 -2 14 0.51 0.39
-6 -2 -14 0.22 0.34
6 2 14 -0.51 0.35
-6 2 -14 0.55 0.33
-6 2 -14 0.28 0.36
6 2 14 0.29 0.3
-7 -2 -14 1.7 0.48
7 -2 14 1.48 0.52
-7 2 -14 1.77 0.48
7 2 14 1.12 0.51
7 2 14 1.98 0.46
-7 2 -14 2.17 0.5
8 -3 -14 0.03 0.24
-8 -3 14 -0.26 0.35
8 -3 -14 0.07 0.33
8 3 -14 -0.14 0.3
8 3 -14 0.57 0.28
-8 3 14 -0.97 0.37
7 -3 -14 1.72 0.42
-7 -3 14 0.33 0.35
7 -3 -14 0.65 0.3
7 3 -14 0.99 0.32
-7 3 14 0.27 0.41
6 -3 -14 19.32 0.88
-6 -3 14 20.98 0.94
-6 -3 14 18.7 0.9
6 -3 -14 19.09 0.81
6 3 -14 19.12 0.76
6 3 -14 19.92 0.88
-6 3 14 20.49 1.06
-5 -3 14 7.35 0.58
5 -3 -14 7.01 0.53
-5 -3 14 7.73 0.61
5 -3 -14 6.45 0.54
-5 3 14 6.87 0.5
-5 3 14 7.24 0.69
5 3 -14 7.11 0.49
5 3 -14 7.07 0.53
4 -3 -14 3.2 0.43
-4 -3 14 3.07 0.44
-4 -3 14 2.58 0.38
4 -3 -14 3.24 0.44
4 3 -14 2.94 0.4
4 3 -14 2.75 0.4
-4 3 14 2.75 0.35
-4 3 14 2.7 0.44
-3 -3 14 10.08 0.58
3 -3 -14 8.78 0.41
3 -3 -14 8.82 0.53
-3 -3 14 9.28 0.57
3 3 -14 8.74 0.54
3 3 -14 8.28 0.53
-3 3 14 8.91 0.43
-3 3 14 8.81 0.65
2 -3 -14 35.55 1.04
-2 -3 14 36.66 1.05
-2 -3 14 36.78 1.09
2 -3 -14 36.14 0.95
-2 3 14 33.58 0.99
-2 3 14 35 0.88
-2 3 14 36.08 1.22
2 3 -14 34.46 1.03
2 3 -14 33.5 1.08
1 -3 -14 9.37 0.51
-1 -3 14 9 0.54
-1 -3 14 9.08 0.54
1 -3 -14 8.3 0.49
-1 3 14 8.12 0.38
-1 3 14 9.89 0.49
1 3 -14 8.12 0.55
-1 3 14 8.75 0.64
1 3 -14 8.79 0.5
0 -3 14 15.33 0.67
0 -3 -14 14.45 0.61
0 -3 -14 15.27 0.68
0 -3 14 15.61 0.69
0 3 14 13.77 0.76
0 3 14 14.11 0.51
0 3 -14 14.99 0.74
0 3 -14 14.99 0.61
0 3 14 15.02 0.57
-1 -3 -14 2.89 0.35
1 -3 14 3.14 0.41
-1 -3 -14 2.02 0.34
1 -3 14 2.95 0.42
1 3 14 2.21 0.3
1 3 14 1.77 0.36
-1 3 -14 1.97 0.36
-1 3 -14 2.56 0.32
1 3 14 2.19 0.3
-1 3 -14 2.43 0.26
-2 -3 -14 0.16 0.26
2 -3 14 -0.07 0.22
-2 -3 -14 0.03 0.17
2 -3 14 -0.23 0.23
-2 3 -14 -0.06 0.16
-2 3 -14 0.13 0.25
-2 3 -14 0.17 0.16
2 3 14 0.16 0.19
2 3 14 -0.14 0.27
2 3 14 -0.07 0.15
3 -3 14 1.11 0.29
-3 -3 -14 0.73 0.3
-3 -3 -14 0.85 0.21
3 -3 14 0.75 0.32
3 3 14 1 0.2
3 3 14 0.87 0.27
-3 3 -14 0.65 0.34
-3 3 -14 1.12 0.19
-3 3 -14 1.01 0.26
3 3 14 1.11 0.38
-4 -3 -14 5.27 0.35
4 -3 14 4.32 0.56
-4 -3 -14 4.64 0.57
4 -3 14 4.9 0.49
4 3 14 4.66 0.62
-4 3 -14 3.57 0.48
-4 3 -14 3.99 0.57
4 3 14 3.24 0.46
-5 -3 -14 0.48 0.34
5 -3 14 0.27 0.34
5 -3 14 0.17 0.26
-5 3 -14 -0.17 0.34
5 3 14 0.35 0.28
5 3 14 0.37 0.38
-5 3 -14 0.59 0.3
-6 -3 -14 1.13 0.42
6 -3 14 1.56 0.37
6 -3 14 1.68 0.47
6 3 14 2.34 0.56
-6 3 -14 2.55 0.52
-6 3 -14 1.77 0.43
6 3 14 1.52 0.4
-7 -3 -14 1.93 0.51
7 -3 14 2.23 0.52
7 -3 14 1.99 0.41
-7 3 -14 1.36 0.47
-7 3 -14 1.29 0.42
7 3 14 2.37 0.62
7 3 14 1.77 0.44
8 -4 -14 1.13 0.33
-8 -4 14 1.23 0.41
8 -4 -14 1.64 0.43
8 4 -14 1.45 0.35
-8 4 14 0.34 0.47
8 4 -14 1.23 0.38
7 -4 -14 0.68 0.3
-7 -4 14 0.59 0.33
-7 -4 14 0.68 0.38
7 -4 -14 0.67 0.36
7 4 -14 0.79 0.27
-7 4 14 0.65 0.43
7 4 -14 0.74 0.31
-6 -4 14 8.36 0.64
6 -4 -14 7.96 0.66
-6 -4 14 7.83 0.66
6 -4 -14 7.44 0.58
6 4 -14 8.02 0.54
6 4 -14 7.94 0.62
-6 4 14 7.95 0.78
-5 -4 14 2.1 0.39
-5 -4 14 2.67 0.4
5 -4 -14 2.04 0.36
5 -4 -14 2.27 0.38
-5 4 14 2.92 0.45
-5 4 14 1.97 0.48
5 4 -14 3.4 0.44
5 4 -14 2.01 0.36
-4 -4 14 0.44 0.26
4 -4 -14 -0.08 0.21
-4 -4 14 0.12 0.25
4 -4 -14 0.37 0.25
4 4 -14 0.3 0.24
-4 4 14 0.28 0.21
-4 4 14 -0.12 0.29
4 4 -14 0.23 0.24
3 -4 -14 11.43 0.6
-3 -4 14 11.3 0.63
-3 -4 14 11.66 0.6
3 -4 -14 11.16 0.58
3 -4 -14 11.73 0.44
3 4 -14 12.04 0.63
-3 4 14 12.01 0.75
3 4 -14 11.73 0.6
-3 4 14 11.96 0.54
-2 -4 14 33.48 0.97
2 -4 -14 32.99 1.01
-2 -4 14 33.19 1.06
2 -4 -14 33.31 0.88
-2 4 14 34.61 1.2
2 4 -14 33.62 1.09
2 4 -14 33.37 1.01
-2 4 14 30.41 0.9
-1 -4 14 1.73 0.32
-1 -4 14 1.52 0.28
1 -4 -14 1.97 0.32
1 -4 -14 2.18 0.33
-1 4 14 1.4 0.23
1 4 -14 2.09 0.31
-1 4 14 1.94 0.39
1 4 -14 2.15 0.36
-1 4 14 1.4 0.26
0 -4 -14 13.66 0.62
0 -4 14 13.63 0.65
0 -4 14 13.77 0.64
0 -4 -14 13.43 0.6
0 4 -14 13.03 0.58
0 4 -14 13.96 0.72
0 4 14 12.63 0.53
0 4 14 12.77 0.74
0 4 14 13.35 0.55
1 -4 14 14.77 0.69
-1 -4 -14 15.04 0.62
-1 -4 -14 15.22 0.7
1 -4 14 15.36 0.69
-1 4 -14 16.19 0.78
1 4 14 14.97 0.62
1 4 14 15.5 0.53
-1 4 -14 14.42 0.58
1 4 14 15.42 0.81
-1 4 -14 14.54 0.53
-2 -4 -14 0.67 0.3
2 -4 14 0.64 0.28
-2 -4 -14 0.8 0.23
2 -4 14 0.58 0.26
2 4 14 0.89 0.25
2 4 14 1.18 0.19
2 4 14 0.78 0.37
-2 4 -14 0.96 0.23
-2 4 -14 0.93 0.21
-2 4 -14 0.9 0.32
3 -4 14 0.31 0.25
-3 -4 -14 0.31 0.18
3 -4 14 -0.24 0.24
-3 -4 -14 0.32 0.29
-3 4 -14 -0.07 0.2
3 4 14 -0.18 0.31
3 4 14 0.03 0.22
-3 4 -14 -0.13 0.12
-3 4 -14 0.26 0.3
-4 -4 -14 12.44 0.8
4 -4 14 13.34 0.8
4 -4 14 13.3 0.73
-4 -4 -14 13.95 0.56
4 4 14 13.43 0.74
-4 4 -14 12.85 0.71
-4 4 -14 14.15 0.87
4 4 14 12.86 0.88
5 -4 14 2.28 0.47
5 -4 14 1.72 0.38
-5 -4 -14 1.35 0.4
5 4 14 1.76 0.4
5 4 14 1.38 0.44
-5 4 -14 0.74 0.39
-5 4 -14 1.42 0.37
-6 -4 -14 0.63 0.38
6 -4 14 0.2 0.3
6 -4 14 0.38 0.38
-6 4 -14 0.48 0.38
-6 4 -14 0.6 0.35
6 4 14 0.33 0.41
6 4 14 0.51 0.35
7 -4 14 0.04 0.28
7 -4 14 0.97 0.45
-7 4 -14 0.46 0.39
7 4 14 0.06 0.34
-7 4 -14 0.63 0.36
8 -5 -14 -0.19 0.25
8 5 -14 -0.01 0.31
8 5 -14 0.04 0.29
-7 -5 14 1.12 0.35
7 -5 -14 0.41 0.34
7 -5 -14 0.54 0.3
7 5 -14 0.78 0.29
7 5 -14 1.33 0.36
-7 5 14 0.72 0.47
-6 -5 14 0.01 0.28
6 -5 -14 0.29 0.32
-6 -5 14 0.57 0.31
6 -5 -14 0.15 0.27
-6 5 14 0.31 0.33
6 5 -14 0.11 0.25
6 5 -14 0.26 0.28
-6 5 14 -0.24 0.37
5 -5 -14 -0.17 0.27
-5 -5 14 0.15 0.25
-5 -5 14 -0.18 0.25
5 -5 -14 -0.37 0.22
-5 5 14 0.88 0.31
-5 5 14 0.14 0.4
5 5 -14 0.01 0.25
5 5 -14 -0.06 0.24
-4 -5 14 0.13 0.22
-4 -5 14 0.3 0.26
4 -5 -14 -0.33 0.19
4 -5 -14 0.35 0.25
4 5 -14 0.33 0.26
-4 5 14 0.01 0.24
-4 5 14 0.19 0.33
4 5 -14 0.33 0.27
-3 -5 14 4.83 0.41
3 -5 -14 4.62 0.45
3 -5 -14 4.78 0.48
-3 -5 14 4.61 0.47
-3 5 14 4.2 0.58
3 5 -14 4.51 0.5
3 5 -14 5.33 0.48
-3 5 14 5.1 0.47
2 -5 -14 3.06 0.38
2 -5 -14 2.74 0.39
-2 -5 14 3.85 0.45
-2 -5 14 3.34 0.36
2 -5 -14 2.49 0.3
-2 5 14 3.33 0.38
2 5 -14 3.12 0.45
-2 5 14 3.59 0.55
2 5 -14 2.69 0.38
-1 -5 14 2.86 0.42
1 -5 -14 2.49 0.34
1 -5 -14 2.4 0.36
1 -5 -14 2.42 0.35
-1 -5 14 3.29 0.35
-1 5 14 2.71 0.47
1 5 -14 2.67 0.36
-1 5 14 2.69 0.37
1 5 -14 2.5 0.4
0 -5 14 1.23 0.3
0 -5 14 1.74 0.28
0 -5 -14 1.34 0.29
0 -5 -14 0.95 0.26
0 5 -14 1.45 0.19
0 5 14 1.15 0.26
0 5 -14 1.18 0.26
0 5 -14 0.97 0.33
0 5 14 0.91 0.35
1 -5 14 17.9 0.78
-1 -5 -14 17.51 0.77
1 -5 14 17.32 0.71
-1 -5 -14 18.34 0.72
1 5 14 17.84 0.73
-1 5 -14 17.43 0.63
-1 5 -14 16.78 0.85
-1 5 -14 17.75 0.66
1 5 14 17.35 0.9
-2 -5 -14 7.33 0.48
-2 -5 -14 7.09 0.56
2 -5 14 6.59 0.55
2 -5 14 7.36 0.53
2 5 14 5.9 0.66
2 5 14 7.42 0.55
-2 5 -14 6.41 0.41
-2 5 -14 7.02 0.62
-2 5 -14 8.16 0.48
3 -5 14 0.63 0.29
3 -5 14 1.29 0.34
-3 -5 -14 0.79 0.33
-3 -5 -14 0.82 0.23
3 5 14 0.81 0.29
-3 5 -14 0.82 0.36
-3 5 -14 0.6 0.25
-3 5 -14 1 0.19
3 5 14 1.18 0.43
4 -5 14 0.49 0.33
4 -5 14 0.29 0.29
-4 -5 -14 0.3 0.32
-4 -5 -14 0.02 0.19
-4 5 -14 0.33 0.29
4 5 14 0.91 0.43
4 5 14 0.4 0.28
-4 5 -14 0.33 0.38
-5 -5 -14 -0.15 0.33
5 -5 14 0.3 0.34
5 -5 14 0.4 0.32
5 5 14 0.08 0.39
-5 5 -14 -0.73 0.3
5 5 14 0.35 0.29
-5 5 -14 -0.07 0.26
-6 -5 -14 -0.2 0.35
6 -5 14 0.27 0.3
6 -5 14 -0.5 0.32
-6 5 -14 -0.19 0.29
6 5 14 -0.07 0.29
-6 5 -14 0.18 0.39
6 5 14 -0.04 0.38
7 -6 -14 1.08 0.34
-7 -6 14 0.95 0.37
7 -6 -14 0.78 0.41
-7 6 14 1.69 0.56
7 6 -14 1.68 0.37
7 6 -14 1.52 0.38
6 -6 -14 0.45 0.31
6 -6 -14 0.47 0.28
-6 -6 14 0.4 0.3
6 6 -14 0.41 0.3
6 6 -14 0.73 0.34
-6 6 14 -0.05 0.39
-6 6 14 0.99 0.42
5 -6 -14 5.59 0.57
5 -6 -14 4.02 0.51
-5 -6 14 4.71 0.56
5 6 -14 4.79 0.56
-5 6 14 5.85 0.72
-5 6 14 5.14 0.6
5 6 -14 4.37 0.51
4 -6 -14 0.66 0.3
4 -6 -14 0.54 0.29
-4 -6 14 0.85 0.32
4 6 -14 0.94 0.32
-4 6 14 0.91 0.33
4 6 -14 0.75 0.27
-4 6 14 1.11 0.4
3 -6 -14 6.52 0.51
-3 -6 14 5.71 0.43
-3 -6 14 6.22 0.53
3 -6 -14 5.56 0.48
3 6 -14 5.56 0.58
-3 6 14 6.54 0.54
-3 6 14 7.18 0.68
3 6 -14 5.51 0.49
2 -6 -14 0.51 0.2
-2 -6 14 0.54 0.18
-2 -6 14 1.02 0.32
2 -6 -14 0.66 0.24
2 -6 -14 0.78 0.25
-2 6 14 0.51 0.26
2 6 -14 0.23 0.27
2 6 -14 0.8 0.26
-2 6 14 0.79 0.38
1 -6 -14 -0.18 0.19
-1 -6 14 0.37 0.17
-1 -6 14 -0.04 0.24
1 -6 -14 0.44 0.21
1 -6 -14 0.01 0.22
-1 6 14 0.29 0.24
-1 6 14 0.59 0.35
1 6 -14 -0.04 0.2
1 6 -14 0.22 0.26
0 -6 -14 0.36 0.24
0 -6 -14 0.12 0.22
0 -6 14 0.22 0.18
0 -6 -14 0.43 0.17
0 -6 14 0.46 0.27
0 6 -14 0.62 0.31
0 6 -14 0.11 0.21
0 6 14 -0.61 0.28
0 6 14 0.36 0.27
0 6 -14 0.54 0.18
1 -6 14 5.37 0.5
-1 -6 -14 4.13 0.29
1 -6 14 5 0.4
-1 -6 -14 4.16 0.48
-1 -6 -14 5.06 0.45
-1 6 -14 4.62 0.39
-1 6 -14 3.73 0.38
1 6 14 4.05 0.48
-1 6 -14 3.97 0.54
1 6 14 4.99 0.62
2 -6 14 0.03 0.22
2 -6 14 0.04 0.26
-2 -6 -14 0.2 0.26
-2 -6 -14 0.19 0.23
-2 6 -14 0.2 0.22
2 6 14 0.09 0.25
2 6 14 -0.5 0.29
-2 6 -14 -0.02 0.16
-2 6 -14 0.01 0.3
3 -6 14 0 0.23
3 -6 14 -0.31 0.25
-3 -6 -14 0.09 0.22
-3 -6 -14 0.2 0.32
-3 6 -14 0.05 0.15
3 6 14 0.03 0.25
-3 6 -14 0.31 0.25
3 6 14 -0.16 0.33
-3 6 -14 -0.04 0.31
4 -6 14 2.99 0.46
-4 -6 -14 1.78 0.41
4 -6 14 2.61 0.43
-4 -6 -14 2.67 0.38
4 6 14 3.49 0.52
-4 6 -14 2.81 0.44
4 6 14 2.48 0.54
-4 6 -14 2.77 0.51
5 -6 14 1.78 0.42
5 -6 14 0.91 0.39
-5 -6 -14 1.6 0.42
-5 6 -14 1.26 0.44
5 6 14 1.23 0.41
5 6 14 0.86 0.47
-5 6 -14 0.79 0.37
6 -6 14 1 0.41
6 -6 14 1.38 0.43
-6 -6 -14 1.5 0.49
-6 6 -14 0.59 0.45
6 6 14 0.02 0.29
-6 6 -14 0.91 0.35
6 6 14 1.1 0.51
-7 -7 14 0.46 0.35
7 -7 -14 0.46 0.35
7 -7 -14 -0.25 0.28
7 7 -14 -0.13 0.3
-7 7 14 0.09 0.44
7 7 -14 0.06 0.29
6 -7 -14 -0.02 0.27
-6 -7 14 0.07 0.29
6 -7 -14 0.24 0.32
6 7 -14 0.25 0.3
6 7 -14 0.58 0.33
-6 7 14 -0.39 0.32
-6 7 14 -0.21 0.41
5 -7 -14 0.14 0.3
5 -7 -14 -0.08 0.27
-5 -7 14 0.1 0.26
-5 7 14 -0.02 0.38
-5 7 14 0.47 0.37
5 7 -14 0.11 0.26
5 7 -14 0.2 0.27
4 -7 -14 10.12 0.66
4 -7 -14 9.34 0.63
-4 -7 14 10.3 0.69
4 7 -14 9.79 0.64
-4 7 14 10.81 0.74
-4 7 14 10.47 0.81
4 7 -14 10.04 0.72
3 -7 -14 2.5 0.39
-3 -7 14 2.48 0.42
3 -7 -14 3.24 0.45
-3 7 14 2.44 0.49
3 7 -14 2.59 0.38
3 7 -14 2.91 0.43
-3 7 14 2.61 0.42
2 -7 -14 1.26 0.32
-2 -7 14 2.25 0.39
2 -7 -14 2 0.32
2 7 -14 2.06 0.41
-2 7 14 1.56 0.35
-2 7 14 1.99 0.45
1 -7 -14 3.7 0.39
-1 -7 14 3.3 0.46
1 -7 -14 2.48 0.37
1 -7 -14 2.45 0.33
-1 7 14 3.44 0.53
-1 7 14 3.53 0.49
1 7 -14 1.93 0.41
0 -7 -14 4.91 0.33
0 -7 -14 4.93 0.47
0 -7 -14 5.36 0.47
0 -7 14 5.73 0.53
0 7 14 5.08 0.63
0 7 -14 4.77 0.42
0 7 -14 5.45 0.46
0 7 -14 5.53 0.59
0 7 14 5.63 0.54
-1 -7 -14 0.09 0.23
1 -7 14 0.31 0.26
-1 -7 -14 0.13 0.26
-1 7 -14 0.2 0.22
1 7 14 -0.05 0.35
-1 7 -14 -0.05 0.19
1 7 14 0.39 0.28
-1 7 -14 0.32 0.32
-2 -7 -14 2.58 0.36
2 -7 14 3.78 0.52
-2 -7 -14 3.43 0.48
-2 7 -14 3.82 0.56
-2 7 -14 3.7 0.45
2 7 14 2.86 0.43
-2 7 -14 3.37 0.37
2 7 14 3.47 0.56
-3 -7 -14 0.65 0.34
-3 -7 -14 0.74 0.27
3 -7 14 0.34 0.31
-3 7 -14 0.13 0.36
3 7 14 1.52 0.45
-3 7 -14 0.37 0.29
3 7 14 0.16 0.29
4 -7 14 1.02 0.37
-4 -7 -14 0.92 0.41
-4 -7 -14 0.22 0.23
-4 7 -14 1.79 0.45
4 7 14 0.73 0.43
4 7 14 1.15 0.38
-4 7 -14 1.08 0.35
5 -7 14 1.26 0.4
-5 -7 -14 1.29 0.4
-5 7 -14 0.87 0.38
-5 7 -14 1.04 0.45
5 7 14 1.11 0.4
5 7 14 0.93 0.48
-6 -8 14 0.79 0.36
6 -8 -14 0.39 0.35
6 -8 -14 0.47 0.33
-6 8 14 1.24 0.45
6 8 -14 0.87 0.35
-6 8 14 0.79 0.48
6 8 -14 0.62 0.36
5 -8 -14 4.48 0.58
5 -8 -14 4.14 0.55
-5 -8 14 4.36 0.55
5 8 -14 3.58 0.54
5 8 -14 3.33 0.48
-5 8 14 5 0.69
-5 8 14 4.8 0.7
4 -8 -14 6.66 0.58
4 -8 -14 6.23 0.56
-4 -8 14 6.4 0.58
-4 8 14 7.28 0.75
-4 8 14 5.77 0.67
4 8 -14 5.46 0.63
3 -8 -14 2.8 0.41
-3 -8 14 2.21 0.41
3 -8 -14 3.07 0.4
-3 8 14 2.33 0.47
-3 8 14 1.9 0.48
3 8 -14 2.97 0.47
-2 -8 14 1.45 0.36
-2 -8 14 1.95 0.37
2 -8 -14 1.43 0.3
2 -8 -14 1.9 0.36
-2 8 14 1.71 0.43
-2 8 14 1.03 0.37
2 8 -14 1.6 0.41
1 -8 -14 10.61 0.64
-1 -8 14 9.06 0.63
-1 -8 14 9.46 0.66
1 -8 -14 11.33 0.55
1 -8 -14 11.19 0.52
-1 8 14 10.92 0.71
1 8 -14 10.57 0.73
-1 8 14 9.97 0.81
0 -8 -14 9.8 0.64
0 -8 -14 10.08 0.58
0 -8 14 9.64 0.6
0 -8 14 11.33 0.69
0 8 14 9.81 0.69
0 8 14 9.85 0.82
0 8 -14 10.14 0.75
-1 -8 -14 8.11 0.58
1 -8 14 7.61 0.62
-1 -8 -14 7.31 0.58
1 8 14 8.16 0.65
1 8 14 7.32 0.71
-1 8 -14 8.62 0.71
-1 8 -14 9.16 0.56
-2 -8 -14 11.51 0.67
-2 -8 -14 11.89 0.74
2 -8 14 12.37 0.76
2 8 14 10.59 0.89
-2 8 -14 12.66 0.6
-2 8 -14 11.46 0.85
-2 8 -14 12.27 0.69
2 8 14 11.96 0.78
-3 -8 -14 18.65 0.81
3 -8 14 19.48 0.96
-3 -8 -14 19.8 0.97
3 8 14 20.47 1.1
3 8 14 19.61 0.98
-3 8 -14 19.37 0.9
-3 8 -14 21.1 1.1
-4 -8 -14 1.54 0.32
4 -8 14 1.23 0.39
-4 -8 -14 0.87 0.4
4 8 14 1.36 0.48
-4 8 -14 0.55 0.36
-4 8 -14 1.55 0.4
4 8 14 0.55 0.37
-5 -8 -14 -0.12 0.35
5 -8 14 0.62 0.37
-5 8 -14 0.69 0.34
5 8 14 0.18 0.42
5 8 14 -0.21 0.32
-5 8 -14 0.05 0.36
6 -9 -14 2.45 0.49
-6 -9 14 2.44 0.47
6 -9 -14 2.23 0.44
-6 9 14 2.85 0.6
6 9 -14 2.13 0.46
6 9 -14 1.69 0.42
-6 9 14 1.55 0.55
5 -9 -14 9.18 0.72
-5 -9 14 10.49 0.74
5 -9 -14 9.78 0.71
5 9 -14 8.41 0.75
-5 9 14 8.38 0.81
-5 9 14 11.4 0.89
4 -9 -14 4.16 0.57
4 -9 -14 4.22 0.54
-4 -9 14 5.29 0.59
-4 -9 14 4.96 0.57
-4 9 14 4.73 0.72
-4 9 14 5.6 0.72
4 9 -14 4.97 0.64
3 -9 -14 10.6 0.72
-3 -9 14 11.42 0.72
-3 -9 14 11.15 0.73
3 -9 -14 11.49 0.65
3 9 -14 11.52 0.79
-3 9 14 11.26 0.84
-3 9 14 13.06 0.87
-2 -9 14 8.35 0.65
2 -9 -14 7.35 0.62
-2 -9 14 6.46 0.58
2 -9 -14 7.78 0.52
-2 9 14 8.53 0.71
2 9 -14 7.26 0.69
-2 9 14 6.97 0.72
-1 -9 14 8.88 0.64
1 -9 -14 8.81 0.63
-1 -9 14 8.97 0.67
-1 9 14 9.24 0.73
1 9 -14 9.52 0.76
-1 9 14 10.35 0.84
0 -9 14 4.57 0.52
0 -9 -14 4.98 0.51
0 -9 -14 5.28 0.5
0 -9 14 4.55 0.58
0 9 -14 4.22 0.62
0 9 14 4.2 0.62
0 9 14 4.76 0.65
1 -9 14 4.43 0.49
-1 -9 -14 4.88 0.55
1 -9 14 5.65 0.58
-1 -9 -14 4.35 0.52
1 9 14 4.08 0.6
1 9 14 5.83 0.72
-1 9 -14 6.16 0.68
-2 -9 -14 -0.36 0.26
2 -9 14 0.18 0.3
-2 -9 -14 -0.03 0.26
-2 9 -14 0.6 0.36
2 9 14 0.22 0.39
2 9 14 -0.23 0.31
3 -9 14 0.79 0.37
-3 -9 -14 0.47 0.29
-3 -9 -14 1.85 0.43
-3 9 -14 1.41 0.4
3 9 14 1.12 0.43
3 9 14 0.35 0.41
-3 9 -14 1.21 0.44
-4 -9 -14 1.08 0.42
-4 -9 -14 0.45 0.28
4 -9 14 -0.13 0.33
4 9 14 -0.03 0.42
-4 9 -14 1.22 0.45
-4 9 -14 0.93 0.4
4 9 14 0.59 0.39
5 -10 -14 -0.32 0.3
5 -10 -14 0.66 0.38
-5 -10 14 1.34 0.38
-5 10 14 0.06 0.38
-5 10 14 0.39 0.4
5 10 -14 0.72 0.41
4 -10 -14 0.59 0.35
-4 -10 14 0.64 0.31
4 -10 -14 0.19 0.33
-4 -10 14 0.29 0.31
-4 10 14 0.2 0.43
-4 10 14 -0.2 0.4
4 10 -14 0.42 0.36
-3 -10 14 3.56 0.5
-3 -10 14 3.95 0.56
3 -10 -14 4.71 0.55
3 -10 -14 5.14 0.61
3 10 -14 4.85 0.65
-3 10 14 3.76 0.6
-3 10 14 5.01 0.74
-2 -10 14 0.36 0.3
-2 -10 14 0.67 0.33
2 -10 -14 -0.1 0.28
2 10 -14 0.37 0.36
-2 10 14 -0.48 0.36
-2 10 14 -0.25 0.34
1 -10 -14 0.11 0.29
-1 -10 14 0.41 0.29
-1 -10 14 0.09 0.27
-1 10 14 -0.26 0.37
1 10 -14 0.13 0.33
-1 10 14 0.71 0.38
0 -10 -14 -0.32 0.24
0 -10 14 -0.01 0.29
0 -10 14 0.12 0.26
0 10 14 0.02 0.35
0 10 14 -0.13 0.35
0 10 -14 0.21 0.37
1 -10 14 1.06 0.38
1 -10 14 0.49 0.3
-1 -10 -14 0.93 0.35
-1 -10 -14 0.25 0.31
-1 10 -14 2.15 0.48
1 10 14 1.35 0.44
1 10 14 1.27 0.46
2 -10 14 0.76 0.36
-2 -10 -14 0.57 0.32
2 -10 14 0.54 0.29
-2 -10 -14 0.45 0.35
-2 10 -14 1.19 0.48
2 10 14 0.89 0.38
2 10 14 0.05 0.4
-3 -10 -14 0.24 0.29
-3 -10 -14 -0.02 0.35
3 -10 14 0.56 0.36
3 10 14 0.13 0.35
3 10 14 0.62 0.44
-3 10 -14 1 0.45
4 -11 -14 2.44 0.46
-4 -11 14 1.12 0.39
-4 11 14 1.23 0.52
-4 11 14 1.24 0.51
-3 -11 14 4.2 0.6
-3 -11 14 4.21 0.57
3 -11 -14 4.28 0.58
-3 11 14 5.15 0.76
3 11 -14 4.71 0.67
-3 11 14 4.78 0.7
2 -11 -14 2.9 0.47
-2 -11 14 3.45 0.51
-2 -11 14 3.15 0.49
-2 11 14 5.24 0.72
2 11 -14 4.16 0.63
-2 11 14 5.38 0.75
-1 -11 14 1.87 0.42
1 -11 -14 1.35 0.39
-1 -11 14 1.66 0.38
1 11 -14 1.86 0.48
-1 11 14 1.68 0.49
-1 11 14 2.18 0.51
0 -11 14 2.57 0.48
0 -11 14 2 0.41
0 -11 -14 2.25 0.45
0 11 14 2.45 0.55
0 11 -14 2.25 0.52
0 11 14 2.37 0.52
-1 -11 -14 5.77 0.68
1 -11 14 5.58 0.59
-1 -11 -14 6.14 0.6
1 -11 14 6.18 0.68
1 11 14 6.37 0.79
1 11 14 7.62 0.79
-1 11 -14 6.46 0.72
2 -11 14 4.65 0.64
-2 -11 -14 4.32 0.57
-2 -11 -14 4.05 0.57
-2 11 -14 3.93 0.63
2 11 14 5.61 0.76
2 11 14 4.92 0.73
-1 -12 14 2.71 0.48
-1 -12 14 2.28 0.44
1 12 -14 2.4 0.59
-1 12 14 2.88 0.56
-1 12 14 2.22 0.57
0 -12 14 1.23 0.4
0 -12 14 1.35 0.38
0 12 -14 1.71 0.5
0 12 14 0.94 0.5
0 12 14 1.52 0.49
-8 0 15 -0.5 0.32
8 0 -15 0.43 0.34
8 0 -15 0.01 0.25
7 0 -15 0.1 0.31
-7 0 15 -0.08 0.35
7 0 -15 -0.23 0.23
6 0 -15 -0.07 0.27
-6 0 15 -0.04 0.35
6 0 -15 0.33 0.26
5 0 -15 -0.15 0.22
-5 0 15 -0.47 0.22
5 0 -15 0.27 0.17
-5 0 15 0.09 0.31
-4 0 15 0.22 0.3
4 0 -15 0.24 0.21
-4 0 15 -0.04 0.24
4 0 -15 -0.11 0.21
3 0 -15 -0.03 0.2
3 0 -15 -0.16 0.17
-3 0 15 0.11 0.23
-3 0 15 0.14 0.27
-2 0 15 0.03 0.26
2 0 -15 0.02 0.2
-2 0 15 0.49 0.23
2 0 -15 0.01 0.19
1 0 -15 -0.03 0.18
-1 0 15 0.22 0.22
1 0 -15 -0.01 0.21
-1 0 15 0.15 0.29
0 0 -15 -0.09 0.17
0 0 15 0.11 0.21
0 0 -15 0.2 0.26
0 0 15 0.32 0.29
1 0 15 0.19 0.27
1 0 15 0.13 0.21
1 0 15 -0.08 0.1
-1 0 -15 0 0.24
-1 0 -15 -0.19 0.16
2 0 15 -0.13 0.13
-2 0 -15 -0.02 0.26
-2 0 -15 -0.07 0.15
2 0 15 -0.05 0.24
2 0 15 0.01 0.2
3 0 15 0.17 0.3
3 0 15 -0.04 0.19
-3 0 -15 0.15 0.15
-3 0 -15 -0.2 0.25
-4 0 -15 0.2 0.31
4 0 15 -0.14 0.29
4 0 15 -0.1 0.2
-5 0 -15 -0.37 0.21
-5 0 -15 -0.39 0.29
5 0 15 -0.56 0.3
5 0 15 0.3 0.23
-6 0 -15 -0.55 0.25
6 0 15 -0.1 0.37
-6 0 -15 0.62 0.37
-7 0 -15 -0.24 0.35
-7 0 -15 -0.01 0.32
7 0 15 0.38 0.45
8 -1 -15 -0.02 0.32
-8 -1 15 -0.85 0.34
8 -1 -15 -0.02 0.24
-8 1 15 -0.03 0.43
8 1 -15 0.19 0.26
8 1 -15 0.33 0.34
7 -1 -15 -0.33 0.26
7 -1 -15 0.05 0.26
-7 -1 15 -0.42 0.31
7 1 -15 0.13 0.31
-7 1 15 0.23 0.38
7 1 -15 -0.23 0.23
6 -1 -15 0 0.24
6 -1 -15 0.3 0.26
-6 -1 15 0.14 0.33
6 1 -15 1.01 0.33
-6 1 15 0.42 0.36
-5 -1 15 0.3 0.31
5 -1 -15 0.04 0.24
-5 -1 15 0.41 0.28
5 1 -15 0.31 0.19
5 1 -15 0.19 0.24
-5 1 15 -0.14 0.31
-4 -1 15 2.6 0.37
-4 -1 15 3.55 0.52
4 -1 -15 3.32 0.36
4 -1 -15 4.22 0.46
-4 1 15 3.36 0.52
4 1 -15 3.55 0.38
-4 1 15 3.72 0.45
4 1 -15 4.26 0.47
-3 -1 15 0.32 0.24
3 -1 -15 0.49 0.23
3 -1 -15 0.45 0.23
-3 -1 15 0.28 0.29
-3 1 15 0.22 0.3
3 1 -15 0.88 0.25
-3 1 15 0.12 0.23
3 1 -15 0.34 0.23
2 -1 -15 1.5 0.29
2 -1 -15 0.68 0.24
-2 -1 15 0.86 0.31
-2 -1 15 0.9 0.27
-2 1 15 1.3 0.34
2 1 -15 0.82 0.25
2 1 -15 1.09 0.28
-2 1 15 1.01 0.27
-1 -1 15 1.36 0.33
1 -1 -15 2.04 0.3
-1 -1 15 1.54 0.29
1 -1 -15 1.46 0.31
-1 1 15 1.18 0.34
-1 1 15 1.49 0.28
1 1 -15 1.62 0.31
1 1 -15 1.26 0.26
0 -1 -15 16.1 0.64
0 -1 15 15.89 0.68
0 -1 15 15.7 0.78
0 -1 -15 15.66 0.72
0 1 -15 15.95 0.74
0 1 15 15 0.79
0 1 -15 15 0.62
0 1 15 16.33 0.65
-1 -1 -15 3.67 0.35
-1 -1 -15 3.94 0.48
1 -1 15 3.73 0.24
1 -1 15 3.58 0.48
1 -1 15 2.89 0.4
1 1 15 3.36 0.47
1 1 15 3.21 0.38
-1 1 -15 4.01 0.36
-1 1 -15 3.41 0.47
1 1 15 3.69 0.27
2 -1 15 16.31 0.81
-2 -1 -15 19.1 0.65
-2 -1 -15 17.78 0.83
2 -1 15 18.78 0.72
2 1 15 18.34 0.67
2 1 15 17.65 0.86
-2 1 -15 17.96 0.85
2 1 15 16.85 0.63
-2 1 -15 17.73 0.62
-3 -1 -15 15.78 0.83
3 -1 15 16.95 0.72
3 -1 15 15.79 0.84
-3 -1 -15 17.32 0.6
3 1 15 16.95 0.9
3 1 15 16.47 0.64
3 1 15 16.53 0.68
-3 1 -15 16.08 0.68
-3 1 -15 16.05 0.86
-3 1 -15 16.31 0.56
4 -1 15 10.85 0.78
-4 -1 -15 12.53 0.79
4 -1 15 11.96 0.63
-4 1 -15 11.97 0.78
-4 1 -15 10.96 0.64
4 1 15 11.42 0.82
4 1 15 11.17 0.64
4 1 15 11.25 0.54
-5 -1 -15 3.76 0.56
5 -1 15 3.36 0.43
5 -1 15 2.86 0.54
5 1 15 3.26 0.54
-5 1 -15 3.53 0.5
-5 1 -15 3.35 0.53
5 1 15 3.63 0.5
6 -1 15 8.81 0.83
-6 -1 -15 8.72 0.78
-6 1 -15 8.07 0.76
6 1 15 8.35 0.71
6 1 15 6.96 0.82
-6 1 -15 9.58 0.72
-7 -1 -15 0.64 0.43
7 -1 15 -0.09 0.38
7 1 15 -0.38 0.28
-7 1 -15 -0.59 0.32
-7 1 -15 0.3 0.33
7 1 15 0.75 0.53
8 -2 -15 2.77 0.43
-8 -2 15 2.04 0.52
8 -2 -15 2.54 0.52
8 2 -15 2.92 0.49
8 2 -15 2.67 0.45
-8 2 15 2 0.57
7 -2 -15 0.84 0.31
7 -2 -15 1.04 0.37
-7 -2 15 0.98 0.42
7 2 -15 0.93 0.36
7 2 -15 1.7 0.36
-7 2 15 1.13 0.43
-6 -2 15 0.14 0.29
-6 -2 15 -0.48 0.28
6 -2 -15 -0.06 0.23
6 -2 -15 -0.16 0.26
-6 2 15 0.16 0.37
6 2 -15 -0.13 0.16
6 2 -15 0.12 0.28
5 -2 -15 1.69 0.33
-5 -2 15 1.85 0.41
5 -2 -15 1.68 0.34
-5 -2 15 2.01 0.38
5 2 -15 1.08 0.31
5 2 -15 2.41 0.35
-5 2 15 1.8 0.44
4 -2 -15 -0.04 0.21
4 -2 -15 -0.1 0.15
-4 -2 15 -0.31 0.22
-4 -2 15 0.28 0.29
4 2 -15 0.35 0.22
4 2 -15 0.17 0.25
-4 2 15 0 0.3
-4 2 15 0.59 0.26
-3 -2 15 2.62 0.39
3 -2 -15 2.44 0.33
-3 -2 15 2.76 0.39
3 -2 -15 3.17 0.39
3 2 -15 2.34 0.33
-3 2 15 2.37 0.42
-3 2 15 2.2 0.35
3 2 -15 2.55 0.39
2 -2 -15 16.85 0.65
-2 -2 15 15.44 0.7
-2 -2 15 17.08 0.76
2 -2 -15 16.18 0.68
2 2 -15 16.18 0.69
-2 2 15 15.73 0.83
2 2 -15 16.54 0.73
-2 2 15 15.82 0.68
1 -2 -15 7.27 0.47
-1 -2 15 7.55 0.56
-1 -2 15 6.76 0.51
1 -2 -15 7.58 0.5
-1 2 15 5.94 0.44
1 2 -15 7 0.47
1 2 -15 6.86 0.52
-1 2 15 6.52 0.59
0 -2 -15 25.93 0.84
0 -2 -15 24.31 0.89
0 -2 15 25.68 0.95
0 -2 15 24.29 0.87
0 2 15 24.1 0.65
0 2 -15 25.39 0.95
0 2 15 25.78 0.81
0 2 -15 24.31 0.8
0 2 15 24.44 1.01
1 -2 15 3.17 0.45
1 -2 15 2.63 0.35
-1 -2 -15 3.03 0.45
-1 -2 -15 2.77 0.34
-1 2 -15 2.31 0.3
1 2 15 2.53 0.34
1 2 15 2.22 0.27
1 2 15 3.11 0.45
-1 2 -15 3.58 0.5
2 -2 15 20.33 0.79
-2 -2 -15 21.22 0.7
2 -2 15 20.47 0.87
-2 -2 -15 18.76 0.86
-2 2 -15 17.61 0.87
2 2 15 19.8 0.69
2 2 15 19.84 0.69
-2 2 -15 20.75 0.67
-2 2 -15 18.94 0.66
2 2 15 19.88 0.94
-3 -2 -15 13.82 0.56
3 -2 15 13.21 0.66
3 -2 15 13.78 0.78
-3 -2 -15 12.5 0.76
-3 2 -15 15.09 0.82
-3 2 -15 13.92 0.64
3 2 15 13.44 0.56
-3 2 -15 14.32 0.52
3 2 15 14.15 0.83
3 2 15 13.63 0.65
-4 -2 -15 21.16 0.97
4 -2 15 20.81 0.98
4 -2 15 20.2 0.82
4 2 15 21.63 1.06
-4 2 -15 21.74 1.05
4 2 15 19.54 0.85
-4 2 -15 20.01 0.86
5 -2 15 1.17 0.33
5 -2 15 2.06 0.5
-5 -2 -15 1 0.4
-5 2 -15 0.82 0.32
-5 2 -15 1.08 0.39
5 2 15 1.04 0.44
5 2 15 0.62 0.31
6 -2 15 4.63 0.72
6 -2 15 5.77 0.57
-6 -2 -15 4.85 0.67
6 2 15 4.57 0.69
6 2 15 4.89 0.63
-6 2 -15 4.45 0.67
-6 2 -15 5.37 0.63
7 -2 15 0.1 0.42
7 2 15 -0.14 0.33
-7 2 -15 0.88 0.39
-7 2 -15 0.05 0.35
8 -3 -15 5.3 0.7
8 -3 -15 6.22 0.57
-8 -3 15 4.64 0.65
8 3 -15 5.72 0.6
8 3 -15 6.16 0.67
-8 3 15 5.58 0.87
7 -3 -15 6 0.57
7 -3 -15 6.63 0.67
-7 -3 15 6.92 0.7
7 3 -15 6.87 0.62
-7 3 15 8.2 0.83
-6 -3 15 0.1 0.32
6 -3 -15 0.03 0.25
6 -3 -15 0.22 0.28
-6 -3 15 0.17 0.31
6 3 -15 -0.14 0.19
-6 3 15 0.72 0.43
6 3 -15 0.22 0.27
-5 -3 15 2.89 0.42
5 -3 -15 2.32 0.39
-5 -3 15 3.05 0.46
5 -3 -15 2.48 0.38
-5 3 15 2.31 0.5
5 3 -15 3.14 0.47
5 3 -15 3.72 0.42
4 -3 -15 4.52 0.46
-4 -3 15 4.99 0.52
4 -3 -15 3.7 0.45
-4 -3 15 3.85 0.49
4 3 -15 4.83 0.46
4 3 -15 4.93 0.47
-4 3 15 4.39 0.58
3 -3 -15 1.72 0.3
-3 -3 15 2.08 0.37
-3 -3 15 1.67 0.32
3 -3 -15 2.56 0.3
3 3 -15 1.45 0.32
3 3 -15 2.21 0.36
-3 3 15 2.69 0.4
-3 3 15 1.85 0.25
-3 3 15 1.82 0.39
-2 -3 15 2.28 0.35
2 -3 -15 2.41 0.33
-2 -3 15 2.97 0.42
2 -3 -15 2.42 0.33
2 3 -15 3.08 0.4
-2 3 15 3.13 0.39
2 3 -15 3.17 0.42
-2 3 15 3.27 0.27
-2 3 15 1.92 0.4
1 -3 -15 3.07 0.37
-1 -3 15 2.14 0.36
-1 -3 15 1.99 0.35
1 -3 -15 3.15 0.37
-1 3 15 2.35 0.25
1 3 -15 3.12 0.43
-1 3 15 2.85 0.46
-1 3 15 1.99 0.3
1 3 -15 1.79 0.31
0 -3 15 2.62 0.38
0 -3 -15 2.14 0.31
0 -3 15 1.97 0.35
0 -3 -15 2.41 0.36
0 3 15 2.13 0.27
0 3 -15 2.4 0.32
0 3 15 1.69 0.38
0 3 15 2.7 0.34
0 3 -15 2.24 0.39
-1 -3 -15 4.71 0.39
-1 -3 -15 4.62 0.5
1 -3 15 3.76 0.47
1 -3 15 4.42 0.45
1 3 15 3.66 0.34
1 3 15 3.73 0.35
1 3 15 4.04 0.54
-1 3 -15 4.05 0.36
-1 3 -15 3.74 0.28
-1 3 -15 3.92 0.51
2 -3 15 -0.07 0.23
-2 -3 -15 -0.04 0.26
-2 -3 -15 0.35 0.19
2 -3 15 0.25 0.27
-2 3 -15 0.52 0.29
-2 3 -15 0.19 0.16
2 3 15 0.03 0.18
2 3 15 0.12 0.3
2 3 15 0.31 0.18
-2 3 -15 0.36 0.18
3 -3 15 2.62 0.44
3 -3 15 2.94 0.4
-3 -3 -15 3.33 0.49
-3 -3 -15 3.37 0.34
-3 3 -15 3.16 0.39
3 3 15 3.17 0.41
3 3 15 3.68 0.32
-3 3 -15 3.55 0.3
-3 3 -15 3.22 0.5
3 3 15 3.62 0.56
4 -3 15 2.7 0.46
-4 -3 -15 1.8 0.43
4 -3 15 2.17 0.38
-4 -3 -15 2.23 0.3
4 3 15 1.58 0.45
4 3 15 2.17 0.37
-4 3 -15 2.11 0.46
-4 3 -15 2.8 0.4
5 -3 15 0.75 0.33
-5 -3 -15 0.74 0.39
5 -3 15 0.95 0.4
-5 3 -15 1.14 0.43
5 3 15 1.17 0.35
-5 3 -15 1.49 0.35
5 3 15 1.47 0.45
6 -3 15 1.12 0.35
-6 -3 -15 1.3 0.42
6 -3 15 0.61 0.43
6 3 15 0.51 0.34
6 3 15 0.85 0.44
-6 3 -15 0.27 0.37
-6 3 -15 1.19 0.39
7 -4 -15 7.13 0.6
-7 -4 15 7.15 0.69
-7 -4 15 6.43 0.65
7 -4 -15 6.51 0.69
7 4 -15 5.56 0.62
-7 4 15 5.91 0.8
-6 -4 15 9.91 0.72
6 -4 -15 10.24 0.68
6 -4 -15 10.62 0.73
-6 -4 15 11.63 0.76
6 4 -15 11.03 0.65
6 4 -15 11.21 0.7
-6 4 15 8.34 0.81
-5 -4 15 25.99 0.98
-5 -4 15 25.78 1.02
5 -4 -15 25.84 0.97
5 -4 -15 27.06 0.99
5 4 -15 24.85 0.97
-5 4 15 26.23 1.19
5 4 -15 26.96 0.98
4 -4 -15 21.15 0.85
4 -4 -15 20.71 0.84
-4 -4 15 21.78 0.85
-4 -4 15 20.03 0.86
-4 4 15 19.1 0.96
-4 4 15 20.45 0.76
4 4 -15 20.32 0.83
4 4 -15 20.03 0.85
3 -4 -15 15.54 0.55
-3 -4 15 15.78 0.7
-3 -4 15 16.16 0.78
3 -4 -15 15 0.71
3 -4 -15 16.84 0.7
-3 4 15 16.59 0.88
3 4 -15 14.99 0.73
3 4 -15 15.55 0.71
-3 4 15 16.25 0.61
-2 -4 15 0.17 0.24
2 -4 -15 0.71 0.22
-2 -4 15 0.74 0.26
2 -4 -15 0.21 0.22
2 4 -15 0.75 0.3
2 4 -15 0.91 0.26
-2 4 15 -0.19 0.3
-2 4 15 0.86 0.21
-1 -4 15 0.33 0.22
1 -4 -15 0.11 0.2
1 -4 -15 -0.2 0.18
-1 -4 15 0.4 0.24
-1 4 15 0.08 0.2
-1 4 15 0.44 0.34
1 4 -15 0.06 0.19
1 4 -15 0.26 0.26
-1 4 15 0.03 0.15
0 -4 15 0.87 0.28
0 -4 15 1.05 0.29
0 -4 -15 0.93 0.26
0 -4 -15 1.04 0.26
0 4 -15 0.81 0.33
0 4 -15 0.66 0.23
0 4 15 1.09 0.37
0 4 15 0.91 0.22
0 4 15 0.59 0.21
-1 -4 -15 0.99 0.3
1 -4 15 1.4 0.31
-1 -4 -15 0.86 0.25
1 -4 15 0.76 0.3
-1 4 -15 0.95 0.19
1 4 15 1.18 0.22
-1 4 -15 0.87 0.31
-1 4 -15 0.93 0.23
1 4 15 0.99 0.24
1 4 15 1.07 0.38
-2 -4 -15 1.19 0.26
-2 -4 -15 0.51 0.3
2 -4 15 0.87 0.29
2 -4 15 0.62 0.29
-2 4 -15 1.11 0.36
2 4 15 0.65 0.35
2 4 15 0.85 0.25
-2 4 -15 0.86 0.22
2 4 15 0.7 0.19
-2 4 -15 1.04 0.22
-3 -4 -15 2.33 0.31
3 -4 15 2.32 0.42
-3 -4 -15 2.65 0.45
3 -4 15 2.84 0.41
-3 4 -15 2.53 0.36
3 4 15 2.69 0.42
3 4 15 2.89 0.5
-3 4 -15 1.88 0.43
-3 4 -15 2.28 0.27
-4 -4 -15 5.66 0.41
-4 -4 -15 5.91 0.64
4 -4 15 5.37 0.58
4 -4 15 6.62 0.59
4 4 15 6.69 0.73
-4 4 -15 6.22 0.67
-4 4 -15 5.89 0.55
4 4 15 5.81 0.55
-5 -4 -15 -0.3 0.28
5 -4 15 -0.41 0.32
5 -4 15 -0.22 0.27
5 4 15 -0.12 0.39
-5 4 -15 0.41 0.31
-5 4 -15 0.26 0.38
5 4 15 -0.36 0.26
6 -4 15 -0.01 0.28
-6 -4 -15 0.13 0.38
6 -4 15 0.41 0.41
6 4 15 0.7 0.43
6 4 15 -0.31 0.28
-6 4 -15 0.58 0.34
-6 4 -15 -0.64 0.32
7 -5 -15 3.82 0.53
-7 -5 15 3.47 0.52
7 -5 -15 4.42 0.57
7 5 -15 3.51 0.49
-7 5 15 4.09 0.66
7 5 -15 4.53 0.5
6 -5 -15 13.13 0.82
-6 -5 15 13.81 0.8
6 -5 -15 12.3 0.74
-6 5 15 12.39 0.98
6 5 -15 11.93 0.73
6 5 -15 12.28 0.72
-5 -5 15 5.85 0.53
5 -5 -15 6.22 0.57
5 -5 -15 5.39 0.57
-5 -5 15 6.09 0.57
5 5 -15 6.72 0.6
5 5 -15 6.11 0.58
-5 5 15 6.85 0.75
4 -5 -15 14.41 0.73
4 -5 -15 12.39 0.66
-4 -5 15 11.26 0.71
-4 -5 15 12.68 0.65
4 5 -15 11.58 0.68
-4 5 15 12.42 0.66
4 5 -15 12.44 0.74
-4 5 15 12.43 0.83
-3 -5 15 16.19 0.78
3 -5 -15 16.32 0.7
3 -5 -15 15.3 0.74
-3 -5 15 16.32 0.68
3 5 -15 14.42 0.7
-3 5 15 15.48 0.88
3 5 -15 16.5 0.79
-3 5 15 16.07 0.69
2 -5 -15 33.52 0.89
-2 -5 15 30.36 1.06
2 -5 -15 32.49 1.04
-2 -5 15 31.33 0.95
2 -5 -15 31.81 0.95
2 5 -15 30 1.1
-2 5 15 31.63 0.96
2 5 -15 30.93 1.02
-2 5 15 31.28 1.22
-1 -5 15 5.21 0.42
1 -5 -15 5.39 0.41
1 -5 -15 4.74 0.43
1 -5 -15 4.92 0.46
-1 -5 15 5.25 0.5
-1 5 15 4.11 0.58
-1 5 15 4.82 0.41
1 5 -15 5.5 0.44
1 5 -15 4.89 0.53
0 -5 15 11.54 0.58
0 -5 -15 11.67 0.6
0 -5 15 10.37 0.63
0 -5 -15 10.92 0.61
0 5 15 10.66 0.56
0 5 -15 11.06 0.57
0 5 15 10.38 0.75
0 5 -15 10.21 0.69
1 -5 15 0.19 0.23
-1 -5 -15 0.59 0.28
1 -5 15 0.27 0.25
-1 -5 -15 -0.13 0.19
-1 5 -15 0 0.16
1 5 15 -0.29 0.33
-1 5 -15 0 0.18
1 5 15 0.31 0.23
1 5 15 0.12 0.16
-1 5 -15 0.03 0.28
2 -5 15 0.53 0.29
-2 -5 -15 1.02 0.34
-2 -5 -15 1.01 0.25
2 -5 15 1.12 0.31
-2 5 -15 0.46 0.21
2 5 15 0.87 0.31
2 5 15 0.95 0.4
-2 5 -15 0.61 0.36
-2 5 -15 0.7 0.21
3 -5 15 0.03 0.28
-3 -5 -15 -0.01 0.19
3 -5 15 0.24 0.27
-3 -5 -15 0.16 0.28
3 5 15 0.47 0.36
-3 5 -15 0.18 0.17
3 5 15 0.14 0.24
-3 5 -15 -0.13 0.32
-3 5 -15 0.15 0.24
-4 -5 -15 5.05 0.43
4 -5 15 4.53 0.57
-4 -5 -15 5.19 0.61
4 -5 15 5.05 0.58
-4 5 -15 6.63 0.72
-4 5 -15 4.7 0.52
4 5 15 5.6 0.73
4 5 15 5.55 0.57
5 -5 15 -0.19 0.28
-5 -5 -15 0.43 0.37
5 -5 15 0.46 0.37
5 5 15 -0.64 0.37
-5 5 -15 0.05 0.28
5 5 15 -0.49 0.22
-5 5 -15 -0.15 0.35
-6 -5 -15 -0.34 0.33
6 -5 15 0.24 0.34
6 -5 15 0.03 0.34
6 5 15 0.25 0.32
6 5 15 -0.18 0.43
-6 5 -15 -0.1 0.38
-6 5 -15 0.85 0.33
7 -6 -15 4.39 0.56
-7 -6 15 2.3 0.47
7 -6 -15 1.65 0.47
7 6 -15 3.39 0.52
-7 6 15 2.93 0.61
7 6 -15 2.94 0.46
6 -6 -15 1.22 0.39
-6 -6 15 1.29 0.37
6 -6 -15 1.49 0.37
-6 6 15 1.24 0.5
6 6 -15 1.25 0.36
6 6 -15 1.04 0.33
-5 -6 15 0.83 0.34
5 -6 -15 1.1 0.34
5 -6 -15 1.45 0.37
-5 6 15 1.35 0.5
5 6 -15 1.26 0.37
5 6 -15 1.1 0.34
-4 -6 15 1.41 0.37
4 -6 -15 2.09 0.38
4 -6 -15 1.6 0.36
4 6 -15 0.87 0.34
-4 6 15 1.59 0.46
4 6 -15 1.38 0.33
-4 6 15 1.4 0.35
3 -6 -15 1.43 0.32
3 -6 -15 1.25 0.3
-3 -6 15 1.5 0.35
-3 6 15 0.73 0.29
-3 6 15 0.78 0.42
3 6 -15 0.94 0.35
3 6 -15 0.61 0.28
2 -6 -15 0.2 0.23
2 -6 -15 0.11 0.21
-2 -6 15 0.29 0.27
2 6 -15 0.26 0.28
-2 6 15 0.33 0.24
2 6 -15 0.26 0.25
-2 6 15 -0.03 0.34
-1 -6 15 0.22 0.28
1 -6 -15 0.56 0.26
-1 -6 15 0.47 0.19
1 -6 -15 0.56 0.22
1 -6 -15 0.46 0.23
-1 6 15 0.15 0.35
-1 6 15 1.04 0.27
1 6 -15 0.38 0.31
1 6 -15 0.78 0.27
0 -6 15 13.86 0.59
0 -6 -15 13.37 0.66
0 -6 -15 14.24 0.68
0 -6 -15 13.5 0.52
0 -6 15 14.07 0.72
0 6 -15 13.59 0.64
0 6 -15 14.32 0.82
0 6 15 13.05 0.84
0 6 15 12.66 0.66
1 -6 15 8.8 0.64
-1 -6 -15 7.36 0.58
-1 -6 -15 8.13 0.53
1 -6 15 7.64 0.5
-1 6 -15 7.81 0.67
1 6 15 7.68 0.76
1 6 15 8.5 0.6
-1 6 -15 8.83 0.51
2 -6 15 4.01 0.44
2 -6 15 5.37 0.57
-2 -6 -15 4.57 0.46
-2 -6 -15 4.83 0.56
2 6 15 4.72 0.64
2 6 15 4.75 0.51
-2 6 -15 4.63 0.44
-2 6 -15 4.65 0.6
-2 6 -15 4.75 0.4
3 -6 15 4.11 0.55
-3 -6 -15 4.12 0.56
3 -6 15 3.94 0.51
-3 -6 -15 4.8 0.45
3 6 15 4.86 0.67
3 6 15 5.14 0.54
-3 6 -15 4.22 0.65
-3 6 -15 5.33 0.51
-4 -6 -15 2.03 0.33
4 -6 15 1.59 0.38
4 -6 15 2.27 0.43
-4 -6 -15 2.17 0.5
-4 6 -15 2.31 0.5
-4 6 -15 1.9 0.39
4 6 15 2.02 0.42
4 6 15 1.6 0.48
5 -6 15 1.43 0.42
-5 -6 -15 1.63 0.46
5 -6 15 1.27 0.43
5 6 15 1.74 0.52
-5 6 -15 2.2 0.43
-5 6 -15 1.44 0.46
5 6 15 1.96 0.46
6 -6 15 6.37 0.72
6 -6 15 7.22 0.71
-6 6 -15 7.94 0.75
-6 6 -15 7.22 0.83
6 6 15 5.35 0.84
6 6 15 7.92 0.73
6 -7 -15 -0.37 0.27
-6 -7 15 0.33 0.32
6 -7 -15 -0.75 0.29
6 7 -15 -0.48 0.26
6 7 -15 0.07 0.3
-6 7 15 -0.07 0.43
-5 -7 15 0.77 0.33
5 -7 -15 0.19 0.28
5 -7 -15 -0.33 0.27
5 7 -15 0.53 0.33
5 7 -15 0.29 0.3
-5 7 15 -0.51 0.38
-4 -7 15 1.54 0.37
4 -7 -15 1.24 0.36
4 -7 -15 1.27 0.34
-4 7 15 1.61 0.47
4 7 -15 1.51 0.39
-4 7 15 2.01 0.41
4 7 -15 1.21 0.33
3 -7 -15 0.78 0.3
3 -7 -15 0.2 0.25
-3 -7 15 0.61 0.3
3 7 -15 0.13 0.24
3 7 -15 0.75 0.35
-3 7 15 0.55 0.31
-3 7 15 -0.16 0.37
2 -7 -15 0.19 0.26
-2 -7 15 0.36 0.29
2 -7 -15 0.04 0.22
-2 7 15 -0.48 0.32
2 7 -15 0.58 0.33
2 7 -15 0.39 0.27
-2 7 15 0.27 0.27
1 -7 -15 1.6 0.28
1 -7 -15 1.18 0.28
1 -7 -15 1.1 0.32
-1 -7 15 1.72 0.36
1 7 -15 2.16 0.43
-1 7 15 1.95 0.36
-1 7 15 2.15 0.49
1 7 -15 1.23 0.31
0 -7 -15 16.2 0.73
0 -7 -15 16.08 0.75
0 -7 15 16.31 0.8
0 7 -15 16.11 0.89
0 7 -15 16.78 0.72
0 7 15 17.04 0.8
0 7 15 15.52 0.93
-1 -7 -15 7.64 0.56
-1 -7 -15 7.93 0.58
1 -7 15 7.98 0.62
1 7 15 8.02 0.61
-1 7 -15 7.55 0.5
-1 7 -15 6.88 0.67
1 7 15 5.47 0.67
-2 -7 -15 10.63 0.62
-2 -7 -15 12.22 0.73
2 -7 15 9.95 0.71
-2 7 -15 11.99 0.84
-2 7 -15 11.61 0.57
2 7 15 11.37 0.72
2 7 15 10.98 0.86
-3 -7 -15 16.42 0.74
3 -7 15 16.59 0.87
-3 -7 -15 14.73 0.85
3 7 15 14.12 0.84
-3 7 -15 17.25 0.99
3 7 15 13.14 0.94
-4 -7 -15 2.97 0.52
-4 -7 -15 2.47 0.36
4 -7 15 2.34 0.44
4 7 15 2.43 0.55
-4 7 -15 2.52 0.43
-4 7 -15 3.56 0.59
4 7 15 3.46 0.53
-5 -7 -15 0.27 0.39
5 -7 15 0.71 0.38
-5 7 -15 1.14 0.38
-5 7 -15 0 0.36
5 7 15 1.08 0.46
5 7 15 1.46 0.41
-6 -8 15 -0.04 0.32
6 -8 -15 1.08 0.39
6 -8 -15 0.01 0.3
6 8 -15 -0.02 0.31
-6 8 15 0.4 0.49
6 8 -15 0.23 0.31
-5 -8 15 -0.17 0.26
5 -8 -15 -0.04 0.29
5 -8 -15 0.84 0.37
5 8 -15 0.09 0.31
5 8 -15 0.68 0.34
-5 8 15 0.44 0.42
-4 -8 15 -0.27 0.25
4 -8 -15 -0.07 0.29
4 -8 -15 0.11 0.28
-4 8 15 0.03 0.34
4 8 -15 -0.37 0.25
4 8 -15 0.87 0.36
-4 8 15 0.01 0.41
3 -8 -15 1.24 0.33
3 -8 -15 1.19 0.34
-3 -8 15 1.36 0.39
-3 8 15 1.27 0.46
3 8 -15 1.42 0.36
-3 8 15 1.45 0.42
3 8 -15 1.31 0.39
-2 -8 15 -0.03 0.29
2 -8 -15 -0.05 0.21
2 -8 -15 0.31 0.27
-2 8 15 0.27 0.31
2 8 -15 -0.06 0.3
-2 8 15 -0.06 0.33
-1 -8 15 0.36 0.3
1 -8 -15 0.52 0.29
-1 8 15 0.39 0.3
1 8 -15 0.46 0.35
-1 8 15 0.66 0.42
0 -8 -15 0.41 0.27
0 -8 -15 0.15 0.26
0 -8 15 -0.16 0.28
0 8 15 0.64 0.31
0 8 15 0.07 0.38
0 8 -15 0.56 0.26
0 8 -15 0.07 0.33
-1 -8 -15 0.95 0.31
-1 -8 -15 0.97 0.32
1 -8 15 0.96 0.35
1 8 15 1.03 0.35
-1 8 -15 0.52 0.38
-1 8 -15 0.85 0.27
1 8 15 1.04 0.42
2 -8 15 0.56 0.34
-2 -8 -15 0.76 0.36
-2 -8 -15 0.03 0.25
2 8 15 -0.07 0.39
2 8 15 0.52 0.33
-2 8 -15 0.34 0.21
-2 8 -15 0.43 0.37
-3 -8 -15 4.83 0.52
3 -8 15 5.13 0.64
-3 -8 -15 4.81 0.63
-3 8 -15 5.09 0.68
3 8 15 4.06 0.56
3 8 15 4.73 0.71
-4 -8 -15 -0.08 0.35
-4 -8 -15 0.09 0.24
4 -8 15 0.39 0.35
4 8 15 -0.56 0.37
4 8 15 0.01 0.34
-4 8 -15 -0.02 0.34
5 -8 15 -0.05 0.34
-5 -8 -15 0.59 0.39
-5 8 -15 -0.51 0.35
5 8 15 0.31 0.47
-5 -9 15 -0.23 0.27
5 -9 -15 -0.3 0.28
5 -9 -15 -0.17 0.27
5 9 -15 -0.03 0.3
-5 9 15 0.12 0.38
5 9 -15 -0.24 0.32
4 -9 -15 -0.05 0.28
4 -9 -15 -0.09 0.29
-4 -9 15 0.12 0.29
-4 9 15 -0.26 0.42
-4 9 15 0.59 0.4
4 9 -15 -0.1 0.32
-3 -9 15 0.88 0.34
3 -9 -15 0.34 0.32
3 -9 -15 1.06 0.31
-3 9 15 0.56 0.39
-3 9 15 1.61 0.51
3 9 -15 1.23 0.43
-2 -9 15 0.14 0.27
2 -9 -15 0.16 0.28
-2 9 15 0.76 0.36
2 9 -15 0.09 0.32
-2 9 15 0.88 0.42
-1 -9 15 0.69 0.34
1 -9 -15 1.1 0.34
-1 9 15 0.66 0.43
-1 9 15 1.29 0.4
1 9 -15 1.11 0.41
0 -9 -15 0.57 0.32
0 -9 -15 1.34 0.32
0 -9 15 1.74 0.41
0 9 15 1.46 0.42
0 9 15 2.03 0.51
0 9 -15 0.59 0.39
1 -9 15 0.3 0.31
-1 -9 -15 0.75 0.33
-1 -9 -15 0.71 0.31
1 9 15 0.47 0.44
-1 9 -15 0.73 0.4
-1 9 -15 0.77 0.27
1 9 15 0.13 0.34
-2 -9 -15 8.49 0.65
-2 -9 -15 10.47 0.71
2 -9 15 9.63 0.76
-2 9 -15 9.17 0.84
-2 9 -15 8.94 0.56
2 9 15 9.05 0.74
2 9 15 9.33 0.89
-3 -9 -15 1.8 0.42
-3 -9 -15 2.53 0.41
3 -9 15 3.23 0.53
-3 9 -15 4.15 0.64
3 9 15 2.44 0.5
3 9 15 2.82 0.61
4 -9 15 1.3 0.42
-4 -9 -15 1.1 0.33
-4 -9 -15 0.69 0.39
-4 9 -15 0.52 0.4
4 9 15 1.38 0.42
4 9 15 1.64 0.55
4 -10 -15 -0.08 0.31
4 -10 -15 0.54 0.36
-4 -10 15 0.4 0.32
-4 10 15 0.85 0.47
-4 10 15 0.81 0.44
4 10 -15 0.24 0.34
-3 -10 15 1.07 0.37
3 -10 -15 0.61 0.36
-3 -10 15 1.26 0.39
-3 10 15 0.89 0.46
3 10 -15 0.62 0.4
-3 10 15 0.37 0.4
2 -10 -15 4.33 0.59
-2 -10 15 3.85 0.57
-2 -10 15 3.58 0.5
2 10 -15 4.4 0.63
-2 10 15 5.95 0.69
-2 10 15 5.37 0.73
1 -10 -15 4.53 0.54
-1 -10 15 3.73 0.55
-1 -10 15 3.26 0.52
-1 10 15 2.75 0.58
-1 10 15 4.22 0.64
1 10 -15 4.66 0.68
0 -10 15 8.91 0.7
0 -10 15 7.38 0.63
0 -10 -15 7.79 0.66
0 10 15 8.04 0.79
0 10 15 9.1 0.82
0 10 -15 9.41 0.85
1 -10 15 9.94 0.78
-1 -10 -15 11.36 0.74
-1 -10 -15 10.95 0.72
-1 10 -15 11.72 0.86
1 10 15 10.81 0.93
1 10 15 10.15 0.82
-2 -10 -15 15.43 0.89
2 -10 15 15.15 0.91
-2 -10 -15 15.33 0.82
2 10 15 14.96 0.99
2 10 15 16.28 0.95
-2 10 -15 14.73 1.02
3 -10 15 6.5 0.7
-3 -10 -15 7.32 0.63
-3 -10 -15 7.76 0.74
3 10 15 5.61 0.73
3 10 15 6.32 0.81
-3 10 -15 7.88 0.84
-3 -11 15 5.21 0.62
3 -11 -15 4.6 0.63
-3 -11 15 3.25 0.52
-3 11 15 5.06 0.73
3 11 -15 5.9 0.8
-3 11 15 4.42 0.66
2 -11 -15 1.91 0.43
-2 -11 15 2.91 0.5
-2 -11 15 2.88 0.49
2 11 -15 3.4 0.59
-2 11 15 1.19 0.47
-2 11 15 0.56 0.44
-1 -11 15 3.04 0.5
1 -11 -15 1.97 0.45
-1 -11 15 2.77 0.47
-1 11 15 3.18 0.58
-1 11 15 3.15 0.57
1 11 -15 2.4 0.51
0 -11 15 4.83 0.58
0 -11 -15 4.22 0.61
0 -11 15 4.83 0.6
0 11 15 4.57 0.67
0 11 15 5.76 0.79
0 11 -15 4.04 0.64
1 -11 15 9.5 0.8
1 -11 15 9.41 0.68
-1 -11 -15 7.65 0.69
1 11 15 9.39 0.85
1 11 15 10.03 0.86
-1 11 -15 11.41 0.87
8 0 -16 3.76 0.54
8 0 -16 4.56 0.64
-8 0 16 3.27 0.62
7 0 -16 0.98 0.35
-7 0 16 0.71 0.41
7 0 -16 0.12 0.32
6 0 -16 2.73 0.44
-6 0 16 3.33 0.57
6 0 -16 2.79 0.42
5 0 -16 5.51 0.52
-5 0 16 4.21 0.59
-5 0 16 4.96 0.54
-4 0 16 1.69 0.35
-4 0 16 1.27 0.4
4 0 -16 2.1 0.3
4 0 -16 1.93 0.35
-3 0 16 3.2 0.46
3 0 -16 4.08 0.42
3 0 -16 3.47 0.41
-3 0 16 3.39 0.44
2 0 -16 14.45 0.69
-2 0 16 13.52 0.66
-2 0 16 16.57 0.8
2 0 -16 15.7 0.69
1 0 -16 10.62 0.57
-1 0 16 9.68 0.66
1 0 -16 9.65 0.58
-1 0 16 9.78 0.56
0 0 -16 5.64 0.55
0 0 -16 5.03 0.44
0 0 16 5.54 0.57
0 0 16 5.45 0.44
1 0 16 5.26 0.45
-1 0 -16 6.31 0.56
-1 0 -16 4.95 0.41
1 0 16 4.84 0.27
1 0 16 4.9 0.54
2 0 16 -0.02 0.14
2 0 16 -0.1 0.27
-2 0 -16 -0.01 0.16
2 0 16 0.02 0.21
-2 0 -16 0.29 0.29
3 0 16 0.15 0.29
-3 0 -16 -0.23 0.28
3 0 16 0.02 0.18
3 0 16 0.25 0.23
-3 0 -16 0.23 0.17
4 0 16 -0.02 0.21
-4 0 -16 -0.01 0.29
4 0 16 0.05 0.34
-5 0 -16 1.2 0.44
5 0 16 1.07 0.42
6 0 16 0.7 0.46
-6 0 -16 1.76 0.45
8 -1 -16 4.39 0.54
-8 -1 16 4.53 0.68
8 -1 -16 3.96 0.56
8 1 -16 5.35 0.59
8 1 -16 4.24 0.6
-8 1 16 2.9 0.6
7 -1 -16 1.69 0.38
-7 -1 16 1.79 0.49
7 -1 -16 1.61 0.38
7 1 -16 0.6 0.32
-7 1 16 1.73 0.48
7 1 -16 1.74 0.42
6 -1 -16 2.64 0.42
6 -1 -16 2.1 0.39
-6 -1 16 2.35 0.49
-6 -1 16 2.13 0.41
-6 1 16 2.51 0.54
6 1 -16 1.67 0.38
-5 -1 16 4.41 0.55
-5 -1 16 5.2 0.57
5 -1 -16 5.26 0.53
5 1 -16 4.72 0.53
-5 1 16 4.88 0.68
5 1 -16 5.03 0.43
4 -1 -16 3.69 0.47
-4 -1 16 3.68 0.54
-4 -1 16 3.03 0.41
4 -1 -16 2.81 0.36
4 1 -16 2.11 0.35
4 1 -16 3.78 0.42
-4 1 16 2.23 0.45
-4 1 16 2.62 0.39
-3 -1 16 0.21 0.25
-3 -1 16 -0.06 0.27
3 -1 -16 0.37 0.23
3 -1 -16 0.26 0.21
3 1 -16 0.38 0.23
-3 1 16 0.33 0.26
3 1 -16 -0.06 0.22
-3 1 16 0.55 0.33
2 -1 -16 0.69 0.25
-2 -1 16 0.95 0.33
2 -1 -16 1.1 0.28
-2 -1 16 0.95 0.29
-2 1 16 1.24 0.36
2 1 -16 1.25 0.28
-2 1 16 0.34 0.25
2 1 -16 0.93 0.28
1 -1 -16 1.05 0.29
-1 -1 16 0.85 0.32
-1 -1 16 1.2 0.29
1 -1 -16 0.88 0.26
1 1 -16 0.76 0.29
-1 1 16 0.81 0.33
-1 1 16 0.77 0.26
1 1 -16 1.3 0.28
0 -1 -16 0.41 0.22
0 -1 16 0.63 0.26
0 -1 16 0.49 0.31
0 -1 -16 0.82 0.29
0 1 -16 0.19 0.2
0 1 -16 0.84 0.3
0 1 16 0.23 0.22
0 1 16 0.62 0.34
1 -1 16 7.91 0.61
-1 -1 -16 8.44 0.61
1 -1 16 8.79 0.55
-1 -1 -16 7.88 0.48
1 1 16 9.33 0.66
-1 1 -16 7.86 0.62
1 1 16 8.23 0.37
1 1 16 7.76 0.49
-1 1 -16 8.08 0.47
2 -1 16 13.17 0.64
-2 -1 -16 12.94 0.75
-2 -1 -16 14.37 0.59
2 -1 16 12.96 0.51
2 -1 16 13.66 0.78
2 1 16 14.16 0.61
-2 1 -16 14.47 0.57
2 1 16 14.4 0.82
2 1 16 13.31 0.55
-2 1 -16 13.64 0.77
3 -1 16 10.14 0.76
3 -1 16 10.65 0.61
-3 -1 -16 10.47 0.74
-3 -1 -16 10.73 0.49
3 1 16 10.73 0.76
3 1 16 10.21 0.55
-3 1 -16 11.62 0.77
-3 1 -16 11.21 0.47
3 1 16 10.62 0.56
4 -1 16 8.26 0.72
4 -1 16 8.55 0.58
-4 -1 -16 7.46 0.69
-4 1 -16 8.44 0.71
-4 1 -16 8.84 0.59
4 1 16 7.85 0.57
4 1 16 8.56 0.51
4 1 16 8.36 0.78
5 -1 16 10.58 0.82
5 -1 16 10.53 0.63
-5 -1 -16 10.11 0.77
5 1 16 10.18 0.68
-5 1 -16 10.22 0.81
-5 1 -16 9.43 0.68
5 1 16 8.96 0.81
6 -1 16 5.36 0.79
-6 -1 -16 5.33 0.7
6 1 16 4.56 0.71
-6 1 -16 4.37 0.64
6 1 16 4.07 0.6
-6 1 -16 6.15 0.66
-8 -2 16 0.24 0.37
8 -2 -16 -0.1 0.27
-8 2 16 -0.75 0.38
8 2 -16 0.1 0.35
8 2 -16 -0.17 0.27
-7 -2 16 0.98 0.44
7 -2 -16 0.66 0.32
7 -2 -16 0.43 0.33
7 2 -16 1.12 0.35
7 2 -16 0.89 0.35
-7 2 16 1.11 0.46
6 -2 -16 0.67 0.36
6 -2 -16 0.85 0.31
-6 -2 16 0.99 0.34
-6 -2 16 1.08 0.38
-6 2 16 1.53 0.47
6 2 -16 0.34 0.31
5 -2 -16 0.95 0.3
-5 -2 16 0.63 0.31
-5 -2 16 0.9 0.36
5 -2 -16 1.03 0.32
5 2 -16 0.57 0.29
5 2 -16 1.34 0.29
-5 2 16 1.06 0.43
-4 -2 16 1.62 0.37
-4 -2 16 2.19 0.41
4 -2 -16 1.92 0.35
-4 2 16 2.07 0.42
-4 2 16 1.85 0.35
4 2 -16 2.57 0.39
4 2 -16 1.91 0.34
3 -2 -16 0.28 0.2
-3 -2 16 -0.16 0.24
-3 -2 16 -0.5 0.24
3 -2 -16 0.25 0.23
-3 2 16 0.36 0.32
3 2 -16 0.15 0.23
3 2 -16 0.23 0.24
-3 2 16 -0.04 0.25
2 -2 -16 6.65 0.49
-2 -2 16 7.47 0.58
-2 -2 16 8.11 0.55
2 -2 -16 6.85 0.48
-2 2 16 6.93 0.63
2 2 -16 5.78 0.55
2 2 -16 7.78 0.51
-2 2 16 6.9 0.51
1 -2 -16 0.13 0.23
-1 -2 16 0.5 0.24
-1 -2 16 0.17 0.27
1 -2 -16 0.39 0.22
1 2 -16 0.03 0.19
-1 2 16 0.11 0.22
-1 2 16 0.07 0.3
1 2 -16 0.32 0.26
0 -2 16 -0.14 0.24
0 -2 -16 0.12 0.2
0 -2 -16 -0.37 0.21
0 -2 16 0.12 0.23
0 2 -16 0.25 0.29
0 2 16 0.19 0.2
0 2 -16 0.04 0.19
0 2 16 -0.18 0.1
0 2 16 -0.1 0.27
1 -2 16 1.92 0.37
-1 -2 -16 1.2 0.25
-1 -2 -16 1.57 0.35
1 -2 16 1.74 0.32
-1 2 -16 1.72 0.27
1 2 16 1.46 0.22
1 2 16 2.25 0.42
1 2 16 1.23 0.25
-1 2 -16 0.78 0.33
2 -2 16 1.32 0.31
-2 -2 -16 0.8 0.23
2 -2 16 0.51 0.32
-2 -2 -16 0.71 0.33
2 2 16 0.63 0.22
2 2 16 0.8 0.36
-2 2 -16 1.44 0.23
-2 2 -16 0.83 0.22
-2 2 -16 0.95 0.34
2 2 16 0.3 0.19
3 -2 16 1.44 0.32
-3 -2 -16 2.17 0.32
-3 -2 -16 2.14 0.44
3 -2 16 1.55 0.41
-3 2 -16 1.44 0.29
-3 2 -16 2.42 0.28
3 2 16 1.28 0.41
3 2 16 1.83 0.28
3 2 16 1.69 0.3
-3 2 -16 1.72 0.42
4 -2 16 0.63 0.36
4 -2 16 0.27 0.26
-4 -2 -16 0.64 0.33
4 2 16 0.31 0.37
4 2 16 0.2 0.23
-4 2 -16 -0.26 0.33
-4 2 -16 0.1 0.24
-5 -2 -16 0.56 0.35
5 -2 16 1.81 0.49
5 -2 16 1.47 0.33
5 2 16 0.98 0.35
5 2 16 0.85 0.45
-5 2 -16 1.81 0.46
-5 2 -16 1.04 0.35
6 -2 16 0.05 0.4
-6 -2 -16 -0.33 0.34
6 -2 16 0.26 0.27
-6 2 -16 0.44 0.39
6 2 16 0.33 0.32
-6 2 -16 -0.13 0.28
6 2 16 -0.61 0.35
-7 -3 16 -0.11 0.33
7 -3 -16 0.05 0.3
7 -3 -16 -0.55 0.22
-7 3 16 0.94 0.45
7 3 -16 0.1 0.27
-6 -3 16 6.43 0.65
-6 -3 16 7.63 0.68
6 -3 -16 6.93 0.61
6 -3 -16 5.83 0.56
-6 3 16 6.16 0.79
6 3 -16 6.39 0.5
6 3 -16 7.08 0.63
-5 -3 16 8.02 0.64
-5 -3 16 7.84 0.67
5 -3 -16 7.66 0.63
5 -3 -16 7.67 0.61
-5 3 16 6.6 0.76
5 3 -16 7.35 0.55
5 3 -16 7.44 0.62
-4 -3 16 3.4 0.47
4 -3 -16 4.22 0.47
4 -3 -16 3.96 0.5
-4 -3 16 3.75 0.48
4 3 -16 3.86 0.49
4 3 -16 3.95 0.47
-4 3 16 3.25 0.52
3 -3 -16 1.09 0.27
-3 -3 16 1.3 0.33
3 -3 -16 1.04 0.22
-3 -3 16 1.1 0.3
3 3 -16 1.1 0.29
3 3 -16 1.28 0.33
-3 3 16 0.82 0.28
-3 3 16 1.27 0.39
2 -3 -16 2.8 0.36
2 -3 -16 3.72 0.44
-2 -3 16 2.8 0.43
-2 -3 16 2.76 0.39
2 3 -16 3.35 0.48
-2 3 16 3.06 0.48
2 3 -16 2.8 0.4
-2 3 16 3.55 0.42
1 -3 -16 0.41 0.24
-1 -3 16 0.22 0.25
-1 -3 16 0.29 0.27
1 -3 -16 0.41 0.23
1 3 -16 0.35 0.23
-1 3 16 0.14 0.33
-1 3 16 0.2 0.13
-1 3 16 0.28 0.22
1 3 -16 0.54 0.29
0 -3 -16 2.83 0.43
0 -3 -16 2 0.31
0 -3 16 2.86 0.43
0 -3 16 2.2 0.37
0 3 -16 2.22 0.39
0 3 16 2.49 0.32
0 3 16 1.63 0.39
0 3 -16 2.36 0.32
0 3 16 2.68 0.28
-1 -3 -16 0.82 0.31
1 -3 16 0.94 0.31
-1 -3 -16 1.17 0.26
1 -3 16 0.65 0.26
1 3 16 0.96 0.22
1 3 16 0.6 0.22
1 3 16 1.13 0.37
-1 3 -16 1.14 0.36
-1 3 -16 1 0.23
-2 -3 -16 4.21 0.55
-2 -3 -16 4.55 0.39
2 -3 16 4.35 0.49
2 -3 16 3.52 0.51
2 3 16 4.23 0.37
2 3 16 4.65 0.62
-2 3 -16 3.82 0.54
2 3 16 3.56 0.39
-2 3 -16 3.79 0.36
3 -3 16 17.46 0.79
-3 -3 -16 19.84 0.69
-3 -3 -16 18.35 0.89
3 -3 16 17.27 0.9
3 3 16 19.01 0.99
-3 3 -16 17.53 0.72
3 3 16 18.39 0.77
-3 3 -16 17.87 0.62
-3 3 -16 17.08 0.95
4 -3 16 5.42 0.54
4 -3 16 5.4 0.61
-4 -3 -16 5.43 0.62
-4 3 -16 6.19 0.68
-4 3 -16 5.18 0.51
4 3 16 5.19 0.69
4 3 16 5.58 0.54
5 -3 16 2.26 0.49
-5 -3 -16 2.21 0.48
5 -3 16 1.84 0.38
5 3 16 1.51 0.39
-5 3 -16 2.5 0.52
5 3 16 1.34 0.48
-5 3 -16 1.84 0.39
6 -3 16 4.17 0.67
6 -3 16 5.73 0.59
-6 -3 -16 3.76 0.58
-6 3 -16 4.14 0.64
-6 3 -16 5.29 0.62
6 3 16 3.34 0.63
6 3 16 4.73 0.63
-7 -4 16 4.07 0.61
-7 -4 16 4.15 0.62
7 -4 -16 3.55 0.52
7 -4 -16 4.07 0.54
7 4 -16 2.69 0.46
-7 4 16 3.08 0.6
6 -4 -16 7.42 0.63
6 -4 -16 6.99 0.66
-6 -4 16 7.63 0.68
-6 -4 16 7.75 0.66
-6 4 16 6.84 0.78
6 4 -16 7.75 0.6
6 4 -16 6.88 0.65
5 -4 -16 7.62 0.6
-5 -4 16 7.67 0.65
-5 -4 16 7.93 0.63
5 -4 -16 6.88 0.61
5 4 -16 7.17 0.59
5 4 -16 7.87 0.59
-5 4 16 6.55 0.75
4 -4 -16 1.4 0.34
-4 -4 16 0.87 0.32
-4 -4 16 1.41 0.32
4 -4 -16 1.47 0.33
4 4 -16 0.95 0.31
-4 4 16 1.15 0.4
4 4 -16 1.63 0.35
-3 -4 16 0.11 0.25
-3 -4 16 0.15 0.24
3 -4 -16 -0.03 0.24
3 -4 -16 0.49 0.27
3 4 -16 0.13 0.23
3 4 -16 0.36 0.27
-3 4 16 0.2 0.33
-2 -4 16 1.32 0.3
2 -4 -16 0.89 0.27
-2 -4 16 0.77 0.27
2 -4 -16 0.53 0.22
-2 4 16 1.29 0.4
-2 4 16 1.36 0.24
2 4 -16 1.31 0.29
2 4 -16 1.27 0.34
-1 -4 16 7.94 0.52
1 -4 -16 6.8 0.5
1 -4 -16 6.53 0.5
-1 -4 16 6.78 0.58
1 4 -16 6.9 0.6
-1 4 16 6.76 0.4
-1 4 16 7.65 0.49
1 4 -16 7.5 0.49
-1 4 16 7.16 0.68
0 -4 -16 4.34 0.45
0 -4 -16 4.6 0.46
0 -4 16 4.43 0.45
0 -4 16 4.67 0.49
0 4 16 4.16 0.58
0 4 -16 4.21 0.43
0 4 -16 3.4 0.51
0 4 16 3.87 0.37
0 4 16 4.04 0.38
1 -4 16 0.64 0.28
1 -4 16 0.62 0.28
-1 -4 -16 0.58 0.23
-1 -4 -16 0.4 0.27
1 4 16 0.37 0.2
-1 4 -16 0.81 0.33
-1 4 -16 0.72 0.24
1 4 16 0.34 0.33
1 4 16 0.92 0.25
2 -4 16 6.63 0.56
-2 -4 -16 6.09 0.47
-2 -4 -16 6 0.57
2 -4 16 6.81 0.57
2 4 16 5.46 0.65
-2 4 -16 5.93 0.41
2 4 16 5.72 0.47
-2 4 -16 5.15 0.59
-3 -4 -16 5.61 0.6
3 -4 16 4.91 0.59
-3 -4 -16 4.7 0.42
3 -4 16 5.83 0.56
3 4 16 4.9 0.49
-3 4 -16 5.21 0.5
3 4 16 4.5 0.65
-3 4 -16 4.32 0.61
4 -4 16 1.81 0.39
4 -4 16 2.62 0.47
-4 -4 -16 3.43 0.53
-4 4 -16 3.19 0.53
4 4 16 2.52 0.53
-4 4 -16 1.85 0.36
4 4 16 3.39 0.48
5 -4 16 0.89 0.36
-5 -4 -16 0.86 0.41
5 -4 16 0.73 0.39
5 4 16 -0.2 0.36
-5 4 -16 0.66 0.42
5 4 16 1.58 0.38
-5 4 -16 1.34 0.36
-6 -4 -16 4.9 0.72
6 -4 16 2.86 0.6
6 -4 16 3.59 0.52
6 4 16 3.87 0.68
-6 4 -16 4.26 0.59
6 4 16 3.72 0.58
-6 4 -16 4.54 0.66
7 -5 -16 3.68 0.51
-7 -5 16 4.23 0.57
7 -5 -16 3.5 0.55
7 5 -16 4.52 0.61
-7 5 16 3.56 0.66
-6 -5 16 2.09 0.43
6 -5 -16 2.76 0.46
6 -5 -16 2.64 0.44
6 5 -16 2.45 0.43
-6 5 16 1.83 0.54
6 5 -16 3.56 0.51
5 -5 -16 1.54 0.36
5 -5 -16 1.28 0.37
-5 -5 16 2.18 0.42
5 5 -16 1.86 0.39
5 5 -16 1.7 0.36
-5 5 16 2.23 0.53
4 -5 -16 1.79 0.37
-4 -5 16 1.33 0.35
4 -5 -16 1.63 0.35
-4 -5 16 2.18 0.36
4 5 -16 1.75 0.36
4 5 -16 1.36 0.35
-4 5 16 1.72 0.46
3 -5 -16 0.84 0.28
-3 -5 16 1.16 0.33
-3 -5 16 0.91 0.28
3 -5 -16 0.86 0.29
-3 5 16 0.48 0.38
3 5 -16 0.83 0.29
3 5 -16 0.62 0.3
2 -5 -16 2.72 0.35
-2 -5 16 2.45 0.4
-2 -5 16 2.12 0.33
2 -5 -16 2.47 0.37
2 -5 -16 2.85 0.39
2 5 -16 2.82 0.42
-2 5 16 2.57 0.5
-2 5 16 2.49 0.36
2 5 -16 2.44 0.44
1 -5 -16 4.32 0.44
1 -5 -16 3.84 0.4
1 -5 -16 4.77 0.46
-1 -5 16 3.97 0.43
-1 -5 16 4.74 0.51
1 5 -16 4.64 0.54
-1 5 16 4.46 0.63
1 5 -16 3.53 0.43
-1 5 16 4.35 0.39
0 -5 -16 16.81 0.78
0 -5 16 16.69 0.8
0 -5 -16 17.34 0.73
0 -5 16 17.3 0.73
0 5 16 16.5 0.69
0 5 16 19.53 0.96
0 5 -16 17.86 0.9
0 5 -16 17.23 0.72
1 -5 16 0.37 0.27
1 -5 16 0.29 0.27
-1 -5 -16 0.45 0.25
-1 -5 -16 0.56 0.31
-1 5 -16 0.58 0.23
1 5 16 0.7 0.19
1 5 16 0.78 0.26
1 5 16 0.75 0.39
-1 5 -16 0.74 0.35
2 -5 16 2.55 0.41
-2 -5 -16 1.91 0.31
2 -5 16 2.21 0.4
-2 -5 -16 1.49 0.37
-2 5 -16 2.2 0.31
2 5 16 2.29 0.37
2 5 16 1.76 0.46
-2 5 -16 1.75 0.45
-3 -5 -16 1.82 0.31
-3 -5 -16 2.4 0.44
3 -5 16 2.89 0.44
3 -5 16 2.35 0.43
-3 5 -16 2.08 0.45
3 5 16 2.56 0.4
3 5 16 1.38 0.45
4 -5 16 1.45 0.37
-4 -5 -16 0.74 0.26
4 -5 16 1.65 0.4
-4 -5 -16 1.14 0.39
-4 5 -16 1.22 0.42
4 5 16 0.97 0.43
4 5 16 0.98 0.35
5 -5 16 3.1 0.52
5 -5 16 3.29 0.5
-5 -5 -16 2.87 0.55
-5 5 -16 3.19 0.58
5 5 16 2.58 0.47
5 5 16 2.47 0.58
7 -6 -16 1.25 0.38
7 -6 -16 0.38 0.41
7 6 -16 1.34 0.39
7 6 -16 1.82 0.4
6 -6 -16 0.57 0.32
6 -6 -16 -0.15 0.32
-6 -6 16 0.45 0.33
6 6 -16 0.35 0.31
-6 6 16 -0.51 0.39
6 6 -16 0.44 0.32
5 -6 -16 -0.2 0.26
-5 -6 16 0.44 0.33
5 -6 -16 0.35 0.32
5 6 -16 0.3 0.29
5 6 -16 0.2 0.31
-5 6 16 -0.26 0.38
-4 -6 16 1.7 0.4
4 -6 -16 1.41 0.36
4 -6 -16 1.21 0.34
4 6 -16 1.6 0.41
4 6 -16 1.47 0.35
-4 6 16 1.05 0.44
3 -6 -16 4.17 0.48
-3 -6 16 4.94 0.55
3 -6 -16 4.14 0.5
3 6 -16 2.94 0.48
3 6 -16 4.53 0.52
-3 6 16 4.65 0.67
2 -6 -16 13.93 0.7
2 -6 -16 14.34 0.66
-2 -6 16 13.35 0.75
-2 6 16 12.57 0.87
2 6 -16 12.55 0.68
2 6 -16 13.49 0.8
-2 6 16 13.99 0.67
-1 -6 16 1.35 0.34
1 -6 -16 0.95 0.29
1 -6 -16 1.1 0.27
1 -6 -16 1.37 0.28
1 6 -16 1.1 0.29
-1 6 16 1.27 0.44
1 6 -16 1.19 0.38
-1 6 16 0.98 0.27
0 -6 16 0.57 0.25
0 -6 -16 0.35 0.24
0 -6 -16 0.4 0.2
0 -6 -16 0.31 0.26
0 -6 16 0.26 0.27
0 6 -16 0.45 0.33
0 6 16 1.07 0.29
0 6 16 0.56 0.4
0 6 -16 -0.04 0.22
-1 -6 -16 3.57 0.49
1 -6 16 3.41 0.43
-1 -6 -16 2.81 0.4
1 -6 16 3.96 0.51
1 6 16 3.31 0.56
-1 6 -16 3.42 0.41
-1 6 -16 2.83 0.47
1 6 16 3.26 0.44
2 -6 16 0.33 0.27
2 -6 16 0.46 0.3
-2 -6 -16 0.33 0.24
-2 -6 -16 0.17 0.3
2 6 16 0.18 0.26
2 6 16 0.46 0.37
-2 6 -16 0.02 0.19
-2 6 -16 0.55 0.36
3 -6 16 3.79 0.52
-3 -6 -16 5.23 0.48
3 -6 16 4.42 0.54
-3 -6 -16 3.93 0.57
3 6 16 4.44 0.67
-3 6 -16 3.35 0.55
3 6 16 4.61 0.57
-4 -6 -16 -0.04 0.36
-4 -6 -16 0.18 0.24
4 -6 16 1.09 0.36
4 -6 16 0.65 0.35
-4 6 -16 1.13 0.45
4 6 16 0.16 0.39
4 6 16 1.02 0.35
5 -6 16 1.24 0.42
-5 -6 -16 1.64 0.45
5 -6 16 2.02 0.46
5 6 16 1.12 0.49
-5 6 -16 1.36 0.46
5 6 16 0.85 0.39
-6 -7 16 0.89 0.39
6 -7 -16 0.53 0.38
6 -7 -16 1.23 0.37
-6 7 16 1.61 0.54
6 7 -16 0.56 0.33
6 7 -16 0.65 0.38
-5 -7 16 0.21 0.3
5 -7 -16 0.77 0.33
5 -7 -16 0.79 0.34
5 7 -16 0.26 0.32
5 7 -16 0.42 0.33
-5 7 16 -0.02 0.44
-4 -7 16 0.8 0.34
4 -7 -16 1.67 0.37
4 -7 -16 1.15 0.35
4 7 -16 1.21 0.41
4 7 -16 0.98 0.34
-4 7 16 0.68 0.42
3 -7 -16 1.1 0.32
-3 -7 16 1.64 0.38
3 -7 -16 2.32 0.4
-3 7 16 1.35 0.48
-3 7 16 1.56 0.37
3 7 -16 2.29 0.44
3 7 -16 1.38 0.36
-2 -7 16 0.7 0.33
2 -7 -16 0.52 0.28
2 -7 -16 0.7 0.28
-2 7 16 0.75 0.29
2 7 -16 0.88 0.29
2 7 -16 0.86 0.37
-2 7 16 0.93 0.44
-1 -7 16 0.67 0.33
1 -7 -16 0.38 0.23
1 -7 -16 0.38 0.29
1 -7 -16 -0.21 0.2
1 7 -16 0.58 0.26
1 7 -16 1.03 0.39
-1 7 16 0.18 0.26
-1 7 16 0.24 0.39
0 -7 -16 0.2 0.25
0 -7 16 -0.09 0.26
0 -7 -16 0.54 0.26
0 7 -16 0.44 0.25
0 7 16 -0.48 0.25
0 7 16 0.05 0.38
0 7 -16 0.45 0.35
-1 -7 -16 2.95 0.44
-1 -7 -16 2.35 0.4
1 -7 16 2.27 0.44
-1 7 -16 2.8 0.39
1 7 16 2.17 0.38
1 7 16 2.17 0.5
-1 7 -16 1.74 0.44
2 -7 16 0.87 0.35
-2 -7 -16 0.4 0.32
-2 -7 -16 1.2 0.32
2 7 16 1.84 0.41
-2 7 -16 1.32 0.27
2 7 16 1.89 0.52
-2 7 -16 1.59 0.45
-3 -7 -16 0.01 0.23
-3 -7 -16 0.11 0.3
3 -7 16 0.05 0.3
-3 7 -16 0.23 0.39
3 7 16 0.23 0.3
3 7 16 0.32 0.41
4 -7 16 5.62 0.63
-4 -7 -16 5.01 0.49
-4 -7 -16 3.46 0.54
4 7 16 4.49 0.7
-4 7 -16 3.79 0.61
4 7 16 3.77 0.56
5 -7 16 7.15 0.73
-5 -7 -16 8.09 0.8
5 7 16 7.1 0.86
5 7 16 7.19 0.71
-5 7 -16 6.68 0.76
5 -8 -16 2.13 0.43
5 -8 -16 2.49 0.45
-5 -8 16 2.6 0.47
5 8 -16 2.05 0.49
5 8 -16 2.2 0.44
-5 8 16 1.5 0.53
-4 -8 16 0.72 0.35
4 -8 -16 0.18 0.31
4 -8 -16 0.4 0.32
-4 8 16 0.43 0.45
4 8 -16 0.64 0.36
4 8 -16 0.43 0.31
3 -8 -16 1.44 0.36
-3 -8 16 1.65 0.41
3 -8 -16 1.8 0.35
-3 8 16 1.76 0.43
3 8 -16 1.14 0.4
-3 8 16 1.78 0.52
3 8 -16 1.62 0.38
-2 -8 16 0.17 0.3
2 -8 -16 -0.16 0.22
2 -8 -16 0.24 0.28
2 8 -16 -0.19 0.25
-2 8 16 0.68 0.39
2 8 -16 -0.01 0.31
-2 8 16 0.25 0.3
1 -8 -16 0.34 0.28
-1 -8 16 0.7 0.35
-1 8 16 0.65 0.44
-1 8 16 0.42 0.33
1 8 -16 0.39 0.25
1 8 -16 0.43 0.37
0 -8 16 4.56 0.58
0 -8 -16 3.92 0.49
0 -8 -16 3.31 0.5
0 8 -16 4.19 0.61
0 8 16 3.73 0.56
0 8 16 5.07 0.72
0 8 -16 4.44 0.47
-1 -8 -16 6.52 0.58
1 -8 16 5.81 0.65
-1 -8 -16 5.46 0.56
1 8 16 6.72 0.62
-1 8 -16 5.45 0.67
-1 8 -16 6.02 0.51
1 8 16 4.96 0.7
2 -8 16 16.76 0.91
-2 -8 -16 17.92 0.91
-2 -8 -16 18.44 0.83
2 8 16 18.22 1.08
-2 8 -16 16.28 0.72
2 8 16 15.82 0.9
-2 8 -16 17.7 1.03
3 -8 16 12.81 0.85
-3 -8 -16 12.81 0.72
-3 -8 -16 14.24 0.88
3 8 16 13.32 1.02
3 8 16 12.97 0.86
-3 8 -16 12.87 0.98
-4 -8 -16 14.31 0.91
-4 -8 -16 12.35 0.71
4 -8 16 14.21 0.89
-4 8 -16 13.06 0.93
4 8 16 13.43 1.03
4 8 16 13.42 0.9
-5 -9 16 1.78 0.42
5 -9 -16 1.57 0.41
5 -9 -16 1.4 0.41
-5 9 16 1.37 0.5
5 9 -16 2.53 0.51
4 -9 -16 2.31 0.45
-4 -9 16 2.37 0.45
4 -9 -16 3.03 0.45
-4 9 16 2.99 0.63
4 9 -16 2.12 0.49
4 9 -16 2.3 0.44
-3 -9 16 3.13 0.49
3 -9 -16 2.88 0.47
3 -9 -16 3.22 0.44
3 9 -16 2.63 0.44
-3 9 16 3.39 0.62
3 9 -16 3.6 0.56
-3 9 16 2.77 0.58
2 -9 -16 1.45 0.38
-2 -9 16 1.27 0.4
2 9 -16 0.95 0.4
-2 9 16 1.81 0.5
-2 9 16 1.34 0.39
2 9 -16 1.96 0.39
-1 -9 16 2.95 0.49
1 -9 -16 4.03 0.56
-1 9 16 3.3 0.51
1 9 -16 3.71 0.59
1 9 -16 3.75 0.51
-1 9 16 3.55 0.62
0 -9 16 5.66 0.62
0 -9 -16 4.97 0.58
0 9 16 4.14 0.57
0 9 -16 4.51 0.5
0 9 -16 3.94 0.58
0 9 16 4.63 0.71
-1 -9 -16 4.06 0.51
1 -9 16 4.03 0.6
-1 -9 -16 2.77 0.43
1 9 16 3.64 0.55
-1 9 -16 3.34 0.57
1 9 16 2.91 0.59
-1 9 -16 4.53 0.49
2 -9 16 0.91 0.37
-2 -9 -16 0.59 0.32
-2 -9 -16 0.69 0.35
2 9 16 1.22 0.5
2 9 16 0.41 0.36
-2 9 -16 0.52 0.39
-3 -9 -16 2.77 0.43
-3 -9 -16 2.32 0.47
3 -9 16 3.55 0.54
-3 9 -16 2.39 0.57
3 9 16 2.44 0.61
3 9 16 2.56 0.51
4 -10 -16 -0.61 0.3
-4 -10 16 0.18 0.32
4 -10 -16 0.08 0.32
4 10 -16 0.32 0.38
-4 10 16 0.12 0.41
3 -10 -16 0.38 0.35
-3 -10 16 0.58 0.35
-3 10 16 0.48 0.44
3 10 -16 0.55 0.42
2 -10 -16 0.48 0.37
-2 -10 16 2.25 0.46
-2 10 16 1.6 0.45
-2 10 16 2.27 0.58
2 10 -16 1.91 0.49
1 -10 -16 0.19 0.31
-1 -10 16 0.78 0.38
-1 10 16 0.92 0.42
-1 10 16 0.75 0.45
1 10 -16 1.79 0.5
0 -10 16 2.5 0.47
0 -10 -16 2.48 0.46
0 10 16 2.48 0.56
0 10 16 2.58 0.54
0 10 -16 2.6 0.53
-1 -10 -16 2.4 0.45
1 -10 16 3 0.53
-1 10 -16 3.89 0.48
1 10 16 2.65 0.61
1 10 16 5.1 0.68
-1 10 -16 4.69 0.68
-2 -10 -16 1.15 0.37
-2 -10 -16 1.17 0.4
2 -10 16 1.74 0.45
2 10 16 1.12 0.5
-2 10 -16 0.99 0.45
2 10 16 0.73 0.38
-2 -11 16 0.06 0.32
-2 11 16 0.27 0.46
-2 11 16 -0.15 0.36
-1 -11 16 -0.21 0.31
-1 11 16 0.44 0.41
-1 11 16 -0.1 0.41
0 -11 16 -0.12 0.31
0 -11 -16 -0.53 0.28
0 11 16 -0.31 0.45
0 11 -16 0.49 0.44
0 11 16 -0.27 0.4
-7 0 17 0.48 0.41
7 0 -17 0.35 0.31
7 0 -17 -0.28 0.3
-6 0 17 -0.14 0.37
6 0 -17 -0.03 0.26
6 0 -17 0.11 0.3
-5 0 17 0.25 0.35
5 0 -17 0.05 0.26
-5 0 17 -0.15 0.28
4 0 -17 0.04 0.23
-4 0 17 0.17 0.28
-4 0 17 0.31 0.33
4 0 -17 -0.21 0.19
-3 0 17 0.02 0.3
3 0 -17 -0.02 0.21
3 0 -17 -0.22 0.22
-3 0 17 -0.19 0.22
2 0 -17 -0.18 0.22
-2 0 17 0.35 0.26
-2 0 17 0.25 0.3
2 0 -17 0.16 0.23
-1 0 17 -0.31 0.28
-1 0 17 -0.15 0.21
1 0 -17 -0.14 0.24
1 0 -17 0.05 0.23
0 0 17 -0.18 0.29
0 0 17 0.06 0.21
0 0 -17 0.25 0.21
0 0 -17 0.32 0.27
-1 0 -17 0.13 0.27
-1 0 -17 -0.35 0.17
1 0 17 0 0.29
1 0 17 0.16 0.22
2 0 17 0.39 0.23
-2 0 -17 0.39 0.2
2 0 17 0.09 0.32
-2 0 -17 0.15 0.3
3 0 17 -0.02 0.29
-3 0 -17 -0.08 0.16
-3 0 -17 0.1 0.32
3 0 17 -0.09 0.21
3 0 17 0.3 0.2
-4 0 -17 -0.09 0.32
4 0 17 0.08 0.22
4 0 17 0.11 0.35
4 0 17 -0.11 0.22
5 0 17 0.47 0.28
-5 0 -17 -0.09 0.31
5 0 17 0.25 0.37
6 0 17 -0.22 0.37
6 0 17 0.66 0.32
-6 0 -17 0.01 0.33
7 -1 -17 0.23 0.3
7 -1 -17 0.08 0.31
-7 -1 17 -0.06 0.38
7 1 -17 -0.31 0.24
7 1 -17 -0.07 0.31
-7 1 17 0.16 0.38
-6 -1 17 2.19 0.5
-6 -1 17 1.74 0.41
6 -1 -17 1.56 0.38
6 -1 -17 1.72 0.4
6 1 -17 2.86 0.45
-6 1 17 2.17 0.51
-5 -1 17 -0.54 0.25
-5 -1 17 -0.37 0.29
5 -1 -17 -0.37 0.22
-5 1 17 0.59 0.39
5 1 -17 0.23 0.27
5 1 -17 0.35 0.24
4 -1 -17 -0.03 0.19
-4 -1 17 -0.01 0.27
-4 -1 17 0.24 0.27
4 -1 -17 0.14 0.24
-4 1 17 -0.44 0.3
4 1 -17 -0.02 0.23
4 1 -17 -0.17 0.21
-4 1 17 0.05 0.27
3 -1 -17 1.11 0.29
3 -1 -17 0.96 0.27
-3 -1 17 0.93 0.31
-3 -1 17 0.56 0.34
3 1 -17 0.68 0.28
-3 1 17 0.69 0.35
-3 1 17 0.78 0.28
3 1 -17 0.6 0.26
2 -1 -17 10.67 0.61
2 -1 -17 11.37 0.63
-2 -1 17 10.79 0.69
-2 -1 17 11.09 0.64
-2 1 17 11.56 0.64
2 1 -17 10.22 0.6
-2 1 17 12.62 0.76
2 1 -17 9.74 0.62
1 -1 -17 0.21 0.25
-1 -1 17 0.01 0.31
1 -1 -17 0.49 0.24
-1 -1 17 0.48 0.26
-1 1 17 0.59 0.26
1 1 -17 0.09 0.22
1 1 -17 0.18 0.26
-1 1 17 0.1 0.32
0 -1 17 2.29 0.36
0 -1 -17 1.3 0.28
0 -1 -17 2.03 0.38
0 -1 17 1.8 0.39
0 1 -17 1.7 0.37
0 1 -17 2.14 0.32
0 1 17 2.17 0.43
0 1 17 2.04 0.33
-1 -1 -17 0.45 0.3
1 -1 17 0.29 0.3
1 -1 17 0.98 0.29
-1 -1 -17 0.05 0.2
1 1 17 0.54 0.24
-1 1 -17 0.56 0.32
1 1 17 0.43 0.34
-1 1 -17 0.52 0.23
-2 -1 -17 0.33 0.2
2 -1 17 0.5 0.34
-2 -1 -17 0.35 0.32
2 -1 17 0.49 0.27
2 1 17 0.47 0.33
-2 1 -17 0.77 0.23
-2 1 -17 0.4 0.31
2 1 17 0.48 0.23
-3 -1 -17 1.76 0.43
3 -1 17 0.94 0.38
3 -1 17 1.5 0.32
-3 -1 -17 1.26 0.24
3 1 17 1.65 0.29
-3 1 -17 1.6 0.25
3 1 17 1.7 0.42
-3 1 -17 1.08 0.41
3 1 17 1.61 0.29
4 -1 17 -0.18 0.32
4 -1 17 -0.16 0.22
-4 -1 -17 0.21 0.34
4 1 17 0.51 0.38
4 1 17 0.26 0.24
-4 1 -17 -0.08 0.32
5 -1 17 1.36 0.46
-5 -1 -17 0.94 0.4
5 -1 17 0.79 0.31
-5 1 -17 0.75 0.33
5 1 17 1.38 0.48
5 1 17 1.14 0.33
-5 1 -17 1.1 0.44
6 -1 17 0.21 0.4
-6 -1 -17 -0.3 0.32
-6 1 -17 0.31 0.36
6 1 17 0.03 0.37
6 1 17 0.44 0.32
7 -2 -17 0.87 0.37
-7 -2 17 0.13 0.39
7 -2 -17 0.77 0.33
7 2 -17 0.85 0.35
-7 2 17 1.76 0.51
7 2 -17 0.76 0.4
6 -2 -17 11.05 0.77
-6 -2 17 11.21 0.76
-6 -2 17 9.78 0.77
6 -2 -17 11.34 0.71
6 2 -17 11.92 0.76
-6 2 17 12.83 0.91
5 -2 -17 5.27 0.53
-5 -2 17 5.98 0.58
-5 -2 17 6.35 0.63
5 -2 -17 6.22 0.6
-5 2 17 4.61 0.68
5 2 -17 6.74 0.61
5 2 -17 6.33 0.52
-4 -2 17 3.71 0.55
4 -2 -17 4.64 0.51
-4 -2 17 4.12 0.52
-4 2 17 3.79 0.56
4 2 -17 4.35 0.46
4 2 -17 4.18 0.52
-4 2 17 3.73 0.5
3 -2 -17 4.22 0.4
-3 -2 17 3.68 0.5
-3 -2 17 3.68 0.52
3 -2 -17 3.68 0.44
-3 2 17 4.33 0.47
3 2 -17 4.16 0.52
3 2 -17 4.36 0.48
-3 2 17 3.16 0.49
2 -2 -17 9.01 0.56
-2 -2 17 8.78 0.63
2 -2 -17 9.06 0.55
-2 -2 17 9.61 0.63
-2 2 17 8.85 0.57
2 2 -17 8.86 0.56
-2 2 17 8.96 0.71
2 2 -17 9.74 0.63
-1 -2 17 7.53 0.61
1 -2 -17 5.85 0.52
1 -2 -17 5.94 0.5
-1 -2 17 5.5 0.51
1 2 -17 6.2 0.57
1 2 -17 5.62 0.46
-1 2 17 5.18 0.62
-1 2 17 6.09 0.48
0 -2 17 14.63 0.76
0 -2 -17 15.75 0.77
0 -2 17 15.11 0.73
0 -2 -17 15.03 0.68
0 2 17 15.71 0.86
0 2 -17 14.07 0.65
0 2 17 15.72 0.67
0 2 -17 14.59 0.8
-1 -2 -17 0.8 0.29
1 -2 17 0.55 0.31
1 -2 17 1.14 0.32
-1 -2 -17 0.84 0.24
1 2 17 0.56 0.24
1 2 17 0.63 0.34
-1 2 -17 0.75 0.33
-1 2 -17 0.29 0.21
-2 -2 -17 0.13 0.2
-2 -2 -17 0.27 0.29
2 -2 17 -0.33 0.23
2 -2 17 0.29 0.31
2 2 17 0.36 0.22
-2 2 -17 0.43 0.34
2 2 17 0.05 0.16
2 2 17 0.25 0.34
-2 2 -17 0.1 0.19
-3 -2 -17 0.05 0.19
-3 -2 -17 0.32 0.33
3 -2 17 0.28 0.32
3 -2 17 0.33 0.27
3 2 17 0.66 0.38
-3 2 -17 0.48 0.35
3 2 17 0.27 0.22
3 2 17 0.54 0.23
-3 2 -17 0.43 0.2
4 -2 17 -0.13 0.26
4 -2 17 -0.14 0.32
-4 -2 -17 0.02 0.31
-4 2 -17 -0.65 0.31
4 2 17 -0.35 0.31
4 2 17 -0.29 0.22
-5 -2 -17 4.22 0.63
5 -2 17 2.89 0.53
5 -2 17 2.28 0.4
-5 2 -17 2.72 0.53
5 2 17 2.94 0.59
5 2 17 3.73 0.53
6 -2 17 0.95 0.46
-6 -2 -17 1.48 0.5
-6 2 -17 1.41 0.48
6 2 17 1.09 0.39
6 2 17 1.64 0.53
7 -3 -17 4.48 0.58
-7 -3 17 4.08 0.59
7 -3 -17 3.74 0.56
-7 3 17 5.83 0.82
7 3 -17 4.81 0.6
6 -3 -17 14.21 0.8
6 -3 -17 15.46 0.84
-6 -3 17 14.46 0.86
-6 -3 17 14.74 0.86
6 3 -17 15.8 0.85
-6 3 17 15.64 0.99
5 -3 -17 11.07 0.7
-5 -3 17 10.56 0.74
-5 -3 17 10.45 0.72
5 -3 -17 11.55 0.73
5 3 -17 11.42 0.7
5 3 -17 10.85 0.65
-5 3 17 10.17 0.84
4 -3 -17 14.72 0.75
4 -3 -17 14.7 0.75
-4 -3 17 14.75 0.8
-4 -3 17 14.5 0.8
-4 3 17 14.66 0.92
4 3 -17 13.33 0.73
4 3 -17 14.14 0.74
3 -3 -17 7.62 0.48
-3 -3 17 7.61 0.61
3 -3 -17 8.09 0.58
-3 -3 17 7.46 0.58
-3 3 17 7.1 0.67
3 3 -17 6.76 0.58
3 3 -17 6.4 0.56
-3 3 17 7.63 0.54
-2 -3 17 3.2 0.44
2 -3 -17 3.08 0.43
2 -3 -17 3.27 0.39
-2 -3 17 3.18 0.46
-2 3 17 3.01 0.43
2 3 -17 3.33 0.45
-2 3 17 2.57 0.47
2 3 -17 2.48 0.41
1 -3 -17 1.34 0.3
1 -3 -17 0.65 0.26
-1 -3 17 1.17 0.33
-1 -3 17 1.18 0.33
1 3 -17 1.01 0.34
-1 3 17 1.05 0.27
-1 3 17 1.12 0.41
1 3 -17 0.9 0.27
0 -3 -17 6.13 0.56
0 -3 -17 5.39 0.46
0 -3 17 7.09 0.57
0 -3 17 7.09 0.57
0 3 -17 6.46 0.6
0 3 -17 6 0.48
0 3 17 6.06 0.65
0 3 17 5.49 0.43
1 -3 17 0.04 0.25
1 -3 17 -0.24 0.26
-1 -3 -17 0.09 0.25
-1 -3 -17 0.48 0.24
1 3 17 0.2 0.33
-1 3 -17 0.57 0.35
-1 3 -17 0.11 0.2
1 3 17 0.21 0.17
1 3 17 0.47 0.22
-2 -3 -17 -0.61 0.21
2 -3 17 -0.04 0.3
-2 -3 -17 -0.05 0.19
2 -3 17 -0.14 0.25
2 3 17 0.36 0.2
-2 3 -17 0.2 0.18
-2 3 -17 -0.13 0.29
2 3 17 0.44 0.35
2 3 17 0.21 0.2
3 -3 17 0.99 0.33
-3 -3 -17 1.66 0.41
3 -3 17 1.25 0.38
-3 -3 -17 1.73 0.28
3 3 17 1.96 0.51
3 3 17 1.8 0.33
-3 3 -17 1.8 0.46
4 -3 17 0.13 0.28
-4 -3 -17 -0.09 0.33
4 -3 17 1 0.4
4 3 17 -0.15 0.24
-4 3 -17 0.15 0.36
4 3 17 0.25 0.36
5 -3 17 0.1 0.28
5 -3 17 0.53 0.41
-5 -3 -17 0.01 0.36
-5 3 -17 0.7 0.43
5 3 17 0.15 0.41
5 3 17 0.02 0.3
6 -3 17 0.72 0.32
6 -3 17 0.31 0.4
6 3 17 0.49 0.36
-6 3 -17 0.62 0.44
7 -4 -17 2.11 0.48
-7 -4 17 1.53 0.4
7 -4 -17 1.23 0.36
7 4 -17 1.37 0.38
-7 4 17 1.74 0.55
-6 -4 17 1.86 0.43
-6 -4 17 1.28 0.42
6 -4 -17 1.86 0.39
6 -4 -17 1.23 0.39
6 4 -17 2.2 0.37
-6 4 17 1.59 0.51
6 4 -17 0.29 0.32
5 -4 -17 0.01 0.27
-5 -4 17 -0.38 0.26
5 -4 -17 -0.5 0.25
-5 -4 17 0.15 0.3
-5 4 17 0.25 0.42
5 4 -17 0.24 0.29
5 4 -17 0.15 0.27
4 -4 -17 0.19 0.27
-4 -4 17 0.55 0.28
-4 -4 17 0.6 0.31
4 -4 -17 -0.12 0.25
4 4 -17 0.05 0.26
4 4 -17 0.37 0.27
-4 4 17 -0.22 0.34
3 -4 -17 5.43 0.51
-3 -4 17 5.13 0.54
-3 -4 17 4.69 0.5
3 -4 -17 5.32 0.5
3 4 -17 5.52 0.58
3 4 -17 4.54 0.51
-3 4 17 5.95 0.67
-2 -4 17 2.43 0.37
2 -4 -17 1.26 0.31
2 -4 -17 1.82 0.3
-2 -4 17 1.88 0.38
2 4 -17 2.01 0.35
2 4 -17 2.55 0.43
-2 4 17 2.3 0.52
-1 -4 17 0.03 0.27
1 -4 -17 -0.34 0.21
1 -4 -17 -0.27 0.2
-1 -4 17 -0.11 0.22
-1 4 17 -0.78 0.3
1 4 -17 0.11 0.22
-1 4 17 0.02 0.22
1 4 -17 -0.01 0.28
0 -4 -17 0.87 0.28
0 -4 17 0.88 0.32
0 -4 17 1 0.31
0 -4 -17 0.87 0.29
0 4 17 1.13 0.42
0 4 -17 0.57 0.26
0 4 -17 0.67 0.32
0 4 17 0.66 0.24
-1 -4 -17 1.48 0.29
1 -4 17 1.32 0.34
-1 -4 -17 1.48 0.35
1 -4 17 1.31 0.35
-1 4 -17 1.27 0.27
1 4 17 1.16 0.24
1 4 17 1.28 0.26
-1 4 -17 1.37 0.43
1 4 17 1.17 0.44
-2 -4 -17 2.06 0.42
2 -4 17 1.57 0.37
2 -4 17 1.57 0.37
-2 -4 -17 1.56 0.31
2 4 17 2.14 0.5
-2 4 -17 1.75 0.44
2 4 17 1.77 0.32
-2 4 -17 1.56 0.28
3 -4 17 0.3 0.32
-3 -4 -17 0.93 0.38
-3 -4 -17 0.44 0.24
3 -4 17 0.51 0.31
3 4 17 0.32 0.37
-3 4 -17 0.64 0.39
3 4 17 0.46 0.26
4 -4 17 -0.33 0.28
4 -4 17 0.4 0.29
-4 -4 -17 0.57 0.38
4 4 17 0.37 0.28
-4 4 -17 0.72 0.4
4 4 17 0.31 0.39
5 -4 17 -0.08 0.32
5 -4 17 0.29 0.31
-5 -4 -17 -0.44 0.3
-5 4 -17 -0.55 0.34
5 4 17 -0.13 0.24
5 4 17 0.2 0.42
7 -5 -17 -0.54 0.26
7 5 -17 -0.05 0.31
6 -5 -17 3.93 0.58
6 -5 -17 3.64 0.55
-6 -5 17 3.97 0.56
6 5 -17 3.95 0.56
-6 5 17 3.62 0.63
6 5 -17 2.6 0.47
5 -5 -17 1.65 0.38
-5 -5 17 2.71 0.47
5 -5 -17 2.54 0.44
5 5 -17 2.69 0.43
-5 5 17 2.7 0.6
5 5 -17 2.6 0.44
4 -5 -17 9.77 0.69
4 -5 -17 10.98 0.67
-4 -5 17 9.95 0.69
4 5 -17 9.78 0.68
-4 5 17 11.09 0.84
4 5 -17 9.95 0.71
3 -5 -17 4.74 0.52
-3 -5 17 5.34 0.55
3 -5 -17 4.73 0.55
-3 -5 17 5.43 0.5
3 5 -17 4.57 0.59
-3 5 17 3.86 0.58
3 5 -17 4.1 0.48
2 -5 -17 2.66 0.4
-2 -5 17 1.88 0.39
-2 -5 17 2.79 0.42
2 -5 -17 3.15 0.42
2 5 -17 2.61 0.39
2 5 -17 3.17 0.46
-2 5 17 1.95 0.48
-1 -5 17 3.29 0.42
1 -5 -17 2.93 0.43
1 -5 -17 3.23 0.42
1 -5 -17 2.75 0.35
-1 -5 17 2.92 0.44
-1 5 17 2.52 0.49
1 5 -17 2.31 0.36
1 5 -17 3.53 0.54
0 -5 -17 9.47 0.62
0 -5 17 9.85 0.68
0 -5 17 9.74 0.6
0 -5 -17 9.27 0.58
0 5 -17 8.94 0.72
0 5 -17 9.31 0.57
0 5 17 9.89 0.54
0 5 17 9.05 0.78
1 -5 17 0.4 0.29
1 -5 17 0.4 0.28
-1 -5 -17 0.28 0.25
-1 -5 -17 0.33 0.29
1 5 17 0.31 0.37
-1 5 -17 0.4 0.22
1 5 17 0.25 0.22
-1 5 -17 0.5 0.35
2 -5 17 0.08 0.29
2 -5 17 0.4 0.28
-2 -5 -17 -0.19 0.28
-2 -5 -17 -0.13 0.19
2 5 17 0.07 0.36
-2 5 -17 -0.42 0.31
2 5 17 0.12 0.24
-2 5 -17 -0.06 0.17
-3 -5 -17 0.42 0.32
3 -5 17 0.08 0.29
3 -5 17 0.1 0.29
-3 -5 -17 0.27 0.23
3 5 17 0.2 0.38
-3 5 -17 0.11 0.32
3 5 17 0.01 0.24
-4 -5 -17 3.22 0.53
4 -5 17 3.01 0.5
4 -5 17 3.6 0.5
4 5 17 2.84 0.45
4 5 17 2.43 0.56
-4 5 -17 2.24 0.53
5 -5 17 0.55 0.33
5 -5 17 0.63 0.37
-5 -5 -17 -0.14 0.34
-5 5 -17 0.07 0.38
5 5 17 -0.51 0.34
5 5 17 0.54 0.33
6 -6 -17 9.04 0.75
6 -6 -17 9.53 0.72
-6 -6 17 9.23 0.75
6 6 -17 8.85 0.75
6 6 -17 8.65 0.71
-6 6 17 10.85 0.97
5 -6 -17 5.33 0.61
5 -6 -17 5.65 0.59
-5 -6 17 5.08 0.6
-5 6 17 6.39 0.8
5 6 -17 4.52 0.56
5 6 -17 4.63 0.61
4 -6 -17 13.94 0.76
4 -6 -17 14.11 0.8
-4 -6 17 14.11 0.84
4 6 -17 15.17 0.84
-4 6 17 15.01 0.95
4 6 -17 15.41 0.82
3 -6 -17 17.81 0.86
-3 -6 17 17.8 0.88
3 -6 -17 18.68 0.79
3 6 -17 18.03 0.85
3 6 -17 20.07 0.96
-3 6 17 17.74 1.03
-2 -6 17 12.89 0.76
2 -6 -17 13.83 0.65
2 -6 -17 13.91 0.73
-2 6 17 13.31 0.92
2 6 -17 12.98 0.82
2 6 -17 14.73 0.74
1 -6 -17 2.22 0.39
-1 -6 17 1.89 0.39
1 -6 -17 2.77 0.39
1 -6 -17 2.23 0.34
1 6 -17 1.21 0.38
1 6 -17 2.82 0.41
-1 6 17 3.08 0.51
0 -6 -17 6.18 0.54
0 -6 -17 5.17 0.53
0 -6 17 5.12 0.58
0 6 -17 5.19 0.48
0 6 17 5.41 0.5
0 6 -17 4.99 0.68
0 6 17 3.93 0.61
1 -6 17 4.06 0.55
-1 -6 -17 3.44 0.5
-1 -6 -17 3.21 0.45
-1 6 -17 4.72 0.62
1 6 17 4.58 0.68
1 6 17 4.27 0.47
-1 6 -17 3.12 0.4
-2 -6 -17 2.93 0.43
-2 -6 -17 2.2 0.45
2 -6 17 2.2 0.43
2 6 17 2.7 0.57
-2 6 -17 2.62 0.53
-2 6 -17 3.38 0.39
2 6 17 2.08 0.39
-3 -6 -17 0.51 0.27
3 -6 17 0.5 0.34
-3 -6 -17 0.95 0.39
-3 6 -17 1.77 0.49
3 6 17 1.19 0.47
3 6 17 0.27 0.31
-4 -6 -17 -0.43 0.32
4 -6 17 0.05 0.3
-4 6 -17 0.1 0.38
4 6 17 0.1 0.42
4 6 17 0.38 0.32
5 -6 17 3.36 0.53
-5 -6 -17 3.9 0.62
5 6 17 4.2 0.61
-5 6 -17 3.05 0.6
-6 -7 17 0.94 0.38
6 -7 -17 0.48 0.31
6 -7 -17 0.6 0.38
6 7 -17 0.16 0.32
6 7 -17 0.93 0.39
5 -7 -17 0.2 0.32
-5 -7 17 0.92 0.35
5 -7 -17 0.48 0.33
-5 7 17 1.27 0.53
5 7 -17 0.74 0.37
5 7 -17 0.48 0.33
4 -7 -17 0.51 0.32
4 -7 -17 0.24 0.29
-4 -7 17 0.16 0.32
-4 7 17 0.23 0.44
4 7 -17 0.95 0.39
4 7 -17 0.45 0.32
3 -7 -17 7.28 0.57
-3 -7 17 6.31 0.63
3 -7 -17 6.8 0.59
-3 7 17 5.27 0.78
3 7 -17 6.83 0.67
3 7 -17 5.94 0.58
-2 -7 17 4.19 0.58
2 -7 -17 3.13 0.44
2 -7 -17 4.26 0.47
2 7 -17 4.63 0.63
-2 7 17 4.13 0.62
2 7 -17 4.26 0.53
1 -7 -17 0.66 0.3
-1 -7 17 1.75 0.42
1 7 -17 1.48 0.41
1 7 -17 0.79 0.29
-1 7 17 1.48 0.48
0 -7 -17 3.61 0.47
0 -7 -17 3.22 0.46
0 -7 17 3.08 0.47
0 7 -17 3.24 0.55
0 7 -17 3.91 0.45
0 7 17 3.39 0.59
0 7 17 4.08 0.53
-1 -7 -17 5.74 0.55
-1 -7 -17 5.6 0.57
1 -7 17 5.02 0.6
1 7 17 4.64 0.53
-1 7 -17 5.49 0.66
-1 7 -17 4.44 0.47
1 7 17 5.29 0.71
-2 -7 -17 0.02 0.25
-2 -7 -17 0.5 0.33
2 -7 17 0.36 0.32
2 7 17 0.35 0.42
2 7 17 -0.1 0.28
-2 7 -17 0.02 0.2
-2 7 -17 0.39 0.4
3 -7 17 0.27 0.34
-3 -7 -17 0.05 0.32
-3 -7 -17 -0.69 0.19
3 7 17 -0.21 0.29
-3 7 -17 -0.43 0.3
3 7 17 0.02 0.39
-4 -7 -17 1.59 0.45
4 -7 17 0.63 0.36
4 7 17 1.45 0.42
4 7 17 1.71 0.55
-4 7 -17 0.86 0.46
5 -8 -17 0.07 0.31
5 -8 -17 -0.24 0.3
-5 -8 17 -0.03 0.29
-5 8 17 0.49 0.49
5 8 -17 0.63 0.39
5 8 -17 -0.04 0.31
-4 -8 17 0.52 0.35
4 -8 -17 0.19 0.32
4 -8 -17 0.37 0.31
-4 8 17 0.81 0.48
4 8 -17 0.61 0.39
4 8 -17 0.83 0.34
3 -8 -17 0.22 0.27
3 -8 -17 0.33 0.33
-3 -8 17 -0.19 0.25
3 8 -17 0.37 0.34
3 8 -17 0.29 0.29
-3 8 17 -0.23 0.42
2 -8 -17 3.71 0.5
-2 -8 17 3.99 0.58
-2 8 17 2.44 0.54
2 8 -17 2.69 0.52
2 8 -17 2.99 0.44
-1 -8 17 0.51 0.35
1 -8 -17 0.2 0.29
1 8 -17 0.45 0.3
1 8 -17 0.53 0.37
-1 8 17 0.21 0.4
0 -8 17 0.36 0.32
0 -8 -17 -0.04 0.26
0 -8 -17 -0.19 0.26
0 8 17 0.06 0.31
0 8 17 1.08 0.49
0 8 -17 -0.47 0.21
0 8 -17 0.39 0.38
-1 -8 -17 0.1 0.27
1 -8 17 0.14 0.33
-1 -8 -17 -0.05 0.28
1 8 17 -0.29 0.29
-1 8 -17 -0.28 0.21
-1 8 -17 -0.42 0.33
1 8 17 -0.23 0.39
2 -8 17 4.65 0.61
-2 -8 -17 5.12 0.55
-2 -8 -17 6.11 0.64
2 8 17 5.46 0.63
2 8 17 5.42 0.79
-2 8 -17 4.62 0.71
3 -8 17 0.19 0.36
-3 -8 -17 0.54 0.32
-3 -8 -17 0.88 0.39
3 8 17 0.13 0.34
3 8 17 0.16 0.45
-3 8 -17 -0.31 0.4
4 -9 -17 2.06 0.42
4 -9 -17 2.19 0.43
-4 -9 17 2.65 0.5
-4 9 17 2.14 0.58
4 9 -17 1.6 0.39
4 9 -17 2.51 0.53
3 -9 -17 1.43 0.39
-3 -9 17 2.26 0.45
-3 9 17 1.14 0.5
3 9 -17 1.01 0.42
3 9 -17 1.08 0.37
-2 -9 17 8.48 0.73
2 -9 -17 5.78 0.64
-2 9 17 8.1 0.84
2 9 -17 7.62 0.76
2 9 -17 7.85 0.65
1 -9 -17 4.38 0.58
-1 -9 17 4.43 0.63
-1 9 17 4.42 0.69
1 9 -17 4.79 0.7
1 9 -17 3.73 0.52
0 -9 17 3.02 0.5
0 -9 -17 3.02 0.49
0 9 -17 2.97 0.56
0 9 -17 3.8 0.5
0 9 17 3.63 0.56
0 9 17 4.77 0.72
-1 -9 -17 2.04 0.4
-1 -9 -17 1.5 0.38
1 -9 17 1.89 0.45
1 9 17 1.96 0.44
1 9 17 1.48 0.53
-1 9 -17 1.83 0.5
-1 9 -17 2.37 0.38
-2 -9 -17 3.04 0.49
2 -9 17 2.8 0.53
-2 -9 -17 3.61 0.54
2 9 17 2.99 0.63
2 9 17 2.2 0.48
-2 9 -17 3.66 0.62
-3 -10 17 2.51 0.48
3 10 -17 1.51 0.48
3 10 -17 2.84 0.53
-3 10 17 2.21 0.58
2 -10 -17 0.32 0.35
-2 -10 17 0.55 0.36
2 10 -17 -0.13 0.28
-2 10 17 0.02 0.42
2 10 -17 0.02 0.37
1 -10 -17 0.13 0.33
-1 -10 17 0.17 0.35
1 10 -17 0.28 0.29
-1 10 17 0.33 0.44
1 10 -17 0.05 0.39
0 -10 -17 -0.57 0.28
0 -10 17 -0.22 0.27
0 10 -17 -0.38 0.23
0 10 17 0.53 0.45
0 10 17 -0.04 0.41
0 10 -17 0.17 0.38
-1 -10 -17 -0.07 0.3
1 -10 17 1.25 0.39
1 10 17 0.64 0.51
1 10 17 -0.03 0.34
-1 10 -17 0.46 0.28
-1 10 -17 0.64 0.46
-7 0 18 1.67 0.49
7 0 -18 2.67 0.48
7 0 -18 2.16 0.44
6 0 -18 6.63 0.62
-6 0 18 6.3 0.78
-5 0 18 5.39 0.58
-5 0 18 5.31 0.67
5 0 -18 5.83 0.58
-4 0 18 7.74 0.62
4 0 -18 9 0.63
-4 0 18 8.25 0.69
4 0 -18 8.71 0.58
3 0 -18 30.08 1.04
-3 0 18 28.21 1.05
-3 0 18 29.97 1.17
3 0 -18 28.97 1.01
-2 0 18 48.66 1.55
2 0 -18 51.61 1.41
-2 0 18 49.38 1.41
2 0 -18 49.62 1.41
1 0 -18 32.9 1.07
-1 0 18 33.98 1.09
-1 0 18 35.03 1.26
1 0 -18 32.84 1.16
0 0 18 28.36 0.98
0 0 18 28.39 1.13
0 0 -18 28.99 0.96
0 0 -18 27.79 1.07
1 0 18 30.01 1.02
1 0 18 31.25 1.21
-1 0 -18 30.43 0.96
-1 0 -18 30.67 1.18
2 0 18 30.8 1.01
2 0 18 27.95 1.19
-2 0 -18 28.69 1.18
-2 0 -18 31.11 0.93
-3 0 -18 3.19 0.36
-3 0 -18 2.95 0.48
3 0 18 3.59 0.56
3 0 18 4.19 0.49
4 0 18 -0.01 0.37
-4 0 -18 1.18 0.43
4 0 18 1.87 0.35
5 0 18 1.25 0.48
-5 0 -18 1.21 0.44
7 -1 -18 0.34 0.3
-7 -1 18 0.65 0.41
7 -1 -18 0.17 0.34
7 1 -18 0.24 0.29
7 1 -18 0.56 0.38
-7 1 18 -0.17 0.36
6 -1 -18 0.54 0.36
6 -1 -18 0.75 0.35
-6 -1 18 0.55 0.35
-6 -1 18 1.28 0.45
6 1 -18 0.91 0.35
-6 1 18 0.51 0.45
-5 -1 18 0.13 0.28
5 -1 -18 0.32 0.29
-5 -1 18 0.61 0.37
-5 1 18 0.13 0.3
-5 1 18 0.03 0.39
5 1 -18 -0.36 0.25
-4 -1 18 0.67 0.36
-4 -1 18 0.14 0.27
4 -1 -18 0.39 0.27
4 1 -18 1.01 0.28
-4 1 18 0.44 0.3
4 1 -18 0.63 0.3
-4 1 18 0.16 0.36
3 -1 -18 0.05 0.24
-3 -1 18 0.35 0.33
3 -1 -18 -0.12 0.23
-3 -1 18 0.59 0.31
-3 1 18 0.42 0.27
3 1 -18 0.15 0.26
-3 1 18 0.83 0.38
3 1 -18 0.07 0.25
2 -1 -18 1.97 0.36
-2 -1 18 2.3 0.4
-2 -1 18 2.1 0.44
2 -1 -18 2.18 0.36
-2 1 18 1.45 0.35
2 1 -18 1.98 0.35
-2 1 18 1.93 0.44
2 1 -18 1.58 0.37
1 -1 -18 1.05 0.32
1 -1 -18 0.65 0.26
-1 -1 18 0.35 0.33
-1 -1 18 0.83 0.3
-1 1 18 1.2 0.41
-1 1 18 0.67 0.28
1 1 -18 0.56 0.26
1 1 -18 0.8 0.34
0 -1 -18 1.87 0.38
0 -1 18 1.69 0.35
0 -1 18 1.34 0.38
0 -1 -18 1.56 0.31
0 1 -18 2.47 0.42
0 1 -18 1.95 0.32
0 1 18 2.14 0.35
0 1 18 1.84 0.42
1 -1 18 0.09 0.31
1 -1 18 0.29 0.27
-1 -1 -18 0.42 0.22
-1 -1 -18 0.06 0.31
1 1 18 0.91 0.27
-1 1 -18 0.55 0.24
1 1 18 0.67 0.36
-1 1 -18 0.57 0.36
2 -1 18 3.86 0.49
-2 -1 -18 2.91 0.48
-2 -1 -18 3.22 0.39
2 -1 18 2.86 0.49
-2 1 -18 3.28 0.37
2 1 18 2.93 0.51
2 1 18 2.7 0.37
-2 1 -18 3.02 0.48
3 -1 18 1.27 0.42
-3 -1 -18 0.53 0.22
3 -1 18 1.63 0.35
-3 -1 -18 0.94 0.4
3 1 18 1.17 0.42
-3 1 -18 1.01 0.42
3 1 18 1.34 0.29
-4 -1 -18 2.37 0.5
4 -1 18 2.21 0.38
4 -1 18 2.55 0.53
-4 1 -18 2.22 0.48
4 1 18 2.16 0.5
-5 -1 -18 1.1 0.43
5 -1 18 0.41 0.39
-5 1 -18 -0.05 0.34
5 1 18 0.48 0.45
-7 -2 18 -0.45 0.36
7 -2 -18 -0.09 0.3
7 -2 -18 0.55 0.33
-7 2 18 -0.22 0.39
7 2 -18 0.06 0.29
6 -2 -18 0.84 0.38
6 -2 -18 1.64 0.41
-6 -2 18 1.46 0.44
-6 -2 18 1.8 0.44
6 2 -18 1.56 0.4
-6 2 18 1.6 0.5
-5 -2 18 0.79 0.33
5 -2 -18 0.4 0.29
-5 -2 18 0.56 0.35
5 -2 -18 0.38 0.31
-5 2 18 0.26 0.4
5 2 -18 0.89 0.28
5 2 -18 0.54 0.31
-4 -2 18 -0.13 0.26
-4 -2 18 -0.13 0.26
4 -2 -18 0.12 0.25
-4 2 18 0.37 0.37
-4 2 18 0.2 0.27
4 2 -18 0.43 0.27
4 2 -18 0.1 0.24
-3 -2 18 -0.27 0.25
3 -2 -18 -0.14 0.19
3 -2 -18 0.04 0.25
-3 -2 18 -0.13 0.29
3 2 -18 0.13 0.24
3 2 -18 0.11 0.27
-3 2 18 -0.01 0.33
-3 2 18 -0.45 0.24
-2 -2 18 0.47 0.33
-2 -2 18 0.4 0.29
2 -2 -18 0.12 0.24
2 -2 -18 0.68 0.27
-2 2 18 1.22 0.4
2 2 -18 0.55 0.26
2 2 -18 0.46 0.28
-2 2 18 0.03 0.23
1 -2 -18 1.01 0.29
-1 -2 18 1.44 0.34
-1 -2 18 1.27 0.37
1 -2 -18 0.89 0.32
1 2 -18 1.33 0.31
-1 2 18 1.42 0.44
-1 2 18 0.92 0.29
1 2 -18 0.94 0.35
0 -2 18 1.12 0.35
0 -2 -18 0.88 0.27
0 -2 -18 1.01 0.32
0 -2 18 1.06 0.33
0 2 18 0.59 0.37
0 2 -18 0.76 0.34
0 2 -18 0.52 0.24
0 2 18 0.86 0.26
-1 -2 -18 0.92 0.26
1 -2 18 1.1 0.33
-1 -2 -18 1.43 0.38
1 -2 18 0.74 0.34
-1 2 -18 0.78 0.37
1 2 18 1.22 0.44
1 2 18 1.04 0.27
-1 2 -18 1.18 0.28
-2 -2 -18 1.49 0.29
-2 -2 -18 1.77 0.42
2 -2 18 1.57 0.36
2 -2 18 1.97 0.43
-2 2 -18 2.3 0.47
-2 2 -18 1.49 0.28
2 2 18 1.23 0.43
2 2 18 2.3 0.33
-3 -2 -18 0.44 0.35
-3 -2 -18 -0.37 0.17
3 -2 18 0.16 0.27
3 -2 18 0.72 0.36
-3 2 -18 0.05 0.35
3 2 18 -0.06 0.33
4 -2 18 0.19 0.28
-4 -2 -18 0.06 0.33
4 -2 18 0.26 0.39
-4 2 -18 0.64 0.42
4 2 18 0.42 0.4
5 -2 18 0.95 0.45
5 -2 18 0.35 0.3
-5 -2 -18 2.15 0.51
5 2 18 0.79 0.48
-5 2 -18 1.04 0.44
-7 -3 18 3.67 0.6
7 -3 -18 2.78 0.52
7 -3 -18 3.74 0.52
-7 3 18 3.84 0.7
7 3 -18 3.64 0.55
6 -3 -18 2.08 0.44
6 -3 -18 2.45 0.47
-6 -3 18 2.77 0.47
-6 -3 18 2.98 0.52
-6 3 18 2.9 0.56
6 3 -18 3.46 0.5
5 -3 -18 0.06 0.29
-5 -3 18 0.21 0.33
-5 -3 18 0.15 0.3
5 -3 -18 0.7 0.32
5 3 -18 0.24 0.27
-5 3 18 0.76 0.43
5 3 -18 0.68 0.31
-4 -3 18 2.09 0.41
4 -3 -18 2.82 0.43
-4 -3 18 2.19 0.44
4 -3 -18 2.18 0.4
4 3 -18 2.04 0.38
-4 3 18 2.43 0.5
4 3 -18 2.29 0.4
3 -3 -18 0.62 0.29
-3 -3 18 0.68 0.33
-3 -3 18 0.64 0.31
-3 3 18 0.63 0.3
3 3 -18 0.28 0.29
3 3 -18 0.02 0.24
-3 3 18 0.7 0.41
-2 -3 18 1.62 0.37
2 -3 -18 1.68 0.32
2 -3 -18 1.53 0.34
-2 -3 18 1.36 0.35
-2 3 18 1.53 0.33
2 3 -18 1.81 0.4
2 3 -18 1.25 0.32
-2 3 18 1.48 0.43
1 -3 -18 3.88 0.44
-1 -3 18 4.37 0.54
-1 -3 18 4.25 0.51
1 -3 -18 3.37 0.46
1 3 -18 4.18 0.47
-1 3 18 3.63 0.43
1 3 -18 4.03 0.56
-1 3 18 4.04 0.59
0 -3 -18 4.97 0.47
0 -3 18 5 0.57
0 -3 18 4.9 0.53
0 -3 -18 4.18 0.51
0 3 18 5.45 0.45
0 3 18 6.17 0.67
0 3 -18 5.95 0.62
0 3 -18 4.64 0.45
-1 -3 -18 1.46 0.32
1 -3 18 1.53 0.38
-1 -3 -18 1.84 0.4
1 -3 18 1.45 0.37
1 3 18 0.99 0.42
1 3 18 1.78 0.3
-1 3 -18 2.18 0.33
-1 3 -18 2.02 0.43
-2 -3 -18 0.19 0.21
-2 -3 -18 -0.07 0.29
2 -3 18 0.09 0.28
2 -3 18 -0.06 0.31
2 3 18 -0.03 0.35
-2 3 -18 0.07 0.35
-2 3 -18 0.18 0.19
-3 -3 -18 3.96 0.4
3 -3 18 4.82 0.55
-3 -3 -18 5.61 0.64
3 -3 18 4.65 0.58
-3 3 -18 4.32 0.62
3 3 18 4.66 0.68
-4 -3 -18 6.21 0.69
4 -3 18 4.89 0.58
4 -3 18 5.55 0.7
-4 3 -18 6.08 0.72
4 3 18 6.68 0.75
5 -3 18 0.78 0.43
5 -3 18 0.21 0.29
-5 -3 -18 -0.75 0.29
-5 3 -18 -0.85 0.31
5 3 18 0.03 0.4
6 -4 -18 1.34 0.38
6 -4 -18 1.22 0.4
-6 -4 18 0.96 0.38
6 4 -18 1.26 0.37
-6 4 18 0.91 0.45
5 -4 -18 -0.13 0.27
5 -4 -18 0.05 0.27
-5 -4 18 0.07 0.3
-5 -4 18 -0.13 0.32
5 4 -18 0.44 0.31
-5 4 18 0.32 0.45
5 4 -18 0.63 0.31
4 -4 -18 8.87 0.64
-4 -4 18 10.04 0.66
-4 -4 18 8.86 0.7
4 -4 -18 9.7 0.68
4 4 -18 10.03 0.72
-4 4 18 8.09 0.77
4 4 -18 9.84 0.69
-3 -4 18 7.98 0.64
3 -4 -18 7.68 0.58
-3 -4 18 9.76 0.63
3 -4 -18 6.88 0.57
3 4 -18 10.09 0.69
3 4 -18 7.94 0.61
-3 4 18 7.77 0.75
-2 -4 18 2.87 0.43
2 -4 -18 3.08 0.4
2 -4 -18 3.61 0.45
-2 -4 18 3.14 0.47
2 4 -18 3.16 0.47
-2 4 18 2.3 0.51
2 4 -18 2.92 0.47
1 -4 -18 13.85 0.69
-1 -4 18 12.88 0.76
-1 -4 18 12.72 0.71
1 -4 -18 12.75 0.69
-1 4 18 11.77 0.63
1 4 -18 12.41 0.81
1 4 -18 13.32 0.69
-1 4 18 13.92 0.93
0 -4 -18 23.55 0.92
0 -4 -18 22.54 0.88
0 -4 18 23.02 0.94
0 -4 18 24.32 0.97
0 4 -18 23.83 0.88
0 4 18 23.76 1.12
0 4 18 22.25 0.8
0 4 -18 23.11 1.06
1 -4 18 0.48 0.3
-1 -4 -18 0.61 0.26
1 -4 18 0.46 0.31
-1 -4 -18 0.35 0.28
1 4 18 0.42 0.22
1 4 18 1.2 0.45
-1 4 -18 0.46 0.23
-1 4 -18 0.75 0.39
-2 -4 -18 2.34 0.34
2 -4 18 2.96 0.44
2 -4 18 2.65 0.45
-2 -4 -18 2.19 0.43
-2 4 -18 2.88 0.38
-2 4 -18 2.78 0.5
2 4 18 2.95 0.55
-3 -4 -18 12.31 0.62
3 -4 18 11.2 0.78
-3 -4 -18 11.78 0.82
3 -4 18 10.93 0.74
-3 4 -18 12.28 0.9
3 4 18 13.42 0.94
4 -4 18 5.65 0.7
-4 -4 -18 6.56 0.74
4 -4 18 6.97 0.64
-4 4 -18 7.91 0.8
4 4 18 5.83 0.76
5 -4 18 0.06 0.37
-5 -4 -18 -0.38 0.36
5 -4 18 -0.22 0.27
5 4 18 0.17 0.4
-5 4 -18 0.14 0.4
6 -5 -18 0.4 0.34
6 -5 -18 0.34 0.35
-6 -5 18 0.54 0.35
-6 5 18 1.03 0.5
6 5 -18 0.43 0.29
6 5 -18 0.04 0.32
-5 -5 18 0.11 0.3
5 -5 -18 -0.24 0.28
5 -5 -18 -0.1 0.28
-5 5 18 0.24 0.42
5 5 -18 0 0.28
5 5 -18 -0.1 0.25
4 -5 -18 6.48 0.6
-4 -5 18 6.71 0.64
4 -5 -18 6.98 0.6
4 5 -18 6.47 0.66
4 5 -18 6.84 0.6
-4 5 18 6.53 0.74
3 -5 -18 4.98 0.55
3 -5 -18 5.37 0.55
-3 -5 18 4.96 0.6
-3 5 18 5.86 0.72
3 5 -18 4.44 0.51
3 5 -18 5.25 0.6
2 -5 -18 0.98 0.32
-2 -5 18 0.66 0.3
-2 -5 18 0.89 0.33
2 -5 -18 0.48 0.27
-2 5 18 0.56 0.4
2 5 -18 0.66 0.34
2 5 -18 0.84 0.3
1 -5 -18 3.19 0.46
-1 -5 18 3.67 0.46
-1 -5 18 4.01 0.55
1 -5 -18 3.46 0.44
1 -5 -18 2.95 0.41
1 5 -18 3.67 0.55
-1 5 18 3.72 0.6
1 5 -18 2.74 0.39
0 -5 -18 13.07 0.7
0 -5 18 14.06 0.73
0 -5 -18 13.38 0.75
0 -5 18 13.88 0.81
0 5 -18 15.05 0.72
0 5 18 12.76 0.91
0 5 -18 15.6 0.9
1 -5 18 7.15 0.64
-1 -5 -18 7.28 0.56
-1 -5 -18 7.12 0.63
1 -5 18 7.32 0.61
-1 5 -18 8.8 0.55
-1 5 -18 7.35 0.73
1 5 18 7.77 0.78
-2 -5 -18 8.84 0.57
-2 -5 -18 7.82 0.7
2 -5 18 8.5 0.65
2 -5 18 9.78 0.72
2 5 18 8.45 0.82
-2 5 -18 7.86 0.5
-2 5 -18 8.83 0.8
3 -5 18 5.3 0.62
-3 -5 -18 5.3 0.64
3 -5 18 4.94 0.58
-3 -5 -18 4.51 0.48
-3 5 -18 4.45 0.66
3 5 18 4.87 0.74
4 -5 18 -0.42 0.31
4 -5 18 -0.17 0.29
-4 -5 -18 -0.2 0.32
4 5 18 -0.28 0.35
-4 5 -18 -0.06 0.37
6 -6 -18 0.08 0.33
6 -6 -18 -0.28 0.28
-6 -6 18 0.44 0.34
6 6 -18 0.24 0.3
6 6 -18 0.16 0.28
5 -6 -18 -0.14 0.28
5 -6 -18 -0.11 0.28
-5 -6 18 0.24 0.34
5 6 -18 -0.47 0.25
5 6 -18 0.36 0.3
-5 6 18 0.24 0.44
4 -6 -18 0.58 0.31
4 -6 -18 -0.37 0.26
-4 -6 18 0.36 0.32
4 6 -18 0.03 0.31
-4 6 18 0.31 0.42
4 6 -18 0 0.27
3 -6 -18 0.1 0.26
-3 -6 18 0.45 0.31
3 -6 -18 0.07 0.29
3 6 -18 -0.02 0.27
3 6 -18 0.02 0.33
-3 6 18 0.09 0.39
2 -6 -18 2.71 0.43
2 -6 -18 2.27 0.36
-2 -6 18 1.24 0.37
2 6 -18 1.83 0.37
2 6 -18 1.51 0.41
-2 6 18 1.9 0.49
1 -6 -18 0.06 0.23
-1 -6 18 0.47 0.34
1 -6 -18 0.8 0.31
1 6 -18 0.64 0.27
1 6 -18 0.52 0.36
-1 6 18 0.35 0.4
0 -6 -18 -0.4 0.23
0 -6 18 -0.3 0.27
0 -6 -18 0.24 0.26
0 6 -18 0.3 0.34
0 6 -18 -0.26 0.2
0 6 18 0.27 0.38
-1 -6 -18 -0.04 0.28
1 -6 18 0.07 0.28
-1 -6 -18 -0.25 0.21
1 6 18 -0.04 0.4
-1 6 -18 0.15 0.34
-1 6 -18 0.3 0.25
-2 -6 -18 0.04 0.32
-2 -6 -18 0.27 0.26
2 -6 18 0.51 0.33
-2 6 -18 -0.09 0.18
2 6 18 -0.1 0.39
-2 6 -18 0.06 0.38
-3 -6 -18 -0.58 0.3
-3 -6 -18 -0.3 0.22
3 -6 18 0.07 0.29
3 6 18 0.35 0.4
-3 6 -18 -0.16 0.35
-4 -6 -18 1.41 0.47
4 -6 18 1.39 0.41
-4 6 -18 0.94 0.46
4 6 18 1.39 0.54
5 -7 -18 0.58 0.35
-5 -7 18 0.75 0.36
5 -7 -18 0.5 0.35
-5 7 18 1.35 0.5
5 7 -18 1.33 0.39
5 7 -18 1.15 0.39
4 -7 -18 1.48 0.4
-4 -7 18 0.96 0.38
4 -7 -18 1.15 0.36
4 7 -18 1.89 0.43
4 7 -18 1.06 0.36
-4 7 18 1.43 0.51
3 -7 -18 1.59 0.42
-3 -7 18 2.1 0.44
3 -7 -18 1.15 0.34
3 7 -18 1.64 0.46
3 7 -18 1.63 0.37
-3 7 18 1.14 0.5
2 -7 -18 3.89 0.48
-2 -7 18 3.33 0.51
2 -7 -18 4.1 0.56
2 7 -18 3.89 0.57
2 7 -18 4.04 0.5
-2 7 18 3.99 0.63
-1 -7 18 0.46 0.33
1 -7 -18 0.63 0.31
1 7 -18 0.78 0.4
1 7 -18 0.67 0.3
-1 7 18 0.44 0.45
0 -7 18 0.4 0.33
0 -7 -18 -0.51 0.22
0 -7 -18 0.32 0.29
0 7 18 0.46 0.46
0 7 -18 0.76 0.41
0 7 -18 0.13 0.23
-1 -7 -18 4.92 0.57
-1 -7 -18 2.98 0.44
1 -7 18 3.76 0.53
-1 7 -18 4.07 0.6
1 7 18 4.95 0.72
-1 7 -18 3.47 0.45
-2 -7 -18 6.64 0.59
2 -7 18 7.97 0.73
-2 -7 -18 6.86 0.68
2 7 18 6.34 0.81
-2 7 -18 6.9 0.77
-3 -7 -18 -0.67 0.19
-3 -7 -18 0.44 0.35
3 -7 18 -0.1 0.3
-3 7 -18 0.17 0.4
3 7 18 -0.89 0.35
4 -8 -18 0.02 0.29
4 -8 -18 -0.25 0.29
-4 -8 18 0.45 0.34
4 8 -18 0.22 0.32
4 8 -18 0.54 0.33
-4 8 18 0.86 0.48
-3 -8 18 -0.47 0.25
3 -8 -18 -0.34 0.27
3 -8 -18 0.56 0.3
3 8 -18 0.11 0.3
3 8 -18 0.82 0.4
-3 8 18 0.7 0.48
-2 -8 18 0.77 0.38
2 -8 -18 0.73 0.34
2 8 -18 0.65 0.41
2 8 -18 1.85 0.39
-2 8 18 0.61 0.44
-1 -8 18 1.04 0.38
1 -8 -18 0.39 0.31
1 8 -18 0.76 0.31
1 8 -18 0.48 0.38
-1 8 18 0.5 0.43
0 -8 -18 2.55 0.45
0 -8 18 2.61 0.48
0 8 -18 2.89 0.42
0 8 18 3.23 0.63
0 8 -18 4.6 0.69
-1 -8 -18 5.25 0.58
-1 -8 -18 5.39 0.58
1 -8 18 5.98 0.67
-1 8 -18 5.58 0.53
-1 8 -18 5.58 0.72
1 8 18 6.85 0.86
-2 -8 -18 6.52 0.6
2 -8 18 7.02 0.73
-2 -8 -18 9.41 0.72
-2 8 -18 7.3 0.86
2 8 18 7.4 0.86
-3 -8 -18 -0.2 0.34
3 -8 18 -0.51 0.31
-3 -8 -18 -0.06 0.27
-3 8 -18 -0.34 0.4
3 8 18 -0.8 0.37
3 -9 -18 12.25 0.8
-3 -9 18 14.31 0.88
-3 9 18 13.2 1.02
3 9 -18 13.8 0.85
3 9 -18 13.47 0.97
-2 -9 18 15.3 0.9
2 -9 -18 14.21 0.84
2 9 -18 13.33 0.8
2 9 -18 15.3 1.01
-2 9 18 15.64 1.06
-1 -9 18 15.01 0.9
1 -9 -18 13.28 0.82
-1 9 18 14.42 1.04
1 9 -18 14.21 0.95
1 9 -18 14.45 0.79
0 -9 -18 18.71 0.94
0 -9 18 18.91 0.99
0 9 -18 17.32 1.06
0 9 18 19.29 1.13
0 9 -18 16.9 0.85
1 -9 18 9.88 0.77
-1 -9 -18 7.14 0.65
1 9 18 9.76 0.97
-1 9 -18 11.09 0.93
-1 9 -18 8.24 0.61
-2 -9 -18 5.76 0.65
-2 -9 -18 4.7 0.59
2 9 18 7.42 0.89
7 0 -19 0 0.31
-7 0 19 0.07 0.36
-6 0 19 -0.19 0.35
6 0 -19 0.24 0.29
-5 0 19 0.14 0.36
-5 0 19 -0.09 0.31
5 0 -19 -0.12 0.27
-4 0 19 0.25 0.32
4 0 -19 0.02 0.27
-4 0 19 0.1 0.32
-3 0 19 -0.41 0.25
3 0 -19 -0.09 0.25
3 0 -19 0.19 0.25
-3 0 19 -0.25 0.33
-2 0 19 0.05 0.26
-2 0 19 0.08 0.36
2 0 -19 0.06 0.24
2 0 -19 0.12 0.26
-1 0 19 -0.24 0.31
-1 0 19 0.04 0.25
1 0 -19 0.11 0.24
1 0 -19 -0.25 0.27
0 0 -19 -0.06 0.2
0 0 19 0.09 0.33
0 0 19 0.38 0.26
0 0 -19 0.32 0.3
-1 0 -19 0.15 0.33
-1 0 -19 0.41 0.23
1 0 19 -0.31 0.32
1 0 19 0.45 0.27
2 0 19 0.18 0.25
-2 0 -19 0.21 0.34
2 0 19 0.14 0.33
-2 0 -19 0.3 0.22
3 0 19 0.09 0.23
3 0 19 -0.5 0.28
-3 0 -19 -0.47 0.28
4 0 19 -0.21 0.36
-4 0 -19 0.05 0.36
5 0 19 0.63 0.43
-5 0 -19 0.17 0.38
-6 -1 19 5.85 0.78
6 -1 -19 5.97 0.61
-6 -1 19 6.22 0.65
6 -1 -19 5.65 0.64
-6 1 19 6.2 0.79
6 1 -19 6.65 0.65
5 -1 -19 1.64 0.39
-5 -1 19 2 0.43
-5 -1 19 1.44 0.45
5 1 -19 2.56 0.44
-5 1 19 1.46 0.48
-5 1 19 1.22 0.38
-4 -1 19 0.45 0.36
4 -1 -19 0.6 0.31
-4 -1 19 0.9 0.34
-4 1 19 0.7 0.38
4 1 -19 0.49 0.27
4 1 -19 0.65 0.31
-4 1 19 0.28 0.32
3 -1 -19 -0.4 0.22
-3 -1 19 -0.32 0.3
3 -1 -19 0.48 0.29
-3 -1 19 0.1 0.29
-3 1 19 -0.31 0.25
-3 1 19 0.22 0.37
3 1 -19 0.11 0.25
3 1 -19 0.3 0.27
-2 -1 19 -0.24 0.31
-2 -1 19 0.3 0.29
2 -1 -19 0.51 0.27
2 -1 -19 -0.07 0.24
2 1 -19 0.3 0.25
-2 1 19 -0.33 0.32
2 1 -19 0.77 0.32
-2 1 19 -0.43 0.23
1 -1 -19 3.92 0.51
1 -1 -19 3.7 0.47
-1 -1 19 3.56 0.48
-1 -1 19 3.5 0.53
1 1 -19 4.05 0.48
-1 1 19 4.24 0.65
1 1 -19 4.47 0.53
-1 1 19 3.9 0.48
0 -1 -19 2.49 0.37
0 -1 19 2.02 0.44
0 -1 19 2.26 0.38
0 -1 -19 2.86 0.46
0 1 19 1.81 0.46
0 1 -19 2.64 0.46
0 1 -19 2.14 0.35
0 1 19 2.7 0.39
1 -1 19 16.39 0.93
-1 -1 -19 15.71 0.7
-1 -1 -19 14.65 0.87
1 -1 19 17.45 0.81
1 1 19 16.99 0.98
-1 1 -19 16.37 0.72
1 1 19 17.6 0.76
-1 1 -19 15.32 0.9
-2 -1 -19 20.87 1
2 -1 19 18.23 0.82
2 -1 19 17 0.96
-2 -1 -19 17.49 0.73
2 1 19 19.01 0.78
-2 1 -19 18.27 1.01
2 1 19 17.41 0.98
-2 1 -19 19.23 0.74
-3 -1 -19 8.46 0.76
3 -1 19 7.2 0.6
3 -1 19 9.88 0.79
3 1 19 8.71 0.58
-3 1 -19 8.52 0.8
3 1 19 7.87 0.78
-4 -1 -19 1.73 0.5
4 -1 19 1.21 0.33
4 -1 19 1.46 0.46
4 1 19 1.23 0.47
-4 1 -19 1.15 0.42
-5 -1 -19 4.24 0.64
5 -1 19 3.18 0.62
5 1 19 3.54 0.65
-5 1 -19 3.39 0.59
6 -2 -19 2.19 0.45
6 -2 -19 2.68 0.45
-6 -2 19 1.56 0.47
-6 -2 19 2.24 0.48
-6 2 19 1.4 0.48
6 2 -19 1.38 0.42
5 -2 -19 0.42 0.31
-5 -2 19 0.46 0.34
-5 -2 19 0.2 0.33
5 -2 -19 0.46 0.33
-5 2 19 0.37 0.44
5 2 -19 0.14 0.28
4 -2 -19 0.55 0.28
-4 -2 19 0.29 0.35
-4 -2 19 -0.06 0.27
4 2 -19 0.48 0.3
-4 2 19 0.41 0.39
4 2 -19 -0.3 0.27
-4 2 19 0.47 0.3
-3 -2 19 1.65 0.4
3 -2 -19 0.92 0.32
-3 -2 19 0.65 0.33
3 2 -19 0.22 0.27
-3 2 19 0.88 0.34
-3 2 19 0.88 0.38
3 2 -19 0.87 0.33
2 -2 -19 -0.2 0.22
-2 -2 19 0.21 0.31
2 -2 -19 0.04 0.25
-2 -2 19 0.43 0.31
-2 2 19 0.46 0.29
2 2 -19 -0.03 0.25
2 2 -19 0.33 0.29
-2 2 19 0.8 0.41
-1 -2 19 5.06 0.56
-1 -2 19 4.77 0.55
1 -2 -19 5.19 0.54
1 -2 -19 5.15 0.52
-1 2 19 5 0.5
1 2 -19 4.56 0.47
-1 2 19 5.41 0.66
1 2 -19 4.03 0.53
0 -2 -19 -0.48 0.23
0 -2 19 -0.21 0.28
0 -2 19 0.04 0.28
0 -2 -19 0.31 0.23
0 2 19 0.08 0.36
0 2 -19 0.39 0.32
0 2 19 0.11 0.24
0 2 -19 -0.17 0.21
1 -2 19 0.3 0.34
-1 -2 -19 0.91 0.34
-1 -2 -19 0.52 0.24
1 -2 19 0.16 0.28
1 2 19 0.7 0.26
-1 2 -19 0.48 0.25
1 2 19 0.43 0.41
-1 2 -19 0.44 0.36
-2 -2 -19 3.28 0.51
-2 -2 -19 2.88 0.37
2 -2 19 2.31 0.41
2 -2 19 3.02 0.53
2 2 19 2.08 0.33
-2 2 -19 2.93 0.38
-2 2 -19 3.68 0.55
2 2 19 3.39 0.54
3 -2 19 8.52 0.75
-3 -2 -19 8.5 0.56
3 -2 19 7.39 0.61
-3 -2 -19 10.03 0.79
-3 2 -19 9.32 0.83
3 2 19 8.06 0.79
-4 -2 -19 2.72 0.54
4 -2 19 4.34 0.66
4 -2 19 2.78 0.43
-4 2 -19 3.07 0.58
4 2 19 3.25 0.6
-5 -2 -19 4.05 0.68
5 -2 19 4.77 0.71
5 2 19 4.01 0.67
-5 2 -19 3.25 0.64
-6 -3 19 0.19 0.33
6 -3 -19 -0.82 0.22
-6 -3 19 0.17 0.32
6 -3 -19 -0.02 0.31
6 3 -19 0.63 0.33
-6 3 19 0.13 0.38
5 -3 -19 0.04 0.29
5 -3 -19 0.27 0.32
-5 -3 19 0.52 0.33
-5 -3 19 0.1 0.35
5 3 -19 -0.15 0.28
5 3 -19 0.36 0.27
-5 3 19 0.18 0.41
4 -3 -19 0.45 0.31
4 -3 -19 0.88 0.36
-4 -3 19 0.12 0.32
-4 -3 19 0.86 0.36
4 3 -19 0.59 0.32
-4 3 19 0.21 0.37
4 3 -19 1.35 0.34
-3 -3 19 0.98 0.34
3 -3 -19 1.38 0.35
-3 -3 19 2.09 0.43
-3 3 19 1.55 0.43
3 3 -19 1.25 0.34
3 3 -19 1.98 0.42
-3 3 19 1.85 0.39
2 -3 -19 0.06 0.24
2 -3 -19 0.5 0.28
-2 -3 19 0.61 0.31
-2 -3 19 0.23 0.29
2 3 -19 0.47 0.32
2 3 -19 0.58 0.27
-2 3 19 0.45 0.29
-2 3 19 0.68 0.4
-1 -3 19 3.23 0.47
1 -3 -19 3.47 0.47
1 -3 -19 3.75 0.47
-1 -3 19 4.13 0.53
1 3 -19 4.02 0.47
1 3 -19 3.56 0.52
-1 3 19 3.19 0.55
-1 3 19 3.99 0.45
0 -3 19 2.95 0.44
0 -3 19 3.25 0.48
0 -3 -19 4.35 0.47
0 -3 -19 2.82 0.45
0 3 19 3.01 0.42
0 3 19 2.7 0.54
0 3 -19 2.85 0.51
0 3 -19 2.96 0.43
1 -3 19 0.32 0.34
-1 -3 -19 -0.01 0.23
-1 -3 -19 -0.01 0.29
1 -3 19 -0.15 0.26
-1 3 -19 0.21 0.33
1 3 19 -0.12 0.22
1 3 19 -0.59 0.33
-1 3 -19 0.2 0.21
2 -3 19 0.8 0.35
-2 -3 -19 0.59 0.24
-2 -3 -19 0.41 0.33
2 -3 19 0.09 0.29
-2 3 -19 0.81 0.25
2 3 19 -0.2 0.35
-2 3 -19 0.81 0.4
3 -3 19 2.42 0.43
3 -3 19 2.66 0.51
-3 -3 -19 2.2 0.46
-3 -3 -19 3.27 0.39
3 3 19 3.03 0.59
-3 3 -19 3.12 0.56
4 -3 19 4.36 0.67
4 -3 19 4.35 0.57
-4 -3 -19 2.86 0.56
-4 3 -19 3.16 0.61
4 3 19 3.64 0.63
6 -4 -19 -0.19 0.26
-6 -4 19 0.16 0.34
6 -4 -19 0.12 0.32
6 4 -19 0.28 0.31
-6 4 19 -0.19 0.4
5 -4 -19 0.24 0.28
5 -4 -19 0.25 0.31
-5 -4 19 0.54 0.36
5 4 -19 0.35 0.31
5 4 -19 0.34 0.32
-5 4 19 0.06 0.42
4 -4 -19 1.79 0.4
4 -4 -19 1.91 0.39
-4 -4 19 2.27 0.45
-4 -4 19 2.46 0.42
4 4 -19 1.42 0.38
4 4 -19 1.1 0.36
-4 4 19 1.97 0.51
-3 -4 19 0.62 0.3
3 -4 -19 0.51 0.29
3 -4 -19 0.17 0.27
-3 -4 19 0.55 0.33
3 4 -19 0.17 0.26
-3 4 19 0.37 0.39
3 4 -19 0.35 0.32
-2 -4 19 0.21 0.29
-2 -4 19 0.92 0.32
2 -4 -19 -0.19 0.23
2 4 -19 0.53 0.35
-2 4 19 -0.3 0.36
2 4 -19 0.31 0.26
-1 -4 19 -0.77 0.23
-1 -4 19 -0.15 0.25
1 -4 -19 0.06 0.24
1 -4 -19 -0.04 0.25
1 4 -19 -0.07 0.3
-1 4 19 -0.25 0.23
-1 4 19 0.4 0.38
1 4 -19 0 0.23
0 -4 19 5.32 0.58
0 -4 -19 4.45 0.51
0 -4 19 4.91 0.56
0 -4 -19 5.9 0.54
0 4 -19 4.44 0.47
0 4 19 3.67 0.43
0 4 19 5.26 0.7
0 4 -19 4.76 0.67
-1 -4 -19 2.97 0.46
-1 -4 -19 2.57 0.37
1 -4 19 3.77 0.51
1 -4 19 2.98 0.49
-1 4 -19 3.05 0.56
-1 4 -19 3.64 0.43
1 4 19 2.49 0.55
2 -4 19 4.67 0.58
-2 -4 -19 3.62 0.45
2 -4 19 4.03 0.57
-2 -4 -19 3.58 0.53
2 4 19 2.89 0.57
-2 4 -19 3.47 0.4
-2 4 -19 3.66 0.6
-3 -4 -19 0.27 0.24
3 -4 19 0.49 0.32
3 -4 19 0.44 0.35
-3 -4 -19 -0.24 0.31
-3 4 -19 -0.03 0.35
3 4 19 -0.11 0.38
-4 -4 -19 1.82 0.48
4 -4 19 1.27 0.4
4 -4 19 1.81 0.46
4 4 19 1.26 0.5
-4 4 -19 1.49 0.47
-6 -5 19 0.97 0.4
6 -5 -19 0.23 0.33
6 -5 -19 0.54 0.37
5 -5 -19 0.1 0.31
-5 -5 19 -0.12 0.31
5 -5 -19 0.03 0.3
-5 5 19 -0.69 0.38
5 5 -19 -0.18 0.31
5 5 -19 0.15 0.3
-4 -5 19 -0.38 0.28
4 -5 -19 0.15 0.3
4 -5 -19 -0.26 0.26
4 5 -19 0.28 0.33
4 5 -19 -0.45 0.24
-4 5 19 0.25 0.4
-3 -5 19 1.5 0.42
3 -5 -19 1.47 0.37
3 -5 -19 1.79 0.39
3 5 -19 1.43 0.4
3 5 -19 1.99 0.4
-3 5 19 2.51 0.55
2 -5 -19 0.82 0.32
2 -5 -19 0.16 0.26
-2 -5 19 1.06 0.35
-2 5 19 0.2 0.42
2 5 -19 0.4 0.29
2 5 -19 0.65 0.36
1 -5 -19 3.1 0.46
-1 -5 19 2.56 0.45
1 -5 -19 3.03 0.42
1 -5 -19 2.49 0.4
-1 5 19 3.33 0.59
1 5 -19 3.15 0.53
1 5 -19 2.53 0.4
0 -5 -19 0.65 0.29
0 -5 19 0.29 0.3
0 -5 -19 0.95 0.33
0 -5 19 1.14 0.36
0 5 -19 0.96 0.39
0 5 19 0.47 0.44
0 5 -19 0.75 0.28
1 -5 19 1.83 0.39
-1 -5 -19 2.14 0.44
1 -5 19 2.77 0.47
-1 -5 -19 2.05 0.38
1 5 19 1.88 0.52
-1 5 -19 2.08 0.52
-1 5 -19 2.45 0.36
2 -5 19 2.89 0.47
2 -5 19 3.52 0.52
-2 -5 -19 3.1 0.52
-2 -5 -19 4.13 0.46
2 5 19 4.31 0.7
-2 5 -19 3.35 0.56
-3 -5 -19 16.89 0.76
-3 -5 -19 16.12 0.94
3 -5 19 16.09 0.9
3 -5 19 17.41 0.95
3 5 19 16.45 1.1
-3 5 -19 17 1.05
4 -5 19 12.26 0.83
4 -5 19 10.94 0.81
-4 -5 -19 12.51 0.89
-4 5 -19 11.3 0.92
4 5 19 10.29 0.95
-5 -6 19 0.13 0.36
5 -6 -19 -0.56 0.27
5 -6 -19 0.29 0.32
5 6 -19 -0.1 0.29
5 6 -19 0.11 0.34
-5 6 19 0.03 0.45
4 -6 -19 0.69 0.34
4 -6 -19 0.46 0.34
-4 -6 19 0.35 0.34
-4 6 19 0.99 0.47
4 6 -19 0.41 0.3
4 6 -19 1.02 0.4
3 -6 -19 -0.4 0.25
-3 -6 19 -0.48 0.26
3 -6 -19 0.32 0.3
-3 6 19 0.15 0.42
3 6 -19 0.19 0.27
3 6 -19 -0.09 0.34
-2 -6 19 -0.26 0.28
2 -6 -19 0.06 0.27
2 -6 -19 -0.09 0.25
2 6 -19 0.38 0.35
2 6 -19 -0.27 0.24
-2 6 19 -0.15 0.43
-1 -6 19 3.34 0.51
1 -6 -19 3.59 0.49
1 6 -19 3.57 0.59
1 6 -19 3.1 0.42
-1 6 19 2.16 0.54
0 -6 19 2.92 0.51
0 -6 -19 3.75 0.52
0 -6 -19 4.38 0.5
0 6 -19 3.88 0.58
0 6 -19 3.27 0.46
0 6 19 3.69 0.65
-1 -6 -19 5.96 0.55
1 -6 19 7.23 0.67
-1 -6 -19 6.05 0.6
-1 6 -19 6.08 0.75
1 6 19 6.31 0.78
-1 6 -19 6.34 0.53
-2 -6 -19 9.63 0.64
-2 -6 -19 8.89 0.74
2 -6 19 9.99 0.76
-2 6 -19 9.53 0.85
2 6 19 9.7 0.91
-3 -6 -19 0.78 0.29
-3 -6 -19 0.15 0.38
3 -6 19 1.54 0.43
-3 6 -19 1.65 0.51
3 6 19 1.11 0.49
4 -7 -19 -0.09 0.31
4 -7 -19 0.19 0.31
-4 -7 19 0 0.32
-4 7 19 0.21 0.45
4 7 -19 0.11 0.35
4 7 -19 0 0.27
3 -7 -19 2.83 0.45
-3 -7 19 1.95 0.45
3 -7 -19 2.56 0.48
-3 7 19 3.03 0.6
3 7 -19 3.12 0.55
3 7 -19 2.8 0.47
-2 -7 19 -0.46 0.26
2 -7 -19 -0.24 0.27
2 7 -19 -0.27 0.24
-2 7 19 0.35 0.44
2 7 -19 0.68 0.38
1 -7 -19 2.68 0.45
-1 -7 19 1.23 0.39
1 7 -19 1.36 0.35
1 7 -19 2.38 0.52
-1 7 19 2.04 0.57
0 -7 -19 0.3 0.29
0 -7 19 1.07 0.38
0 7 -19 0.63 0.42
0 7 -19 0.96 0.31
0 7 19 0.61 0.5
-1 -7 -19 0.46 0.32
-1 -7 -19 1.3 0.37
1 -7 19 1.2 0.39
1 7 19 0.38 0.45
-1 7 -19 1.12 0.44
-1 7 -19 0.98 0.32
2 -7 19 6.1 0.66
-2 -7 -19 5 0.56
-2 -7 -19 4.42 0.64
2 7 19 6.54 0.84
-2 7 -19 6.68 0.82
3 -7 19 0.15 0.36
-3 -7 -19 0.29 0.33
-3 -7 -19 -0.39 0.24
3 7 19 -0.19 0.43
3 -8 -19 0.41 0.35
-3 -8 19 0.24 0.34
3 8 -19 0.06 0.3
-3 8 19 0.35 0.45
3 8 -19 0.28 0.42
-2 -8 19 0.83 0.37
2 -8 -19 0.42 0.33
-2 8 19 1.06 0.48
2 8 -19 0.83 0.32
2 8 -19 1.09 0.44
1 -8 -19 0.87 0.35
-1 -8 19 1.76 0.46
1 8 -19 0.55 0.29
1 8 -19 0.21 0.41
-1 8 19 1.26 0.51
0 -8 19 1.4 0.43
0 -8 -19 0.82 0.34
0 8 -19 1.99 0.52
0 8 -19 1.16 0.32
0 8 19 1.93 0.55
1 -8 19 -0.2 0.33
-1 -8 -19 -0.2 0.26
-1 -8 -19 0.04 0.29
-1 8 -19 0.51 0.41
1 8 19 -0.62 0.43
-1 8 -19 0.21 0.25
2 -8 19 3.47 0.58
-2 -8 -19 2.44 0.44
-2 -8 -19 2.31 0.47
2 8 19 2 0.58
-2 -9 19 0.16 0.37
-2 9 19 -0.5 0.4
2 9 -19 0 0.4
2 9 -19 0.31 0.31
-1 -9 19 0.89 0.4
1 -9 -19 0.02 0.29
1 9 -19 0.94 0.35
-1 9 19 0.42 0.5
1 9 -19 1.54 0.52
0 -9 -19 0.74 0.38
0 9 -19 1.66 0.35
0 9 19 1.48 0.56
-6 0 20 3.11 0.61
6 0 -20 3.16 0.5
-5 0 20 -0.14 0.39
-5 0 20 -0.35 0.33
5 0 -20 -0.33 0.26
4 0 -20 -0.33 0.25
-4 0 20 -0.18 0.27
-4 0 20 0.48 0.37
3 0 -20 2.91 0.44
3 0 -20 4.01 0.5
-3 0 20 4.1 0.61
-3 0 20 4.31 0.57
-2 0 20 5.47 0.58
2 0 -20 6.32 0.56
2 0 -20 5.85 0.59
-2 0 20 7.57 0.74
-1 0 20 0.92 0.39
1 0 -20 0.34 0.27
-1 0 20 0.66 0.31
1 0 -20 0.05 0.31
0 0 20 1.11 0.33
0 0 20 0.87 0.4
0 0 -20 0.6 0.26
0 0 -20 0.65 0.34
-1 0 -20 2.02 0.34
1 0 20 1.75 0.36
1 0 20 2.49 0.54
-1 0 -20 1.88 0.44
2 0 20 5.16 0.55
2 0 20 5.6 0.66
-2 0 -20 4.39 0.67
-2 0 -20 4.56 0.44
-3 0 -20 2.66 0.51
3 0 20 2.82 0.55
3 0 20 2.63 0.4
-4 0 -20 1.43 0.49
4 0 20 0.76 0.44
6 -1 -20 9.88 0.72
6 -1 -20 8.4 0.78
-6 -1 20 9.05 0.86
-6 -1 20 11.45 0.79
-6 1 20 9.02 0.88
6 1 -20 10.11 0.75
-5 -1 20 6.27 0.69
5 -1 -20 6.48 0.65
-5 -1 20 7.51 0.77
-5 1 20 6.25 0.64
5 1 -20 6.55 0.63
-5 1 20 6.29 0.75
-4 -1 20 2.94 0.52
4 -1 -20 1.86 0.39
-4 -1 20 1.38 0.38
4 1 -20 1.5 0.36
-4 1 20 3.08 0.53
4 1 -20 2.25 0.41
-4 1 20 1.96 0.41
-3 -1 20 2.17 0.47
3 -1 -20 1.79 0.38
3 -1 -20 2 0.37
-3 -1 20 2.66 0.45
-3 1 20 2.16 0.5
-3 1 20 2.57 0.44
3 1 -20 2.74 0.46
3 1 -20 3.87 0.52
-2 -1 20 2.24 0.41
2 -1 -20 1.93 0.38
-2 -1 20 2.07 0.48
2 -1 -20 1.83 0.37
2 1 -20 2.07 0.37
2 1 -20 2.05 0.39
-2 1 20 2.3 0.42
-2 1 20 2.48 0.52
-1 -1 20 0.07 0.29
1 -1 -20 -0.11 0.28
1 -1 -20 -0.13 0.23
-1 -1 20 0.27 0.32
1 1 -20 -0.12 0.28
-1 1 20 -0.02 0.39
1 1 -20 0.05 0.23
-1 1 20 -0.16 0.25
0 -1 20 0.94 0.38
0 -1 -20 0.89 0.29
0 -1 20 0.81 0.31
0 -1 -20 0.94 0.36
0 1 20 0.38 0.28
0 1 -20 0.14 0.23
0 1 20 0.13 0.36
0 1 -20 -0.37 0.27
-1 -1 -20 -0.22 0.3
-1 -1 -20 0.46 0.24
1 -1 20 0.13 0.35
1 -1 20 -0.14 0.26
-1 1 -20 0.21 0.34
1 1 20 0.45 0.4
-1 1 -20 0.08 0.21
1 1 20 0.12 0.25
-2 -1 -20 0.2 0.33
2 -1 20 0.48 0.29
2 -1 20 -0.42 0.31
-2 -1 -20 0.44 0.23
2 1 20 0.05 0.25
2 1 20 0.93 0.43
-2 1 -20 0.21 0.33
-2 1 -20 0.33 0.23
3 -1 20 2.42 0.4
3 -1 20 2.52 0.53
-3 -1 -20 2.25 0.51
-3 1 -20 2.33 0.53
3 1 20 2.82 0.57
4 -1 20 0.65 0.41
-4 -1 -20 1.65 0.49
4 1 20 0.57 0.43
-4 1 -20 1.09 0.42
-6 -2 20 -0.3 0.31
6 -2 -20 -0.08 0.33
6 -2 -20 0.12 0.32
-6 -2 20 -0.53 0.35
6 2 -20 -0.13 0.31
-6 2 20 0.87 0.47
-5 -2 20 0.65 0.35
5 -2 -20 1.71 0.43
-5 -2 20 0.65 0.37
5 -2 -20 1.49 0.39
-5 2 20 1.84 0.54
5 2 -20 1.39 0.39
-4 -2 20 -0.49 0.29
4 -2 -20 0.18 0.27
-4 -2 20 0.59 0.38
-4 2 20 -0.18 0.36
-4 2 20 0.09 0.29
4 2 -20 0 0.29
4 2 -20 0.03 0.26
-3 -2 20 0.28 0.31
3 -2 -20 0.82 0.32
-3 -2 20 0.47 0.37
3 2 -20 0.27 0.31
-3 2 20 1.29 0.42
3 2 -20 -0.06 0.27
-3 2 20 0.96 0.34
-2 -2 20 0.13 0.3
2 -2 -20 0.05 0.25
-2 -2 20 0.15 0.33
2 -2 -20 -0.28 0.24
-2 2 20 0.44 0.3
2 2 -20 0.34 0.27
-2 2 20 -0.4 0.36
2 2 -20 0.13 0.31
1 -2 -20 0.77 0.3
1 -2 -20 0.61 0.32
-1 -2 20 0.39 0.33
-1 -2 20 0.86 0.34
1 2 -20 1.13 0.31
-1 2 20 0.3 0.28
-1 2 20 0.62 0.4
1 2 -20 0.61 0.36
0 -2 20 0.5 0.31
0 -2 20 0.52 0.35
0 -2 -20 1.3 0.36
0 -2 -20 0.92 0.29
0 2 -20 0.47 0.26
0 2 -20 0.37 0.34
0 2 20 1.01 0.3
0 2 20 0.94 0.41
1 -2 20 1.27 0.43
1 -2 20 0.61 0.34
-1 -2 -20 1.23 0.31
-1 -2 -20 1.22 0.37
-1 2 -20 1.4 0.32
-1 2 -20 0.74 0.4
1 2 20 0.73 0.28
1 2 20 1.14 0.46
-2 -2 -20 1.86 0.34
-2 -2 -20 1.03 0.42
2 -2 20 2.04 0.47
2 -2 20 1.4 0.37
-2 2 -20 1.65 0.3
-2 2 -20 1.39 0.43
2 2 20 1.22 0.47
3 -2 20 0.34 0.31
-3 -2 -20 0.72 0.4
3 -2 20 -0.2 0.34
3 2 20 -0.1 0.38
-3 2 -20 0.8 0.43
4 -2 20 0.81 0.33
4 -2 20 0.84 0.39
-4 -2 -20 0.4 0.37
4 2 20 0.18 0.39
-4 2 -20 0.83 0.44
6 -3 -20 4.41 0.63
6 -3 -20 4.16 0.62
6 3 -20 4.72 0.67
-6 3 20 4.74 0.73
5 -3 -20 5.52 0.61
5 -3 -20 5.1 0.63
-5 -3 20 4.43 0.66
-5 -3 20 4.94 0.62
5 3 -20 6.32 0.64
-5 3 20 5.49 0.82
-4 -3 20 7.12 0.68
4 -3 -20 6.6 0.64
-4 -3 20 4.85 0.63
4 -3 -20 5.25 0.58
4 3 -20 6.42 0.64
-4 3 20 6.07 0.73
4 3 -20 5.58 0.62
-3 -3 20 1.64 0.39
3 -3 -20 0.75 0.33
-3 -3 20 0.62 0.36
-3 3 20 1.08 0.33
3 3 -20 1.62 0.37
-3 3 20 0.84 0.41
3 3 -20 0.93 0.37
-2 -3 20 0.12 0.3
-2 -3 20 0.15 0.29
2 -3 -20 -0.35 0.22
-2 3 20 -0.23 0.26
2 3 -20 -0.24 0.23
-2 3 20 -0.16 0.37
2 3 -20 -0.11 0.29
-1 -3 20 0.63 0.32
1 -3 -20 0.35 0.29
1 -3 -20 0.4 0.27
-1 -3 20 1.09 0.37
1 3 -20 -0.74 0.28
1 3 -20 0.34 0.27
-1 3 20 0.65 0.41
-1 3 20 0.48 0.27
0 -3 -20 2.22 0.43
0 -3 20 2.32 0.42
0 -3 20 2.39 0.45
0 -3 -20 2.33 0.39
0 3 20 3.32 0.45
0 3 20 4.28 0.66
0 3 -20 2.3 0.47
0 3 -20 2.43 0.37
-1 -3 -20 2.93 0.5
1 -3 20 2.52 0.43
-1 -3 -20 2.66 0.4
1 -3 20 3.15 0.53
-1 3 -20 1.88 0.34
1 3 20 3.1 0.6
1 3 20 2.27 0.34
-1 3 -20 2.19 0.49
2 -3 20 6.11 0.66
-2 -3 -20 5.17 0.49
2 -3 20 5.77 0.62
-2 -3 -20 5.04 0.62
2 3 20 5.43 0.75
-2 3 -20 6.02 0.49
-2 3 -20 5.66 0.71
-3 -3 -20 3.11 0.54
3 -3 20 5.55 0.66
3 -3 20 4.62 0.59
-3 3 -20 3.6 0.6
3 3 20 4.93 0.75
4 -3 20 1.05 0.35
4 -3 20 0.78 0.39
-4 -3 -20 1 0.43
4 3 20 0.78 0.46
-4 3 -20 0.33 0.42
5 -4 -20 2.94 0.48
5 -4 -20 2.47 0.45
-5 -4 20 2.28 0.48
5 4 -20 3.81 0.53
-5 4 20 2.46 0.59
5 4 -20 1.73 0.42
-4 -4 20 4.33 0.58
4 -4 -20 3.51 0.49
4 -4 -20 4.75 0.59
4 4 -20 4.52 0.61
-4 4 20 3.51 0.6
4 4 -20 4.76 0.59
3 -4 -20 0.19 0.28
-3 -4 20 0.31 0.33
3 -4 -20 0.14 0.29
-3 -4 20 0.77 0.33
3 4 -20 0.56 0.3
3 4 -20 0.85 0.38
-3 4 20 0.04 0.38
-2 -4 20 -0.35 0.26
-2 -4 20 -0.05 0.29
2 -4 -20 0.08 0.28
2 4 -20 -0.44 0.3
2 4 -20 -0.09 0.25
-2 4 20 0 0.4
1 -4 -20 0.04 0.26
-1 -4 20 -0.25 0.3
1 -4 -20 0.19 0.25
-1 -4 20 0.5 0.32
-1 4 20 0.73 0.44
-1 4 20 0.67 0.29
1 4 -20 0.27 0.32
1 4 -20 0.27 0.27
0 -4 -20 4.26 0.52
0 -4 20 3.97 0.59
0 -4 20 4.2 0.59
0 -4 -20 5.15 0.54
0 4 -20 3.78 0.56
0 4 20 4.15 0.47
0 4 20 3.35 0.6
0 4 -20 4.23 0.47
-1 -4 -20 0.19 0.25
1 -4 20 -0.49 0.29
1 -4 20 0.33 0.31
-1 -4 -20 -0.16 0.29
-1 4 -20 -0.11 0.34
1 4 20 -0.17 0.38
-1 4 -20 -0.27 0.22
2 -4 20 0.01 0.3
-2 -4 -20 -0.15 0.25
-2 -4 -20 -0.37 0.28
2 -4 20 0.35 0.34
2 4 20 -0.33 0.36
-2 4 -20 0.54 0.4
-3 -4 -20 0.28 0.36
3 -4 20 0.32 0.31
3 -4 20 -0.35 0.31
3 4 20 0 0.38
-3 4 -20 -0.23 0.37
-4 -4 -20 1.65 0.49
4 -4 20 0.82 0.4
4 -4 20 0.68 0.34
5 -5 -20 0.02 0.31
-5 -5 20 0.22 0.35
5 -5 -20 0.49 0.32
5 5 -20 -0.19 0.27
-5 5 20 0.25 0.46
5 5 -20 -0.26 0.29
4 -5 -20 0.32 0.33
4 -5 -20 1.26 0.37
-4 -5 20 0.33 0.32
4 5 -20 0.68 0.36
-4 5 20 0.67 0.45
4 5 -20 0.7 0.34
3 -5 -20 3.94 0.57
3 -5 -20 4.64 0.58
-3 -5 20 3.58 0.54
3 5 -20 4.12 0.63
3 5 -20 3.9 0.54
-3 5 20 3.68 0.63
2 -5 -20 -0.03 0.27
-2 -5 20 0.78 0.33
2 -5 -20 0.07 0.27
2 5 -20 0.77 0.41
-2 5 20 0.25 0.43
2 5 -20 0.9 0.32
-1 -5 20 0.38 0.33
1 -5 -20 0.16 0.26
1 -5 -20 0.19 0.26
1 5 -20 0.71 0.37
-1 5 20 0.1 0.41
1 5 -20 0.03 0.25
0 -5 -20 0.87 0.31
0 -5 20 1.43 0.38
0 -5 -20 0.67 0.34
0 5 20 0.91 0.49
0 5 -20 1.37 0.44
0 5 -20 0.77 0.26
1 -5 20 0.4 0.33
-1 -5 -20 0.27 0.25
-1 -5 -20 0.02 0.32
1 5 20 -0.1 0.38
-1 5 -20 0.29 0.23
-1 5 -20 0.64 0.43
-2 -5 -20 -0.31 0.21
-2 -5 -20 0.12 0.33
2 -5 20 -0.13 0.3
2 5 20 0.05 0.42
-2 5 -20 -0.09 0.35
3 -5 20 1.87 0.43
-3 -5 -20 2.2 0.49
-3 5 -20 1.84 0.52
3 5 20 2.31 0.59
4 -6 -20 1.41 0.4
4 -6 -20 1.4 0.4
-4 -6 20 1.87 0.45
4 6 -20 1.36 0.43
-4 6 20 1.24 0.51
4 6 -20 1.14 0.37
-3 -6 20 6.46 0.67
3 -6 -20 4.2 0.6
3 -6 -20 4.95 0.58
3 6 -20 6.06 0.6
3 6 -20 6.16 0.71
-3 6 20 7.83 0.85
2 -6 -20 -0.02 0.25
-2 -6 20 -0.11 0.27
2 -6 -20 -0.12 0.26
2 6 -20 -0.02 0.33
2 6 -20 0.07 0.28
-2 6 20 -0.28 0.4
1 -6 -20 0.54 0.32
-1 -6 20 0.97 0.39
1 6 -20 1.01 0.33
1 6 -20 0.38 0.39
-1 6 20 0.94 0.48
0 -6 -20 0.04 0.27
0 -6 -20 -0.16 0.27
0 -6 20 0.22 0.31
0 6 -20 -0.11 0.35
0 6 20 -0.1 0.42
0 6 -20 0.17 0.26
-1 -6 -20 1.89 0.36
1 -6 20 2.82 0.51
-1 -6 -20 2.42 0.45
1 6 20 2.42 0.59
-1 6 -20 1.82 0.36
-1 6 -20 2.26 0.56
2 -6 20 6.43 0.7
-2 -6 -20 9.18 0.75
-2 -6 -20 6.99 0.6
-2 6 -20 7.44 0.79
2 6 20 7.12 0.93
-3 -6 -20 0.29 0.4
3 -6 20 0.27 0.35
4 -7 -20 0.78 0.36
4 7 -20 1.21 0.45
3 -7 -20 0.89 0.35
-3 -7 20 0.87 0.39
3 -7 -20 0.7 0.35
3 7 -20 0.53 0.39
-3 7 20 0.65 0.48
3 7 -20 1.17 0.38
2 -7 -20 3.99 0.59
-2 -7 20 2.76 0.52
2 7 -20 3.63 0.59
-2 7 20 3.49 0.63
2 7 -20 3.91 0.54
-1 -7 20 -0.12 0.32
1 -7 -20 -0.01 0.28
1 7 -20 0.17 0.4
1 7 -20 -0.53 0.22
-1 7 20 -0.6 0.39
0 -7 -20 0.15 0.28
0 -7 20 -0.01 0.33
0 7 -20 0.37 0.28
0 7 -20 0.37 0.38
0 7 20 0.05 0.43
-1 -7 -20 0 0.33
1 -7 20 -0.02 0.32
-1 -7 -20 -0.03 0.28
-1 7 -20 0.2 0.42
-1 7 -20 0.24 0.26
1 7 20 0.19 0.44
-2 -7 -20 0.22 0.35
-2 -7 -20 -0.31 0.29
2 -7 20 -0.23 0.3
2 7 20 0.03 0.5
-2 -8 20 4.14 0.63
2 -8 -20 2.91 0.5
2 8 -20 3.5 0.58
-2 8 20 3.12 0.64
2 8 -20 4.08 0.56
1 -8 -20 0.05 0.31
-1 -8 20 0.37 0.35
1 8 -20 -0.24 0.27
-1 8 20 0.87 0.52
1 8 -20 -0.51 0.37
0 -8 -20 0.3 0.33
0 -8 20 0.4 0.37
0 8 20 0.39 0.44
0 8 -20 0.11 0.24
0 8 -20 0.2 0.41
-5 0 21 -0.67 0.3
5 0 -21 0.22 0.31
-5 0 21 0.16 0.42
-4 0 21 -0.16 0.3
-4 0 21 -0.48 0.33
4 0 -21 -0.16 0.26
-3 0 21 0.06 0.28
3 0 -21 -0.5 0.22
-3 0 21 -0.2 0.37
3 0 -21 0.54 0.31
2 0 -21 0.24 0.29
-2 0 21 0.18 0.29
2 0 -21 -0.15 0.25
-2 0 21 0.22 0.39
1 0 -21 -0.01 0.24
-1 0 21 0.32 0.29
-1 0 21 -0.13 0.32
1 0 -21 0.11 0.3
0 0 21 -0.16 0.28
0 0 -21 0.15 0.26
0 0 -21 0.06 0.32
0 0 21 0.06 0.37
1 0 21 0.11 0.27
-1 0 -21 0.19 0.24
-1 0 -21 0.56 0.39
1 0 21 -0.14 0.39
-2 0 -21 0.32 0.38
-2 0 -21 -0.1 0.21
2 0 21 0.21 0.28
2 0 21 0.33 0.38
-3 0 -21 0.41 0.39
3 0 21 0.08 0.37
4 0 21 0.91 0.45
5 -1 -21 0.58 0.33
-5 -1 21 1.14 0.47
-5 -1 21 0.01 0.33
-5 1 21 0.65 0.46
5 1 -21 0.77 0.34
-5 1 21 0.7 0.37
-4 -1 21 0.49 0.39
4 -1 -21 0.2 0.29
-4 -1 21 0.01 0.34
-4 1 21 0.67 0.39
-4 1 21 -0.21 0.29
4 1 -21 -0.47 0.26
-3 -1 21 5.54 0.71
-3 -1 21 4.15 0.57
3 -1 -21 4.09 0.53
-3 1 21 5.2 0.61
3 1 -21 4.79 0.56
3 1 -21 3.96 0.52
-3 1 21 5.88 0.71
-2 -1 21 2.97 0.52
2 -1 -21 4.5 0.54
-2 -1 21 4.07 0.55
2 -1 -21 3.53 0.48
2 1 -21 3.55 0.53
2 1 -21 4.6 0.59
-2 1 21 4.04 0.62
-2 1 21 5.42 0.56
1 -1 -21 4.09 0.56
-1 -1 21 2.81 0.45
1 -1 -21 2.11 0.39
-1 -1 21 4.02 0.58
-1 1 21 2.35 0.51
-1 1 21 3.17 0.45
1 1 -21 2.88 0.48
1 1 -21 3.87 0.52
0 -1 -21 3.16 0.47
0 -1 21 3.13 0.47
0 -1 21 3.19 0.55
0 -1 -21 3.33 0.52
0 1 -21 3.47 0.48
0 1 21 2.47 0.41
0 1 21 3.43 0.56
0 1 -21 3.14 0.52
-1 -1 -21 0.92 0.37
-1 -1 -21 0.79 0.27
1 -1 21 0.89 0.44
1 -1 21 0.77 0.32
1 1 21 1.17 0.48
-1 1 -21 0.95 0.28
-1 1 -21 0.58 0.38
1 1 21 0.71 0.31
2 -1 21 0.89 0.45
2 -1 21 0.77 0.34
-2 -1 -21 1.27 0.4
-2 -1 -21 1.41 0.31
2 1 21 0.72 0.31
2 1 21 1.75 0.49
-2 1 -21 1.16 0.28
-2 1 -21 0.78 0.42
-3 -1 -21 2.53 0.55
3 -1 21 2.26 0.53
3 -1 21 2 0.41
3 1 21 1.8 0.52
-3 1 -21 1.94 0.51
-5 -2 21 5.86 0.7
5 -2 -21 6.77 0.7
5 -2 -21 6.2 0.65
-5 -2 21 6.92 0.7
-5 2 21 5.41 0.77
5 2 -21 7.13 0.7
-4 -2 21 10 0.8
-4 -2 21 9.44 0.77
4 -2 -21 9.66 0.71
-4 2 21 11.74 0.9
4 2 -21 9.92 0.7
-4 2 21 9.28 0.72
4 2 -21 10.14 0.75
-3 -2 21 11.37 0.76
3 -2 -21 10.73 0.74
-3 -2 21 10.69 0.81
-3 2 21 11.16 0.87
3 2 -21 12.66 0.76
3 2 -21 11.24 0.77
-3 2 21 11.9 0.77
-2 -2 21 8.2 0.73
-2 -2 21 10.84 0.76
2 -2 -21 8.87 0.66
2 -2 -21 9.98 0.69
2 2 -21 8.74 0.64
-2 2 21 9.96 0.68
-2 2 21 7.79 0.8
2 2 -21 10.43 0.8
-1 -2 21 18.73 0.92
1 -2 -21 17.89 0.85
-1 -2 21 18.1 0.93
1 -2 -21 18.24 0.89
1 2 -21 17.68 0.93
-1 2 21 18.09 1.03
-1 2 21 17.06 0.82
1 2 -21 16.91 0.82
0 -2 -21 7.69 0.6
0 -2 -21 8.14 0.68
0 -2 21 8.89 0.77
0 -2 21 9.67 0.7
0 2 21 8.94 0.85
0 2 -21 9.16 0.62
0 2 21 9.07 0.63
0 2 -21 8.93 0.78
-1 -2 -21 0.73 0.37
-1 -2 -21 0.36 0.26
1 -2 21 0.87 0.35
1 -2 21 0.39 0.4
-1 2 -21 0.97 0.4
1 2 21 0.32 0.26
1 2 21 0.52 0.44
-1 2 -21 0.8 0.29
-2 -2 -21 -0.02 0.22
-2 -2 -21 0.35 0.36
2 -2 21 0.48 0.32
2 -2 21 0.05 0.36
2 2 21 -0.38 0.37
-2 2 -21 -0.54 0.29
3 -2 21 -0.5 0.34
-3 -2 -21 -0.25 0.32
3 -2 21 0.55 0.33
3 2 21 0.26 0.38
-3 2 -21 -0.21 0.38
5 -3 -21 2.89 0.51
5 -3 -21 4.66 0.62
-5 -3 21 3.18 0.53
-5 3 21 4.41 0.71
5 3 -21 4.19 0.62
4 -3 -21 4.53 0.64
4 -3 -21 6.38 0.62
-4 -3 21 7.04 0.68
-4 -3 21 5.34 0.66
4 3 -21 4.96 0.62
-4 3 21 5.06 0.73
4 3 -21 4.78 0.61
3 -3 -21 -0.01 0.29
-3 -3 21 0.52 0.34
-3 -3 21 0.51 0.37
-3 3 21 0.85 0.33
3 3 -21 0.91 0.35
-3 3 21 0.7 0.44
3 3 -21 0.65 0.36
-2 -3 21 0.71 0.34
2 -3 -21 0.89 0.33
-2 -3 21 -0.05 0.3
-2 3 21 -0.12 0.29
-2 3 21 0.15 0.43
2 3 -21 0.66 0.38
2 3 -21 0.69 0.31
1 -3 -21 5.03 0.57
-1 -3 21 4.99 0.62
-1 -3 21 4.53 0.62
1 -3 -21 5.73 0.57
-1 3 21 5.68 0.55
1 3 -21 4.97 0.55
-1 3 21 5.85 0.78
1 3 -21 5.81 0.71
0 -3 21 5.98 0.66
0 -3 -21 5.28 0.56
0 -3 -21 5.2 0.62
0 -3 21 5.35 0.64
0 3 -21 7.86 0.75
0 3 21 6.88 0.79
0 3 21 5.65 0.51
0 3 -21 6.07 0.54
1 -3 21 2 0.45
-1 -3 -21 2.37 0.39
-1 -3 -21 3.3 0.53
1 -3 21 2.24 0.49
-1 3 -21 2.97 0.45
-1 3 -21 2.75 0.54
1 3 21 2.2 0.56
-2 -3 -21 4.86 0.51
-2 -3 -21 5.28 0.63
2 -3 21 5.45 0.61
2 -3 21 4.72 0.66
-2 3 -21 5.24 0.74
2 3 21 6.61 0.84
-3 -3 -21 2.05 0.5
3 -3 21 2.56 0.54
3 -3 21 2.07 0.45
-3 3 -21 2.14 0.54
3 3 21 2.27 0.54
5 -4 -21 0.99 0.38
-5 4 21 1.49 0.57
4 -4 -21 0.28 0.31
4 -4 -21 -0.36 0.31
-4 -4 21 0.15 0.33
4 4 -21 -0.01 0.29
4 4 -21 -0.36 0.3
-4 4 21 -0.12 0.41
-3 -4 21 0.84 0.4
3 -4 -21 0.01 0.31
3 -4 -21 0.82 0.35
-3 4 21 0.01 0.41
3 4 -21 1.21 0.36
3 4 -21 0.93 0.38
2 -4 -21 3.47 0.49
-2 -4 21 4.49 0.63
2 4 -21 5.33 0.56
2 4 -21 4.1 0.63
-2 4 21 4.23 0.67
-1 -4 21 8.95 0.74
-1 -4 21 10.84 0.75
1 -4 -21 9.45 0.71
1 -4 -21 10.82 0.73
-1 4 21 11.05 0.9
-1 4 21 11.07 0.66
1 4 -21 10.6 0.82
1 4 -21 10.42 0.67
0 -4 21 4.4 0.59
0 -4 -21 4.43 0.53
0 -4 -21 5.15 0.56
0 -4 21 4.5 0.59
0 4 -21 4.41 0.51
0 4 -21 3.53 0.59
0 4 21 3.75 0.65
1 -4 21 2.23 0.44
1 -4 21 2.47 0.47
-1 -4 -21 2.72 0.49
-1 -4 -21 3.21 0.46
-1 4 -21 2.87 0.52
-1 4 -21 2.52 0.37
1 4 21 2.63 0.56
-2 -4 -21 1.31 0.43
-2 -4 -21 0.34 0.28
2 -4 21 0.31 0.35
2 -4 21 0.91 0.4
-2 4 -21 1.13 0.46
2 4 21 0.21 0.45
-3 -4 -21 1.35 0.45
3 -4 21 1.06 0.39
3 -4 21 1.11 0.43
-3 4 -21 0.7 0.48
4 -5 -21 -0.06 0.32
4 -5 -21 -0.08 0.29
-4 -5 21 -0.17 0.32
4 5 -21 0.07 0.3
-4 5 21 0.38 0.41
4 5 -21 -0.34 0.29
3 -5 -21 0.54 0.33
-3 -5 21 1.14 0.4
3 -5 -21 1 0.38
3 5 -21 0.84 0.41
-3 5 21 0.83 0.49
3 5 -21 1.03 0.35
2 -5 -21 0.51 0.32
-2 -5 21 0.55 0.34
2 -5 -21 0.05 0.3
2 5 -21 -0.04 0.27
-2 5 21 0.42 0.47
2 5 -21 -0.12 0.33
-1 -5 21 -0.52 0.28
1 -5 -21 0.06 0.29
1 5 -21 0.36 0.37
-1 5 21 -0.22 0.42
1 5 -21 0.2 0.28
0 -5 21 1.3 0.4
0 -5 -21 1.03 0.37
0 -5 -21 1.34 0.35
0 5 21 0.96 0.53
0 5 -21 1.05 0.47
0 5 -21 0.98 0.29
-1 -5 -21 0.03 0.29
1 -5 21 0.05 0.34
-1 -5 -21 0.09 0.32
-1 5 -21 0.35 0.27
-1 5 -21 0.77 0.44
1 5 21 -0.21 0.41
-2 -5 -21 -0.22 0.31
2 -5 21 0.13 0.33
-2 -5 -21 -0.26 0.22
2 5 21 0.16 0.45
-2 5 -21 0.34 0.39
3 -6 -21 6.01 0.63
3 -6 -21 7.27 0.62
-3 -6 21 6.4 0.69
-3 6 21 6.99 0.91
3 6 -21 6 0.71
3 6 -21 5.93 0.66
-2 -6 21 4.39 0.62
2 -6 -21 4.45 0.58
2 6 -21 4.86 0.73
2 6 -21 4.92 0.6
-2 6 21 4.35 0.71
-1 -6 21 4.52 0.66
1 -6 -21 4.15 0.55
1 6 -21 4.79 0.56
1 6 -21 3.63 0.59
0 -6 -21 2.83 0.47
0 -6 21 2.35 0.48
0 6 21 2.47 0.6
0 6 -21 2.58 0.59
0 6 -21 3.2 0.45
-1 -6 -21 2.54 0.43
-1 -6 -21 2.93 0.48
1 -6 21 2.32 0.51
-1 6 -21 2.99 0.45
-1 6 -21 3.73 0.64
1 6 21 4.29 0.72
2 -6 21 5.93 0.71
-2 -6 -21 6.47 0.61
-2 -6 -21 8.03 0.74
-2 -7 21 7.13 0.75
2 -7 -21 5.5 0.66
2 7 -21 5.34 0.6
2 7 -21 5.84 0.76
-2 7 21 6.64 0.92
1 -7 -21 5.33 0.64
-1 -7 21 5.67 0.68
-1 7 21 5.46 0.86
1 7 -21 6.13 0.62
1 7 -21 6.65 0.82
0 -7 -21 7.52 0.66
0 -7 21 8.22 0.74
0 7 21 7.18 0.88
0 7 -21 8.42 0.88
0 7 -21 6.56 0.6
-5 0 22 0.9 0.48
-5 0 22 0.14 0.36
-4 0 22 -0.37 0.3
-4 0 22 0.44 0.4
4 0 -22 0.23 0.31
-3 0 22 8.09 0.71
-3 0 22 7.95 0.82
3 0 -22 7.93 0.66
-2 0 22 2.54 0.55
2 0 -22 1.86 0.43
-2 0 22 1.5 0.4
2 0 -22 2.2 0.42
1 0 -22 5.23 0.63
1 0 -22 4.72 0.53
-1 0 22 6.11 0.61
-1 0 22 5.48 0.69
0 0 -22 2.78 0.42
0 0 -22 2.15 0.46
0 0 22 2.18 0.42
0 0 22 1.54 0.51
1 0 22 10.57 0.7
1 0 22 10.45 0.88
-1 0 -22 10.81 0.66
-1 0 -22 8.5 0.78
-2 0 -22 8.16 0.76
2 0 22 7.52 0.83
2 0 22 6.83 0.61
-3 0 -22 13.84 0.95
3 0 22 11.88 0.95
-5 -1 22 0.26 0.4
-5 1 22 0.55 0.48
-4 -1 22 1.84 0.48
4 -1 -22 1.17 0.36
-4 -1 22 0.62 0.36
-4 1 22 1.46 0.5
-4 1 22 1.36 0.43
4 1 -22 0.01 0.28
-3 -1 22 0.77 0.39
-3 -1 22 0.63 0.44
3 -1 -22 1.23 0.36
-3 1 22 2.31 0.52
3 1 -22 1.71 0.4
-3 1 22 1.96 0.43
3 1 -22 1.54 0.38
2 -1 -22 1.28 0.36
2 -1 -22 1.86 0.39
-2 -1 22 1.59 0.41
-2 -1 22 1.55 0.47
-2 1 22 1.17 0.48
2 1 -22 1.44 0.36
-2 1 22 1.84 0.42
2 1 -22 1.82 0.41
-1 -1 22 5.41 0.66
1 -1 -22 4.37 0.61
1 -1 -22 5.48 0.58
-1 -1 22 5.78 0.63
1 1 -22 6.4 0.6
-1 1 22 5.14 0.73
-1 1 22 6.12 0.61
1 1 -22 6.29 0.68
0 -1 -22 2.73 0.41
0 -1 22 2.75 0.56
0 -1 -22 3.25 0.52
0 -1 22 2.73 0.46
0 1 -22 3.47 0.48
0 1 22 3.96 0.64
0 1 22 3.25 0.47
0 1 -22 3.34 0.53
1 -1 22 0.59 0.42
-1 -1 -22 0.37 0.36
1 -1 22 1.39 0.37
-1 -1 -22 1.13 0.3
1 1 22 1.22 0.35
-1 1 -22 1.05 0.41
1 1 22 2.07 0.52
-1 1 -22 1.33 0.33
2 -1 22 0.31 0.4
-2 -1 -22 0.8 0.42
2 -1 22 0.18 0.3
-2 -1 -22 0.42 0.28
-2 1 -22 1.1 0.47
2 1 22 -0.12 0.4
3 -1 22 0.68 0.43
3 -1 22 0.61 0.37
-3 -1 -22 1.53 0.48
3 1 22 1.86 0.53
-3 1 -22 1.29 0.52
-4 -2 22 0.06 0.35
-4 -2 22 1.73 0.46
4 -2 -22 0.52 0.31
-4 2 22 0.59 0.44
-4 2 22 0.6 0.36
4 2 -22 0.38 0.31
3 -2 -22 1.72 0.4
-3 -2 22 2.11 0.47
-3 -2 22 1.27 0.44
-3 2 22 1.48 0.42
3 2 -22 1.91 0.41
3 2 -22 1.15 0.41
-3 2 22 1.14 0.49
2 -2 -22 1.66 0.37
-2 -2 22 1.24 0.42
-2 -2 22 1.57 0.42
2 2 -22 0.86 0.33
-2 2 22 1.74 0.41
-2 2 22 1.51 0.51
2 2 -22 2.1 0.45
-1 -2 22 0.05 0.33
1 -2 -22 0.16 0.29
-1 -2 22 0.11 0.32
1 -2 -22 -0.08 0.26
1 2 -22 -0.22 0.28
-1 2 22 0.53 0.31
1 2 -22 0.14 0.28
-1 2 22 0.26 0.39
0 -2 -22 0.47 0.32
0 -2 22 0.53 0.41
0 -2 22 0.41 0.33
0 -2 -22 0.32 0.27
0 2 22 0.07 0.38
0 2 22 0.2 0.29
0 2 -22 0.22 0.28
0 2 -22 -0.26 0.31
-1 -2 -22 0.58 0.36
1 -2 22 1 0.39
-1 -2 -22 1 0.31
1 -2 22 1.2 0.43
-1 2 -22 0.55 0.38
-1 2 -22 0.66 0.26
1 2 22 1.03 0.46
2 -2 22 0.62 0.33
2 -2 22 0.1 0.37
-2 -2 -22 0.12 0.36
-2 -2 -22 0.1 0.24
2 2 22 0.34 0.44
-2 2 -22 0.29 0.38
4 -3 -22 1.19 0.38
4 -3 -22 0.63 0.34
-4 -3 22 -0.1 0.32
4 3 -22 0.87 0.36
-4 3 22 0.48 0.48
4 3 -22 0.35 0.34
-3 -3 22 0.14 0.29
3 -3 -22 0.02 0.29
-3 -3 22 0.4 0.4
3 3 -22 0.15 0.31
3 3 -22 0.97 0.4
-3 3 22 -0.05 0.28
-3 3 22 0.38 0.43
2 -3 -22 1.24 0.36
-2 -3 22 1.49 0.41
-2 -3 22 1.28 0.4
2 3 -22 1.89 0.47
2 3 -22 2.16 0.41
-2 3 22 0.49 0.47
-2 3 22 1.37 0.39
-1 -3 22 3.05 0.5
1 -3 -22 4.31 0.58
-1 -3 22 3.46 0.55
1 -3 -22 3.74 0.51
1 3 -22 3.87 0.52
1 3 -22 2.77 0.52
-1 3 22 3.82 0.54
-1 3 22 3.37 0.61
0 -3 22 -0.4 0.28
0 -3 -22 0.56 0.3
0 -3 -22 -0.47 0.26
0 -3 22 -0.2 0.34
0 3 22 0.19 0.42
0 3 -22 0.69 0.38
0 3 -22 0.29 0.27
0 3 22 0.17 0.27
-1 -3 -22 0.49 0.28
1 -3 22 0.95 0.37
-1 -3 -22 0.91 0.39
1 -3 22 0.97 0.42
1 3 22 1.95 0.52
-1 3 -22 0.26 0.39
-1 3 -22 0.95 0.3
-2 -3 -22 1.7 0.36
2 -3 22 1.31 0.47
-2 -3 -22 2.07 0.47
2 -3 22 2.06 0.44
-2 3 -22 1.73 0.52
2 3 22 1.54 0.54
4 -4 -22 1.28 0.42
-4 4 22 0.56 0.47
4 4 -22 1.81 0.46
3 -4 -22 0 0.31
3 -4 -22 0.59 0.34
-3 -4 22 1.11 0.41
3 4 -22 0.12 0.3
-3 4 22 0.89 0.5
3 4 -22 0.94 0.4
2 -4 -22 3.2 0.5
-2 -4 22 2.92 0.52
2 4 -22 4.44 0.62
2 4 -22 4.18 0.55
-2 4 22 3.59 0.67
-1 -4 22 10.54 0.8
1 -4 -22 9.51 0.72
1 4 -22 9.68 0.69
-1 4 22 8.27 0.63
1 4 -22 9.72 0.85
-1 4 22 9.41 0.89
0 -4 -22 1.03 0.39
0 -4 -22 0.69 0.3
0 -4 22 0.93 0.39
0 4 -22 0.2 0.35
0 4 -22 1.78 0.35
0 4 22 0.95 0.5
1 -4 22 4.44 0.64
-1 -4 -22 2.47 0.49
-1 -4 -22 3.79 0.51
1 4 22 3.67 0.65
-1 4 -22 2.91 0.58
-1 4 -22 3.43 0.47
-2 -4 -22 10.27 0.85
2 -4 22 8.91 0.75
-2 -4 -22 10.03 0.68
-2 4 -22 9.33 0.94
3 -5 -22 1.6 0.42
-3 -5 22 1.35 0.48
3 -5 -22 0.91 0.4
-3 5 22 1.77 0.59
3 5 -22 1.12 0.44
3 5 -22 1.92 0.43
2 -5 -22 4.76 0.59
2 -5 -22 5.01 0.61
-2 -5 22 4.55 0.65
2 5 -22 3.08 0.48
2 5 -22 4.31 0.65
-2 5 22 5.27 0.78
-1 -5 22 3.61 0.57
1 -5 -22 4.03 0.56
-1 5 22 3.12 0.64
1 5 -22 3.81 0.62
1 5 -22 4.6 0.57
0 -5 -22 3.92 0.55
0 -5 22 3.43 0.54
0 5 -22 3.45 0.5
0 5 22 3.69 0.7
0 5 -22 2.84 0.57
1 -5 22 10.61 0.81
-1 -5 -22 8.34 0.75
-1 -5 -22 7.85 0.65
-1 5 -22 8.71 0.61
-1 5 -22 7.88 0.82
1 5 22 8.71 1.01
2 6 -22 0.25 0.39
2 6 -22 0.27 0.29
1 -6 -22 -0.28 0.27
-1 -6 22 -0.44 0.34
1 6 -22 -0.11 0.25
1 6 -22 0.23 0.4
0 -6 -22 0.15 0.3
0 -6 22 -0.56 0.31
0 6 -22 0.18 0.47
0 6 -22 0.32 0.27
-4 0 23 0.31 0.37
-4 0 23 -0.34 0.37
-3 0 23 -0.63 0.36
-3 0 23 0.29 0.33
3 0 -23 -0.12 0.27
2 0 -23 0.14 0.28
2 0 -23 -0.27 0.3
-2 0 23 -0.43 0.34
-2 0 23 -0.05 0.3
-1 0 23 -0.15 0.35
1 0 -23 0.52 0.34
-1 0 23 0.05 0.31
1 0 -23 0.25 0.28
0 0 -23 -0.35 0.22
0 0 23 0.25 0.32
0 0 23 -0.53 0.35
0 0 -23 -0.02 0.33
1 0 23 -0.17 0.29
-1 0 -23 0.35 0.26
1 0 23 0.13 0.35
-1 0 -23 -0.55 0.33
2 0 23 0.49 0.47
-2 0 -23 0.39 0.36
-4 -1 23 0.44 0.38
-4 -1 23 0.89 0.45
-4 1 23 0.08 0.39
-4 1 23 0.1 0.35
-3 -1 23 0.3 0.42
-3 -1 23 -0.22 0.34
3 -1 -23 0.45 0.31
3 1 -23 0.04 0.29
-3 1 23 0.11 0.42
-3 1 23 -0.37 0.3
-2 -1 23 1.09 0.42
-2 -1 23 0.83 0.43
2 -1 -23 1.32 0.36
2 1 -23 1.28 0.37
-2 1 23 1.33 0.51
-2 1 23 1.54 0.42
2 1 -23 1.07 0.39
-1 -1 23 0.46 0.39
-1 -1 23 0.07 0.32
1 -1 -23 -0.05 0.31
1 -1 -23 -0.05 0.26
1 1 -23 0 0.33
-1 1 23 0.02 0.41
1 1 -23 0.06 0.27
-1 1 23 -0.1 0.28
0 -1 23 1.65 0.49
0 -1 -23 1.25 0.4
0 -1 23 1.15 0.37
0 -1 -23 1.11 0.35
0 1 23 1.44 0.36
0 1 -23 1.35 0.35
0 1 23 1.36 0.48
0 1 -23 0.59 0.37
-1 -1 -23 5.02 0.55
1 -1 23 6.79 0.65
1 -1 23 5.68 0.74
-1 -1 -23 6.36 0.71
1 1 23 5.51 0.58
1 1 23 5.75 0.79
-1 1 -23 6.4 0.75
-1 1 -23 6.61 0.57
2 -1 23 1.81 0.42
2 -1 23 1.45 0.5
-2 -1 -23 0.85 0.41
2 1 23 0.65 0.45
-2 1 -23 1.46 0.51
3 -2 -23 0.61 0.35
-3 -2 23 1.04 0.41
-3 -2 23 0.21 0.42
3 2 -23 1.39 0.41
-3 2 23 0.9 0.4
3 2 -23 1.25 0.38
-3 2 23 0.6 0.43
2 -2 -23 -0.05 0.27
-2 -2 23 0.08 0.32
-2 -2 23 0.44 0.38
2 2 -23 -0.33 0.27
-2 2 23 -0.49 0.41
-2 2 23 0.04 0.32
2 2 -23 -0.34 0.26
-1 -2 23 0.03 0.33
-1 -2 23 0.47 0.39
1 -2 -23 0.31 0.29
1 -2 -23 0.32 0.3
1 2 -23 -0.22 0.3
-1 2 23 0.7 0.46
-1 2 23 -0.01 0.28
1 2 -23 -0.19 0.26
0 -2 23 0.83 0.39
0 -2 23 0.07 0.39
0 -2 -23 0.64 0.3
0 -2 -23 0.73 0.39
0 2 -23 0.8 0.43
0 2 23 0.18 0.47
0 2 23 0.34 0.33
0 2 -23 0.46 0.29
1 -2 23 0.72 0.44
1 -2 23 0.64 0.35
-1 -2 -23 0.64 0.37
-1 -2 -23 0.35 0.28
-1 2 -23 0.6 0.39
-1 2 -23 0.92 0.3
1 2 23 1.1 0.5
-3 -3 23 0.19 0.31
3 -3 -23 -0.18 0.27
3 3 -23 -0.21 0.32
-3 3 23 -0.47 0.38
-3 3 23 0.1 0.3
3 3 -23 0.38 0.31
2 -3 -23 0.66 0.33
-2 -3 23 0.83 0.41
-2 -3 23 0.8 0.41
2 3 -23 0.34 0.4
-2 3 23 -0.24 0.43
-2 3 23 0.33 0.31
2 3 -23 0.57 0.33
-1 -3 23 3.4 0.53
-1 -3 23 3.46 0.55
1 -3 -23 4.15 0.55
1 3 -23 4.52 0.67
-1 3 23 3.04 0.47
1 3 -23 3.6 0.52
-1 3 23 2.13 0.56
0 -3 23 -0.06 0.36
0 -3 -23 -0.52 0.24
0 -3 -23 -0.23 0.29
0 -3 23 -0.01 0.31
0 3 -23 0.11 0.26
0 3 -23 0.12 0.37
0 3 23 0.05 0.45
1 -3 23 0.71 0.38
-1 -3 -23 0.52 0.38
1 -3 23 0.5 0.39
-1 -3 -23 0.68 0.31
-1 3 -23 0.64 0.45
1 3 23 0.29 0.43
-1 3 -23 0.88 0.34
-2 -4 23 1.04 0.44
2 -4 -23 1.29 0.41
-2 4 23 1.24 0.53
2 4 -23 0.46 0.41
2 4 -23 1.07 0.39
1 -4 -23 -0.48 0.27
-1 -4 23 0.07 0.33
1 4 -23 0.02 0.39
-1 4 23 -0.13 0.43
1 4 -23 -0.2 0.26
0 -4 23 0.14 0.34
0 -4 -23 0.45 0.3
0 -4 -23 0.33 0.31
0 4 -23 0.49 0.39
0 4 23 -0.6 0.4
0 4 -23 0.38 0.27
-2 0 24 -0.59 0.29
2 0 -24 0.17 0.29
-2 0 24 -0.28 0.37
1 0 -24 -0.29 0.24
-1 0 24 0.21 0.42
-1 0 24 0.35 0.34
1 0 -24 0.2 0.33
0 0 -24 9.31 0.85
0 0 24 10.75 0.76
0 0 24 10.34 0.91
0 0 -24 9.71 0.69
2 -1 -24 1.5 0.4
-2 -1 24 1.81 0.45
-2 -1 24 0.89 0.44
-2 1 24 0.69 0.38
2 1 -24 1.49 0.4
2 1 -24 1.17 0.41
-2 1 24 1.4 0.53
1 -1 -24 6.89 0.71
-1 -1 24 7.27 0.81
1 -1 -24 6.64 0.65
-1 -1 24 6.99 0.69
1 1 -24 7.26 0.64
1 1 -24 7.42 0.75
-1 1 24 7.67 0.81
-1 1 24 6.11 0.65
0 -1 -24 7.54 0.75
0 -1 -24 6.81 0.61
0 -1 24 6.24 0.69
0 -1 24 6.01 0.8
0 1 -24 7.01 0.77
0 1 24 5.51 0.8
0 1 -24 7.52 0.62
0 1 24 7.85 0.67
-1 -2 24 0.22 0.37
-1 -2 24 0.1 0.35
1 -2 -24 0.21 0.28
1 2 -24 -0.96 0.3
1 2 -24 -0.16 0.26
-1 2 24 0.14 0.41
-1 2 24 0.39 0.32
#BEGIN Loops that were not found in dictionaries:
loop_
_smtbx_masks_void_nr
_smtbx_masks_void_average_x
_smtbx_masks_void_average_y
_smtbx_masks_void_average_z
_smtbx_masks_void_volume
_smtbx_masks_void_count_electrons
1 0.000 0.500 -0.153 180.4 107.0
#END Loops that were not found in dictionaries
