#------------------------------------------------------------------------------
#$Date: 2016-03-26 13:58:28 +0200 (Sat, 26 Mar 2016) $
#$Revision: 180242 $
#$URL: svn://www.crystallography.net/cod/cif/7/11/28/7112820.cif $
#------------------------------------------------------------------------------
#
# This file is available in the Crystallography Open Database (COD),
# http://www.crystallography.net/
#
# All data on this site have been placed in the public domain by the
# contributors.
#
data_7112820
loop_
_publ_author_name
'Strukil, Vjekoslav'
'F\'abi\'an, L\'aszl\'o'
'Reid, David G.'
'Duer, Melinda J.'
'Jackson, Graham J.'
'Eckert-Maksi\'c, Mirjana'
'Fri\<s\<ci\'c, Tomislav'
_publ_section_title
;
 Towards an environmentally-friendly laboratory: dimensionality and
 reactivity in the mechanosynthesis of metal-organic compounds.
;
_journal_issue                   48
_journal_name_full
'Chemical communications (Cambridge, England)'
_journal_page_first              9191
_journal_page_last               9193
_journal_paper_doi               10.1039/c0cc03822a
_journal_volume                  46
_journal_year                    2010
_chemical_formula_moiety         'C4 H8 Cd Cl2 N8'
_chemical_formula_sum            'C4 H8 Cd Cl2 N8'
_chemical_formula_weight         351.48
_chemical_name_common            complex12
_chemical_name_systematic        ' ?'
_space_group_IT_number           14
_symmetry_cell_setting           monoclinic
_symmetry_space_group_name_Hall  '-P 2yn'
_symmetry_space_group_name_H-M   'P 1 21/n 1'
_audit_creation_date             2009-10-30T15:17
_audit_creation_method           'from EXP file using GSAS2CIF'
_audit_update_record
' 2009-10-30T15:17 Initial CIF as created by GSAS2CIF'
_cell_angle_alpha                90.0
_cell_angle_beta                 95.185(4)
_cell_angle_gamma                90.0
_cell_formula_units_Z            2
_cell_length_a                   3.76924(14)
_cell_length_b                   8.46664(23)
_cell_length_c                   17.1444(5)
_cell_measurement_temperature    298
_cell_volume                     544.89(3)
_computing_structure_refinement  GSAS
_computing_structure_solution    DASH
_diffrn_ambient_temperature      298
_diffrn_detector                 RTMS
_diffrn_detector_type            XCelerator
_diffrn_measurement_device_type  'Philips XPert Pro'
_diffrn_radiation_monochromator  'Ni filter'
_diffrn_radiation_polarisn_ratio 0.678
_diffrn_radiation_probe          x-ray
_diffrn_source                   'sealed X-ray tube'
_diffrn_source_target            Cu
_exptl_absorpt_correction_T_max  0.94031
_exptl_absorpt_correction_T_min  0.47498
_exptl_absorpt_process_details
; GSAS Absorption/surface roughness correction: function number 3
Surface roughness abs. correction (Suortti)
Terms = 0.10000E-02 0.73955E-01
Correction is not refined.
;
_exptl_crystal_density_diffrn    2.142
_exptl_crystal_density_method    'not measured'
_exptl_crystal_F_000             340
_pd_block_id
2009-10-30T15:17|R1|Laszlo_Fabian|Philips_Xpert_Pro
_pd_calc_method                  'Rietveld Refinement'
_pd_char_particle_morphology     'fine powder'
_pd_instr_location               ' ?'
_pd_meas_2theta_range_inc        0.02
_pd_meas_2theta_range_max        59.962
_pd_meas_2theta_range_min        4.002
_pd_meas_number_of_points        2799
_pd_meas_scan_method             step
_pd_phase_name                   complex12
_pd_prep_cool_rate               0
_pd_prep_pressure                100
_pd_prep_temperature             298
_pd_proc_2theta_range_inc        0.02
_pd_proc_2theta_range_max        59.962
_pd_proc_2theta_range_min        4.002
_pd_proc_info_data_reduction     none
_pd_proc_info_datetime           2009-10-30T15:17:08
_pd_proc_info_excluded_regions   ' ?'
_pd_proc_ls_background_function
; GSAS Background function number 1 with 12 terms.
Shifted Chebyshev function of 1st kind
1: 743.502 2: -748.052 3: 328.325 4: -106.142
5: 22.1998 6: 2.99211 7: -22.0011 8: 24.7328
9: -16.8724 10: 3.12562 11: -0.104129 12: 0.660493
;
_pd_proc_ls_peak_cutoff          0.00100
_pd_proc_ls_pref_orient_corr
; March-Dollase
AXIS 1 Ratio= 0.93805 h= 0.000 k= 1.000 l= 0.000
Prefered orientation correction range: Min= 0.90853, Max= 1.21149
;
_pd_proc_ls_profile_function
;
CW Profile function number 3 with 19 terms
Pseudovoigt profile coefficients as parameterized in
P. Thompson, D.E. Cox & J.B. Hastings (1987). J. Appl. Cryst.,20,79-83.
Asymmetry correction of L.W. Finger, D.E. Cox & A. P. Jephcoat (1994).
J. Appl. Cryst.,27,892-900.
Peak tails are ignored where the intensity is below 0.0010 times the peak
Aniso. broadening axis 0.0 0.0 1.0
;
_pd_proc_ls_prof_R_factor        0.0332
_pd_proc_ls_prof_wR_expected     0.0335
_pd_proc_ls_prof_wR_factor       0.0432
_pd_proc_number_of_points        2799
_pd_spec_mounting                ' ?'
_pd_spec_mount_mode              reflection
_pd_spec_shape                   flat_sheet
_refine_ls_extinction_method     none
_refine_ls_goodness_of_fit_all   1.31
_refine_ls_hydrogen_treatment    mixed
_refine_ls_matrix_type           full
_refine_ls_number_constraints    1
_refine_ls_number_parameters     64
_refine_ls_number_restraints     25
_refine_ls_R_Fsqd_factor         0.04118
_refine_ls_shift/su_max          0.03
_refine_ls_shift/su_mean         0.01
_refine_ls_weighting_details     1/\s(Y~obs~)^2^
_refine_ls_weighting_scheme      sigma
_reflns_d_resolution_high        1.544
_reflns_d_resolution_low         8.537
_reflns_limit_h_max              2
_reflns_limit_h_min              0
_reflns_limit_k_max              6
_reflns_limit_k_min              0
_reflns_limit_l_max              12
_reflns_limit_l_min              -11
_reflns_number_total             310
_cod_data_source_file            c0cc03822a.txt
_cod_data_source_block           R1
_cod_depositor_comments
;
The following automatic conversions were performed:

'_geom_bond_publ_flag' value 'N' changed to 'n' according to
/usr/data/users/saulius/automatic-downloads/retrospective/RSC/lib/dictionaries/cif_core.dic
dictionary named 'cif_core.dic' version 2.4.2 from 2011-04-26 (12
times).

'_geom_angle_publ_flag' value 'N' changed to 'n' according
to
/usr/data/users/saulius/automatic-downloads/retrospective/RSC/lib/dictionaries/cif_core.dic
dictionary named 'cif_core.dic' version 2.4.2 from 2011-04-26 (22
times).

Automatic conversion script
Id: cif_fix_values 2281 2013-09-26 08:29:07Z andrius 
;
_cod_original_cell_volume        544.888(35)
_cod_database_code               7112820
#BEGIN Tags that were not found in dictionaries:
_gsas_exptl_extinct_corr_t_min   1.00000
_gsas_exptl_extinct_corr_t_max   1.00000
#END Tags that were not found in dictionaries
loop_
_symmetry_equiv_pos_site_id
_symmetry_equiv_pos_as_xyz
1 +x,+y,+z
2 -x+1/2,+y+1/2,-z+1/2
-1 -x,-y,-z
-2 +x+1/2,-y+1/2,+z+1/2
loop_
_atom_site_type_symbol
_atom_site_label
_atom_site_fract_x
_atom_site_fract_y
_atom_site_fract_z
_atom_site_occupancy
_atom_site_thermal_displace_type
_atom_site_U_iso_or_equiv
_atom_site_symmetry_multiplicity
Cd Cd1 0.5 0.5 0.5 1.0 Uiso 0.0438(14) 2
Cl Cl2 0.0072(21) 0.2867(4) 0.52152(34) 1.0 Uiso 0.0453(22) 4
N N3 0.5796(32) 0.5608(13) 0.6401(5) 1.0 Uiso 0.0514(30) 4
C C4 0.6927(18) 0.4966(12) 0.6960(4) 1.0 Uiso 0.0514(30) 4
N N5 0.7817(24) 0.4346(10) 0.7639(5) 1.0 Uiso 0.0514(30) 4
C C6 1.0063(26) 0.5100(9) 0.8157(4) 1.0 Uiso 0.0514(30) 4
N N7 1.1158(26) 0.4315(10) 0.8797(4) 1.0 Uiso 0.0514(30) 4
N N8 1.1118(31) 0.6551(9) 0.8064(5) 1.0 Uiso 0.0514(30) 4
H H9 1.264(4) 0.4745(19) 0.9146(7) 1.0 Uiso 0.062(4) 4
H H10 1.043(5) 0.3367(14) 0.8863(6) 1.0 Uiso 0.062(4) 4
H H11 1.259(5) 0.6982(15) 0.8413(8) 1.0 Uiso 0.062(4) 4
H H12 1.037(5) 0.7069(11) 0.7650(8) 1.0 Uiso 0.062(4) 4
loop_
_atom_type_symbol
_atom_type_number_in_cell
_atom_type_scat_dispersion_real
_atom_type_scat_dispersion_imag
_atom_type_scat_Cromer_Mann_a1
_atom_type_scat_Cromer_Mann_a2
_atom_type_scat_Cromer_Mann_a3
_atom_type_scat_Cromer_Mann_a4
_atom_type_scat_Cromer_Mann_b1
_atom_type_scat_Cromer_Mann_b2
_atom_type_scat_Cromer_Mann_b3
_atom_type_scat_Cromer_Mann_b4
_atom_type_scat_Cromer_Mann_c
_atom_type_scat_source
Cd 2.0 0.000 0.000 19.2214 0.59460 17.6444 6.90890 4.46100 24.7008 1.60290
87.4825 5.06940 International_Tables_Vol_C
Cl 4.0 0.000 0.000 11.4604 0.01040 7.19640 1.16620 6.25560 18.5194 1.64550
47.7784 -9.5574 International_Tables_Vol_C
N 16.0 0.000 0.000 12.2126 0.00570 3.13220 9.89330 2.01250 28.9975 1.16630
0.58260 -11.529 International_Tables_Vol_C
C 8.0 0.000 0.000 2.31000 20.8439 1.02000 10.2075 1.58860 0.56870 0.86500
51.6512 0.21560 International_Tables_Vol_C
H 16.0 0.000 0.000 0.49300 10.5109 0.32291 26.1257 0.14019 3.14236 0.04081
57.7997 0.00304 International_Tables_Vol_C
loop_
_diffrn_radiation_wavelength
_diffrn_radiation_wavelength_wt
_diffrn_radiation_type
_diffrn_radiation_wavelength_id
1.540600 1.000 K\a~1~ 1
1.544400 0.500 K\a~2~ 2
loop_
_geom_angle_atom_site_label_1
_geom_angle_atom_site_label_2
_geom_angle_atom_site_label_3
_geom_angle
_geom_angle_site_symmetry_1
_geom_angle_site_symmetry_3
_geom_angle_publ_flag
Cl2 Cd1 Cl2 91.28(11) 1_555 1_655 n
Cl2 Cd1 Cl2 88.72(11) 1_555 -1_566 n
Cl2 Cd1 Cl2 179.9657 1_555 -1_666 n
Cl2 Cd1 N3 91.84(29) 1_555 1_555 n
Cl2 Cd1 N3 88.16(29) 1_555 -1_666 n
Cl2 Cd1 Cl2 180.0 1_655 -1_566 n
Cl2 Cd1 N3 89.07(29) 1_655 1_555 n
Cl2 Cd1 N3 90.93(29) 1_655 -1_666 n
N3 Cd1 N3 180.0 1_555 -1_666 n
Cd1 Cl2 Cd1 91.28(11) 1_455 1_555 n
Cd1 N3 C4 136.2(7) 1_555 1_555 n
N3 C4 N5 171.39(24) 1_555 1_555 n
C4 N5 C6 120.18(13) 1_555 1_555 n
N5 C6 N7 116.48(21) 1_555 1_555 n
N5 C6 N8 123.5(4) 1_555 1_555 n
N7 C6 N8 120.02(34) 1_555 1_555 n
C6 N7 H9 120.00(26) 1_555 1_555 n
C6 N7 H10 120.0(5) 1_555 1_555 n
H9 N7 H10 120.0(4) 1_555 1_555 n
C6 N8 H11 120.0(4) 1_555 1_555 n
C6 N8 H12 120.00(35) 1_555 1_555 n
H11 N8 H12 120.0(4) 1_555 1_555 n
loop_
_geom_bond_atom_site_label_1
_geom_bond_atom_site_label_2
_geom_bond_distance
_geom_bond_site_symmetry_2
_geom_bond_publ_flag
Cd1 Cl2 2.640(6) 1_555 n
Cd1 Cl2 2.632(6) 1_655 n
Cd1 N3 2.448(10) 1_555 n
N3 C4 1.1503(28) 1_555 n
C4 N5 1.2933(28) 1_555 n
N5 C6 1.3326(28) 1_555 n
C6 N7 1.3170(28) 1_555 n
C6 N8 1.3051(28) 1_555 n
N7 H9 0.8601(15) 1_555 n
N7 H10 0.8598(15) 1_555 n
N8 H11 0.8599(15) 1_555 n
N8 H12 0.8600(15) 1_555 n
loop_
_pd_meas_counts_total
_pd_proc_ls_weight
_pd_proc_intensity_bkg_calc
_pd_calc_intensity_total
5822.0 0.0 91.18420 .
5852.0 0.0 112.45080 .
5700.0 0.0 133.53273 .
5776.0 0.0 154.43076 .
5685.0 0.0 175.14584 .
5700.0 0.0 195.67905 .
5730.0 0.0 216.03174 .
5595.0 0.0 236.20512 .
5610.0 0.0 256.20065 .
5476.0 0.0 276.01779 .
5685.0 0.0 295.65967 .
5373.0 0.0 315.12680 .
5446.0 0.0 334.42014 .
5329.0 0.0 353.54056 .
5417.0 0.0 372.48972 .
5358.0 0.0 391.26749 .
5242.0 0.0 409.87708 .
5184.0 0.0 428.31815 .
5227.0 0.0 446.59164 .
4956.0 0.0 464.69928 .
5041.0 0.0 482.64191 .
4998.0 0.0 500.42053 .
4928.0 0.0 518.03577 .
4928.0 0.0 535.48944 .
4858.0 0.0 552.78308 .
4775.0 0.0 569.91614 .
4692.0 0.0 586.89087 .
4816.0 0.0 603.70728 .
4665.0 0.0 620.36737 .
4679.0 0.0 636.87195 .
4556.0 0.0 653.22162 .
4502.0 0.0 669.41730 .
4502.0 0.0 685.46118 .
4422.0 0.0 701.35272 .
4422.0 0.0 717.09406 .
4343.0 0.0 732.68530 .
4330.0 0.0 748.12848 .
4316.0 0.0 763.42328 .
4330.0 0.0 778.57190 .
4199.0 0.0 793.57477 .
4277.0 0.0 808.43280 .
4160.0 0.0 823.14679 .
4045.0 0.0 837.71771 .
4147.0 0.0 852.14734 .
4122.0 0.0 866.43573 .
4020.0 0.0 880.58392 .
3956.0 0.0 894.59308 .
4032.0 0.0 908.46436 .
4032.0 0.0 922.19824 .
3770.0 0.0 935.79572 .
3894.0 0.0 949.25775 .
3856.0 0.0 962.58539 .
3844.0 0.0 975.77844 .
3819.0 0.0 988.84015 .
3733.0 0.0 1001.76953 .
3770.0 0.0 1014.56781 .
3697.0 0.0 1027.23596 .
3684.0 0.0 1039.77490 .
3782.0 0.0 1052.18591 .
3624.0 0.0 1064.46887 .
3636.0 0.0 1076.62598 .
3733.0 0.0 1088.65710 .
3564.0 0.0 1100.56360 .
3576.0 0.0 1112.34534 .
3552.0 0.0 1124.00464 .
3434.0 0.0 1135.54102 .
3528.0 0.0 1146.95654 .
3552.0 0.0 1158.25073 .
3422.0 0.0 1169.42542 .
3422.0 0.0 1180.48132 .
3540.0 0.0 1191.41870 .
3481.0 0.0 1202.23877 .
3399.0 0.0 1212.94263 .
3399.0 0.0 1223.53015 .
3352.0 0.0 1234.00378 .
3352.0 0.0 1244.36194 .
3272.0 0.0 1254.60693 .
3306.0 0.0 1264.73999 .
3295.0 0.0 1274.76086 .
3295.0 0.0 1284.67102 .
3226.0 0.0 1294.47009 .
3249.0 0.0 1304.16040 .
3215.0 0.0 1313.74182 .
3181.0 0.0 1323.21521 .
3170.0 0.0 1332.58118 .
3204.0 0.0 1341.84131 .
3170.0 0.0 1350.99573 .
3069.0 0.0 1360.04431 .
3091.0 0.0 1368.98962 .
3204.0 0.0 1377.83118 .
3147.0 0.0 1386.56970 .
3025.0 0.0 1395.20642 .
3091.0 0.0 1403.74182 .
3058.0 0.0 1412.17688 .
3091.0 0.0 1420.51172 .
2948.0 0.0 1428.74805 .
3025.0 0.0 1436.88525 .
2992.0 0.0 1444.92444 .
2894.0 0.0 1452.86731 .
3036.0 0.0 1460.71387 .
2981.0 0.0 1468.46484 .
2992.0 0.0 1476.12024 .
2905.0 0.0 1483.68176 .
2884.0 0.0 1491.15002 .
2905.0 0.0 1498.52405 .
2938.0 0.0 1505.80701 .
2894.0 0.0 1512.99817 .
2862.0 0.0 1520.09827 .
2767.0 0.0 1527.10852 .
2830.0 0.0 1534.02869 .
2884.0 0.0 1540.85999 .
2798.0 0.0 1547.60352 .
2756.0 0.0 1554.25891 .
2746.0 0.0 1560.82727 .
2798.0 0.0 1567.30945 .
2673.0 0.0 1573.70593 .
2746.0 0.0 1580.01709 .
2714.0 0.0 1586.24414 .
2746.0 0.0 1592.38745 .
2725.0 0.0 1598.44727 .
2663.0 0.0 1604.42407 .
2704.0 0.0 1610.31958 .
2611.0 0.0 1616.13318 .
2683.0 0.0 1621.86633 .
2632.0 0.0 1627.51990 .
2673.0 0.0 1633.09290 .
2570.0 0.0 1638.58740 .
2632.0 0.0 1644.00354 .
2540.0 0.0 1649.34180 .
2642.0 0.0 1654.60303 .
2570.0 0.0 1659.78748 .
2570.0 0.0 1664.89563 .
2540.0 0.0 1669.92883 .
2520.0 0.0 1674.88696 .
2673.0 0.0 1679.77063 .
2510.0 0.0 1684.58057 .
2570.0 0.0 1689.31738 .
2490.0 0.0 1693.98193 .
2480.0 0.0 1698.57410 .
2480.0 0.0 1703.09436 .
2450.0 0.0 1707.54407 .
2450.0 0.0 1711.92334 .
2470.0 0.0 1716.23267 .
2560.0 0.0 1720.47290 .
2391.0 0.0 1724.64368 .
2440.0 0.0 1728.74683 .
2421.0 0.0 1732.78223 .
2421.0 0.0 1736.75049 .
2401.0 0.0 1740.65137 .
2323.0 0.0 1744.48706 .
2401.0 0.0 1748.25623 .
2352.0 0.0 1751.96045 .
2362.0 0.0 1755.60034 .
2391.0 0.0 1759.17639 .
2352.0 0.0 1762.68860 .
2401.0 0.0 1766.13696 .
2411.0 0.0 1769.52319 .
2372.0 0.0 1772.84778 .
2275.0 0.0 1776.11035 .
2285.0 0.0 1779.31165 .
2256.0 0.0 1782.45300 .
2294.0 0.0 1785.53357 .
2304.0 0.0 1788.55469 .
2266.0 0.0 1791.51672 .
2275.0 0.0 1794.41956 .
2256.0 0.0 1797.26477 .
2275.0 0.0 1800.05261 .
2209.0 0.0 1802.78223 .
2144.0 0.0 1805.45557 .
2181.0 0.0 1808.07214 .
2237.0 0.0 1810.63281 .
2218.0 0.0 1813.13879 .
2172.0 0.0 1815.58887 .
2190.0 0.0 1817.98474 .
2172.0 0.0 1820.32715 .
2134.0 0.0 1822.61475 .
2098.0 0.0 1824.84985 .
2134.0 0.0 1827.03223 .
2134.0 0.0 1829.16223 .
2172.0 0.0 1831.23975 .
2200.0 0.0 1833.26648 .
2088.0 0.0 1835.24182 .
2070.0 0.0 1837.16711 .
2134.0 0.0 1839.04187 .
2070.0 0.0 1840.86694 .
2134.0 0.0 1842.64270 .
2134.0 0.0 1844.36951 .
2070.0 0.0 1846.04773 .
2172.0 0.0 1847.67798 .
2098.0 0.0 1849.26025 .
2043.0 0.0 1850.79565 .
2025.0 0.0 1852.28406 .
2052.0 0.0 1853.72595 .
1989.0 0.0 1855.12183 .
2016.0 0.0 1856.47205 .
1989.0 0.0 1857.77698 .
2034.0 0.0 1859.03699 .
2007.0 0.0 1860.25269 .
1998.0 0.0 1861.42395 .
2025.0 0.0 1862.55164 .
2016.0 0.0 1863.63635 .
1971.0 0.0 1864.67773 .
1918.0 0.0 1865.67651 .
1998.0 0.0 1866.63281 .
2061.0 0.0 1867.54797 .
1962.0 0.0 1868.42102 .
1998.0 0.0 1869.25378 .
2007.0 0.0 1870.04504 .
1927.0 0.0 1870.79639 .
1945.0 0.0 1871.50732 .
1910.0 0.0 1872.17896 .
1980.0 0.0 1872.81140 .
1918.0 0.0 1873.40466 .
1918.0 0.0 1873.95923 .
1936.0 0.0 1874.47620 .
1832.0 0.0 1874.95447 .
1849.0 0.0 1875.39563 .
1927.0 0.0 1875.79968 .
1962.0 0.0 1876.16663 .
1918.0 0.0 1876.49719 .
1910.0 0.0 1876.79138 .
1971.0 0.0 1877.04993 .
1971.0 0.0 1877.27283 .
1892.0 0.0 1877.46082 .
1945.0 0.0 1877.61389 .
1858.0 0.000538 1877.73206 1877.73230
1918.0 0.000521 1877.81628 1877.81677
1918.0 0.000521 1877.86682 1877.86707
1927.0 0.000519 1877.88367 1877.88379
1884.0 0.000531 1877.86731 1877.86707
1901.0 0.000526 1877.81775 1877.81799
1866.0 0.000536 1877.73596 1877.73596
1815.0 0.000551 1877.62158 1877.62146
1823.0 0.000549 1877.47534 1877.47534
1884.0 0.000531 1877.29736 1877.29712
1849.0 0.000541 1877.08801 1877.08789
1936.0 0.000517 1876.84753 1876.84729
1866.0 0.000536 1876.57666 1876.57629
1936.0 0.000517 1876.27478 1876.27441
1892.0 0.000529 1875.94299 1875.94275
1927.0 0.000519 1875.58118 1875.58093
1884.0 0.000531 1875.19006 1875.18958
1901.0 0.000526 1874.76941 1874.76904
1901.0 0.000526 1874.32007 1874.31946
1901.0 0.000526 1873.84180 1873.84094
1866.0 0.000536 1873.33484 1873.33435
1884.0 0.000531 1872.80005 1872.79932
1849.0 0.000541 1872.23718 1872.23669
1866.0 0.000536 1871.64697 1871.64624
1892.0 0.000529 1871.02942 1871.02856
1884.0 0.000531 1870.38464 1870.38391
1884.0 0.000531 1869.71326 1869.71252
1884.0 0.000531 1869.01538 1869.01453
1866.0 0.000536 1868.29150 1868.29065
1892.0 0.000529 1867.54126 1867.54053
1875.0 0.000533 1866.76538 1866.76453
1858.0 0.000538 1865.96460 1865.96350
1901.0 0.000526 1865.13818 1865.13708
1849.0 0.000541 1864.28711 1864.28613
1866.0 0.000536 1863.41138 1863.41052
1901.0 0.000526 1862.51123 1862.51025
1798.0 0.000556 1861.58667 1861.58582
1832.0 0.000546 1860.63904 1863.39160
1892.0 0.000529 1859.66724 1863.88208
1840.0 0.000543 1858.67224 1863.04688
1832.0 0.000546 1857.65430 1862.19751
1866.0 0.000536 1856.61328 1861.33569
1884.0 0.000531 1855.54980 1860.46216
1954.0 0.000512 1854.46399 1859.57776
1832.0 0.000546 1853.35596 1858.68396
1892.0 0.000529 1852.22607 1857.78259
1910.0 0.000524 1851.07483 1856.87390
1875.0 0.000533 1849.90137 1855.96045
1892.0 0.000529 1848.70752 1855.04407
1849.0 0.000541 1847.49280 1854.12598
1901.0 0.000526 1846.25720 1853.20923
1815.0 0.000551 1845.00085 1852.29480
1884.0 0.000531 1843.72473 1851.38708
1832.0 0.000546 1842.42834 1850.48767
1798.0 0.000556 1841.11255 1849.60071
1866.0 0.000536 1839.77673 1848.72949
1849.0 0.000541 1838.42163 1847.87817
1858.0 0.000538 1837.04736 1847.05237
1849.0 0.000541 1835.65466 1846.25696
1798.0 0.000556 1834.24329 1845.49878
1849.0 0.000541 1832.81335 1844.78479
1840.0 0.000543 1831.36487 1844.12439
1815.0 0.000551 1829.89880 1843.52698
1849.0 0.000541 1828.41467 1843.00537
1866.0 0.000536 1826.91321 1842.57312
1823.0 0.000549 1825.39429 1842.24792
1823.0 0.000549 1823.85803 1842.04944
1849.0 0.000541 1822.30481 1842.00378
1823.0 0.000549 1820.73511 1842.14124
1832.0 0.000546 1819.14893 1842.50049
1875.0 0.000533 1817.54602 1843.12927
1858.0 0.000538 1815.92725 1844.08948
1849.0 0.000541 1814.29236 1845.46045
1884.0 0.000531 1812.64185 1847.34802
1823.0 0.000549 1810.97559 1849.89368
1875.0 0.000533 1809.29443 1853.29407
1840.0 0.000543 1807.59753 1857.83167
1901.0 0.000526 1805.88599 1863.92529
1910.0 0.000524 1804.15979 1872.24451
1832.0 0.000546 1802.41882 1883.98035
1918.0 0.000521 1800.66333 1901.54163
2034.0 0.000492 1798.89404 1929.74988
1954.0 0.000512 1797.11035 1976.10645
2007.0 0.000498 1795.31299 2041.73438
2043.0 0.000489 1793.50183 2116.92285
2116.0 0.000473 1791.67773 2226.99951
2218.0 0.000451 1789.83948 2367.37573
2237.0 0.000447 1787.98865 2506.19434
2401.0 0.000416 1786.12488 2703.78247
2694.0 0.000371 1784.24866 2925.08398
3003.0 0.0003330 1782.35913 3203.40845
3387.0 0.0002952 1780.45776 3556.33472
3944.0 0.0002535 1778.54382 3976.38135
4382.0 0.0002282 1776.61804 4440.50488
4692.0 0.0002131 1774.67993 4757.61279
4529.0 0.0002208 1772.73059 4518.47266
3832.0 0.0002610 1770.76965 3763.36548
2948.0 0.0003392 1768.79712 2982.36401
2440.0 0.000410 1766.81311 2477.48926
2125.0 0.000471 1764.81860 2213.61084
1892.0 0.000529 1762.81323 2074.52612
1945.0 0.000514 1760.79663 1993.32422
1849.0 0.000541 1758.76953 1940.73804
1866.0 0.000536 1756.73230 1904.18970
1927.0 0.000519 1754.68469 1877.52942
1849.0 0.000541 1752.62708 1857.33948
1858.0 0.000538 1750.55945 1841.56995
1875.0 0.000533 1748.48193 1828.92969
1806.0 0.000554 1746.39453 1818.57166
1840.0 0.000543 1744.29785 1809.92188
1815.0 0.000551 1742.19214 1802.58069
1866.0 0.000536 1740.07703 1796.26270
1815.0 0.000551 1737.95276 1790.76074
1772.0 0.000564 1735.81995 1785.92188
1789.0 0.000559 1733.67786 1781.63135
1806.0 0.000554 1731.52747 1777.80225
1731.0 0.000578 1729.36865 1774.36938
1731.0 0.000578 1727.20142 1771.28247
1764.0 0.000567 1725.02612 1768.50476
1832.0 0.000546 1722.84229 1766.00732
1772.0 0.000564 1720.65149 1763.77173
1756.0 0.000569 1718.45227 1761.78333
1772.0 0.000564 1716.24536 1760.03601
1764.0 0.000567 1714.03125 1758.52637
1772.0 0.000564 1711.80994 1757.25842
1689.0 0.000592 1709.58105 1756.23914
1823.0 0.000549 1707.34534 1755.48193
1608.0 0.000622 1705.10278 1755.00391
1673.0 0.000598 1702.85303 1754.82935
1731.0 0.000578 1700.59668 1754.98877
1772.0 0.000564 1698.33386 1755.52124
1756.0 0.000569 1696.06458 1756.47375
1781.0 0.000561 1693.78918 1757.90686
1781.0 0.000561 1691.50745 1759.89380
1764.0 0.000567 1689.21960 1762.52722
1781.0 0.000561 1686.92603 1765.92212
1789.0 0.000559 1684.62634 1770.22583
1815.0 0.000551 1682.32092 1775.62427
1798.0 0.000556 1680.01050 1782.36060
1840.0 0.000543 1677.69409 1790.75330
1858.0 0.000538 1675.37256 1801.22974
1901.0 0.000526 1673.04565 1814.37695
1954.0 0.000512 1670.71387 1831.02173
1989.0 0.000503 1668.37720 1852.37268
1989.0 0.000503 1666.03516 1880.27710
2079.0 0.000481 1663.68872 1917.78723
2025.0 0.000494 1661.33765 1970.78857
2190.0 0.000457 1658.98206 2052.57495
2314.0 0.000432 1656.62183 2190.67480
2490.0 0.000402 1654.25769 2420.77832
2642.0 0.000379 1651.88904 2724.07983
3047.0 0.0003282 1649.51660 3135.45068
3318.0 0.0003014 1647.14014 3721.44189
3982.0 0.0002511 1644.75964 4328.96729
4692.0 0.0002131 1642.37512 5211.12109
5837.0 0.0001713 1639.98755 6169.47412
7379.0 0.0001355 1637.59607 7521.99951
9254.0 0.0001081 1635.20129 9128.66602
11109.0 0.0000900 1632.80286 11215.82227
12611.0 0.0000793 1630.40125 12913.83008
12232.0 0.0000818 1627.99670 12680.73242
10140.0 0.0000986 1625.58887 9924.57031
6906.0 0.0001448 1623.17834 6683.50000
4516.0 0.0002214 1620.76501 4378.40674
3114.0 0.0003211 1618.34851 3216.03003
2550.0 0.000392 1615.92957 2660.06689
2228.0 0.000449 1613.50806 2361.64526
2134.0 0.000469 1611.08398 2177.43213
2016.0 0.000496 1608.65759 2053.26855
1901.0 0.000526 1606.22876 1964.95508
1858.0 0.000538 1603.79810 1899.57971
1832.0 0.000546 1601.36523 1849.59192
1840.0 0.000543 1598.93005 1810.32227
1764.0 0.000567 1596.49329 1778.75415
1772.0 0.000564 1594.05432 1752.86670
1714.0 0.000583 1591.61401 1731.26392
1781.0 0.000561 1589.17200 1712.95544
1714.0 0.000583 1586.72815 1697.22192
1722.0 0.000581 1584.28296 1683.53186
1689.0 0.000592 1581.83630 1671.48364
1739.0 0.000575 1579.38843 1660.77136
1665.0 0.000601 1576.93933 1651.15613
1706.0 0.000586 1574.48901 1642.45081
1681.0 0.000595 1572.03748 1634.50732
1706.0 0.000586 1569.58533 1627.20544
1681.0 0.000595 1567.13184 1620.44836
1648.0 0.000607 1564.67761 1614.15771
1665.0 0.000601 1562.22266 1608.26709
1624.0 0.000616 1559.76746 1602.72314
1673.0 0.000598 1557.31079 1597.48010
1632.0 0.000613 1554.85449 1592.50037
1616.0 0.000619 1552.39697 1587.75110
1624.0 0.000616 1549.93958 1583.20557
1592.0 0.000628 1547.48169 1578.83997
1568.0 0.000638 1545.02368 1574.63367
1560.0 0.000641 1542.56555 1570.57007
1560.0 0.000641 1540.10706 1566.63367
1576.0 0.000635 1537.64893 1562.81177
1600.0 0.000625 1535.19080 1559.09265
1584.0 0.000631 1532.73267 1555.46631
1537.0 0.000651 1530.27478 1551.92395
1568.0 0.000638 1527.81702 1548.45801
1576.0 0.000635 1525.35974 1545.06116
1576.0 0.000635 1522.90295 1541.72754
1608.0 0.000622 1520.44678 1538.45178
1608.0 0.000622 1517.99097 1535.22900
1544.0 0.000648 1515.53540 1532.05481
1608.0 0.000622 1513.08118 1528.92566
1576.0 0.000635 1510.62683 1525.83765
1537.0 0.000651 1508.17407 1522.78796
1537.0 0.000651 1505.72168 1519.77344
1568.0 0.000638 1503.27087 1516.79175
1552.0 0.000644 1500.82031 1513.84058
1529.0 0.000654 1498.37109 1510.91785
1576.0 0.000635 1495.92285 1508.02148
1513.0 0.000661 1493.47620 1505.15027
1513.0 0.000661 1491.03027 1494.90601
1560.0 0.000641 1488.58582 1488.58472
1529.0 0.000654 1486.14270 1486.14172
1552.0 0.000644 1483.70105 1483.70032
1505.0 0.000664 1481.26062 1481.25977
1584.0 0.000631 1478.82190 1478.82104
1498.0 0.000668 1476.38489 1476.38403
1544.0 0.000648 1473.94922 1473.94836
1482.0 0.000675 1471.51550 1471.51465
1521.0 0.000657 1469.08301 1469.08252
1513.0 0.000661 1466.65295 1466.65234
1490.0 0.000671 1464.22437 1464.22363
1513.0 0.000661 1461.79785 1461.79712
1490.0 0.000671 1459.37280 1459.37244
1467.0 0.000682 1456.95056 1456.94971
1505.0 0.000664 1454.52942 1454.52893
1459.0 0.000685 1452.11096 1452.11047
1421.0 0.000704 1449.69458 1449.69385
1467.0 0.000682 1447.28027 1447.27991
1490.0 0.000671 1444.86804 1444.86768
1482.0 0.000675 1442.45874 1442.45813
1429.0 0.000700 1440.05103 1440.05054
1490.0 0.000671 1437.64587 1437.64563
1421.0 0.000704 1435.24341 1435.24304
1414.0 0.000707 1432.84326 1432.84290
1475.0 0.000678 1430.44580 1430.44531
1429.0 0.000700 1428.05066 1428.05029
1391.0 0.000719 1425.65820 1425.70032
1490.0 0.000671 1423.26843 1423.31177
1399.0 0.000715 1420.88123 1420.94751
1429.0 0.000700 1418.49670 1418.56506
1452.0 0.000689 1416.11499 1416.18579
1391.0 0.000719 1413.73621 1413.80884
1452.0 0.000689 1411.36047 1411.43542
1399.0 0.000715 1408.98730 1409.06494
1384.0 0.000723 1406.61743 1406.69739
1369.0 0.000730 1404.25012 1404.33289
1444.0 0.000693 1401.88586 1401.97156
1429.0 0.000700 1399.52490 1399.61340
1399.0 0.000715 1397.16699 1397.25891
1362.0 0.000734 1394.81226 1394.90710
1421.0 0.000704 1392.46045 1392.55933
1354.0 0.000739 1390.11182 1390.21436
1475.0 0.000678 1387.76685 1387.87292
1384.0 0.000723 1385.42468 1385.53528
1362.0 0.000734 1383.08618 1383.20105
1362.0 0.000734 1380.75073 1380.87048
1406.0 0.000711 1378.41895 1378.54321
1406.0 0.000711 1376.09033 1376.22034
1332.0 0.000751 1373.76550 1373.90088
1347.0 0.000742 1371.44373 1371.58496
1332.0 0.000751 1369.12573 1369.27344
1325.0 0.000755 1366.81116 1366.96570
1391.0 0.000719 1364.50024 1364.66187
1296.0 0.000772 1362.19287 1362.36255
1421.0 0.000704 1359.88904 1360.06726
1362.0 0.000734 1357.58887 1357.77625
1391.0 0.000719 1355.29272 1355.48962
1384.0 0.000723 1353.00024 1353.20776
1303.0 0.000767 1350.71143 1350.92993
1362.0 0.000734 1348.42639 1348.65723
1303.0 0.000767 1346.14478 1346.38953
1325.0 0.000755 1343.86743 1344.12671
1303.0 0.000767 1341.59399 1341.86926
1267.0 0.000789 1339.32446 1339.61719
1325.0 0.000755 1337.05847 1337.37073
1282.0 0.000780 1334.79675 1335.13013
1332.0 0.000751 1332.53906 1332.89624
1318.0 0.000759 1330.28516 1330.66858
1310.0 0.000763 1328.03552 1328.44800
1325.0 0.000755 1325.78979 1326.23474
1310.0 0.000763 1323.54810 1324.02991
1303.0 0.000767 1321.31079 1321.83386
1310.0 0.000763 1319.07703 1319.64771
1325.0 0.000755 1316.84802 1317.47266
1274.0 0.000785 1314.62280 1315.30933
1340.0 0.000746 1312.40210 1313.16028
1267.0 0.000789 1310.18542 1311.02759
1340.0 0.000746 1307.97278 1308.91431
1282.0 0.000780 1305.76477 1306.82446
1260.0 0.000794 1303.56067 1304.76306
1282.0 0.000780 1301.36121 1302.73804
1282.0 0.000780 1299.16565 1300.75928
1340.0 0.000746 1296.97473 1298.84387
1296.0 0.000772 1294.78845 1297.01648
1274.0 0.000785 1292.60632 1295.32092
1289.0 0.000776 1290.42847 1293.85046
1225.0 0.000816 1288.25513 1292.80469
1274.0 0.000785 1286.08618 1292.53711
1310.0 0.000763 1283.92188 1293.42419
1267.0 0.000789 1281.76172 1295.50183
1303.0 0.000767 1279.60608 1299.65369
1325.0 0.000755 1277.45508 1305.49182
1296.0 0.000772 1275.30859 1314.01904
1362.0 0.000734 1273.16675 1325.89746
1376.0 0.000727 1271.02917 1341.23657
1406.0 0.000711 1268.89661 1356.47461
1421.0 0.000704 1266.76831 1360.61597
1340.0 0.000746 1264.64453 1344.35706
1376.0 0.000727 1262.52539 1319.53857
1340.0 0.000746 1260.41138 1294.92859
1318.0 0.000759 1258.30151 1277.62585
1296.0 0.000772 1256.19641 1267.66113
1274.0 0.000785 1254.09595 1261.70886
1246.0 0.000803 1252.00037 1257.53516
1267.0 0.000789 1249.90930 1254.15442
1260.0 0.000794 1247.82312 1251.19080
1282.0 0.000780 1245.74133 1248.48108
1260.0 0.000794 1243.66455 1245.93823
1225.0 0.000816 1241.59241 1243.51013
1282.0 0.000780 1239.52551 1241.16553
1225.0 0.000816 1237.46265 1238.88159
1239.0 0.000807 1235.40491 1236.64514
1340.0 0.000746 1233.35205 1234.44519
1274.0 0.000785 1231.30383 1232.27527
1246.0 0.000803 1229.26038 1230.12915
1246.0 0.000803 1227.22205 1228.00354
1163.0 0.000860 1225.18835 1225.89539
1246.0 0.000803 1223.15930 1223.80225
1225.0 0.000816 1221.13550 1221.72241
1170.0 0.000855 1219.11646 1219.65454
1190.0 0.000840 1217.10229 1217.59741
1204.0 0.000831 1215.09302 1215.55017
1183.0 0.000845 1213.08813 1213.51160
1197.0 0.000835 1211.08875 1211.48193
1190.0 0.000840 1209.09399 1209.46045
1211.0 0.000826 1207.10425 1207.44641
1211.0 0.000826 1205.11963 1205.43945
1197.0 0.000835 1203.13940 1203.43970
1163.0 0.000860 1201.16455 1201.44666
1190.0 0.000840 1199.19458 1199.46008
1183.0 0.000845 1197.22949 1197.48010
1156.0 0.000865 1195.26929 1195.50623
1176.0 0.000850 1193.31409 1193.53796
1190.0 0.000840 1191.36401 1191.57642
1197.0 0.000835 1189.41882 1189.62000
1136.0 0.000880 1187.47839 1187.67004
1190.0 0.000840 1185.54309 1185.72559
1211.0 0.000826 1183.61279 1183.78650
1156.0 0.000865 1181.68738 1181.85315
1183.0 0.000845 1179.76697 1179.92566
1170.0 0.000855 1177.85168 1178.00330
1204.0 0.000831 1175.94141 1176.08606
1149.0 0.000870 1174.03601 1174.17468
1197.0 0.000835 1172.13562 1172.26843
1122.0 0.000891 1170.24036 1170.36816
1183.0 0.000845 1168.35010 1168.47253
1122.0 0.000891 1166.46472 1166.58289
1129.0 0.000886 1164.58423 1164.69775
1142.0 0.000876 1162.70898 1162.81848
1142.0 0.000876 1160.83875 1160.94421
1156.0 0.000865 1158.97363 1159.07520
1149.0 0.000870 1157.11292 1157.21143
1136.0 0.000880 1155.25806 1155.35291
1163.0 0.000860 1153.40771 1153.49915
1142.0 0.000876 1151.56274 1151.65112
1142.0 0.000876 1149.72266 1149.80811
1096.0 0.000912 1147.88757 1147.97034
1170.0 0.000855 1146.05750 1146.13782
1116.0 0.000896 1144.23230 1144.31018
1136.0 0.000880 1142.41235 1142.48792
1170.0 0.000855 1140.59741 1140.67053
1102.0 0.000907 1138.78723 1138.85840
1082.0 0.000924 1136.98254 1137.05164
1129.0 0.000886 1135.18274 1135.24951
1136.0 0.000880 1133.38794 1133.45276
1102.0 0.000907 1131.59766 1131.62085
1076.0 0.000929 1129.81299 1129.83521
1076.0 0.000929 1128.03320 1128.03503
1082.0 0.000924 1126.25842 1126.26013
1102.0 0.000907 1124.48877 1124.49036
1109.0 0.000902 1122.72400 1122.72583
1102.0 0.000907 1120.96423 1120.96594
1102.0 0.000907 1119.20972 1119.21106
1149.0 0.000870 1117.45972 1117.46143
1170.0 0.000855 1115.71521 1115.71716
1082.0 0.000924 1113.97510 1113.97717
1136.0 0.000880 1112.24084 1112.24255
1109.0 0.000902 1110.51086 1110.51257
1109.0 0.000902 1108.78613 1108.78784
1102.0 0.000907 1107.06665 1107.06848
1050.0 0.000952 1105.35205 1105.35352
1109.0 0.000902 1103.64233 1103.64380
1102.0 0.000907 1101.93738 1101.93909
1163.0 0.000860 1100.23743 1100.23926
1089.0 0.000918 1098.54297 1098.54468
1069.0 0.000935 1096.85327 1096.85461
1069.0 0.000935 1095.16809 1095.16968
1122.0 0.000891 1093.48840 1093.49023
1076.0 0.000929 1091.81335 1091.81531
1089.0 0.000918 1090.14331 1090.14514
1096.0 0.000912 1088.47827 1088.47998
1063.0 0.000941 1086.81824 1086.82007
1129.0 0.000886 1085.16296 1085.16479
1102.0 0.000907 1083.51282 1083.51477
1024.0 0.000977 1081.86743 1081.86926
1024.0 0.000977 1080.22717 1080.22900
1030.0 0.000971 1078.59167 1078.59314
1089.0 0.000918 1076.96082 1076.96277
1076.0 0.000929 1075.33533 1075.33716
1043.0 0.000959 1073.71472 1073.71643
1056.0 0.000947 1072.09875 1072.10034
1102.0 0.000907 1070.48755 1070.48962
1030.0 0.000971 1068.88147 1068.88330
1056.0 0.000947 1067.28027 1067.28223
992.0 0.001008 1065.68408 1065.68555
1037.0 0.000964 1064.09253 1064.09424
1082.0 0.000924 1062.50562 1062.50720
1069.0 0.000935 1060.92383 1060.92578
1089.0 0.000918 1059.34705 1059.34851
1082.0 0.000924 1057.77454 1057.77661
992.0 0.001008 1056.20728 1056.20911
1050.0 0.000952 1054.64502 1054.64648
1018.0 0.000982 1053.08704 1053.08862
1024.0 0.000977 1051.53418 1051.53564
1063.0 0.000941 1049.98572 1049.98743
1030.0 0.000971 1048.44275 1048.44434
999.0 0.001001 1046.90405 1046.90576
1030.0 0.000971 1045.37012 1045.37170
1050.0 0.000952 1043.84082 1043.84290
1024.0 0.000977 1042.31665 1042.31836
992.0 0.001008 1040.79688 1040.79883
1030.0 0.000971 1039.28223 1039.28406
1018.0 0.000982 1037.77234 1037.77405
1050.0 0.000952 1036.26672 1036.26831
1018.0 0.000982 1034.76575 1034.76770
1043.0 0.000959 1033.26978 1033.27148
1018.0 0.000982 1031.77856 1031.78027
1005.0 0.000995 1030.29175 1030.29346
1043.0 0.000959 1028.80969 1028.81152
1018.0 0.000982 1027.33240 1031.21753
980.0 0.001020 1025.85974 1029.86121
992.0 0.001008 1024.39172 1030.42957
1030.0 0.000971 1022.92828 1029.15039
973.0 0.001028 1021.46960 1027.88464
992.0 0.001008 1020.01526 1026.63232
1005.0 0.000995 1018.56561 1025.39465
961.0 0.001041 1017.12061 1024.17175
949.0 0.001054 1015.68042 1022.96442
1011.0 0.000989 1014.24438 1021.77332
1024.0 0.000977 1012.81311 1020.59949
986.0 0.001014 1011.38641 1019.44391
980.0 0.001020 1009.96429 1018.30688
980.0 0.001020 1008.54645 1017.18994
1024.0 0.000977 1007.13336 1016.09430
1056.0 0.000947 1005.72467 1015.02063
1037.0 0.000964 1004.32074 1013.97064
967.0 0.001034 1002.92090 1012.94623
961.0 0.001041 1001.52582 1011.94830
999.0 0.001001 1000.13495 1010.97888
961.0 0.001041 998.74872 1010.04028
955.0 0.001047 997.36694 1009.13428
930.0 0.001075 995.98944 1008.26355
1030.0 0.000971 994.61652 1007.43066
961.0 0.001041 993.24792 1006.63867
1018.0 0.000982 991.88379 1005.89136
980.0 0.001020 990.52386 1005.19159
999.0 0.001001 989.16864 1004.54407
973.0 0.001028 987.81763 1003.95374
986.0 0.001014 986.47107 1003.42560
1005.0 0.000995 985.12866 1002.96606
992.0 0.001008 983.79065 1002.58130
992.0 0.001008 982.45679 1002.28003
992.0 0.001008 981.12769 1002.07037
992.0 0.001008 979.80243 1001.96301
961.0 0.001041 978.48145 1001.96967
1011.0 0.000989 977.16510 1002.10345
1043.0 0.000959 975.85272 1002.38104
1056.0 0.000947 974.54474 1002.81989
992.0 0.001008 973.24091 1003.44220
1018.0 0.000982 971.94135 1004.27283
1024.0 0.000977 970.64587 1005.34241
992.0 0.001008 969.35468 1006.68640
1043.0 0.000959 968.06775 1008.34772
973.0 0.001028 966.78485 1010.37854
1082.0 0.000924 965.50641 1012.84210
992.0 0.001008 964.23181 1015.81598
967.0 0.001034 962.96136 1019.39600
986.0 0.001014 961.69513 1023.70306
1050.0 0.000952 960.43298 1028.88892
1011.0 0.000989 959.17499 1035.14893
1069.0 0.000935 957.92090 1042.73547
1030.0 0.000971 956.67102 1051.98267
1069.0 0.000935 955.42529 1063.33704
1043.0 0.000959 954.18341 1077.41040
1102.0 0.000907 952.94562 1095.05884
1096.0 0.000912 951.71185 1117.51282
1136.0 0.000880 950.48218 1146.60828
1260.0 0.000794 949.25653 1185.27393
1274.0 0.000785 948.03491 1238.85303
1421.0 0.000704 946.81702 1318.67664
1624.0 0.000616 945.60309 1448.71985
1866.0 0.000536 944.39331 1671.61169
2294.0 0.000436 943.18744 2045.74390
2884.0 0.0003467 941.98523 2611.85547
3807.0 0.0002627 940.78699 3433.32495
5112.0 0.0001956 939.59283 4681.64453
6545.0 0.0001528 938.40253 6203.02148
8028.0 0.0001246 937.21606 7871.07861
8892.0 0.0001125 936.03345 8918.81738
8446.0 0.0001184 934.85474 8485.15723
7140.0 0.0001401 933.67975 7071.38086
5198.0 0.0001924 932.50830 5398.62744
3745.0 0.0002670 931.34094 3760.73413
2460.0 0.000407 930.17749 2587.41846
1884.0 0.000531 929.01770 1923.76807
1513.0 0.000661 927.86151 1581.96948
1303.0 0.000767 926.70929 1399.91248
1211.0 0.000826 925.56073 1289.92847
1170.0 0.000855 924.41595 1215.32141
1149.0 0.000870 923.27460 1161.24329
1102.0 0.000907 922.13721 1120.51038
1050.0 0.000952 921.00330 1088.95630
1024.0 0.000977 919.87305 1063.93909
1043.0 0.000959 918.74664 1043.70691
992.0 0.001008 917.62384 1027.05884
992.0 0.001008 916.50458 1013.15039
961.0 0.001041 915.38885 1002.61200
936.0 0.001068 914.27692 992.54633
973.0 0.001028 913.16846 983.82825
961.0 0.001041 912.06354 976.82587
980.0 0.001020 910.96222 970.10986
949.0 0.001054 909.86438 964.13452
955.0 0.001047 908.77008 958.77771
936.0 0.001068 907.67932 953.94183
973.0 0.001028 906.59216 949.54803
961.0 0.001041 905.50830 946.62433
973.0 0.001028 904.42798 942.95984
912.0 0.001096 903.35114 939.57758
942.0 0.001062 902.27765 936.99005
936.0 0.001068 901.20770 934.08252
942.0 0.001062 900.14117 931.36523
864.0 0.001157 899.07794 928.81647
930.0 0.001075 898.01819 926.41785
930.0 0.001075 896.96173 924.15332
894.0 0.001119 895.90875 922.00964
949.0 0.001054 894.85889 919.97491
906.0 0.001104 893.81250 918.03937
900.0 0.001111 892.76947 916.19434
900.0 0.001111 891.72992 914.43195
918.0 0.001089 890.69318 912.74597
936.0 0.001068 889.66003 911.13092
906.0 0.001104 888.63025 909.58148
955.0 0.001047 887.60358 908.09381
980.0 0.001020 886.58008 906.66418
949.0 0.001054 885.55988 905.28925
894.0 0.001119 884.54291 903.96692
864.0 0.001157 883.52881 902.69427
882.0 0.001134 882.51819 901.47009
918.0 0.001089 881.51068 900.29272
912.0 0.001096 880.50659 899.16089
930.0 0.001075 879.50519 898.07373
882.0 0.001134 878.50708 897.03137
924.0 0.001082 877.51215 896.03339
882.0 0.001134 876.52020 895.07953
924.0 0.001082 875.53156 894.17090
864.0 0.001157 874.54565 893.30792
906.0 0.001104 873.56305 892.49158
918.0 0.001089 872.58325 891.72473
918.0 0.001089 871.60675 891.00739
870.0 0.001149 870.63312 890.34235
864.0 0.001157 869.66241 889.73303
924.0 0.001082 868.69476 889.18201
906.0 0.001104 867.73029 888.69373
906.0 0.001104 866.76862 888.27234
876.0 0.001142 865.80981 887.92352
924.0 0.001082 864.85400 887.65326
930.0 0.001075 863.90106 887.46912
918.0 0.001089 862.95087 887.37891
924.0 0.001082 862.00385 883.76910
900.0 0.001111 861.05963 883.99951
918.0 0.001089 860.11823 882.53290
882.0 0.001134 859.17944 883.08081
942.0 0.001062 858.24390 883.78748
900.0 0.001111 857.31091 884.67615
835.0 0.001198 856.38086 885.77393
924.0 0.001082 855.45355 887.11371
967.0 0.001034 854.52905 888.73596
942.0 0.001062 853.60706 890.68915
924.0 0.001082 852.68823 893.03436
912.0 0.001096 851.77185 895.84674
967.0 0.001034 850.85840 899.22095
906.0 0.001104 849.94739 903.27850
936.0 0.001068 849.03925 908.17664
942.0 0.001062 848.13367 914.12128
949.0 0.001054 847.23102 921.38831
900.0 0.001111 846.33081 930.35468
949.0 0.001054 845.43329 941.54736
924.0 0.001082 844.53851 955.72827
986.0 0.001014 843.64612 974.06860
1018.0 0.000982 842.75641 998.56781
1069.0 0.000935 841.86938 1033.05334
1116.0 0.000896 840.98486 1085.05774
1197.0 0.000835 840.10284 1168.15857
1362.0 0.000734 839.22333 1303.61230
1584.0 0.000631 838.34644 1517.90454
2016.0 0.000496 837.47217 1826.53455
2490.0 0.000402 836.60028 2246.44507
3036.0 0.0003294 835.73090 2808.83521
3588.0 0.0002787 834.86389 3370.91821
4045.0 0.0002472 833.99957 3721.61426
4020.0 0.0002488 833.13751 3709.26147
3672.0 0.0002723 832.27802 3391.37109
3329.0 0.0003004 831.42078 3036.34448
3003.0 0.0003330 830.56616 2745.47900
2894.0 0.0003455 829.71393 2662.67700
3047.0 0.0003282 828.86401 2915.17993
3660.0 0.0002732 828.01630 3443.13770
4147.0 0.0002411 827.17120 4045.26440
4422.0 0.0002261 826.32843 4365.22607
4251.0 0.0002352 825.48779 4092.47778
3528.0 0.0002834 824.64966 3501.94946
2884.0 0.0003467 823.81384 2840.64697
2275.0 0.000440 822.98029 2164.96899
1714.0 0.000583 822.14893 1641.42029
1310.0 0.000763 821.31989 1324.33667
1163.0 0.000860 820.49304 1154.78430
1082.0 0.000924 819.66864 1064.72205
1024.0 0.000977 818.84625 1011.34027
1024.0 0.000977 818.02606 975.21313
906.0 0.001104 817.20819 948.64630
906.0 0.001104 816.39258 928.22748
930.0 0.001075 815.57916 912.07520
894.0 0.001119 814.76788 899.00397
930.0 0.001075 813.95844 888.22083
888.0 0.001126 813.15143 879.17706
835.0 0.001198 812.34656 871.48218
894.0 0.001119 811.54382 864.85132
835.0 0.001198 810.74286 859.07288
858.0 0.001166 809.94434 853.98669
858.0 0.001166 809.14783 849.46973
870.0 0.001149 808.35327 845.42615
864.0 0.001157 807.56097 842.28192
894.0 0.001119 806.77051 838.99219
847.0 0.001181 805.98218 836.01135
824.0 0.001214 805.19592 833.57043
847.0 0.001181 804.41150 831.17645
818.0 0.001222 803.62921 829.07953
858.0 0.001166 802.84888 827.30505
835.0 0.001198 802.07037 825.83563
818.0 0.001222 801.29401 824.51324
841.0 0.001189 800.51947 823.04681
778.0 0.001285 799.74689 821.11951
818.0 0.001222 798.97626 818.93036
812.0 0.001232 798.20746 816.76520
812.0 0.001232 797.44055 814.61853
818.0 0.001222 796.67566 812.63452
829.0 0.001206 795.91254 810.89978
818.0 0.001222 795.15143 809.35724
778.0 0.001285 794.39185 807.94342
807.0 0.001239 793.63428 806.61658
829.0 0.001206 792.87854 805.33838
795.0 0.001258 792.12469 804.10406
807.0 0.001239 791.37244 802.91174
784.0 0.001276 790.62201 801.75012
841.0 0.001189 789.87354 800.61914
784.0 0.001276 789.12677 799.51617
790.0 0.001266 788.38153 798.43903
795.0 0.001258 787.63818 797.38556
795.0 0.001258 786.89685 796.35449
807.0 0.001239 786.15686 795.34375
824.0 0.001214 785.41858 794.35223
807.0 0.001239 784.68219 793.37885
784.0 0.001276 783.94739 792.42230
756.0 0.001323 783.21429 791.48187
824.0 0.001214 782.48273 790.55652
853.0 0.001172 781.75293 789.64551
773.0 0.001294 781.02472 788.74823
807.0 0.001239 780.29822 787.86395
751.0 0.001332 779.57318 786.99194
818.0 0.001222 778.84991 786.13177
790.0 0.001266 778.12817 785.28314
824.0 0.001214 777.40808 784.44537
812.0 0.001232 776.68951 783.61847
767.0 0.001304 775.97223 782.80164
773.0 0.001294 775.25696 781.99487
824.0 0.001214 774.54297 781.19806
773.0 0.001294 773.83051 780.41040
767.0 0.001304 773.11957 779.63214
818.0 0.001222 772.41010 779.03955
795.0 0.001258 771.70215 778.28253
807.0 0.001239 770.99585 777.53448
812.0 0.001232 770.29077 776.88306
773.0 0.001294 769.58740 774.94635
762.0 0.001312 768.88519 774.25470
790.0 0.001266 768.18463 773.57117
762.0 0.001312 767.48547 772.29950
876.0 0.001142 766.78778 771.64618
790.0 0.001266 766.09143 771.00067
790.0 0.001266 765.39642 770.36292
778.0 0.001285 764.70276 769.73370
740.0 0.001351 764.01068 769.11322
756.0 0.001323 763.31982 767.44568
778.0 0.001285 762.63031 766.86798
745.0 0.001342 761.94238 766.29919
790.0 0.001266 761.25549 765.21881
801.0 0.001248 760.57001 764.68146
795.0 0.001258 759.88586 764.15430
745.0 0.001342 759.20313 763.63818
801.0 0.001248 758.52155 763.13342
795.0 0.001258 757.84137 762.64185
762.0 0.001312 757.16223 762.16351
762.0 0.001312 756.48456 761.70007
751.0 0.001332 755.80817 761.25317
778.0 0.001285 755.13293 760.82404
751.0 0.001332 754.45898 760.41425
762.0 0.001312 753.78625 760.02582
762.0 0.001312 753.11481 759.66156
751.0 0.001332 752.44446 759.32397
835.0 0.001198 751.77533 759.01648
807.0 0.001239 751.10736 758.74280
812.0 0.001232 750.44061 758.50781
790.0 0.001266 749.77509 758.31818
784.0 0.001276 749.11060 758.18054
790.0 0.001266 748.44751 758.10577
795.0 0.001258 747.78528 758.10669
773.0 0.001294 747.12421 758.20313
784.0 0.001276 746.46436 758.42706
773.0 0.001294 745.80554 758.83887
773.0 0.001294 745.14807 759.56183
801.0 0.001248 744.49127 760.82471
762.0 0.001312 743.83594 762.99799
745.0 0.001342 743.18152 766.56464
745.0 0.001342 742.52832 772.16455
790.0 0.001266 741.87604 779.43500
790.0 0.001266 741.22485 788.21570
835.0 0.001198 740.57452 795.75793
853.0 0.001172 739.92542 799.11310
756.0 0.001323 739.27728 798.76971
745.0 0.001342 738.63013 798.15717
829.0 0.001206 737.98413 798.82404
829.0 0.001206 737.33899 800.51941
756.0 0.001323 736.69489 802.87366
795.0 0.001258 736.05176 803.81525
807.0 0.001239 735.40961 803.25262
756.0 0.001323 734.76849 803.60480
801.0 0.001248 734.12811 805.31781
778.0 0.001285 733.48889 808.91663
773.0 0.001294 732.85059 816.16113
773.0 0.001294 732.21301 828.39075
790.0 0.001266 731.57660 846.95508
835.0 0.001198 730.94104 874.10980
876.0 0.001142 730.30634 913.50116
906.0 0.001104 729.67249 970.14478
1024.0 0.000977 729.03961 1049.76477
1102.0 0.000907 728.40747 1156.88916
1218.0 0.000821 727.77643 1289.74402
1354.0 0.000739 727.14600 1429.48047
1452.0 0.000689 726.51672 1533.20508
1600.0 0.000625 725.88818 1562.06335
1616.0 0.000619 725.26044 1521.87500
1475.0 0.000678 724.63348 1438.17834
1369.0 0.000730 724.00732 1324.84668
1225.0 0.000816 723.38208 1200.32458
1129.0 0.000886 722.75763 1087.35803
949.0 0.001054 722.13416 997.31433
906.0 0.001104 721.51105 930.37775
853.0 0.001172 720.88910 882.23126
795.0 0.001258 720.26782 847.94818
773.0 0.001294 719.64722 823.35480
795.0 0.001258 719.02759 805.33331
767.0 0.001304 718.40845 791.73511
745.0 0.001342 717.79034 781.15729
773.0 0.001294 717.17279 772.70685
724.0 0.001381 716.55597 765.81281
708.0 0.001412 715.93988 760.09790
751.0 0.001332 715.32452 755.30200
773.0 0.001294 714.71008 751.23877
756.0 0.001323 714.09607 747.77063
734.0 0.001362 713.48297 744.79492
745.0 0.001342 712.87048 742.23315
708.0 0.001412 712.25861 740.03821
724.0 0.001381 711.64746 738.14337
718.0 0.001393 711.03699 736.52795
751.0 0.001332 710.42712 735.17468
708.0 0.001412 709.81805 734.06006
729.0 0.001372 709.20953 733.18427
729.0 0.001372 708.60168 732.55023
718.0 0.001393 707.99438 732.17023
745.0 0.001342 707.38788 732.06683
713.0 0.001403 706.78204 732.27582
773.0 0.001294 706.17664 732.84937
740.0 0.001351 705.57190 733.86267
708.0 0.001412 704.96783 735.42676
702.0 0.001425 704.36420 737.71045
718.0 0.001393 703.76141 742.69550
713.0 0.001403 703.15887 747.42194
745.0 0.001342 702.55731 754.30225
724.0 0.001381 701.95612 765.32056
795.0 0.001258 701.35547 780.44861
756.0 0.001323 700.75549 802.57947
824.0 0.001214 700.15594 833.97522
900.0 0.001111 699.55695 876.13232
870.0 0.001149 698.95856 927.40887
918.0 0.001089 698.36078 978.57019
973.0 0.001028 697.76337 1011.78088
973.0 0.001028 697.16656 1015.26434
973.0 0.001028 696.57037 995.55463
973.0 0.001028 695.97449 962.05353
912.0 0.001096 695.37939 918.50226
847.0 0.001181 694.78467 871.79681
807.0 0.001239 694.19037 830.28571
784.0 0.001276 693.59662 797.65741
790.0 0.001266 693.00336 773.61273
724.0 0.001381 692.41046 756.40533
686.0 0.001458 691.81830 744.36908
718.0 0.001393 691.22632 735.56268
702.0 0.001425 690.63501 729.04987
702.0 0.001425 690.04407 724.06482
740.0 0.001351 689.45374 720.21808
692.0 0.001445 688.86359 717.00458
697.0 0.001435 688.27405 714.32965
718.0 0.001393 687.68494 712.06549
686.0 0.001458 687.09625 710.12433
681.0 0.001468 686.50793 708.44232
686.0 0.001458 685.92017 706.97278
708.0 0.001412 685.33276 705.68042
671.0 0.001490 684.74567 704.53735
676.0 0.001479 684.15912 703.52386
666.0 0.001502 683.57294 702.62341
671.0 0.001490 682.98712 701.82397
676.0 0.001479 682.40179 701.11664
681.0 0.001468 681.81671 700.49396
660.0 0.001515 681.23218 699.95227
686.0 0.001458 680.64783 699.48785
635.0 0.001575 680.06396 699.09998
666.0 0.001502 679.48059 698.78851
671.0 0.001490 678.89740 698.55518
724.0 0.001381 678.31458 698.40271
692.0 0.001445 677.73224 698.33679
697.0 0.001435 677.15021 698.36237
671.0 0.001490 676.56842 698.48834
713.0 0.001403 675.98706 698.72510
671.0 0.001490 675.40594 699.08557
671.0 0.001490 674.82538 699.58569
650.0 0.001538 674.24500 700.24579
681.0 0.001468 673.66504 701.09027
708.0 0.001412 673.08527 702.15027
676.0 0.001479 672.50592 703.46472
740.0 0.001351 671.92694 705.08264
702.0 0.001425 671.34808 707.06805
692.0 0.001445 670.76959 709.50452
702.0 0.001425 670.19153 712.50616
697.0 0.001435 669.61365 716.22791
692.0 0.001445 669.03613 720.88733
671.0 0.001490 668.45892 726.78693
713.0 0.001403 667.88196 734.34406
729.0 0.001372 667.30518 744.11890
756.0 0.001323 666.72894 756.83667
751.0 0.001332 666.15271 773.39105
773.0 0.001294 665.57684 794.80768
740.0 0.001351 665.00122 822.12689
835.0 0.001198 664.42596 856.09839
912.0 0.001096 663.85089 896.48553
894.0 0.001119 663.27618 940.79816
912.0 0.001096 662.70172 982.93262
980.0 0.001020 662.12744 1013.85413
1030.0 0.000971 661.55322 1026.28662
992.0 0.001008 660.97937 1019.39740
1018.0 0.000982 660.40607 997.13593
949.0 0.001054 659.83276 963.99109
924.0 0.001082 659.25970 924.04437
876.0 0.001142 658.68683 883.65747
841.0 0.001189 658.11414 846.77643
801.0 0.001248 657.54181 815.58685
795.0 0.001258 656.96973 791.47516
740.0 0.001351 656.39764 774.35291
745.0 0.001342 655.82617 764.64594
713.0 0.001403 655.25470 761.98840
713.0 0.001403 654.68335 765.72809
745.0 0.001342 654.11230 773.15350
778.0 0.001285 653.54144 777.73016
801.0 0.001248 652.97076 773.31396
778.0 0.001285 652.40033 761.95972
745.0 0.001342 651.83008 749.73022
767.0 0.001304 651.26007 737.38513
740.0 0.001351 650.69031 724.55334
778.0 0.001285 650.12054 713.69482
724.0 0.001381 649.55109 706.35791
724.0 0.001381 648.98169 702.14648
729.0 0.001372 648.41266 699.99524
708.0 0.001412 647.84375 698.99658
724.0 0.001381 647.27484 698.65271
729.0 0.001372 646.70642 698.75775
708.0 0.001412 646.13794 699.23676
734.0 0.001362 645.56982 700.06146
708.0 0.001412 645.00177 701.94440
655.0 0.001527 644.43390 703.47089
697.0 0.001435 643.86621 705.58380
734.0 0.001362 643.29858 708.21246
713.0 0.001403 642.73120 710.91620
740.0 0.001351 642.16388 714.08484
734.0 0.001362 641.59692 717.88885
724.0 0.001381 641.03003 722.17615
751.0 0.001332 640.46326 727.14917
756.0 0.001323 639.89667 732.92102
740.0 0.001351 639.33026 739.63202
734.0 0.001362 638.76398 747.45465
740.0 0.001351 638.19763 756.59802
756.0 0.001323 637.63165 767.31195
751.0 0.001332 637.06580 779.88544
724.0 0.001381 636.50006 794.63641
767.0 0.001304 635.93445 811.88348
812.0 0.001232 635.36902 831.93738
829.0 0.001206 634.80365 855.21399
853.0 0.001172 634.23859 882.54681
924.0 0.001082 633.67358 915.47925
936.0 0.001068 633.10852 956.28394
967.0 0.001034 632.54382 1007.76392
1037.0 0.000964 631.97906 1074.16113
1109.0 0.000902 631.41473 1160.14954
1225.0 0.000816 630.85028 1271.38391
1429.0 0.000700 630.28595 1414.30518
1592.0 0.000628 629.72174 1594.62195
1722.0 0.000581 629.15778 1815.28772
2107.0 0.000475 628.59381 2071.33081
2275.0 0.000440 628.02997 2342.24268
2694.0 0.000371 627.46631 2588.03369
2820.0 0.000355 626.90277 2761.69214
2767.0 0.000361 626.33936 2835.37939
2820.0 0.000355 625.77600 2807.46948
2652.0 0.000377 625.21283 2685.41333
2530.0 0.000395 624.64966 2485.96655
2304.0 0.000434 624.08667 2242.67822
2016.0 0.000496 623.52393 1989.70044
1706.0 0.000586 622.96112 1749.44812
1459.0 0.000685 622.39856 1536.79065
1347.0 0.000742 621.83588 1360.03735
1211.0 0.000826 621.27350 1219.51135
1109.0 0.000902 620.71112 1110.47571
949.0 0.001054 620.14893 1026.69714
942.0 0.001062 619.58673 962.28180
841.0 0.001189 619.02478 912.32391
864.0 0.001157 618.46283 873.01624
812.0 0.001232 617.90094 841.54498
767.0 0.001304 617.33936 815.90082
692.0 0.001445 616.77777 794.67163
767.0 0.001304 616.21631 776.86462
718.0 0.001393 615.65497 761.77094
773.0 0.001294 615.09363 748.87238
692.0 0.001445 614.53241 737.78149
718.0 0.001393 613.97144 728.20197
660.0 0.001515 613.41034 719.90436
681.0 0.001468 612.84955 712.70782
671.0 0.001490 612.28888 706.47162
702.0 0.001425 611.72809 701.08588
676.0 0.001479 611.16748 696.46710
671.0 0.001490 610.60699 692.59552
708.0 0.001412 610.04669 689.34723
686.0 0.001458 609.48639 686.74158
734.0 0.001362 608.92603 684.77740
676.0 0.001479 608.36603 683.49585
630.0 0.001587 607.80603 682.90198
708.0 0.001412 607.24615 683.09430
718.0 0.001393 606.68634 684.19470
713.0 0.001403 606.12683 686.38428
745.0 0.001342 605.56714 689.93085
718.0 0.001393 605.00763 695.24500
784.0 0.001276 604.44818 703.00653
824.0 0.001214 603.88892 714.50317
864.0 0.001157 603.32971 732.45972
894.0 0.001119 602.77057 762.73914
888.0 0.001126 602.21167 816.96045
999.0 0.001001 601.65277 914.89166
1129.0 0.000886 601.09387 1082.65125
1376.0 0.000727 600.53522 1338.84509
1681.0 0.000595 599.97650 1670.68994
2007.0 0.000498 599.41809 2018.30359
2314.0 0.000432 598.85962 2256.24097
2440.0 0.000410 598.30133 2272.72949
2088.0 0.000479 597.74316 2111.20435
1918.0 0.000521 597.18506 1900.03003
1665.0 0.000601 596.62708 1667.32397
1459.0 0.000685 596.06921 1402.83435
1204.0 0.000831 595.51141 1151.34741
973.0 0.001028 594.95374 960.45490
835.0 0.001198 594.39612 836.52759
767.0 0.001304 593.83868 764.17267
751.0 0.001332 593.28131 723.82422
751.0 0.001332 592.72400 700.48572
686.0 0.001458 592.16693 685.64777
724.0 0.001381 591.60992 675.35522
666.0 0.001502 591.05286 667.89496
686.0 0.001458 590.49615 662.46399
681.0 0.001468 589.93939 658.62891
655.0 0.001527 589.38287 656.14331
655.0 0.001527 588.82623 654.88702
660.0 0.001515 588.26990 654.54022
681.0 0.001468 587.71356 655.81152
671.0 0.001490 587.15753 658.60657
676.0 0.001479 586.60144 663.13440
681.0 0.001468 586.04553 670.23108
745.0 0.001342 585.48969 680.44550
729.0 0.001372 584.93402 694.63910
756.0 0.001323 584.37848 713.75256
745.0 0.001342 583.82294 738.62689
784.0 0.001276 583.26764 769.57727
847.0 0.001181 582.71252 805.50122
876.0 0.001142 582.15729 842.50458
949.0 0.001054 581.60229 873.29315
949.0 0.001054 581.04761 890.08728
906.0 0.001104 580.49292 890.23584
1024.0 0.000977 579.93823 877.09955
918.0 0.001089 579.38379 854.87195
894.0 0.001119 578.82947 828.44928
841.0 0.001189 578.27545 796.14362
795.0 0.001258 577.72137 764.59351
812.0 0.001232 577.16730 737.18286
756.0 0.001323 576.61353 716.58307
734.0 0.001362 576.06000 700.55219
708.0 0.001412 575.50635 689.87463
692.0 0.001445 574.95300 684.05981
671.0 0.001490 574.39960 682.77234
686.0 0.001458 573.84662 685.91809
686.0 0.001458 573.29364 693.64789
708.0 0.001412 572.74091 706.29846
681.0 0.001468 572.18811 724.24664
708.0 0.001412 571.63562 747.61041
729.0 0.001372 571.08331 775.64740
751.0 0.001332 570.53119 805.81653
801.0 0.001248 569.97900 833.06995
824.0 0.001214 569.42712 851.01648
790.0 0.001266 568.87531 855.59265
829.0 0.001206 568.32367 847.50427
778.0 0.001285 567.77228 829.96124
729.0 0.001372 567.22101 805.57751
708.0 0.001412 566.66992 776.63318
740.0 0.001351 566.11896 746.22363
702.0 0.001425 565.56812 717.50043
697.0 0.001435 565.01752 692.44116
681.0 0.001468 564.46710 671.88220
660.0 0.001515 563.91669 655.21912
645.0 0.001550 563.36664 642.09521
640.0 0.001563 562.81665 632.41992
625.0 0.001600 562.26691 624.67212
595.0 0.001681 561.71735 618.71814
630.0 0.001587 561.16797 614.38269
605.0 0.001653 560.61859 611.82928
615.0 0.001626 560.06970 610.78284
615.0 0.001626 559.52069 612.40863
630.0 0.001587 558.97211 619.51520
650.0 0.001538 558.42365 633.18616
697.0 0.001435 557.87524 657.19189
734.0 0.001362 557.32709 691.32208
751.0 0.001332 556.77917 729.92462
778.0 0.001285 556.23145 758.43091
818.0 0.001222 555.68408 762.71204
778.0 0.001285 555.13666 744.76648
756.0 0.001323 554.58948 718.92194
745.0 0.001342 554.04254 694.95923
681.0 0.001468 553.49591 667.72388
666.0 0.001502 552.94940 638.76459
595.0 0.001681 552.40302 613.34888
605.0 0.001653 551.85687 596.62012
586.0 0.001706 551.31110 586.58978
557.0 0.001795 550.76550 580.96558
557.0 0.001795 550.21997 577.72748
576.0 0.001736 549.67468 575.51984
581.0 0.001721 549.12970 573.83801
524.0 0.001908 548.58496 572.45673
571.0 0.001751 548.04041 571.27905
562.0 0.001779 547.49603 570.25293
595.0 0.001681 546.95197 569.34515
590.0 0.001695 546.40820 568.53284
595.0 0.001681 545.86444 567.79901
552.0 0.001812 545.32111 567.13190
610.0 0.001639 544.77789 566.52203
615.0 0.001626 544.23499 565.96265
595.0 0.001681 543.69238 565.44812
590.0 0.001695 543.14990 565.12891
620.0 0.001613 542.60773 564.69623
605.0 0.001653 542.06586 564.29883
586.0 0.001706 541.52429 563.93488
566.0 0.001767 540.98267 563.60315
600.0 0.001667 540.44159 563.30225
576.0 0.001736 539.90070 563.03156
581.0 0.001721 539.36011 562.79108
576.0 0.001736 538.81982 562.58026
590.0 0.001695 538.27954 562.39917
571.0 0.001751 537.73975 562.24817
571.0 0.001751 537.20026 562.12799
557.0 0.001795 536.66095 562.03894
595.0 0.001681 536.12183 561.98187
610.0 0.001639 535.58301 561.95758
581.0 0.001721 535.04474 561.96790
586.0 0.001706 534.50653 562.01373
595.0 0.001681 533.96863 562.09705
562.0 0.001779 533.43103 562.21863
566.0 0.001767 532.89368 562.38177
557.0 0.001795 532.35681 562.58820
562.0 0.001779 531.82001 562.84033
566.0 0.001767 531.28363 563.14069
576.0 0.001736 530.74750 563.49335
548.0 0.001825 530.21167 563.90088
610.0 0.001639 529.67609 564.36780
576.0 0.001736 529.14105 564.89789
543.0 0.001842 528.60620 565.49677
571.0 0.001751 528.07147 566.16919
581.0 0.001721 527.53723 566.92181
595.0 0.001681 527.00323 567.76166
557.0 0.001795 526.46973 568.69580
552.0 0.001812 525.93634 569.73389
566.0 0.001767 525.40338 570.88605
595.0 0.001681 524.87073 572.16333
586.0 0.001706 524.33844 573.58008
576.0 0.001736 523.80640 575.15118
581.0 0.001721 523.27478 576.89453
600.0 0.001667 522.74341 578.83185
600.0 0.001667 522.21252 580.98773
552.0 0.001812 521.68182 583.39240
600.0 0.001667 521.15167 586.08105
586.0 0.001706 520.62164 589.09729
605.0 0.001653 520.09198 592.49371
600.0 0.001667 519.56287 596.33661
581.0 0.001721 519.03406 600.70764
620.0 0.001613 518.50549 605.71216
615.0 0.001626 517.97729 611.48492
650.0 0.001538 517.44958 618.26892
660.0 0.001515 516.92212 626.17871
697.0 0.001435 516.39514 635.74146
724.0 0.001381 515.86841 647.23822
686.0 0.001458 515.34210 661.81726
692.0 0.001445 514.81628 681.19348
718.0 0.001393 514.29077 708.70215
734.0 0.001362 513.76550 751.07178
847.0 0.001181 513.24078 819.48328
888.0 0.001126 512.71637 929.05835
1076.0 0.000929 512.19244 1094.35938
1225.0 0.000816 511.66870 1318.56067
1537.0 0.000651 511.14548 1577.35059
1781.0 0.000561 510.62289 1817.18774
2125.0 0.000471 510.10040 1966.23828
2070.0 0.000483 509.57837 1971.33752
1849.0 0.000541 509.05676 1878.21436
1772.0 0.000564 508.53561 1758.85632
1584.0 0.000631 508.01486 1626.80872
1521.0 0.000657 507.49454 1466.32629
1239.0 0.000807 506.97461 1299.55542
1122.0 0.000891 506.45514 1163.03442
1030.0 0.000971 505.93604 1070.44226
967.0 0.001034 505.41733 1019.49512
906.0 0.001104 504.89914 1001.80170
967.0 0.001034 504.38132 1010.02460
992.0 0.001008 503.86395 1039.15503
1018.0 0.000982 503.34708 1087.48962
1102.0 0.000907 502.83054 1155.52747
1190.0 0.000840 502.31445 1246.00549
1354.0 0.000739 501.79895 1362.67358
1498.0 0.000668 501.28369 1509.94092
1632.0 0.000613 500.76904 1691.99548
1936.0 0.000517 500.25485 1911.85059
2125.0 0.000471 499.74103 2168.82153
2411.0 0.000415 499.22766 2454.34839
2714.0 0.000368 498.71478 2748.18018
3069.0 0.0003258 498.20236 3014.61133
3181.0 0.0003144 497.69046 3211.66235
3341.0 0.0002993 497.17896 3309.93506
3364.0 0.0002973 496.66791 3307.79785
3283.0 0.0003046 496.15744 3224.09302
3136.0 0.0003189 495.64737 3081.14600
2948.0 0.0003392 495.13785 2899.07886
2746.0 0.000364 494.62872 2701.54248
2560.0 0.000391 494.12009 2517.81592
2401.0 0.000416 493.61203 2375.11255
2294.0 0.000436 493.10440 2285.85913
2218.0 0.000451 492.59726 2235.64648
2107.0 0.000475 492.09070 2180.46826
2107.0 0.000475 491.58447 2067.62109
1901.0 0.000526 491.07898 1894.26538
1648.0 0.000607 490.57376 1711.99561
1482.0 0.000675 490.06915 1551.80481
1369.0 0.000730 489.56500 1401.57141
1211.0 0.000826 489.06143 1250.90283
1096.0 0.000912 488.55841 1114.80859
980.0 0.001020 488.05588 1009.59253
894.0 0.001119 487.55383 937.78693
864.0 0.001157 487.05225 893.58954
795.0 0.001258 486.55127 868.58051
767.0 0.001304 486.05075 856.33411
807.0 0.001239 485.55093 853.57654
824.0 0.001214 485.05148 859.37988
812.0 0.001232 484.55252 874.14697
835.0 0.001198 484.05435 899.02478
924.0 0.001082 483.55652 935.63013
894.0 0.001119 483.05930 985.85541
961.0 0.001041 482.56262 1051.60046
1056.0 0.000947 482.06647 1134.24316
1190.0 0.000840 481.57086 1233.61145
1310.0 0.000763 481.07584 1346.16992
1399.0 0.000715 480.58127 1462.62903
1513.0 0.000661 480.08749 1566.81909
1584.0 0.000631 479.59412 1639.44971
1697.0 0.000589 479.10132 1667.48254
1673.0 0.000598 478.60913 1651.00232
1584.0 0.000631 478.11746 1599.13147
1490.0 0.000671 477.62643 1520.97058
1369.0 0.000730 477.13586 1423.10974
1325.0 0.000755 476.64590 1313.18213
1197.0 0.000835 476.15671 1201.05139
1076.0 0.000929 475.66791 1095.78101
942.0 0.001062 475.17969 1002.91498
912.0 0.001096 474.69217 924.33887
773.0 0.001294 474.20517 859.53180
812.0 0.001232 473.71878 806.84290
681.0 0.001468 473.23294 764.32330
702.0 0.001425 472.74768 730.13861
655.0 0.001527 472.26312 702.70642
630.0 0.001587 471.77921 680.72601
630.0 0.001587 471.29578 663.20056
640.0 0.001563 470.81302 649.46326
615.0 0.001626 470.33087 639.22217
610.0 0.001639 469.84927 632.71942
610.0 0.001639 469.36841 631.13446
615.0 0.001626 468.88803 637.25989
666.0 0.001502 468.40826 656.11133
713.0 0.001403 467.92932 694.58331
751.0 0.001332 467.45090 758.86902
835.0 0.001198 466.97302 848.69922
980.0 0.001020 466.49582 950.26093
1109.0 0.000902 466.01926 1036.48499
1109.0 0.000902 465.54337 1075.06348
1211.0 0.000826 465.06805 1053.25073
1069.0 0.000935 464.59344 1000.30609
1005.0 0.000995 464.11951 944.66638
949.0 0.001054 463.64618 889.26416
900.0 0.001111 463.17346 828.52460
829.0 0.001206 462.70135 775.01648
801.0 0.001248 462.22998 750.59290
824.0 0.001214 461.75928 766.94159
906.0 0.001104 461.28915 819.27026
955.0 0.001047 460.81973 884.43201
986.0 0.001014 460.35095 926.60272
1063.0 0.000941 459.88293 919.75586
986.0 0.001014 459.41559 876.84174
894.0 0.001119 458.94873 829.14008
847.0 0.001181 458.48264 786.58081
767.0 0.001304 458.01727 739.60706
692.0 0.001445 457.55246 685.22754
681.0 0.001468 457.08838 635.33936
625.0 0.001600 456.62494 601.94745
595.0 0.001681 456.16238 588.55731
600.0 0.001667 455.70032 596.08929
650.0 0.001538 455.23911 622.36206
686.0 0.001458 454.77835 662.55859
745.0 0.001342 454.31845 706.57507
767.0 0.001304 453.85919 742.97260
853.0 0.001172 453.40057 762.97723
773.0 0.001294 452.94278 773.17303
756.0 0.001323 452.48560 786.83936
801.0 0.001248 452.02917 805.46924
767.0 0.001304 451.57343 817.82080
767.0 0.001304 451.11835 811.96826
773.0 0.001294 450.66412 788.44958
708.0 0.001412 450.21036 757.21045
702.0 0.001425 449.75751 726.53394
660.0 0.001515 449.30530 696.91412
635.0 0.001575 448.85382 665.60883
635.0 0.001575 448.40308 633.40234
610.0 0.001639 447.95309 603.94727
586.0 0.001706 447.50375 579.84332
552.0 0.001812 447.05521 561.72205
538.0 0.001859 446.60736 549.12262
534.0 0.001873 446.16019 541.23712
586.0 0.001706 445.71381 537.26367
566.0 0.001767 445.26807 536.55713
562.0 0.001779 444.82321 538.68036
581.0 0.001721 444.37903 543.38275
520.0 0.001923 443.93549 550.51843
543.0 0.001842 443.49283 559.90161
571.0 0.001751 443.05090 571.08624
562.0 0.001779 442.60962 583.09167
620.0 0.001613 442.16922 594.26471
666.0 0.001502 441.72943 602.66888
605.0 0.001653 441.29050 607.08240
600.0 0.001667 440.85233 607.70947
576.0 0.001736 440.41486 605.68439
615.0 0.001626 439.97803 602.04803
640.0 0.001563 439.54211 597.48590
620.0 0.001613 439.10693 592.80835
571.0 0.001751 438.67255 589.21429
615.0 0.001626 438.23883 588.00397
640.0 0.001563 437.80588 590.24048
650.0 0.001538 437.37384 596.67731
645.0 0.001550 436.94244 607.85095
697.0 0.001435 436.51184 624.18433
702.0 0.001425 436.08206 645.85242
686.0 0.001458 435.65298 672.77710
790.0 0.001266 435.22461 704.16785
790.0 0.001266 434.79718 738.06580
812.0 0.001232 434.37045 771.06305
864.0 0.001157 433.94452 798.85620
876.0 0.001142 433.51950 818.22217
894.0 0.001119 433.09500 828.94244
864.0 0.001157 432.67148 833.78186
864.0 0.001157 432.24863 836.56012
924.0 0.001082 431.82663 840.73145
882.0 0.001134 431.40540 849.58832
841.0 0.001189 430.98502 866.69128
918.0 0.001089 430.56537 895.02539
888.0 0.001126 430.14658 934.89343
942.0 0.001062 429.72849 981.22168
949.0 0.001054 429.31125 1021.88306
1037.0 0.000964 428.89481 1041.83972
1024.0 0.000977 428.47919 1033.90222
942.0 0.001062 428.06433 1004.16156
888.0 0.001126 427.65024 960.08209
870.0 0.001149 427.23697 910.67584
824.0 0.001214 426.82468 853.16278
767.0 0.001304 426.41302 790.23047
702.0 0.001425 426.00226 726.58179
686.0 0.001458 425.59219 671.39587
625.0 0.001600 425.18298 625.41162
557.0 0.001795 424.77463 588.66058
576.0 0.001736 424.36703 560.00421
548.0 0.001825 423.96024 537.95184
548.0 0.001825 423.55447 521.04456
484.0 0.002066 423.14935 508.01581
511.0 0.001957 422.74506 497.84631
506.0 0.001976 422.34164 489.76624
454.0 0.002203 421.93890 483.22125
488.0 0.002049 421.53711 477.82877
467.0 0.002141 421.13608 473.33209
454.0 0.002203 420.73587 469.56155
449.0 0.002227 420.33667 466.41144
480.0 0.002083 419.93811 463.82736
480.0 0.002083 419.54044 461.82281
458.0 0.002183 419.14352 460.54871
454.0 0.002203 418.74753 460.46820
511.0 0.001957 418.35236 462.66089
484.0 0.002066 417.95795 469.10437
502.0 0.001992 417.56439 482.44867
480.0 0.002083 417.17181 504.62747
538.0 0.001859 416.77997 534.26636
562.0 0.001779 416.38889 564.59973
566.0 0.001767 415.99881 584.57184
586.0 0.001706 415.60934 585.60352
520.0 0.001923 415.22095 571.61902
529.0 0.001890 414.83325 554.27997
538.0 0.001859 414.44641 539.14972
484.0 0.002066 414.06049 523.66467
458.0 0.002183 413.67542 504.53748
502.0 0.001992 413.29114 483.02182
462.0 0.002165 412.90771 465.28577
484.0 0.002066 412.52505 452.59003
462.0 0.002165 412.14331 444.70511
388.0 0.002577 411.76245 439.82687
467.0 0.002141 411.38242 437.41995
493.0 0.002028 411.00327 436.00027
458.0 0.002183 410.62497 435.08215
467.0 0.002141 410.24750 434.40594
437.0 0.002288 409.87085 433.91150
433.0 0.002309 409.49500 433.62897
449.0 0.002227 409.12006 433.40952
441.0 0.002268 408.74600 433.29977
437.0 0.002288 408.37280 433.30884
449.0 0.002227 408.00046 433.45996
428.0 0.002336 407.62888 433.69009
445.0 0.002247 407.25833 433.92261
454.0 0.002203 406.88855 434.38916
497.0 0.002012 406.51959 434.98419
449.0 0.002227 406.15149 435.71844
458.0 0.002183 405.78430 436.60519
428.0 0.002336 405.41791 437.66318
433.0 0.002309 405.05243 438.90726
454.0 0.002203 404.68777 440.36331
433.0 0.002309 404.32407 442.06039
458.0 0.002183 403.96121 444.29703
428.0 0.002336 403.59912 446.59079
420.0 0.002381 403.23788 449.25259
416.0 0.002404 402.87766 452.34470
454.0 0.002203 402.51816 455.94568
433.0 0.002309 402.15948 460.28644
445.0 0.002247 401.80179 465.23517
480.0 0.002083 401.44504 471.09409
445.0 0.002247 401.08896 478.09909
471.0 0.002123 400.73386 486.57806
458.0 0.002183 400.37958 496.98871
493.0 0.002028 400.02618 509.96396
497.0 0.002012 399.67361 526.36023
562.0 0.001779 399.32190 547.42676
610.0 0.001639 398.97113 574.30200
571.0 0.001751 398.62112 608.76587
645.0 0.001550 398.27213 652.51227
666.0 0.001502 397.92395 707.59479
762.0 0.001312 397.57657 775.39337
858.0 0.001166 397.23016 856.18640
942.0 0.001062 396.88455 948.68268
967.0 0.001034 396.53983 1045.81140
1082.0 0.000924 396.19589 1136.18652
1136.0 0.000880 395.85291 1204.06677
1176.0 0.000850 395.51083 1237.07886
1204.0 0.000831 395.16956 1234.37854
1156.0 0.000865 394.82916 1204.05664
1102.0 0.000907 394.48965 1155.34521
1089.0 0.000918 394.15097 1092.32837
1011.0 0.000989 393.81317 1017.09436
930.0 0.001075 393.47623 934.98450
841.0 0.001189 393.14014 852.54913
767.0 0.001304 392.80505 776.76062
713.0 0.001403 392.47070 711.18060
666.0 0.001502 392.13721 656.70142
590.0 0.001695 391.80466 612.87170
590.0 0.001695 391.47293 577.89423
552.0 0.001812 391.14203 550.48242
515.0 0.001942 390.81210 529.21661
515.0 0.001942 390.48291 512.88269
515.0 0.001942 390.15463 500.51929
471.0 0.002123 389.82742 491.43100
441.0 0.002268 389.50085 485.18292
488.0 0.002049 389.17511 481.56799
471.0 0.002123 388.85034 480.53717
471.0 0.002123 388.52643 482.07721
488.0 0.002049 388.20337 486.04846
441.0 0.002268 387.88120 492.01846
484.0 0.002066 387.55975 499.06415
458.0 0.002183 387.23944 505.45056
480.0 0.002083 386.91980 508.59930
471.0 0.002123 386.60104 506.63260
493.0 0.002028 386.28314 500.36676
458.0 0.002183 385.96613 492.17355
480.0 0.002083 385.64990 483.40262
445.0 0.002247 385.33466 473.89423
454.0 0.002203 385.02014 463.19171
441.0 0.002268 384.70670 452.40756
424.0 0.002358 384.39389 442.50195
420.0 0.002381 384.08203 434.11340
449.0 0.002227 383.77109 427.35321
412.0 0.002427 383.46091 421.99554
428.0 0.002336 383.15155 417.90585
388.0 0.002577 382.84320 415.16574
396.0 0.002525 382.53561 412.68170
400.0 0.002500 382.22888 410.67920
420.0 0.002381 381.92310 409.01971
404.0 0.002475 381.61798 407.61148
388.0 0.002577 381.31387 406.60681
428.0 0.002336 381.01053 405.54758
424.0 0.002358 380.70804 404.61816
396.0 0.002525 380.40649 403.80185
408.0 0.002451 380.10571 403.08673
408.0 0.002451 379.80585 402.46448
424.0 0.002358 379.50684 401.92935
404.0 0.002475 379.20856 401.19193
416.0 0.002404 378.91122 400.82690
396.0 0.002525 378.61469 400.54507
408.0 0.002451 378.31900 400.34827
380.0 0.002632 378.02420 399.61453
372.0 0.002688 377.73019 399.61295
384.0 0.002604 377.43707 399.71765
437.0 0.002288 377.14478 399.94238
380.0 0.002632 376.85336 400.30499
404.0 0.002475 376.56271 400.83078
392.0 0.002551 376.27292 401.55396
408.0 0.002451 375.98404 402.52399
396.0 0.002525 375.69592 403.82040
388.0 0.002577 375.40863 405.59436
424.0 0.002358 375.12216 408.17572
412.0 0.002427 374.83655 412.30743
445.0 0.002247 374.55188 419.53445
400.0 0.002500 374.26785 432.60318
458.0 0.002183 373.98480 455.39328
441.0 0.002268 373.70251 491.69525
538.0 0.001859 373.42105 542.50616
562.0 0.001779 373.14044 602.55273
686.0 0.001458 372.86063 658.54596
681.0 0.001468 372.58170 693.12445
708.0 0.001412 372.30359 696.17877
676.0 0.001479 372.02621 677.77582
655.0 0.001527 371.74969 656.93976
645.0 0.001550 371.47400 641.76697
650.0 0.001538 371.19919 628.04956
635.0 0.001575 370.92514 609.21844
605.0 0.001653 370.65186 588.17889
581.0 0.001721 370.37946 576.84827
605.0 0.001653 370.10794 589.33655
610.0 0.001639 369.83713 637.74274
734.0 0.001362 369.56714 728.99500
812.0 0.001232 369.29794 860.95990
912.0 0.001096 369.02966 1017.40582
1109.0 0.000902 368.76212 1164.08118
1239.0 0.000807 368.49527 1255.39526
1310.0 0.000763 368.22937 1261.23816
1246.0 0.000803 367.96417 1200.92224
1082.0 0.000924 367.69986 1121.08398
949.0 0.001054 367.43634 1045.35632
961.0 0.001041 367.17355 967.57385
870.0 0.001149 366.91156 874.37811
767.0 0.001304 366.65048 770.79120
708.0 0.001412 366.39008 675.48254
615.0 0.001626 366.13058 600.63293
571.0 0.001751 365.87170 550.15942
515.0 0.001942 365.61383 521.68677
515.0 0.001942 365.35660 509.45670
515.0 0.001942 365.10016 506.71667
511.0 0.001957 364.84454 506.67014
511.0 0.001957 364.58969 504.78000
497.0 0.002012 364.33563 499.57156
488.0 0.002049 364.08228 492.14029
458.0 0.002183 363.82980 483.84317
497.0 0.002012 363.57809 474.91818
497.0 0.002012 363.32709 464.98080
428.0 0.002336 363.07697 454.20206
441.0 0.002268 362.82748 443.52274
471.0 0.002123 362.57886 433.91565
433.0 0.002309 362.33093 425.88666
428.0 0.002336 362.08383 419.52060
396.0 0.002525 361.83749 414.67920
404.0 0.002475 361.59183 411.14124
433.0 0.002309 361.34705 408.67221
428.0 0.002336 361.10303 407.06052
392.0 0.002551 360.85968 406.13120
424.0 0.002358 360.61710 405.75391
408.0 0.002451 360.37531 405.84155
404.0 0.002475 360.13419 406.34467
404.0 0.002475 359.89395 407.24683
449.0 0.002227 359.65436 408.56195
412.0 0.002427 359.41550 410.33438
416.0 0.002404 359.17749 412.64462
420.0 0.002381 358.94009 415.61938
471.0 0.002123 358.70355 419.44516
462.0 0.002165 358.46768 424.38110
449.0 0.002227 358.23251 430.76813
424.0 0.002358 357.99811 439.10480
458.0 0.002183 357.76447 449.72156
458.0 0.002183 357.53159 463.19894
437.0 0.002288 357.29944 480.01166
520.0 0.001923 357.06787 500.38477
515.0 0.001942 356.83716 524.22443
543.0 0.001842 356.60715 550.45947
543.0 0.001842 356.37778 576.79199
566.0 0.001767 356.14920 599.56274
557.0 0.001795 355.92130 615.25769
635.0 0.001575 355.69415 622.85901
595.0 0.001681 355.46780 624.48065
605.0 0.001653 355.24197 623.04840
615.0 0.001626 355.01697 619.95605
581.0 0.001721 354.79260 614.91949
581.0 0.001721 354.56891 607.43585
571.0 0.001751 354.34613 597.85004
571.0 0.001751 354.12381 587.25104
566.0 0.001767 353.90222 577.06854
581.0 0.001721 353.68149 568.08771
557.0 0.001795 353.46127 562.58160
581.0 0.001721 353.24173 560.28479
562.0 0.001779 353.02304 561.28229
538.0 0.001859 352.80493 565.87268
576.0 0.001736 352.58749 574.77844
595.0 0.001681 352.37076 589.05542
635.0 0.001575 352.15469 609.51477
650.0 0.001538 351.93942 637.16675
655.0 0.001527 351.72470 672.86365
745.0 0.001342 351.51068 717.32874
829.0 0.001206 351.29736 771.01715
829.0 0.001206 351.08456 833.56610
930.0 0.001075 350.87259 903.44257
1024.0 0.000977 350.66122 977.17810
1069.0 0.000935 350.45047 1048.60449
1156.0 0.000865 350.24042 1110.77148
1204.0 0.000831 350.03110 1158.32874
1267.0 0.000789 349.82227 1190.52686
1225.0 0.000816 349.61426 1211.17114
1211.0 0.000826 349.40680 1225.59009
1246.0 0.000803 349.19995 1237.66113
1211.0 0.000826 348.99384 1248.40576
1239.0 0.000807 348.78830 1258.51819
1197.0 0.000835 348.58340 1267.46326
1176.0 0.000850 348.37921 1272.23230
1197.0 0.000835 348.17560 1267.61353
1136.0 0.000880 347.97266 1248.61499
1089.0 0.000918 347.77026 1213.76038
1069.0 0.000935 347.56857 1166.76306
1076.0 0.000929 347.36743 1112.41345
973.0 0.001028 347.16693 1053.58618
955.0 0.001047 346.96701 990.90558
906.0 0.001104 346.76791 925.10950
864.0 0.001157 346.56915 858.69067
790.0 0.001266 346.37122 795.14648
681.0 0.001468 346.17374 737.54266
702.0 0.001425 345.97699 687.55457
620.0 0.001613 345.78079 645.59454
581.0 0.001721 345.58517 611.27875
566.0 0.001767 345.39014 583.86896
543.0 0.001842 345.19574 562.49506
562.0 0.001779 345.00192 546.36108
543.0 0.001842 344.80875 534.80005
552.0 0.001812 344.61609 527.08514
524.0 0.001908 344.42401 523.31970
557.0 0.001795 344.23257 523.35870
511.0 0.001957 344.04172 526.73792
534.0 0.001873 343.85132 533.84302
524.0 0.001908 343.66165 544.93018
562.0 0.001779 343.47250 560.46039
605.0 0.001653 343.28391 580.86359
630.0 0.001587 343.09589 606.71313
655.0 0.001527 342.90839 638.04413
676.0 0.001479 342.72147 674.81781
708.0 0.001412 342.53510 716.06171
762.0 0.001312 342.34933 759.50317
818.0 0.001222 342.16409 801.21826
824.0 0.001214 341.97946 835.96667
853.0 0.001172 341.79532 858.71674
900.0 0.001111 341.61176 866.81818
870.0 0.001149 341.42871 861.03027
835.0 0.001198 341.24625 844.27765
778.0 0.001285 341.06427 819.40021
824.0 0.001214 340.88275 788.04938
778.0 0.001285 340.70193 751.31390
702.0 0.001425 340.52161 710.84930
645.0 0.001550 340.34167 669.09546
655.0 0.001527 340.16235 628.65613
600.0 0.001667 339.98352 591.46179
605.0 0.001653 339.80536 558.55530
543.0 0.001842 339.62753 530.22913
493.0 0.002028 339.45032 506.30212
484.0 0.002066 339.27362 486.35059
454.0 0.002203 339.09738 469.85928
471.0 0.002123 338.92157 456.32870
475.0 0.002105 338.74643 445.23471
424.0 0.002358 338.57169 436.17398
454.0 0.002203 338.39749 428.79028
408.0 0.002451 338.22375 422.79422
420.0 0.002381 338.05054 417.96188
416.0 0.002404 337.87784 414.13968
420.0 0.002381 337.70557 411.20206
428.0 0.002336 337.53372 409.12509
428.0 0.002336 337.36240 407.99261
441.0 0.002268 337.19159 408.15109
404.0 0.002475 337.02124 410.53824
384.0 0.002604 336.85138 417.25223
437.0 0.002288 336.68201 432.16260
445.0 0.002247 336.51309 460.88016
497.0 0.002012 336.34470 509.04718
552.0 0.001812 336.17657 578.47540
645.0 0.001550 336.00916 662.44861
729.0 0.001372 335.84198 742.76880
778.0 0.001285 335.67542 794.65869
818.0 0.001222 335.50922 800.99677
724.0 0.001381 335.34338 769.92578
666.0 0.001502 335.17810 727.43958
660.0 0.001515 335.01328 691.55176
660.0 0.001515 334.84875 662.65625
692.0 0.001445 334.68484 630.55109
640.0 0.001563 334.52133 588.77710
538.0 0.001859 334.35818 542.69745
529.0 0.001890 334.19550 501.75128
471.0 0.002123 334.03323 472.09637
471.0 0.002123 333.87137 455.56696
445.0 0.002247 333.71005 450.59250
502.0 0.001992 333.54901 454.44431
462.0 0.002165 333.38843 464.82401
511.0 0.001957 333.22821 480.21323
557.0 0.001795 333.06845 500.66669
562.0 0.001779 332.90906 525.89130
581.0 0.001721 332.75006 555.77557
635.0 0.001575 332.59149 589.69659
630.0 0.001587 332.43341 626.02271
686.0 0.001458 332.27560 661.67487
713.0 0.001403 332.11819 692.22760
773.0 0.001294 331.96124 713.16101
734.0 0.001362 331.80457 721.99451
751.0 0.001332 331.64847 719.50531
713.0 0.001403 331.49258 708.61639
729.0 0.001372 331.33707 692.07648
708.0 0.001412 331.18207 671.21844
671.0 0.001490 331.02734 646.57489
655.0 0.001527 330.87296 619.22729
635.0 0.001575 330.71899 591.36322
566.0 0.001767 330.56537 565.76373
586.0 0.001706 330.41211 545.13556
557.0 0.001795 330.25919 531.93494
529.0 0.001890 330.10660 528.52191
511.0 0.001957 329.95453 537.12457
552.0 0.001812 329.80267 559.28131
590.0 0.001695 329.65118 594.73022
635.0 0.001575 329.50003 639.96143
630.0 0.001587 329.34921 686.76160
734.0 0.001362 329.19876 722.00946
778.0 0.001285 329.04865 733.11249
762.0 0.001312 328.89883 719.41766
751.0 0.001332 328.74939 692.89313
713.0 0.001403 328.60022 665.04608
692.0 0.001445 328.45145 639.05579
676.0 0.001479 328.30292 611.67249
630.0 0.001587 328.15475 579.09705
640.0 0.001563 328.00690 543.42664
576.0 0.001736 327.85944 510.09995
534.0 0.001873 327.71213 483.32617
534.0 0.001873 327.56528 465.90094
497.0 0.002012 327.41867 460.15781
543.0 0.001842 327.27231 469.52420
576.0 0.001736 327.12637 499.01511
552.0 0.001812 326.98068 554.08472
640.0 0.001563 326.83530 637.15558
745.0 0.001342 326.69016 742.72803
870.0 0.001149 326.54532 853.55878
999.0 0.001001 326.40076 942.03235
1037.0 0.000964 326.25650 982.37054
1063.0 0.000941 326.11264 972.37219
961.0 0.001041 325.96890 938.25549
900.0 0.001111 325.82553 907.96552
912.0 0.001096 325.68234 891.68671
949.0 0.001054 325.53949 883.03076
936.0 0.001068 325.39688 871.37274
918.0 0.001089 325.25458 855.79126
853.0 0.001172 325.11246 843.51013
829.0 0.001206 324.97067 839.07318
853.0 0.001172 324.82919 842.38458
841.0 0.001189 324.68787 853.06842
841.0 0.001189 324.54688 872.59277
847.0 0.001181 324.40607 901.35815
853.0 0.001172 324.26553 934.89478
882.0 0.001134 324.12518 963.11469
918.0 0.001089 323.98520 974.14972
930.0 0.001075 323.84537 961.44208
949.0 0.001054 323.70581 928.08826
894.0 0.001119 323.56656 883.60516
824.0 0.001214 323.42743 836.49951
824.0 0.001214 323.28851 789.19189
745.0 0.001342 323.14993 740.65051
686.0 0.001458 323.01154 689.58075
676.0 0.001479 322.87332 637.57141
576.0 0.001736 322.73541 588.16840
548.0 0.001825 322.59763 544.26404
520.0 0.001923 322.46008 507.36111
471.0 0.002123 322.32275 477.30475
475.0 0.002105 322.18570 453.43399
488.0 0.002049 322.04874 434.73984
428.0 0.002336 321.91208 420.22345
420.0 0.002381 321.77560 408.40494
408.0 0.002451 321.63928 399.68561
404.0 0.002475 321.50323 392.93857
384.0 0.002604 321.36740 387.72336
396.0 0.002525 321.23169 383.75684
372.0 0.002688 321.09610 380.55157
380.0 0.002632 320.96091 378.54922
369.0 0.002710 320.82571 377.44333
369.0 0.002710 320.69080 377.29044
384.0 0.002604 320.55600 378.24911
408.0 0.002451 320.42142 380.20261
376.0 0.002660 320.28708 384.52213
396.0 0.002525 320.15283 391.41370
420.0 0.002381 320.01883 401.52383
384.0 0.002604 319.88489 415.15005
396.0 0.002525 319.75119 431.54044
424.0 0.002358 319.61761 449.37778
441.0 0.002268 319.48419 465.18832
458.0 0.002183 319.35104 474.88922
462.0 0.002165 319.21799 476.08212
467.0 0.002141 319.08508 470.67188
480.0 0.002083 318.95233 462.83359
484.0 0.002066 318.81964 455.34662
445.0 0.002247 318.68723 448.54904
454.0 0.002203 318.55496 441.24936
420.0 0.002381 318.42279 433.09344
462.0 0.002165 318.29080 425.25391
424.0 0.002358 318.15894 421.01678
458.0 0.002183 318.02719 424.61731
471.0 0.002123 317.89563 442.15915
493.0 0.002028 317.76410 481.78497
543.0 0.001842 317.63278 551.74670
620.0 0.001613 317.50162 655.08557
740.0 0.001351 317.37054 783.89539
894.0 0.001119 317.23965 914.87573
1037.0 0.000964 317.10892 1012.82660
1142.0 0.000876 316.97815 1047.25513
1063.0 0.000941 316.84760 1018.03748
973.0 0.001028 316.71716 958.23413
906.0 0.001104 316.58685 902.41779
841.0 0.001189 316.45663 863.37067
853.0 0.001172 316.32645 832.24866
864.0 0.001157 316.19647 792.89362
790.0 0.001266 316.06665 740.74591
702.0 0.001425 315.93689 687.29626
655.0 0.001527 315.80719 645.03088
615.0 0.001626 315.67764 621.28833
566.0 0.001767 315.54816 616.65308
610.0 0.001639 315.41885 626.04742
590.0 0.001695 315.28949 642.37781
620.0 0.001613 315.16037 658.04346
610.0 0.001639 315.03131 667.50464
620.0 0.001613 314.90228 668.57147
595.0 0.001681 314.77341 661.80316
625.0 0.001600 314.64465 649.07538
566.0 0.001767 314.51590 631.99902
576.0 0.001736 314.38724 611.36133
529.0 0.001890 314.25873 587.44006
524.0 0.001908 314.13028 560.99768
493.0 0.002028 314.00189 533.38550
506.0 0.001976 313.87363 506.20486
458.0 0.002183 313.74530 480.78973
424.0 0.002358 313.61716 457.95261
471.0 0.002123 313.48911 438.01202
380.0 0.002632 313.36102 420.94366
408.0 0.002451 313.23306 406.53006
384.0 0.002604 313.10522 394.46567
404.0 0.002475 312.97742 384.41882
376.0 0.002660 312.84970 376.20004
388.0 0.002577 312.72198 369.25568
365.0 0.002740 312.59430 363.45837
342.0 0.002924 312.46680 358.58945
346.0 0.002890 312.33926 354.46786
342.0 0.002924 312.21182 350.94672
317.0 0.003155 312.08435 347.97452
339.0 0.002950 311.95703 345.32974
320.0 0.003125 311.82980 343.00607
357.0 0.002801 311.70255 341.04449
335.0 0.002985 311.57535 339.21054
324.0 0.003086 311.44818 337.56439
339.0 0.002950 311.32114 336.07983
339.0 0.002950 311.19403 334.78571
339.0 0.002950 311.06708 333.56403
328.0 0.003049 310.94009 332.45004
317.0 0.003155 310.81311 331.48022
279.0 0.00358 310.68628 330.54767
320.0 0.003125 310.55942 329.69266
317.0 0.003155 310.43259 328.97049
320.0 0.003125 310.30585 328.25546
350.0 0.002857 310.17908 327.60629
306.0 0.003268 310.05237 327.01889
310.0 0.003226 309.92569 326.48941
335.0 0.002985 309.79898 326.00919
328.0 0.003049 309.67242 325.56494
328.0 0.003049 309.54581 325.15906
320.0 0.003125 309.41922 324.74533
328.0 0.003049 309.29272 324.34473
339.0 0.002950 309.16620 323.96906
331.0 0.003021 309.03970 323.62811
320.0 0.003125 308.91324 323.32324
313.0 0.003195 308.78674 323.04999
320.0 0.003125 308.66031 322.53073
299.0 0.003344 308.53391 322.31384
324.0 0.003086 308.40750 322.12958
306.0 0.003268 308.28116 321.98523
320.0 0.003125 308.15479 321.88760
303.0 0.003300 308.02847 321.70798
365.0 0.002740 307.90213 321.73529
342.0 0.002924 307.77579 321.86731
342.0 0.002924 307.64951 322.19086
335.0 0.002985 307.52316 322.90210
328.0 0.003049 307.39691 324.38242
317.0 0.003155 307.27060 327.24741
331.0 0.003021 307.14435 332.26184
320.0 0.003125 307.01813 340.11194
357.0 0.002801 306.89178 350.59305
400.0 0.002500 306.76556 362.55295
357.0 0.002801 306.63934 373.48560
396.0 0.002525 306.51306 380.30939
420.0 0.002381 306.38681 381.05441
380.0 0.002632 306.26059 376.85464
365.0 0.002740 306.13437 370.94022
331.0 0.003021 306.00809 365.68219
372.0 0.002688 305.88187 362.02170
380.0 0.002632 305.75562 358.75800
361.0 0.002770 305.62936 354.48801
335.0 0.002985 305.50311 348.91333
335.0 0.002985 305.37692 343.00311
335.0 0.002985 305.25064 337.91058
353.0 0.002833 305.12439 334.27145
328.0 0.003049 304.99811 332.62772
328.0 0.003049 304.87183 332.78674
365.0 0.002740 304.74561 334.59598
335.0 0.002985 304.61932 337.97867
346.0 0.002890 304.49310 342.91461
376.0 0.002660 304.36679 349.25107
369.0 0.002710 304.24045 357.60858
357.0 0.002801 304.11414 367.31085
372.0 0.002688 303.98788 377.56851
365.0 0.002740 303.86154 386.94345
388.0 0.002577 303.73514 393.76385
408.0 0.002451 303.60880 396.59488
396.0 0.002525 303.48251 396.70648
396.0 0.002525 303.35611 395.75058
441.0 0.002268 303.22971 395.19318
400.0 0.002500 303.10336 395.47238
420.0 0.002381 302.97702 396.46817
396.0 0.002525 302.85049 397.91168
404.0 0.002475 302.72415 400.46259
404.0 0.002475 302.59769 405.24228
433.0 0.002309 302.47122 413.30203
437.0 0.002288 302.34476 425.52625
462.0 0.002165 302.21832 441.91986
445.0 0.002247 302.09186 462.71204
497.0 0.002012 301.96527 487.45682
511.0 0.001957 301.83878 514.97357
529.0 0.001890 301.71222 543.03229
562.0 0.001779 301.58575 568.30957
571.0 0.001751 301.45914 586.98749
571.0 0.001751 301.33261 596.30365
566.0 0.001767 301.20599 596.24469
571.0 0.001751 301.07941 589.05164
576.0 0.001736 300.95279 577.47931
520.0 0.001923 300.82611 563.16571
488.0 0.002049 300.69952 546.35199
497.0 0.002012 300.57281 526.80591
458.0 0.002183 300.44617 504.94647
524.0 0.001908 300.31937 482.13965
454.0 0.002203 300.19278 460.11066
437.0 0.002288 300.06604 440.25299
420.0 0.002381 299.93933 423.37036
416.0 0.002404 299.81250 409.78763
408.0 0.002451 299.68582 399.46213
388.0 0.002577 299.55908 392.24692
428.0 0.002336 299.43228 387.89594
408.0 0.002451 299.30539 386.11230
372.0 0.002688 299.17865 386.53873
365.0 0.002740 299.05185 388.71744
396.0 0.002525 298.92499 392.05157
400.0 0.002500 298.79810 395.84860
408.0 0.002451 298.67126 399.49606
408.0 0.002451 298.54440 402.63504
400.0 0.002500 298.41751 405.09323
408.0 0.002451 298.29059 406.69547
372.0 0.002688 298.16367 407.03409
380.0 0.002632 298.03674 405.86334
408.0 0.002451 297.90985 403.17645
361.0 0.002770 297.78293 399.29907
380.0 0.002632 297.65598 394.70822
396.0 0.002525 297.52899 389.81808
384.0 0.002604 297.40201 384.79144
384.0 0.002604 297.27505 379.75946
384.0 0.002604 297.14810 374.86990
369.0 0.002710 297.02112 370.34171
357.0 0.002801 296.89413 366.39594
361.0 0.002770 296.76718 363.26904
372.0 0.002688 296.64008 361.04837
335.0 0.002985 296.51309 359.81979
346.0 0.002890 296.38614 359.63232
361.0 0.002770 296.25909 360.53421
361.0 0.002770 296.13202 362.59094
350.0 0.002857 296.00500 365.89410
380.0 0.002632 295.87805 370.56512
408.0 0.002451 295.75101 376.75101
408.0 0.002451 295.62402 384.62146
420.0 0.002381 295.49695 394.40717
416.0 0.002404 295.36993 406.50601
433.0 0.002309 295.24292 421.58987
454.0 0.002203 295.11591 440.61270
462.0 0.002165 294.98886 464.75281
493.0 0.002028 294.86194 495.33691
524.0 0.001908 294.73492 533.63062
511.0 0.001957 294.60794 580.30286
557.0 0.001795 294.48090 634.48804
630.0 0.001587 294.35388 692.69629
692.0 0.001445 294.22696 748.27209
708.0 0.001412 294.10001 792.16901
756.0 0.001323 293.97302 815.68121
829.0 0.001206 293.84610 815.59784
801.0 0.001248 293.71918 797.60376
784.0 0.001276 293.59222 771.69598
795.0 0.001258 293.46539 745.57953
702.0 0.001425 293.33847 722.91095
724.0 0.001381 293.21161 705.27875
713.0 0.001403 293.08475 695.21613
762.0 0.001312 292.95789 699.36145
708.0 0.001412 292.83109 725.19116
773.0 0.001294 292.70425 774.41644
824.0 0.001214 292.57751 838.30054
924.0 0.001082 292.45074 897.50330
980.0 0.001020 292.32404 928.22607
986.0 0.001014 292.19730 915.92535
942.0 0.001062 292.07065 868.48621
773.0 0.001294 291.94400 809.23700
756.0 0.001323 291.81738 758.23431
702.0 0.001425 291.69077 722.06342
729.0 0.001372 291.56424 693.96051
713.0 0.001403 291.43765 661.92114
676.0 0.001479 291.31116 620.33173
610.0 0.001639 291.18472 573.98279
571.0 0.001751 291.05829 531.88000
552.0 0.001812 290.93188 501.30197
480.0 0.002083 290.80545 485.57544
484.0 0.002066 290.67923 483.83331
502.0 0.001992 290.55295 493.29315
506.0 0.001976 290.42667 509.23752
529.0 0.001890 290.30048 526.90118
543.0 0.001842 290.17435 542.25336
520.0 0.001923 290.04828 553.10968
502.0 0.001992 289.92218 559.67584
581.0 0.001721 289.79611 564.41278
520.0 0.001923 289.67014 569.14539
576.0 0.001736 289.54425 574.57202
576.0 0.001736 289.41846 579.89697
666.0 0.001502 289.29263 583.52557
620.0 0.001613 289.16681 584.10468
557.0 0.001795 289.04120 581.10504
625.0 0.001600 288.91556 574.97211
595.0 0.001681 288.78992 566.99792
557.0 0.001795 288.66443 558.87433
595.0 0.001681 288.53897 552.01752
571.0 0.001751 288.41360 547.07947
576.0 0.001736 288.28830 543.94458
581.0 0.001721 288.16302 541.97766
576.0 0.001736 288.03784 540.51666
557.0 0.001795 287.91272 538.84241
552.0 0.001812 287.78766 536.05865
552.0 0.001812 287.66269 531.17847
515.0 0.001942 287.53781 523.59692
480.0 0.002083 287.41293 513.53424
493.0 0.002028 287.28821 501.85541
475.0 0.002105 287.16348 489.53909
445.0 0.002247 287.03894 477.10413
458.0 0.002183 286.91437 464.53922
441.0 0.002268 286.79001 451.61655
392.0 0.002551 286.66571 438.32852
396.0 0.002525 286.54144 425.04669
372.0 0.002688 286.41730 412.41751
412.0 0.002427 286.29327 400.90152
380.0 0.002632 286.16919 390.92438
369.0 0.002710 286.04535 382.68008
357.0 0.002801 285.92157 376.28003
335.0 0.002985 285.79791 371.85443
376.0 0.002660 285.67432 369.66754
361.0 0.002770 285.55081 370.24802
365.0 0.002740 285.42749 374.20956
361.0 0.002770 285.30420 382.28146
388.0 0.002577 285.18094 395.09305
428.0 0.002336 285.05798 412.65082
433.0 0.002309 284.93494 434.00549
484.0 0.002066 284.81210 456.94373
506.0 0.001976 284.68936 477.91852
493.0 0.002028 284.56677 492.98932
576.0 0.001736 284.44431 500.81824
562.0 0.001779 284.32184 504.85046
543.0 0.001842 284.19965 510.81332
543.0 0.001842 284.07748 523.02167
538.0 0.001859 283.95551 542.55334
595.0 0.001681 283.83356 567.00812
605.0 0.001653 283.71179 591.27008
686.0 0.001458 283.59015 610.56427
697.0 0.001435 283.46866 622.17865
708.0 0.001412 283.34732 627.10504
660.0 0.001515 283.22607 629.44617
708.0 0.001412 283.10495 633.25580
671.0 0.001490 282.98398 640.01471
640.0 0.001563 282.86319 648.29834
676.0 0.001479 282.74249 654.65271
718.0 0.001393 282.62192 655.88898
692.0 0.001445 282.50156 650.86139
676.0 0.001479 282.38135 640.40094
635.0 0.001575 282.26126 626.03369
615.0 0.001626 282.14130 609.24957
581.0 0.001721 282.02145 591.13574
557.0 0.001795 281.90182 572.32684
520.0 0.001923 281.78235 553.11664
515.0 0.001942 281.66309 533.66547
488.0 0.002049 281.54388 514.19598
445.0 0.002247 281.42493 495.06650
471.0 0.002123 281.30606 476.76712
420.0 0.002381 281.18741 459.80026
400.0 0.002500 281.06891 444.59695
396.0 0.002525 280.95062 431.46057
392.0 0.002551 280.83246 420.55011
392.0 0.002551 280.71445 411.89551
412.0 0.002427 280.59668 405.42902
388.0 0.002577 280.47903 401.02948
388.0 0.002577 280.36160 398.48486
384.0 0.002604 280.24432 397.55716
404.0 0.002475 280.12723 397.97708
372.0 0.002688 280.01035 399.27628
396.0 0.002525 279.89368 401.72577
433.0 0.002309 279.77719 405.14313
424.0 0.002358 279.66077 409.72476
396.0 0.002525 279.54468 415.73721
424.0 0.002358 279.42874 423.34589
408.0 0.002451 279.31299 432.58627
462.0 0.002165 279.19745 443.28967
458.0 0.002183 279.08209 455.07819
458.0 0.002183 278.96692 467.31842
454.0 0.002203 278.85202 479.06424
475.0 0.002105 278.73724 489.04562
480.0 0.002083 278.62274 496.00043
493.0 0.002028 278.50842 499.12912
515.0 0.001942 278.39438 498.48737
493.0 0.002028 278.28049 494.89432
520.0 0.001923 278.16672 489.42081
484.0 0.002066 278.05331 482.86774
462.0 0.002165 277.94009 475.55856
511.0 0.001957 277.82709 467.54907
458.0 0.002183 277.71429 458.96136
449.0 0.002227 277.60172 450.23853
445.0 0.002247 277.48941 442.01773
424.0 0.002358 277.37726 435.03116
428.0 0.002336 277.26541 429.82782
424.0 0.002358 277.15369 426.71561
404.0 0.002475 277.04230 425.77548
445.0 0.002247 276.93109 426.91766
449.0 0.002227 276.82022 429.97198
454.0 0.002203 276.70950 434.74426
441.0 0.002268 276.59900 441.16617
467.0 0.002141 276.48883 449.28262
484.0 0.002066 276.37881 459.19357
458.0 0.002183 276.26910 470.89471
506.0 0.001976 276.15964 484.08542
511.0 0.001957 276.05042 498.00119
502.0 0.001992 275.94141 511.36639
502.0 0.001992 275.83267 522.63647
534.0 0.001873 275.72424 530.43951
502.0 0.001992 275.61603 534.43854
493.0 0.002028 275.50806 535.44110
493.0 0.002028 275.40039 534.92841
471.0 0.002123 275.29297 534.24213
529.0 0.001890 275.18579 534.05304
502.0 0.001992 275.07886 534.39142
571.0 0.001751 274.97220 534.89148
566.0 0.001767 274.86584 535.29022
552.0 0.001812 274.75980 535.83856
548.0 0.001825 274.65396 536.47473
538.0 0.001859 274.54843 537.02856
571.0 0.001751 274.44321 537.15222
576.0 0.001736 274.33820 536.59229
548.0 0.001825 274.23343 535.51495
562.0 0.001779 274.12894 534.38409
557.0 0.001795 274.02481 534.15845
534.0 0.001873 273.92096 535.67786
538.0 0.001859 273.81738 539.46454
515.0 0.001942 273.71411 545.86102
543.0 0.001842 273.61105 554.90179
557.0 0.001795 273.50833 566.33710
543.0 0.001842 273.40598 579.35687
595.0 0.001681 273.30380 592.35663
566.0 0.001767 273.20190 602.85718
576.0 0.001736 273.10040 608.38007
610.0 0.001639 272.99921 607.89722
600.0 0.001667 272.89819 602.67041
600.0 0.001667 272.79758 595.11877
586.0 0.001706 272.69714 587.09808
581.0 0.001721 272.59714 578.77728
571.0 0.001751 272.49741 568.96002
552.0 0.001812 272.39795 556.02435
520.0 0.001923 272.29886 539.32227
529.0 0.001890 272.20001 519.56183
493.0 0.002028 272.10150 498.45435
493.0 0.002028 272.00330 477.60135
428.0 0.002336 271.90540 457.93854
433.0 0.002309 271.80780 439.79886
412.0 0.002427 271.71060 423.10794
392.0 0.002551 271.61362 407.70163
369.0 0.002710 271.51691 393.33911
357.0 0.002801 271.42062 380.42865
369.0 0.002710 271.32465 368.88358
376.0 0.002660 271.22894 358.75641
353.0 0.002833 271.13364 350.03079
320.0 0.003125 271.03854 342.63275
357.0 0.002801 270.94382 336.35468
299.0 0.003344 270.84946 331.28650
313.0 0.003195 270.75537 327.22076
331.0 0.003021 270.66168 324.07889
310.0 0.003226 270.56821 321.81418
331.0 0.003021 270.47516 320.42160
313.0 0.003195 270.38245 319.94089
324.0 0.003086 270.29001 320.45551
328.0 0.003049 270.19797 322.07846
335.0 0.002985 270.10614 324.92618
317.0 0.003155 270.01471 329.07928
339.0 0.002950 269.92365 334.52191
339.0 0.002950 269.83289 341.10349
328.0 0.003049 269.74252 348.46268
339.0 0.002950 269.65244 355.94080
369.0 0.002710 269.56262 362.54028
372.0 0.002688 269.47324 367.09711
372.0 0.002688 269.38422 368.86981
342.0 0.002924 269.29544 368.10510
339.0 0.002950 269.20700 365.87143
328.0 0.003049 269.11902 363.39575
365.0 0.002740 269.03134 361.48965
369.0 0.002710 268.94394 360.45245
353.0 0.002833 268.85690 360.25955
342.0 0.002924 268.77023 360.93008
388.0 0.002577 268.68393 362.82132
369.0 0.002710 268.59793 366.50043
357.0 0.002801 268.51230 372.36002
369.0 0.002710 268.42694 380.33978
376.0 0.002660 268.34198 389.73737
420.0 0.002381 268.25739 399.10641
408.0 0.002451 268.17313 406.39722
384.0 0.002604 268.08914 409.72247
400.0 0.002500 268.00565 408.51361
428.0 0.002336 267.92242 403.86996
388.0 0.002577 267.83951 397.61011
396.0 0.002525 267.75699 391.10962
404.0 0.002475 267.67480 384.84491
380.0 0.002632 267.59296 378.33252
357.0 0.002801 267.51147 370.98029
400.0 0.002500 267.43033 362.57675
365.0 0.002740 267.34955 353.62155
353.0 0.002833 267.26907 344.90994
335.0 0.002985 267.18903 337.08572
353.0 0.002833 267.10916 330.49518
361.0 0.002770 267.02985 325.28091
353.0 0.002833 266.95081 321.39038
328.0 0.003049 266.87204 318.78925
339.0 0.002950 266.79373 317.39511
328.0 0.003049 266.71570 317.14432
313.0 0.003195 266.63803 317.99945
320.0 0.003125 266.56064 319.97324
317.0 0.003155 266.48370 323.05911
317.0 0.003155 266.40717 327.54947
313.0 0.003195 266.33084 333.49933
331.0 0.003021 266.25488 340.96109
346.0 0.002890 266.17926 349.77469
339.0 0.002950 266.10403 359.45016
372.0 0.002688 266.02917 369.12271
384.0 0.002604 265.95453 377.59720
400.0 0.002500 265.88040 383.86786
445.0 0.002247 265.80652 387.52316
433.0 0.002309 265.73300 389.36334
408.0 0.002451 265.65985 390.83511
408.0 0.002451 265.58698 393.52271
412.0 0.002427 265.51447 398.22110
412.0 0.002427 265.44229 405.20215
441.0 0.002268 265.37045 414.33157
454.0 0.002203 265.29895 425.44116
445.0 0.002247 265.22775 438.60620
449.0 0.002227 265.15698 453.89218
462.0 0.002165 265.08655 471.01590
488.0 0.002049 265.01633 488.70242
534.0 0.001873 264.94656 504.88626
497.0 0.002012 264.87708 517.13208
493.0 0.002028 264.80798 523.62195
529.0 0.001890 264.73911 523.98383
529.0 0.001890 264.67056 519.30481
520.0 0.001923 264.60248 511.36563
484.0 0.002066 264.53464 501.69473
480.0 0.002083 264.46710 490.98505
475.0 0.002105 264.39993 479.11264
484.0 0.002066 264.33301 465.77875
462.0 0.002165 264.26648 451.02759
441.0 0.002268 264.20023 435.48285
433.0 0.002309 264.13431 420.03033
404.0 0.002475 264.06873 405.63065
412.0 0.002427 264.00342 392.98752
400.0 0.002500 263.93851 382.54465
404.0 0.002475 263.87387 374.52988
357.0 0.002801 263.80948 369.11584
350.0 0.002857 263.74542 366.46609
361.0 0.002770 263.68170 366.73199
388.0 0.002577 263.61832 370.10046
388.0 0.002577 263.55521 376.66342
388.0 0.002577 263.49237 386.36554
396.0 0.002525 263.42990 398.67172
445.0 0.002247 263.36765 412.72528
404.0 0.002475 263.30569 426.98102
441.0 0.002268 263.24408 439.36380
484.0 0.002066 263.18277 447.78375
484.0 0.002066 263.12170 451.49249
480.0 0.002083 263.06094 451.96066
484.0 0.002066 263.00052 451.79065
467.0 0.002141 262.94028 453.06226
433.0 0.002309 262.88037 456.78864
493.0 0.002028 262.82074 462.85529
471.0 0.002123 262.76138 470.68060
480.0 0.002083 262.70227 480.26456
548.0 0.001825 262.64346 493.11176
543.0 0.001842 262.58493 512.01617
543.0 0.001842 262.52667 539.49518
562.0 0.001779 262.46866 575.79260
605.0 0.001653 262.41089 617.42200
640.0 0.001563 262.35336 656.89581
708.0 0.001412 262.29614 684.13226
745.0 0.001342 262.23920 690.39648
686.0 0.001458 262.18240 673.95367
676.0 0.001479 262.12598 641.93884
571.0 0.001751 262.06970 605.20929
534.0 0.001873 262.01367 572.28540
520.0 0.001923 261.95795 546.44257
562.0 0.001779 261.90240 525.57971
529.0 0.001890 261.84708 504.50375
520.0 0.001923 261.79199 479.03442
502.0 0.001992 261.73721 448.96173
458.0 0.002183 261.68259 417.32584
400.0 0.002500 261.62820 388.01852
388.0 0.002577 261.57401 364.30630
392.0 0.002551 261.52011 348.25244
365.0 0.002740 261.46628 341.56064
372.0 0.002688 261.41272 345.41489
369.0 0.002710 261.35941 361.49557
420.0 0.002381 261.30624 391.61215
433.0 0.002309 261.25330 436.56082
484.0 0.002066 261.20047 494.52591
493.0 0.002028 261.14795 559.55896
581.0 0.001721 261.09558 621.87549
686.0 0.001458 261.04337 668.66394
740.0 0.001351 260.99139 689.01019
702.0 0.001425 260.93951 680.64581
681.0 0.001468 260.88788 652.19452
595.0 0.001681 260.83630 616.97034
557.0 0.001795 260.78491 585.61304
552.0 0.001812 260.73376 562.38361
538.0 0.001859 260.68277 544.98047
543.0 0.001842 260.63187 526.98383
557.0 0.001795 260.58112 502.80600
497.0 0.002012 260.53046 471.61624
428.0 0.002336 260.48001 436.84299
424.0 0.002358 260.42975 403.03149
365.0 0.002740 260.37949 373.87595
339.0 0.002950 260.32947 351.35736
331.0 0.003021 260.27951 335.71750
331.0 0.003021 260.22968 325.95792
335.0 0.002985 260.17993 320.52176
331.0 0.003021 260.13031 317.79980
303.0 0.003300 260.08078 316.56207
339.0 0.002950 260.03140 315.79987
299.0 0.003344 259.98203 314.93454
299.0 0.003344 259.93283 313.83682
286.0 0.003497 259.88364 312.74103
313.0 0.003195 259.83459 311.95917
299.0 0.003344 259.78561 311.78577
292.0 0.003425 259.73666 312.38266
324.0 0.003086 259.68777 313.78534
339.0 0.002950 259.63904 315.95551
328.0 0.003049 259.59024 318.87039
328.0 0.003049 259.54147 322.56015
331.0 0.003021 259.49286 327.04111
320.0 0.003125 259.44421 332.20297
331.0 0.003021 259.39566 337.82544
350.0 0.002857 259.34708 343.59857
369.0 0.002710 259.29855 349.25632
376.0 0.002660 259.25003 354.50375
372.0 0.002688 259.20151 359.22244
339.0 0.002950 259.15302 363.26495
369.0 0.002710 259.10455 366.52640
384.0 0.002604 259.05609 368.95618
357.0 0.002801 259.00757 370.45102
369.0 0.002710 258.95898 370.97018
365.0 0.002740 258.91043 370.16031
384.0 0.002604 258.86185 367.81342
331.0 0.003021 258.81329 364.01468
353.0 0.002833 258.76462 359.34717
342.0 0.002924 258.71594 354.58914
339.0 0.002950 258.66724 350.32010
328.0 0.003049 258.61844 346.99881
369.0 0.002710 258.56955 344.59528
342.0 0.002924 258.52069 342.83994
350.0 0.002857 258.47162 341.41815
353.0 0.002833 258.42261 340.17084
296.0 0.003378 258.37338 339.07263
320.0 0.003125 258.32422 338.11075
328.0 0.003049 258.27481 337.15689
353.0 0.002833 258.22543 336.07352
310.0 0.003226 258.17584 334.73666
310.0 0.003226 258.12616 333.12323
328.0 0.003049 258.07635 331.31903
299.0 0.003344 258.02643 329.46204
317.0 0.003155 257.97635 327.67166
335.0 0.002985 257.92618 325.86829
317.0 0.003155 257.87579 324.30496
317.0 0.003155 257.82532 322.81769
317.0 0.003155 257.77469 321.37747
299.0 0.003344 257.72382 319.95743
320.0 0.003125 257.67279 318.50067
320.0 0.003125 257.62158 316.65079
335.0 0.002985 257.57022 314.86380
303.0 0.003300 257.51865 312.92004
310.0 0.003226 257.46683 311.00937
313.0 0.003195 257.41483 309.37955
289.0 0.003460 257.36267 308.23828
339.0 0.002950 257.31027 307.70352
282.0 0.00355 257.25760 307.81271
310.0 0.003226 257.20468 308.57648
286.0 0.003497 257.15158 310.02051
306.0 0.003268 257.09821 312.26688
296.0 0.003378 257.04456 315.49304
306.0 0.003268 256.99066 319.88000
328.0 0.003049 256.93646 325.56348
357.0 0.002801 256.88202 332.59616
303.0 0.003300 256.82730 340.90707
335.0 0.002985 256.77225 350.24081
331.0 0.003021 256.71689 360.09601
353.0 0.002833 256.66129 369.70993
346.0 0.002890 256.60535 378.15775
369.0 0.002710 256.54901 384.58401
335.0 0.002985 256.49246 388.44287
392.0 0.002551 256.43549 389.60867
353.0 0.002833 256.37820 388.35440
350.0 0.002857 256.32059 385.26608
350.0 0.002857 256.26260 381.02664
353.0 0.002833 256.20425 376.14252
317.0 0.003155 256.14551 370.84857
369.0 0.002710 256.08636 365.23083
357.0 0.002801 256.02689 359.39145
339.0 0.002950 255.96696 353.54068
335.0 0.002985 255.90668 348.03876
392.0 0.002551 255.84595 343.40381
339.0 0.002950 255.78481 340.26318
369.0 0.002710 255.72322 339.34268
353.0 0.002833 255.66118 341.58118
380.0 0.002632 255.59879 348.32217
357.0 0.002801 255.53590 361.44135
380.0 0.002632 255.47261 383.20813
392.0 0.002551 255.40874 415.70016
467.0 0.002141 255.34445 459.72488
488.0 0.002049 255.27968 513.53595
543.0 0.001842 255.21440 571.92548
600.0 0.001667 255.14867 626.53143
645.0 0.001550 255.08238 667.25739
702.0 0.001425 255.01563 685.65509
686.0 0.001458 254.94835 679.45868
615.0 0.001626 254.88054 654.58624
571.0 0.001751 254.81218 621.50537
548.0 0.001825 254.74324 589.63391
515.0 0.001942 254.67381 563.92517
543.0 0.001842 254.60374 544.16083
552.0 0.001812 254.53316 526.17377
557.0 0.001795 254.46202 504.88025
538.0 0.001859 254.39026 477.76434
484.0 0.002066 254.31798 446.19708
400.0 0.002500 254.24501 413.66809
353.0 0.002833 254.17146 383.96246
365.0 0.002740 254.09734 359.66269
335.0 0.002985 254.02254 341.93082
339.0 0.002950 253.94711 330.43692
350.0 0.002857 253.87109 323.94580
346.0 0.002890 253.79431 320.83316
339.0 0.002950 253.71696 319.56863
346.0 0.002890 253.63901 318.94501
335.0 0.002985 253.56029 318.34116
313.0 0.003195 253.48094 317.66287
324.0 0.003086 253.40088 317.00977
331.0 0.003021 253.32013 316.68787
339.0 0.002950 253.23865 316.87274
320.0 0.003125 253.15648 317.63306
317.0 0.003155 253.07364 318.93320
296.0 0.003378 252.98999 320.71152
313.0 0.003195 252.90569 322.88428
313.0 0.003195 252.82057 325.54471
328.0 0.003049 252.73471 328.55420
353.0 0.002833 252.64812 331.71759
339.0 0.002950 252.56075 334.69153
342.0 0.002924 252.47260 336.97803
353.0 0.002833 252.38365 338.06705
335.0 0.002985 252.29398 337.73312
328.0 0.003049 252.20345 336.21945
369.0 0.002710 252.11215 334.15012
324.0 0.003086 252.02000 332.20462
350.0 0.002857 251.92706 330.97879
361.0 0.002770 251.83327 330.87085
310.0 0.003226 251.73868 332.09518
331.0 0.003021 251.64320 334.69861
353.0 0.002833 251.54688 338.61227
350.0 0.002857 251.44969 343.62997
331.0 0.003021 251.35165 349.33600
346.0 0.002890 251.25279 355.02457
369.0 0.002710 251.15298 359.99380
369.0 0.002710 251.05229 363.96335
388.0 0.002577 250.95067 367.42438
396.0 0.002525 250.84821 371.38034
372.0 0.002688 250.74481 376.72769
353.0 0.002833 250.64049 383.80594
396.0 0.002525 250.53525 392.19113
388.0 0.002577 250.42909 400.74307
388.0 0.002577 250.32196 407.95529
441.0 0.002268 250.21387 412.49576
408.0 0.002451 250.10486 413.70605
412.0 0.002427 249.99489 411.68539
400.0 0.002500 249.88391 407.13025
437.0 0.002288 249.77202 400.99609
396.0 0.002525 249.65913 394.14706
369.0 0.002710 249.54518 387.11285
404.0 0.002475 249.43028 380.03809
365.0 0.002740 249.31441 372.83533
361.0 0.002770 249.19746 365.41931
372.0 0.002688 249.07953 357.89020
365.0 0.002740 248.96057 350.63867
350.0 0.002857 248.84064 344.28369
335.0 0.002985 248.71960 339.57022
342.0 0.002924 248.59750 337.20395
331.0 0.003021 248.47441 337.71017
328.0 0.003049 248.35020 341.30255
342.0 0.002924 248.22501 347.77017
388.0 0.002577 248.09869 356.39938
361.0 0.002770 247.97134 365.94495
400.0 0.002500 247.84290 374.71094
392.0 0.002551 247.71335 380.91357
433.0 0.002309 247.58270 383.51468
384.0 0.002604 247.45100 382.80768
376.0 0.002660 247.31815 379.99573
369.0 0.002710 247.18416 376.31311
392.0 0.002551 247.04915 372.57819
372.0 0.002688 246.91296 369.05994
369.0 0.002710 246.77568 365.54483
404.0 0.002475 246.63730 361.50528
372.0 0.002688 246.49770 356.73425
388.0 0.002577 246.35696 351.66394
376.0 0.002660 246.21512 347.27060
365.0 0.002740 246.07213 344.62732
339.0 0.002950 245.92793 344.57111
353.0 0.002833 245.78262 347.43176
357.0 0.002801 245.63617 352.83517
350.0 0.002857 245.48856 359.59320
380.0 0.002632 245.33972 365.80075
396.0 0.002525 245.18970 369.31107
396.0 0.002525 245.03853 368.54504
361.0 0.002770 244.88612 363.47208
365.0 0.002740 244.73257 355.58594
353.0 0.002833 244.57782 346.93140
320.0 0.003125 244.42186 339.16724
306.0 0.003268 244.26480 333.07703
339.0 0.002950 244.10641 328.48456
357.0 0.002801 243.94687 324.45911
365.0 0.002740 243.78610 319.93491
331.0 0.003021 243.62408 314.36462
324.0 0.003086 243.46089 307.99310
317.0 0.003155 243.29648 301.40747
279.0 0.00358 243.13083 295.26633
286.0 0.003497 242.96399 290.07663
269.0 0.00372 242.79591 286.10684
279.0 0.00358 242.62662 283.40213
250.0 0.00400 242.45607 281.78436
269.0 0.00372 242.28424 281.09650
292.0 0.003425 242.11128 281.11703
286.0 0.003497 241.93698 281.69598
286.0 0.003497 241.76151 282.74646
266.0 0.00376 241.58479 284.23386
262.0 0.00382 241.40686 286.16040
269.0 0.00372 241.22762 288.54755
279.0 0.00358 241.04723 291.42862
286.0 0.003497 240.86554 294.81097
303.0 0.003300 240.68256 298.69644
296.0 0.003378 240.49843 303.03766
335.0 0.002985 240.31300 307.71741
328.0 0.003049 240.12633 312.52383
292.0 0.003425 239.93849 317.13931
313.0 0.003195 239.74933 321.16684
324.0 0.003086 239.55898 324.19669
299.0 0.003344 239.36732 325.94635
320.0 0.003125 239.17447 326.35059
299.0 0.003344 238.98036 325.57919
331.0 0.003021 238.78503 323.94449
339.0 0.002950 238.58846 321.74942
306.0 0.003268 238.39070 319.24323
317.0 0.003155 238.19165 316.49457
299.0 0.003344 237.99142 313.49341
324.0 0.003086 237.78992 310.20752
296.0 0.003378 237.58719 306.67407
292.0 0.003425 237.38326 303.00314
266.0 0.00376 237.17813 299.30524
299.0 0.003344 236.97180 295.93454
296.0 0.003378 236.76419 292.97134
279.0 0.00358 236.55545 290.52121
262.0 0.00382 236.34546 288.63232
292.0 0.003425 236.13428 287.30579
286.0 0.003497 235.92194 286.50870
306.0 0.003268 235.70833 286.17188
299.0 0.003344 235.49356 286.21655
296.0 0.003378 235.27765 286.55609
272.0 0.00368 235.06055 287.11157
289.0 0.003460 234.84230 287.82190
310.0 0.003226 234.62288 288.64651
292.0 0.003425 234.40230 289.51620
303.0 0.003300 234.18053 290.49149
292.0 0.003425 233.95766 291.50183
286.0 0.003497 233.73366 292.51096
299.0 0.003344 233.50851 293.47244
296.0 0.003378 233.28226 294.33469
292.0 0.003425 233.05487 295.04538
310.0 0.003226 232.82646 295.52002
306.0 0.003268 232.59688 295.83093
292.0 0.003425 232.36623 295.95187
279.0 . . .
loop_
_refln_index_h
_refln_index_k
_refln_index_l
_pd_refln_wavelength_id
_refln_observed_status
_refln_F_squared_meas
_refln_F_squared_calc
_refln_phase_calc
_refln_d_spacing
_gsas_i100_meas
0 0 2 1 o 4498.901 4864.595 0.00 8.53714 26.81
0 0 2 2 o 4562.991 4864.595 0.00 8.53714 13.55
0 1 1 1 o 8107.355 8143.505 0.00 7.58528 100.00
0 1 1 2 o 8189.627 8143.505 0.00 7.58528 50.34
0 1 2 1 o 11.324 91.726 180.00 6.01159 0.15
0 1 2 2 o 2.222 91.726 180.00 6.01159 0.04
0 1 3 1 o 13169.591 12852.938 0.00 4.72342 70.54
0 1 3 2 o 12690.775 12852.938 0.00 4.72342 33.88
0 0 4 1 o 14167.234 12464.720 0.00 4.26857 30.00
0 0 4 2 o 14095.325 12464.720 0.00 4.26857 14.87
0 2 0 1 o 11564.956 10810.839 0.00 4.23332 31.03
0 2 0 2 o 11447.514 10810.839 0.00 4.23332 15.29
0 2 1 1 o 5.346 5.326 0.00 4.10891 0.03
0 2 1 2 o 4.781 5.326 0.00 4.10891 0.01
1 0 -1 1 o 6669.229 6925.114 0.00 3.73778 10.82
1 0 -1 2 o 6787.612 6925.114 0.00 3.73778 5.48
0 1 4 1 o 96.259 76.284 180.00 3.81156 0.39
0 1 4 2 o 80.690 76.284 180.00 3.81156 0.17
0 2 2 1 o 12.513 16.220 0.00 3.79264 0.19
0 2 2 2 o 6.045 16.220 0.00 3.79264 0.08
1 0 1 1 o 2252.250 2734.599 0.00 3.59869 3.37
1 0 1 2 o 2248.580 2734.599 0.00 3.59869 1.68
1 1 0 1 o 1755.271 2038.989 0.00 3.43165 5.35
1 1 0 2 o 1824.979 2038.989 0.00 3.43165 2.77
1 1 -1 1 o 2.388 2.619 0.00 3.41939 0.01
1 1 -1 2 o 2.382 2.619 0.00 3.41939 0.00
1 1 1 1 o 73.501 80.474 0.00 3.31193 0.22
1 1 1 2 o 75.057 80.474 0.00 3.31193 0.11
1 1 -2 1 o 12601.293 12880.488 0.00 3.27918 34.71
1 1 -2 2 o 12584.220 12880.488 0.00 3.27918 17.26
0 2 3 1 o 156.910 165.917 180.00 3.39673 0.55
0 2 3 2 o 196.606 165.917 180.00 3.39673 0.34
1 0 -3 1 o 3189.723 3241.017 180.00 3.27249 4.44
1 0 -3 2 o 3148.008 3241.017 180.00 3.27249 2.18
1 1 2 1 o 2312.692 1934.515 0.00 3.09674 5.80
1 1 2 2 o 2319.953 1934.515 0.00 3.09674 2.90
0 1 5 1 o 6894.188 6384.114 0.00 3.16697 18.04
1 1 -3 1 o 1793.494 1939.992 180.00 3.05242 4.42
0 1 5 2 o 6789.724 6384.114 0.00 3.16697 8.85
1 1 -3 2 o 1811.202 1939.992 180.00 3.05242 2.22
1 0 3 1 o 12.114 5.786 0.00 3.01103 0.05
1 0 3 2 o 12.561 5.786 0.00 3.01103 0.03
0 2 4 1 o 793.947 665.714 0.00 3.00580 2.04
0 2 4 2 o 779.758 665.714 0.00 3.00580 1.00
1 2 0 1 o 69.919 70.687 180.00 2.80864 0.16
1 1 3 1 o 519.475 521.724 0.00 2.83697 1.14
1 2 -1 1 o 24678.447 24732.338 0.00 2.80191 56.44
1 2 0 2 o 70.552 70.687 180.00 2.80864 0.08
1 1 3 2 o 502.227 521.724 0.00 2.83697 0.55
1 2 -1 2 o 24734.281 24732.338 0.00 2.80191 28.15
1 1 -4 1 o 2086.027 2093.161 0.00 2.78944 4.31
0 0 6 1 o 14217.517 14073.257 0.00 2.84571 14.87
1 1 -4 2 o 2052.957 2093.161 0.00 2.78944 2.11
0 0 6 2 o 14002.203 14073.257 0.00 2.84571 7.29
1 2 1 1 o 9726.060 10202.074 0.00 2.74186 21.54
1 2 1 2 o 9765.119 10202.074 0.00 2.74186 10.76
1 2 -2 1 o 72.329 77.830 0.00 2.72319 0.15
1 2 -2 2 o 72.113 77.830 0.00 2.72319 0.07
0 3 1 2 o 2398.404 2498.976 0.00 2.78443 3.07
0 3 1 1 o 2466.606 2498.976 0.00 2.78443 6.35
0 3 2 1 o 1918.858 1608.965 0.00 2.67959 4.61
1 0 -5 1 o 4080.897 4183.118 0.00 2.64795 3.60
1 2 2 1 o 1163.646 1084.476 0.00 2.61597 2.30
0 3 2 2 o 1862.205 1608.965 0.00 2.67959 2.23
0 1 6 1 o 3233.712 2963.681 180.00 2.69743 6.35
1 0 -5 2 o 4059.222 4183.118 0.00 2.64795 1.78
1 2 2 2 o 1192.663 1084.476 0.00 2.61597 1.17
0 1 6 2 o 3397.283 2963.681 180.00 2.69743 3.32
1 2 -3 1 o 3644.676 3250.371 0.00 2.58909 7.31
1 2 -3 2 o 3486.473 3250.371 0.00 2.58909 3.49
0 2 5 1 o 985.066 900.487 180.00 2.65790 2.03
0 2 5 2 o 874.330 900.487 180.00 2.65790 0.90
1 1 4 1 o 4972.230 5047.451 0.00 2.57275 8.72
1 1 4 2 o 4923.867 5047.451 0.00 2.57275 4.30
1 1 -5 1 o 8.440 8.081 180.00 2.52723 0.02
1 1 -5 2 o 8.735 8.081 180.00 2.52723 0.01
0 3 3 1 o 681.374 719.150 0.00 2.52843 1.42
0 3 3 2 o 650.466 719.150 0.00 2.52843 0.68
1 2 3 1 o 9041.844 9532.887 0.00 2.45367 15.88
1 2 -4 1 o 228.131 267.778 180.00 2.42273 0.39
1 2 3 2 o 9139.661 9532.887 0.00 2.45367 7.99
1 2 -4 2 o 226.786 267.778 180.00 2.42273 0.20
1 0 5 1 o 1013.350 1242.490 0.00 2.41952 0.75
1 0 5 2 o 1046.282 1242.490 0.00 2.41952 0.39
1 1 5 1 o 1084.466 1054.150 0.00 2.32639 1.63
1 1 5 2 o 1106.272 1054.150 0.00 2.32639 0.83
0 2 6 1 o 2068.673 2127.310 0.00 2.36171 3.22
0 2 6 2 o 2187.259 2127.310 0.00 2.36171 1.70
0 3 4 1 o 181.030 174.631 0.00 2.35419 0.34
0 3 4 2 o 168.301 174.631 0.00 2.35419 0.16
0 1 7 1 o 7046.786 7252.646 0.00 2.34386 10.41
0 1 7 2 o 7199.940 7252.646 0.00 2.34386 5.29
1 1 -6 1 o 2561.533 2670.538 0.00 2.28526 3.60
1 1 -6 2 o 2559.079 2670.538 0.00 2.28526 1.79
1 3 0 1 o 9209.702 9090.609 0.00 2.25579 14.94
1 2 4 1 o 751.331 774.275 180.00 2.27667 1.09
1 3 -1 1 o 202.032 202.697 180.00 2.25230 0.32
1 3 0 2 o 8950.359 9090.609 0.00 2.25579 7.23
1 2 4 2 o 771.576 774.275 180.00 2.27667 0.56
1 3 -1 2 o 196.052 202.697 180.00 2.25230 0.15
1 2 -5 1 o 8984.695 9389.353 0.00 2.24495 13.09
1 2 -5 2 o 8996.727 9389.353 0.00 2.24495 6.52
1 3 1 1 o 52.232 51.484 0.00 2.22075 0.08
1 3 1 2 o 52.334 51.484 0.00 2.22075 0.04
1 3 -2 1 o 7558.702 7431.134 0.00 2.21080 11.73
1 3 -2 2 o 7600.237 7431.134 0.00 2.21080 5.87
1 3 2 1 o 6068.982 5561.207 0.00 2.15226 8.88
1 3 2 2 o 6025.661 5561.207 0.00 2.15226 4.39
1 3 -3 1 o 15.035 14.127 180.00 2.13722 0.02
1 3 -3 2 o 15.725 14.127 180.00 2.13722 0.01
0 3 5 1 o 3182.828 3314.524 0.00 2.17543 4.62
1 0 -7 1 o 1578.384 1487.605 0.00 2.13539 0.93
0 3 5 2 o 3437.571 3314.524 0.00 2.17543 2.48
1 0 -7 2 o 1740.327 1487.605 0.00 2.13539 0.51
0 0 8 1 o 6888.699 6423.097 0.00 2.13429 4.20
0 0 8 2 o 7819.088 6423.097 0.00 2.13429 2.37
1 1 6 1 o 3868.531 3807.987 0.00 2.10667 4.62
1 1 6 2 o 3749.897 3807.987 0.00 2.10667 2.23
1 2 5 1 o 6782.475 6818.366 0.00 2.10063 8.62
0 4 0 1 o 9063.962 8394.516 0.00 2.11666 7.24
1 2 5 2 o 6995.657 6818.366 0.00 2.10063 4.42
0 4 0 2 o 8932.901 8394.516 0.00 2.11666 3.55
1 1 -7 1 o 427.227 441.709 180.00 2.07055 0.53
1 2 -6 1 o 271.159 276.548 180.00 2.07020 0.34
1 1 -7 2 o 455.790 441.709 180.00 2.07055 0.28
1 2 -6 2 o 284.649 276.548 180.00 2.07020 0.18
0 4 1 1 o 257.949 267.027 180.00 2.10058 0.39
0 2 7 1 o 191.882 180.287 0.00 2.11346 0.23
1 3 -4 1 o 5839.407 6360.735 0.00 2.04073 7.59
1 3 3 1 o 21.200 20.283 180.00 2.05912 0.03
0 4 1 2 o 273.616 267.027 180.00 2.10058 0.21
0 2 7 2 o 184.874 180.287 0.00 2.11346 0.11
1 3 -4 2 o 5709.910 6360.735 0.00 2.04073 3.70
1 3 3 2 o 20.674 20.283 180.00 2.05912 0.02
0 1 8 1 o 825.139 877.149 180.00 2.06954 1.01
0 1 8 2 o 937.097 877.149 180.00 2.06954 0.56
0 4 2 1 o 5447.130 5342.567 0.00 2.05446 8.14
0 4 2 2 o 5537.371 5342.567 0.00 2.05446 4.12
0 3 6 1 o 0.517 0.427 0.00 2.00386 0.00
0 3 6 2 o -0.150 0.427 0.00 2.00386 0.00
0 4 3 1 o 593.016 539.581 0.00 1.98390 0.81
1 3 4 1 o 5262.445 5396.141 0.00 1.95113 6.18
1 0 7 1 o 2164.062 2064.755 0.00 1.96576 1.10
1 3 -5 1 o 1144.899 1195.138 0.00 1.93105 1.32
0 4 3 2 o 550.384 539.581 0.00 1.98390 0.38
1 3 4 2 o 5202.235 5396.141 0.00 1.95113 3.04
1 0 7 2 o 2226.436 2064.755 0.00 1.96576 0.56
1 3 -5 2 o 1150.550 1195.138 0.00 1.93105 0.66
1 2 6 1 o 502.254 510.351 0.00 1.93465 0.54
1 2 6 2 o 480.133 510.351 0.00 1.93465 0.26
1 2 -7 1 o 7316.512 7555.122 0.00 1.90656 7.58
1 2 -7 2 o 7612.636 7555.122 0.00 1.90656 3.92
1 1 7 1 o 135.371 128.037 0.00 1.91483 0.15
2 0 0 1 o 7929.266 7617.495 0.00 1.87691 3.80
1 1 7 2 o 122.788 128.037 0.00 1.91483 0.07
2 0 0 2 o 7919.015 7617.495 0.00 1.87691 1.89
2 0 -2 1 o 7409.147 7425.303 0.00 1.86889 3.53
2 0 -2 2 o 6924.543 7425.303 0.00 1.86889 1.65
2 1 -1 1 o 6506.169 6359.320 0.00 1.83926 5.97
2 1 -1 2 o 6124.157 6359.320 0.00 1.83926 2.80
1 1 -8 1 o 3775.676 3750.004 0.00 1.88349 3.61
2 1 0 1 o 35.804 38.004 0.00 1.83242 0.03
0 4 4 1 o 5532.364 5308.021 0.00 1.89632 6.74
1 1 -8 2 o 3859.317 3750.004 0.00 1.88349 1.84
2 1 0 2 o 35.819 38.004 0.00 1.83242 0.02
0 2 8 1 o 2074.750 2194.792 0.00 1.90578 2.10
0 4 4 2 o 5721.929 5308.021 0.00 1.89632 3.47
2 1 -2 1 o 33.902 35.267 180.00 1.82496 0.03
0 2 8 2 o 2253.131 2194.792 0.00 1.90578 1.14
2 1 -2 2 o 34.538 35.267 180.00 1.82496 0.01
1 4 0 1 o 40.673 37.958 0.00 1.84375 0.04
1 4 -1 1 o 2341.067 2216.380 0.00 1.84184 2.57
1 4 0 2 o 38.971 37.958 0.00 1.84375 0.02
2 1 1 1 o 1490.547 1473.492 0.00 1.80514 1.35
1 4 -1 2 o 2211.122 2216.380 0.00 1.84184 1.21
2 1 1 2 o 1464.094 1473.492 0.00 1.80514 0.66
1 4 -2 1 o 143.749 146.508 0.00 1.81894 0.16
1 4 -2 2 o 146.474 146.508 0.00 1.81894 0.08
1 4 1 1 o 614.492 639.499 0.00 1.82447 0.67
2 1 -3 1 o 5617.375 5574.526 0.00 1.79095 4.89
1 3 5 1 o 236.165 238.772 180.00 1.83688 0.25
0 1 9 1 o 2283.900 2079.264 0.00 1.85124 2.14
1 4 1 2 o 626.060 639.499 0.00 1.82447 0.34
2 1 -3 2 o 5523.648 5574.526 0.00 1.79095 2.40
1 3 5 2 o 218.182 238.772 180.00 1.83688 0.12
0 1 9 2 o 2320.497 2079.264 0.00 1.85124 1.08
2 0 2 1 o 8227.374 8391.048 0.00 1.79934 3.63
1 3 -6 1 o 4142.921 4182.901 0.00 1.81643 4.15
2 0 2 2 o 8329.937 8391.048 0.00 1.79934 1.83
1 3 -6 2 o 4212.314 4182.901 0.00 1.81643 2.10
0 3 7 2 o 1597.845 1477.798 0.00 1.84544 0.81
0 3 7 1 o 1669.073 1477.798 0.00 1.84544 1.69
2 0 -4 1 o 3961.499 4071.552 0.00 1.77839 1.73
2 1 2 1 o 277.146 290.141 180.00 1.76004 0.24
1 4 -3 1 o 668.706 689.376 0.00 1.77729 0.68
2 0 -4 2 o 3877.397 4071.552 0.00 1.77839 0.84
2 1 2 2 o 277.612 290.141 180.00 1.76004 0.12
1 4 -3 2 o 656.932 689.376 0.00 1.77729 0.33
1 4 2 1 o 4.055 4.128 180.00 1.78592 0.01
1 4 2 2 o 4.007 4.128 180.00 1.78592 0.00
2 1 -4 1 o 250.847 225.825 0.00 1.74041 0.21
0 4 5 1 o 5.137 5.710 0.00 1.79909 0.01
1 2 7 1 o 4531.691 4656.224 0.00 1.78291 4.10
2 2 -1 1 o 19.709 19.026 180.00 1.72144 0.02
2 1 -4 2 o 240.114 225.825 0.00 1.74041 0.10
0 4 5 2 o 5.756 5.710 0.00 1.79909 0.00
1 2 7 2 o 4542.339 4656.224 0.00 1.78291 2.05
2 2 -1 2 o 19.790 19.026 180.00 1.72144 0.01
2 2 0 1 o 552.237 530.107 0.00 1.71583 0.44
1 2 -8 1 o 60.709 64.703 180.00 1.75753 0.06
2 2 0 2 o 555.292 530.107 0.00 1.71583 0.22
2 2 -2 1 o 1270.385 1208.567 0.00 1.70970 1.00
1 2 -8 2 o 62.595 64.703 180.00 1.75753 0.03
2 2 -2 2 o 1276.630 1208.567 0.00 1.70970 0.50
1 0 -9 1 o 2588.186 2776.921 0.00 1.75837 1.06
1 0 -9 2 o 2653.038 2776.921 0.00 1.75837 0.54
2 2 1 1 o 180.815 166.786 0.00 1.69337 0.14
1 1 8 1 o 2727.158 2709.996 0.00 1.74872 2.26
1 4 -4 1 o 76.321 74.274 180.00 1.72064 0.07
2 2 1 2 o 180.453 166.786 0.00 1.69337 0.07
1 4 3 1 o 1379.606 1296.286 0.00 1.73162 1.31
1 1 8 2 o 2957.270 2709.996 0.00 1.74872 1.22
2 1 3 1 o 3095.969 2938.677 0.00 1.70101 2.44
1 4 -4 2 o 77.215 74.274 180.00 1.72064 0.03
1 4 3 2 o 1389.799 1296.286 0.00 1.73162 0.66
2 1 3 2 o 3116.016 2938.677 0.00 1.70101 1.22
2 2 -3 1 o 93.340 90.808 0.00 1.68164 0.08
1 3 6 1 o 4577.907 4453.142 0.00 1.72280 4.08
1 1 -9 1 o 1461.521 1430.047 180.00 1.72163 1.22
2 2 -3 2 o 91.900 90.808 0.00 1.68164 0.04
1 3 6 2 o 4594.272 4453.142 0.00 1.72280 2.03
1 1 -9 2 o 1486.810 1430.047 180.00 1.72163 0.61
1 3 -7 1 o 591.323 557.805 0.00 1.70287 0.53
1 3 -7 2 o 586.957 557.805 0.00 1.70287 0.26
2 1 -5 1 o 796.090 786.012 0.00 1.67749 0.64
0 2 9 1 o 565.568 511.602 180.00 1.73125 0.49
2 1 -5 2 o 773.630 786.012 0.00 1.67749 0.31
0 2 9 2 o 559.566 511.602 180.00 1.73125 0.24
2 2 2 1 o 590.681 629.102 0.00 1.65597 0.44
2 2 2 2 o 579.508 629.102 0.00 1.65597 0.21
2 0 4 1 o 3301.179 3306.386 0.00 1.66364 1.26
2 0 4 2 o 3154.926 3306.386 0.00 1.66364 0.60
0 0 10 1 o 4504.966 4189.603 0.00 1.70743 1.77
2 2 -4 1 o 18.309 22.494 0.00 1.63959 0.03
0 0 10 2 o 4456.603 4189.603 0.00 1.70743 0.87
1 4 4 1 o 895.148 884.200 180.00 1.66590 0.81
0 3 8 1 o 332.526 312.957 0.00 1.70231 0.30
2 2 -4 2 o 18.289 22.494 0.00 1.63959 0.01
1 4 4 2 o 864.008 884.200 180.00 1.66590 0.39
0 4 6 1 o 4603.550 4486.968 0.00 1.69836 4.30
0 3 8 2 o 322.146 312.957 0.00 1.70231 0.15
0 5 1 1 o 5611.343 5567.668 0.00 1.68506 5.80
0 4 6 2 o 4986.564 4486.968 0.00 1.69836 2.31
0 5 1 2 o 5751.969 5567.668 0.00 1.68506 2.96
1 4 -5 1 o 1222.423 1337.933 0.00 1.65335 1.05
2 0 -6 1 o 5607.106 6523.546 0.00 1.63624 2.06
1 4 -5 2 o 1232.368 1337.933 0.00 1.65335 0.52
2 1 4 1 o 87.389 96.127 180.00 1.63243 0.07
2 0 -6 2 o 5975.944 6523.546 0.00 1.63624 1.09
2 1 4 2 o 95.755 96.127 180.00 1.63243 0.04
0 1 10 1 o 204.787 216.042 180.00 1.67373 0.17
0 5 2 1 o 291.005 305.248 0.00 1.66097 0.28
1 2 8 1 o 451.965 480.123 0.00 1.64653 0.35
0 1 10 2 o 215.740 216.042 180.00 1.67373 0.09
2 1 -6 1 o 757.541 721.934 0.00 1.60652 0.55
2 2 3 1 o 171.265 163.253 180.00 1.60652 0.13
0 5 2 2 o 289.335 305.248 0.00 1.66097 0.14
1 2 8 2 o 429.244 480.123 0.00 1.64653 0.17
2 1 -6 2 o 757.338 721.934 0.00 1.60652 0.27
2 2 3 2 o 170.921 163.253 180.00 1.60652 0.06
1 2 -9 1 o 2971.791 3009.564 0.00 1.62386 2.22
1 0 9 1 o 1097.152 1316.781 0.00 1.63476 0.39
1 2 -9 2 o 3056.335 3009.564 0.00 1.62386 1.14
1 0 9 2 o 1277.933 1316.781 0.00 1.63476 0.23
2 2 -5 1 o 146.432 140.291 180.00 1.58666 0.10
2 2 -5 2 o 149.445 140.291 180.00 1.58666 0.05
2 3 -1 1 o 676.434 704.493 0.00 1.56708 0.48
2 3 -1 2 o 653.460 704.493 0.00 1.56708 0.23
2 3 0 1 o 19.565 21.186 0.00 1.56285 0.01
1 3 7 1 o 1107.845 988.003 180.00 1.61304 0.87
0 5 3 1 o 4806.572 5044.843 0.00 1.62302 4.52
2 3 0 2 o 19.817 21.186 0.00 1.56285 0.01
1 3 7 2 o 1039.045 988.003 180.00 1.61304 0.41
2 3 -2 1 o 113.724 121.245 180.00 1.55821 0.08
0 5 3 2 o 5240.365 5044.843 0.00 1.62302 2.44
1 3 -8 1 o 3060.987 3000.357 0.00 1.59417 2.31
1 1 9 1 o 1196.605 1130.594 0.00 1.60511 0.87
1 4 5 1 o 1760.434 1723.064 0.00 1.59309 1.38
2 3 -2 2 o 115.097 121.245 180.00 1.55821 0.04
1 4 -6 1 o 905.739 827.885 0.00 1.57969 0.73
1 3 -8 2 o 3097.733 3000.357 0.00 1.59417 1.16
1 1 9 2 o 1183.457 1130.594 0.00 1.60511 0.43
1 4 5 2 o 1781.811 1723.064 0.00 1.59309 0.70
1 4 -6 2 o 891.759 827.885 0.00 1.57969 0.36
2 3 1 1 o 806.363 784.226 0.00 1.54582 0.55
0 4 7 1 o 696.775 680.234 0.00 1.59866 0.58
2 2 4 1 o 679.078 668.045 0.00 1.54837 0.44
0 4 7 2 o 678.902 680.234 0.00 1.59866 0.28
2 1 5 1 o 2796.254 3000.319 0.00 1.55837 1.86
1 1 -10 1 o 1075.050 985.922 0.00 1.58167 0.74
2 2 4 2 o 692.971 668.045 0.00 1.54837 0.22
2 1 5 2 o 2814.243 3000.319 0.00 1.55837 0.93
1 1 -10 2 o 1088.931 985.922 0.00 1.58167 0.37
0 2 10 1 o 1911.430 1765.047 0.00 1.58348 1.33
0 2 10 2 o 1997.484 1765.047 0.00 1.58348 0.69
1 5 0 1 o 326.964 313.322 0.00 1.54355 0.26
0 3 9 1 o 1701.208 1588.610 0.00 1.57447 1.23
0 5 4 1 o 235.863 221.245 180.00 1.57400 0.20
0 3 9 2 o 1755.514 1588.610 0.00 1.57447 0.63
0 5 4 2 o 246.055 221.245 180.00 1.57400 0.11
