#------------------------------------------------------------------------------
#$Date: 2016-03-26 13:58:28 +0200 (Sat, 26 Mar 2016) $
#$Revision: 180242 $
#$URL: svn://www.crystallography.net/cod/cif/7/11/28/7112819.cif $
#------------------------------------------------------------------------------
#
# This file is available in the Crystallography Open Database (COD),
# http://www.crystallography.net/
#
# All data on this site have been placed in the public domain by the
# contributors.
#
data_7112819
loop_
_publ_author_name
'Strukil, Vjekoslav'
'F\'abi\'an, L\'aszl\'o'
'Reid, David G.'
'Duer, Melinda J.'
'Jackson, Graham J.'
'Eckert-Maksi\'c, Mirjana'
'Fri\<s\<ci\'c, Tomislav'
_publ_section_title
;
 Towards an environmentally-friendly laboratory: dimensionality and
 reactivity in the mechanosynthesis of metal-organic compounds.
;
_journal_issue                   48
_journal_name_full
'Chemical communications (Cambridge, England)'
_journal_page_first              9191
_journal_page_last               9193
_journal_paper_doi               10.1039/c0cc03822a
_journal_volume                  46
_journal_year                    2010
_chemical_formula_moiety         'C2 H4 Cd Cl2 N4'
_chemical_formula_sum            'C2 H4 Cd Cl2 N4'
_chemical_formula_weight         267.40
_chemical_name_common            complex11
_chemical_name_systematic        ' ?'
_space_group_IT_number           14
_symmetry_cell_setting           monoclinic
_symmetry_space_group_name_Hall  '-P 2yn'
_symmetry_space_group_name_H-M   'P 1 21/n 1'
_audit_creation_date             2009-10-09T17:25
_audit_creation_method           'from EXP file using GSAS2CIF'
_audit_update_record
' 2009-10-09T17:25 Initial CIF as created by GSAS2CIF'
_cell_angle_alpha                90.0
_cell_angle_beta                 100.0015(24)
_cell_angle_gamma                90.0
_cell_formula_units_Z            4
_cell_length_a                   6.86493(22)
_cell_length_b                   8.96114(33)
_cell_length_c                   10.8252(5)
_cell_measurement_temperature    298
_cell_volume                     655.82(4)
_computing_structure_refinement  GSAS
_computing_structure_solution    DASH
_diffrn_ambient_temperature      298
_diffrn_detector                 RTMS
_diffrn_detector_type            XCelerator
_diffrn_measurement_device_type  'Philips XPert Pro'
_diffrn_radiation_monochromator  'Ni filter'
_diffrn_radiation_polarisn_ratio 0.532
_diffrn_radiation_probe          x-ray
_diffrn_source                   'sealed X-ray tube'
_diffrn_source_target            Cu
_exptl_absorpt_correction_T_max  0.86719
_exptl_absorpt_correction_T_min  0.31983
_exptl_absorpt_process_details
; GSAS Absorption/surface roughness correction: function number 3
Surface roughness abs. correction (Suortti)
Terms = 0.39824E-01 0.15800
;
_exptl_crystal_density_diffrn    2.708
_exptl_crystal_density_method    'not measured'
_exptl_crystal_F_000             504
_pd_block_id                     2009-10-09T17:25|X1|L_Fabian|Philips_Xpert_Pro
_pd_calc_method                  'Rietveld Refinement'
_pd_char_particle_morphology     'fine powder'
_pd_instr_location               ' ?'
_pd_meas_2theta_range_inc        0.02
_pd_meas_2theta_range_max        59.962
_pd_meas_2theta_range_min        4.002
_pd_meas_number_of_points        2799
_pd_meas_scan_method             step
_pd_phase_name                   complex11
_pd_prep_cool_rate               0
_pd_prep_pressure                100
_pd_prep_temperature             298
_pd_proc_2theta_range_inc        0.02
_pd_proc_2theta_range_max        59.962
_pd_proc_2theta_range_min        4.002
_pd_proc_info_data_reduction     none
_pd_proc_info_datetime           2009-10-09T17:25:30
_pd_proc_info_excluded_regions   ' ?'
_pd_proc_ls_background_function
; GSAS Background function number 1 with 8 terms.
Shifted Chebyshev function of 1st kind
1: 745.461 2: -758.967 3: 343.824 4: -116.147
5: 29.0831 6: 0.254761 7: -13.5282 8: 21.5003
;
_pd_proc_ls_peak_cutoff          0.00200
_pd_proc_ls_profile_function
;
CW Profile function number 3 with 19 terms
Pseudovoigt profile coefficients as parameterized in
P. Thompson, D.E. Cox & J.B. Hastings (1987). J. Appl. Cryst.,20,79-83.
Asymmetry correction of L.W. Finger, D.E. Cox & A. P. Jephcoat (1994).
J. Appl. Cryst.,27,892-900.
Peak tails are ignored where the intensity is below 0.0020 times the peak
Aniso. broadening axis 0.0 0.0 1.0
;
_pd_proc_ls_prof_R_factor        0.0329
_pd_proc_ls_prof_wR_expected     0.0342
_pd_proc_ls_prof_wR_factor       0.0435
_pd_proc_number_of_points        2799
_pd_spec_mounting                ' ?'
_pd_spec_mount_mode              reflection
_pd_spec_shape                   flat_sheet
_refine_ls_extinction_method     none
_refine_ls_goodness_of_fit_all   1.28
_refine_ls_hydrogen_treatment    mixed
_refine_ls_matrix_type           full
_refine_ls_number_constraints    1
_refine_ls_number_parameters     59
_refine_ls_number_restraints     25
_refine_ls_R_Fsqd_factor         0.05334
_refine_ls_shift/su_max          0.04
_refine_ls_shift/su_mean         0.01
_refine_ls_weighting_details     1/\s(Y~obs~)^2^
_refine_ls_weighting_scheme      sigma
_reflns_d_resolution_high        1.544
_reflns_d_resolution_low         6.860
_reflns_limit_h_max              4
_reflns_limit_h_min              0
_reflns_limit_k_max              5
_reflns_limit_k_min              0
_reflns_limit_l_max              7
_reflns_limit_l_min              -7
_reflns_number_total             373
_cod_data_source_file            c0cc03822a.txt
_cod_data_source_block           X1_publ
_cod_depositor_comments
;
The following automatic conversions were performed:

'_geom_bond_publ_flag' value 'N' changed to 'n' according to
/usr/data/users/saulius/automatic-downloads/retrospective/RSC/lib/dictionaries/cif_core.dic
dictionary named 'cif_core.dic' version 2.4.2 from 2011-04-26 (15
times).

'_geom_angle_publ_flag' value 'N' changed to 'n' according
to
/usr/data/users/saulius/automatic-downloads/retrospective/RSC/lib/dictionaries/cif_core.dic
dictionary named 'cif_core.dic' version 2.4.2 from 2011-04-26 (31
time).

Automatic conversion script
Id: cif_fix_values 2281 2013-09-26 08:29:07Z andrius 
;
_cod_original_cell_volume        655.82(5)
_cod_database_code               7112819
#BEGIN Tags that were not found in dictionaries:
_gsas_exptl_extinct_corr_t_min   1.00000
_gsas_exptl_extinct_corr_t_max   1.00000
#END Tags that were not found in dictionaries
loop_
_symmetry_equiv_pos_site_id
_symmetry_equiv_pos_as_xyz
1 +x,+y,+z
2 -x+1/2,+y+1/2,-z+1/2
-1 -x,-y,-z
-2 +x+1/2,-y+1/2,+z+1/2
loop_
_atom_site_type_symbol
_atom_site_label
_atom_site_fract_x
_atom_site_fract_y
_atom_site_fract_z
_atom_site_occupancy
_atom_site_thermal_displace_type
_atom_site_U_iso_or_equiv
_atom_site_symmetry_multiplicity
Cd Cd1 0.7466(4) 0.09534(22) 0.47639(24) 1.0 Uiso 0.0483(11) 4
Cl Cl2 1.0384(10) 0.0565(7) 0.3473(6) 1.0 Uiso 0.0471(32) 4
Cl Cl3 0.5547(10) -0.1530(7) 0.4075(6) 1.0 Uiso 0.0405(31) 4
N N4 0.8603(20) 0.3277(10) 0.5792(11) 1.0 Uiso 0.0255(31) 4
C C5 0.9692(16) 0.3163(14) 0.6908(14) 1.0 Uiso 0.0255(31) 4
N N6 1.0572(26) 0.3043(19) 0.7917(14) 1.0 Uiso 0.0255(31) 4
C C7 0.7937(12) 0.4686(8) 0.5430(8) 1.0 Uiso 0.0255(31) 4
N N8 0.6954(21) 0.4862(13) 0.4282(10) 1.0 Uiso 0.0255(31) 4
N N9 0.8197(19) 0.5820(11) 0.6215(11) 1.0 Uiso 0.0255(31) 4
H H10 0.6768(32) 0.4114(16) 0.3778(10) 1.0 Uiso 0.031(4) 4
H H11 0.6511(32) 0.5729(16) 0.4032(12) 1.0 Uiso 0.031(4) 4
H H12 0.7760(35) 0.6689(14) 0.5971(15) 1.0 Uiso 0.031(4) 4
H H13 0.8813(33) 0.5692(17) 0.6971(14) 1.0 Uiso 0.031(4) 4
loop_
_atom_type_symbol
_atom_type_number_in_cell
_atom_type_scat_dispersion_real
_atom_type_scat_dispersion_imag
_atom_type_scat_Cromer_Mann_a1
_atom_type_scat_Cromer_Mann_a2
_atom_type_scat_Cromer_Mann_a3
_atom_type_scat_Cromer_Mann_a4
_atom_type_scat_Cromer_Mann_b1
_atom_type_scat_Cromer_Mann_b2
_atom_type_scat_Cromer_Mann_b3
_atom_type_scat_Cromer_Mann_b4
_atom_type_scat_Cromer_Mann_c
_atom_type_scat_source
Cd 4.0 0.000 0.000 19.2214 0.59460 17.6444 6.90890 4.46100 24.7008 1.60290
87.4825 5.06940 International_Tables_Vol_C
Cl 8.0 0.000 0.000 11.4604 0.01040 7.19640 1.16620 6.25560 18.5194 1.64550
47.7784 -9.5574 International_Tables_Vol_C
N 16.0 0.000 0.000 12.2126 0.00570 3.13220 9.89330 2.01250 28.9975 1.16630
0.58260 -11.529 International_Tables_Vol_C
C 8.0 0.000 0.000 2.31000 20.8439 1.02000 10.2075 1.58860 0.56870 0.86500
51.6512 0.21560 International_Tables_Vol_C
H 16.0 0.000 0.000 0.49300 10.5109 0.32291 26.1257 0.14019 3.14236 0.04081
57.7997 0.00304 International_Tables_Vol_C
loop_
_diffrn_radiation_wavelength
_diffrn_radiation_wavelength_wt
_diffrn_radiation_type
_diffrn_radiation_wavelength_id
1.540600 1.000 K\a~1~ 1
1.544400 0.500 K\a~2~ 2
loop_
_geom_angle_atom_site_label_1
_geom_angle_atom_site_label_2
_geom_angle_atom_site_label_3
_geom_angle
_geom_angle_site_symmetry_1
_geom_angle_site_symmetry_3
_geom_angle_publ_flag
Cl2 Cd1 Cl2 86.19(24) 1_555 -1_756 n
Cl2 Cd1 Cl3 97.27(22) 1_555 1_555 n
Cl2 Cd1 Cl3 175.19(26) 1_555 -1_656 n
Cl2 Cd1 N4 98.1(4) 1_555 1_555 n
Cl2 Cd1 N6 87.7(6) 1_555 -2_565 n
Cl2 Cd1 Cl3 87.56(20) -1_756 1_555 n
Cl2 Cd1 Cl3 98.34(22) -1_756 -1_656 n
Cl2 Cd1 N4 90.93(27) -1_756 1_555 n
Cl2 Cd1 N6 169.4(5) -1_756 -2_565 n
Cl3 Cd1 Cl3 84.60(21) 1_555 -1_656 n
Cl3 Cd1 N4 164.4(4) 1_555 1_555 n
Cl3 Cd1 N6 84.7(4) 1_555 -2_565 n
Cl3 Cd1 N4 80.2(4) -1_656 1_555 n
Cl3 Cd1 N6 88.1(5) -1_656 -2_565 n
N4 Cd1 N6 98.5(4) 1_555 -2_565 n
Cd1 Cl2 Cd1 93.81(24) 1_555 -1_756 n
Cd1 Cl3 Cd1 95.40(21) 1_555 -1_656 n
Cd1 N4 C5 116.3(5) 1_555 1_555 n
Cd1 N4 C7 126.4(6) 1_555 1_555 n
C5 N4 C7 116.23(15) 1_555 1_555 n
N4 C5 N6 176.62(18) 1_555 1_555 n
Cd1 N6 C5 151.9(16) -2_666 1_555 n
N4 C7 N8 117.96(14) 1_555 1_555 n
N4 C7 N9 121.55(15) 1_555 1_555 n
N8 C7 N9 120.44(12) 1_555 1_555 n
C7 N8 H10 120.0(4) 1_555 1_555 n
C7 N8 H11 120.0(5) 1_555 1_555 n
H10 N8 H11 119.9(6) 1_555 1_555 n
C7 N9 H12 119.9(5) 1_555 1_555 n
C7 N9 H13 120.01(11) 1_555 1_555 n
H12 N9 H13 120.1(5) 1_555 1_555 n
loop_
_geom_bond_atom_site_label_1
_geom_bond_atom_site_label_2
_geom_bond_distance
_geom_bond_site_symmetry_2
_geom_bond_publ_flag
Cd1 Cl2 2.657(8) 1_555 n
Cd1 Cl2 2.588(6) -1_756 n
Cd1 Cl3 2.628(6) 1_555 n
Cd1 Cl3 2.651(9) -1_656 n
Cd1 N4 2.425(11) 1_555 n
Cd1 N6 2.365(13) -2_454 n
N4 C5 1.310(4) 1_555 n
N4 C7 1.376(4) 1_555 n
C5 N6 1.157(4) 1_555 n
C7 N8 1.317(4) 1_555 n
C7 N9 1.317(4) 1_555 n
N8 H10 0.8600(20) 1_555 n
N8 H11 0.8601(20) 1_555 n
N9 H12 0.8600(20) 1_555 n
N9 H13 0.8602(20) 1_555 n
loop_
_pd_meas_counts_total
_pd_proc_ls_weight
_pd_proc_intensity_bkg_calc
_pd_calc_intensity_total
5806.0 0.0 1954.65369 .
6037.0 0.0 1957.11072 .
5944.0 0.0 1959.53369 .
5914.0 0.0 1961.92273 .
5960.0 0.0 1964.27832 .
5852.0 0.0 1966.59961 .
5806.0 0.0 1968.88757 .
5868.0 0.0 1971.14221 .
5852.0 0.0 1973.36340 .
5806.0 0.0 1975.55237 .
5730.0 0.0 1977.70752 .
5761.0 0.0 1979.83057 .
5625.0 0.0 1981.92102 .
5550.0 0.0 1983.97888 .
5565.0 0.0 1986.00488 .
5491.0 0.0 1987.99866 .
5388.0 0.0 1989.96033 .
5461.0 0.0 1991.89099 .
5402.0 0.0 1993.78979 .
5300.0 0.0 1995.65698 .
5227.0 0.0 1997.49280 .
5198.0 0.0 1999.29822 .
5069.0 0.0 2001.07263 .
5098.0 0.0 2002.81616 .
4956.0 0.0 2004.52869 .
5041.0 0.0 2006.21143 .
4900.0 0.0 2007.86401 .
4942.0 0.0 2009.48608 .
4830.0 0.0 2011.07837 .
4802.0 0.0 2012.64087 .
4789.0 0.0 2014.17395 .
4720.0 0.0 2015.67761 .
4706.0 0.0 2017.15161 .
4638.0 0.0 2018.59729 .
4638.0 0.0 2020.01331 .
4570.0 0.0 2021.40088 .
4476.0 0.0 2022.75940 .
4382.0 0.0 2024.08960 .
4529.0 0.0 2025.39124 .
4476.0 0.0 2026.66504 .
4382.0 0.0 2027.91064 .
4356.0 0.0 2029.12842 .
4396.0 0.0 2030.31824 .
4212.0 0.0 2031.48096 .
4290.0 0.0 2032.61572 .
4212.0 0.0 2033.72339 .
4122.0 0.0 2034.80371 .
4199.0 0.0 2035.85730 .
4173.0 0.0 2036.88416 .
4122.0 0.0 2037.88379 .
4083.0 0.0 2038.85718 .
4058.0 0.0 2039.80408 .
3969.0 0.0 2040.72522 .
3969.0 0.0 2041.61987 .
4045.0 0.0 2042.48828 .
3969.0 0.0 2043.33118 .
4045.0 0.0 2044.14844 .
3881.0 0.0 2044.93994 .
3807.0 0.0 2045.70630 .
3733.0 0.0 2046.44690 .
3881.0 0.0 2047.16296 .
3919.0 0.0 2047.85425 .
3709.0 0.0 2048.52026 .
3733.0 0.0 2049.16113 .
3721.0 0.0 2049.77808 .
3636.0 0.0 2050.37085 .
3684.0 0.0 2050.93921 .
3660.0 0.0 2051.48315 .
3493.0 0.0 2052.00317 .
3612.0 0.0 2052.49951 .
3588.0 0.0 2052.97192 .
3505.0 0.0 2053.42114 .
3564.0 0.0 2053.84644 .
3422.0 0.0 2054.24878 .
3493.0 0.0 2054.62817 .
3481.0 0.0 2054.98413 .
3469.0 0.0 2055.31665 .
3516.0 0.0 2055.62744 .
3493.0 0.0 2055.91528 .
3364.0 0.0 2056.18042 .
3516.0 0.0 2056.42310 .
3376.0 0.0 2056.64404 .
3399.0 0.0 2056.84277 .
3329.0 0.0 2057.01904 .
3318.0 0.0 2057.17383 .
3364.0 0.0 2057.30688 .
3249.0 0.0 2057.41821 .
3249.0 0.0 2057.50830 .
3181.0 0.0 2057.57690 .
3215.0 0.0 2057.62402 .
3341.0 0.0 2057.65088 .
3341.0 0.0 2057.65649 .
3295.0 0.0 2057.64136 .
3249.0 0.0 2057.60474 .
3136.0 0.0 2057.54810 .
3158.0 0.0 2057.47144 .
3215.0 0.0 2057.37378 .
3091.0 0.0 2057.25635 .
3147.0 0.0 2057.11890 .
3192.0 0.0 2056.96118 .
3147.0 0.0 2056.78418 .
3125.0 0.0 2056.58691 .
3014.0 0.0 2056.37036 .
3102.0 0.0 2056.13452 .
2981.0 0.0 2055.87891 .
3003.0 0.0 2055.60449 .
3036.0 0.0 2055.31030 .
2992.0 0.0 2054.99829 .
2916.0 0.0 2054.66650 .
2938.0 0.0 2054.31641 .
2981.0 0.0 2053.94751 .
2873.0 0.0 2053.56006 .
2938.0 0.0 2053.15454 .
2852.0 0.0 2052.73047 .
2862.0 0.0 2052.28882 .
2809.0 0.0 2051.82861 .
2916.0 0.0 2051.35034 .
2809.0 0.0 2050.85449 .
2841.0 0.0 2050.34131 .
2852.0 0.0 2049.81006 .
2798.0 0.0 2049.26147 .
2788.0 0.0 2048.69556 .
2830.0 0.0 2048.11279 .
2820.0 0.0 2047.51257 .
2735.0 0.0 2046.89563 .
2652.0 0.0 2046.26147 .
2735.0 0.0 2045.61084 .
2673.0 0.0 2044.94324 .
2767.0 0.0 2044.25928 .
2767.0 0.0 2043.55896 .
2673.0 0.0 2042.84216 .
2642.0 0.0 2042.10950 .
2694.0 0.0 2041.36035 .
2611.0 0.0 2040.59497 .
2652.0 0.0 2039.81409 .
2663.0 0.0 2039.01709 .
2550.0 0.0 2038.20496 .
2621.0 0.0 2037.37646 .
2632.0 0.0 2036.53345 .
2520.0 0.0 2035.67444 .
2550.0 0.0 2034.79993 .
2540.0 0.0 2033.91101 .
2540.0 0.0 2033.00671 .
2490.0 0.0 2032.08777 .
2460.0 0.0 2031.15308 .
2520.0 0.0 2030.20459 .
2460.0 0.0 2029.24121 .
2421.0 0.0 2028.26343 .
2480.0 0.0 2027.27112 .
2430.0 0.0 2026.26453 .
2490.0 0.0 2025.24329 .
2500.0 0.0 2024.20837 .
2490.0 0.0 2023.15918 .
2391.0 0.0 2022.09607 .
2430.0 0.0 2021.01929 .
2421.0 0.0 2019.92883 .
2352.0 0.0 2018.82495 .
2352.0 0.0 2017.70715 .
2352.0 0.0 2016.57617 .
2294.0 0.0 2015.43140 .
2381.0 0.0 2014.27417 .
2352.0 0.0 2013.10352 .
2401.0 0.0 2011.91980 .
2314.0 0.0 2010.72266 .
2228.0 0.0 2009.51331 .
2314.0 0.0 2008.29114 .
2294.0 0.0 2007.05615 .
2323.0 0.0 2005.80872 .
2285.0 0.0 2004.54858 .
2162.0 0.0 2003.27649 .
2314.0 0.0 2001.99182 .
2209.0 0.0 2000.69519 .
2190.0 0.0 1999.38623 .
2134.0 0.0 1998.06543 .
2181.0 0.0 1996.73254 .
2144.0 0.0 1995.38843 .
2190.0 0.0 1994.03198 .
2181.0 0.0 1992.66406 .
2181.0 0.0 1991.28479 .
2218.0 0.0 1989.89380 .
2209.0 0.0 1988.49146 .
2209.0 0.0 1987.07813 .
2088.0 0.0 1985.65356 .
2125.0 0.0 1984.21777 .
2125.0 0.0 1982.77124 .
2125.0 0.0 1981.31335 .
2200.0 0.0 1979.84509 .
2107.0 0.0 1978.36572 .
2052.0 0.0 1976.87598 .
2079.0 0.0 1975.37573 .
2070.0 0.0 1973.86475 .
2043.0 0.0 1972.34351 .
2052.0 0.0 1970.81226 .
2061.0 0.0 1969.27039 .
2088.0 0.0 1967.71814 .
2034.0 0.0 1966.15637 .
2052.0 0.0 1964.58447 .
2007.0 0.0 1963.00281 .
2070.0 0.0 1961.41101 .
1998.0 0.0 1959.80981 .
2061.0 0.000485 1958.19885 1958.19812
1971.0 0.000507 1956.57837 1956.57751
1936.0 0.000517 1954.94849 1954.94775
1918.0 0.000521 1953.30896 1953.30823
1998.0 0.000501 1951.66040 1951.65967
1884.0 0.000531 1950.00244 1950.00171
1918.0 0.000521 1948.33557 1948.33484
1998.0 0.000501 1946.65942 1946.65869
1936.0 0.000517 1944.97437 1944.97375
1927.0 0.000519 1943.28052 1943.27991
1901.0 0.000526 1941.57788 1941.57715
1892.0 0.000529 1939.86621 1939.86548
1910.0 0.000524 1938.14600 1938.14539
1892.0 0.000529 1936.41724 1936.41675
1962.0 0.000510 1934.67993 1934.67932
1884.0 0.000531 1932.93433 1932.93384
1936.0 0.000517 1931.18005 1931.17957
1832.0 0.000546 1929.41785 1929.41724
1866.0 0.000536 1927.64709 1927.64685
1954.0 0.000512 1925.86865 1925.86804
1945.0 0.000514 1924.08179 1924.08142
1901.0 0.000526 1922.28723 1922.28674
1866.0 0.000536 1920.48450 1920.48413
1840.0 0.000543 1918.67419 1918.67383
1866.0 0.000536 1916.85620 1916.85571
1875.0 0.000533 1915.03027 1915.02991
1901.0 0.000526 1913.19678 1913.19641
1806.0 0.000554 1911.35571 1911.35559
1849.0 0.000541 1909.50745 1909.50708
1858.0 0.000538 1907.65149 1907.65112
1901.0 0.000526 1905.78833 1905.78809
1823.0 0.000549 1903.91809 1903.91785
1892.0 0.000529 1902.04028 1902.04016
1849.0 0.000541 1900.15588 1900.15576
1866.0 0.000536 1898.26428 1898.26404
1884.0 0.000531 1896.36572 1896.36548
1927.0 0.000519 1894.46008 1894.45996
1927.0 0.000519 1892.54797 1892.54773
1884.0 0.000531 1890.62878 1890.62866
1849.0 0.000541 1888.70313 1888.70300
1875.0 0.000533 1886.77112 1886.77075
1875.0 0.000533 1884.83203 1884.83191
1884.0 0.000531 1882.88684 1882.88684
1884.0 0.000531 1880.93494 1880.93494
1798.0 0.000556 1878.97705 1878.97705
1806.0 0.000554 1877.01257 1877.01282
1858.0 0.000538 1875.04224 1875.04224
1875.0 0.000533 1873.06567 1873.06567
1789.0 0.000559 1871.08301 1871.08301
1832.0 0.000546 1869.09424 1869.09436
1832.0 0.000546 1867.09985 1867.09985
1849.0 0.000541 1865.09924 1865.09924
1764.0 0.000567 1863.09302 1863.09326
1798.0 0.000556 1861.08105 1861.08105
1815.0 0.000551 1859.06348 1859.06348
1815.0 0.000551 1857.04028 1857.04028
1866.0 0.000536 1855.01160 1855.01135
1849.0 0.000541 1852.97717 1852.97729
1772.0 0.000564 1850.93750 1850.93762
1832.0 0.000546 1848.89258 1848.89258
1840.0 0.000543 1846.84229 1846.84241
1858.0 0.000538 1844.78674 1844.78687
1832.0 0.000546 1842.72595 1842.72607
1875.0 0.000533 1840.66028 1840.66077
1823.0 0.000549 1838.58960 1838.58972
1815.0 0.000551 1836.51379 1836.51379
1764.0 0.000567 1834.43323 1834.43335
1840.0 0.000543 1832.34766 1832.34790
1866.0 0.000536 1830.25720 1830.25745
1832.0 0.000546 1828.16235 1828.16272
1798.0 0.000556 1826.06250 1826.06287
1866.0 0.000536 1823.95837 1823.95850
1858.0 0.000538 1821.84937 1821.84973
1764.0 0.000567 1819.73596 1819.73645
1806.0 0.000554 1817.61829 1817.61853
1832.0 0.000546 1815.49622 1815.49658
1832.0 0.000546 1813.36975 1813.37024
1823.0 0.000549 1811.23901 1811.23926
1781.0 0.000561 1809.10413 1809.10449
1823.0 0.000549 1806.96521 1806.96558
1832.0 0.000546 1804.82202 1804.82239
1772.0 0.000564 1802.67480 1802.67517
1739.0 0.000575 1800.52393 1800.52405
1789.0 0.000559 1798.36877 1798.36914
1815.0 0.000551 1796.20972 1796.21033
1823.0 0.000549 1794.04712 1794.04761
1772.0 0.000564 1791.88074 1791.88098
1781.0 0.000561 1789.71057 1789.71082
1806.0 0.000554 1787.53699 1787.53723
1815.0 0.000551 1785.35962 1785.35986
1806.0 0.000554 1783.17896 1783.17920
1789.0 0.000559 1780.99426 1780.99475
1798.0 0.000556 1778.80688 1778.80713
1756.0 0.000569 1776.61548 1776.61597
1789.0 0.000559 1774.42139 1774.42151
1764.0 0.000567 1772.22339 1772.22412
1798.0 0.000556 1770.02271 1770.02332
1772.0 0.000564 1767.81860 1767.81897
1789.0 0.000559 1765.61157 1765.61206
1747.0 0.000572 1763.40161 1763.40186
1806.0 0.000554 1761.18835 1761.18872
1714.0 0.000583 1758.97229 1758.97253
1772.0 0.000564 1756.75317 1756.75366
1798.0 0.000556 1754.53149 1754.53186
1781.0 0.000561 1752.30688 1752.30713
1772.0 0.000564 1750.07959 1750.08008
1714.0 0.000583 1747.84937 1747.84998
1739.0 0.000575 1745.61670 1745.61743
1832.0 0.000546 1743.38159 1743.38220
1781.0 0.000561 1741.14392 1741.14417
1697.0 0.000589 1738.90356 1738.90393
1764.0 0.000567 1736.66077 1736.66101
1798.0 0.000556 1734.41565 1734.41638
1714.0 0.000583 1732.16821 1732.16870
1739.0 0.000575 1729.91858 1729.91895
1756.0 0.000569 1727.66650 1727.66711
1764.0 0.000567 1725.41211 1725.41284
1772.0 0.000564 1723.15613 1723.15649
1815.0 0.000551 1720.89734 1720.89795
1772.0 0.000564 1718.63684 1718.63721
1722.0 0.000581 1716.37439 1716.37500
1747.0 0.000572 1714.10999 1714.11047
1756.0 0.000569 1711.84314 1711.84412
1689.0 0.000592 1709.57507 1709.57581
1739.0 0.000575 1707.30505 1707.30530
1706.0 0.000586 1705.03308 1705.03369
1772.0 0.000564 1702.75952 1702.76013
1739.0 0.000575 1700.48413 1700.48486
1731.0 0.000578 1698.20728 1698.20776
1656.0 0.000604 1695.92847 1695.92908
1739.0 0.000575 1693.64844 1693.64917
1756.0 0.000569 1691.36670 1691.36743
1739.0 0.000575 1689.08374 1689.08435
1697.0 0.000589 1686.79907 1686.79980
1731.0 0.000578 1684.51318 1684.51379
1722.0 0.000581 1682.22571 1682.22632
1624.0 0.000616 1679.93726 1679.93787
1714.0 0.000583 1677.64758 1677.64795
1681.0 0.000595 1675.35632 1675.35681
1731.0 0.000578 1673.06396 1673.06470
1714.0 0.000583 1670.77063 1670.77136
1722.0 0.000581 1668.47620 1668.47693
1706.0 0.000586 1666.18079 1666.18127
1714.0 0.000583 1663.88428 1663.88489
1665.0 0.000601 1661.58655 1661.58728
1689.0 0.000592 1659.28833 1659.28906
1640.0 0.000610 1656.98889 1656.98962
1648.0 0.000607 1654.68896 1654.68945
1772.0 0.000564 1652.38806 1652.38855
1689.0 0.000592 1650.08630 1650.08679
1648.0 0.000607 1647.78381 1647.78430
1665.0 0.000601 1645.48071 1645.48145
1656.0 0.000604 1643.17700 1643.17749
1689.0 0.000592 1640.87256 1640.87329
1648.0 0.000607 1638.56750 1638.56824
1689.0 0.000592 1636.26221 1636.26282
1665.0 0.000601 1633.95630 1633.95715
1673.0 0.000598 1631.64978 1631.65039
1600.0 0.000625 1629.34290 1629.34363
1632.0 0.000613 1627.03577 1627.03625
1689.0 0.000592 1624.72803 1624.72876
1656.0 0.000604 1622.42053 1622.42114
1731.0 0.000578 1620.11206 1620.11279
1624.0 0.000616 1617.80371 1617.80444
1665.0 0.000601 1615.49512 1615.49609
1592.0 0.000628 1613.18640 1613.18726
1648.0 0.000607 1610.87744 1610.87830
1640.0 0.000610 1608.56860 1608.56934
1648.0 0.000607 1606.25952 1606.26013
1656.0 0.000604 1603.95044 1603.95129
1616.0 0.000619 1601.64172 1601.64221
1648.0 0.000607 1599.33264 1599.33325
1640.0 0.000610 1597.02368 1597.02429
1568.0 0.000638 1594.71509 1594.71570
1616.0 0.000619 1592.40637 1592.40710
1648.0 0.000607 1590.09790 1590.09863
1608.0 0.000622 1587.78979 1587.79053
1632.0 0.000613 1585.48169 1585.48254
1722.0 0.000581 1583.17419 1583.17493
1648.0 0.000607 1580.86670 1580.86743
1673.0 0.000598 1578.55994 1578.56067
1648.0 0.000607 1576.25342 1576.25391
1584.0 0.000631 1573.94714 1573.94775
1648.0 0.000607 1571.64124 1571.64197
1624.0 0.000616 1569.33618 1569.33691
1608.0 0.000622 1567.03149 1567.03210
1640.0 0.000610 1564.72729 1564.72815
1584.0 0.000631 1562.42371 1562.42456
1673.0 0.000598 1560.12073 1560.12146
1568.0 0.000638 1557.81848 1557.81909
1505.0 0.000664 1555.51685 1555.51746
1608.0 0.000622 1553.21570 1559.61438
1608.0 0.000622 1550.91565 1557.54932
1560.0 0.000641 1548.61633 1558.73706
1584.0 0.000631 1546.31738 1556.82068
1648.0 0.000607 1544.01978 1554.92773
1592.0 0.000628 1541.72266 1553.05908
1608.0 0.000622 1539.42664 1551.21704
1584.0 0.000631 1537.13147 1549.40417
1568.0 0.000638 1534.83716 1547.62231
1560.0 0.000641 1532.54395 1545.87415
1584.0 0.000631 1530.25159 1544.16309
1560.0 0.000641 1527.96057 1542.49158
1513.0 0.000661 1525.67029 1540.86389
1560.0 0.000641 1523.38086 1539.28357
1544.0 0.000648 1521.09314 1537.75574
1544.0 0.000648 1518.80615 1536.28442
1584.0 0.000631 1516.52075 1534.87634
1576.0 0.000635 1514.23621 1533.53723
1640.0 0.000610 1511.95288 1532.27478
1568.0 0.000638 1509.67090 1531.09692
1568.0 0.000638 1507.39026 1530.01318
1560.0 0.000641 1505.11072 1529.03467
1560.0 0.000641 1502.83289 1528.17358
1505.0 0.000664 1500.55591 1527.44385
1529.0 0.000654 1498.28064 1526.86304
1537.0 0.000651 1496.00647 1526.44934
1529.0 0.000654 1493.73413 1526.22693
1513.0 0.000661 1491.46313 1526.22107
1513.0 0.000661 1489.19324 1526.46448
1584.0 0.000631 1486.92542 1526.99426
1482.0 0.000675 1484.65881 1527.85632
1544.0 0.000648 1482.39380 1529.10498
1490.0 0.000671 1480.13049 1530.80762
1552.0 0.000644 1477.86890 1533.04565
1608.0 0.000622 1475.60864 1535.92200
1513.0 0.000661 1473.35022 1539.56470
1576.0 0.000635 1471.09338 1544.13647
1505.0 0.000664 1468.83826 1549.84741
1608.0 0.000622 1466.58484 1556.97241
1624.0 0.000616 1464.33337 1565.87744
1568.0 0.000638 1462.08350 1577.06177
1568.0 0.000638 1459.83557 1591.23315
1616.0 0.000619 1457.58923 1609.45581
1706.0 0.000586 1455.34497 1633.47913
1706.0 0.000586 1453.10242 1666.37183
1764.0 0.000567 1450.86182 1713.44409
1806.0 0.000554 1448.62305 1783.10291
1971.0 0.000507 1446.38623 1886.89136
2052.0 0.000487 1444.15149 2036.31775
2237.0 0.000447 1441.91882 2233.47119
2470.0 0.000405 1439.68811 2482.55933
2746.0 0.000364 1437.45923 2815.48560
3158.0 0.0003167 1435.23230 3239.45898
3745.0 0.0002670 1433.00757 3737.61108
4225.0 0.0002367 1430.78503 4353.68848
4886.0 0.0002047 1428.56445 5061.49658
5685.0 0.0001759 1426.34631 5759.80029
6352.0 0.0001574 1424.12964 6268.25732
6545.0 0.0001528 1421.91577 6261.86816
6068.0 0.0001648 1419.70398 5630.40918
4789.0 0.0002088 1417.49426 4626.48535
3612.0 0.0002769 1415.28662 3623.63013
2735.0 0.000366 1413.08142 2858.72510
2209.0 0.000453 1410.87854 2364.15894
1936.0 0.000517 1408.67798 2067.35034
1789.0 0.000559 1406.47949 1890.03491
1632.0 0.000613 1404.28357 1778.43848
1632.0 0.000613 1402.08997 1702.56213
1560.0 0.000641 1399.89880 1647.32349
1537.0 0.000651 1397.70959 1605.22217
1552.0 0.000644 1395.52307 1572.10486
1529.0 0.000654 1393.33875 1545.44434
1498.0 0.000668 1391.15723 1523.55798
1436.0 0.000696 1388.97778 1505.28064
1444.0 0.000693 1386.80103 1489.78247
1452.0 0.000689 1384.62683 1476.45862
1459.0 0.000685 1382.45483 1464.86169
1399.0 0.000715 1380.28564 1454.65222
1399.0 0.000715 1378.11890 1445.57153
1414.0 0.000707 1375.95459 1437.41882
1429.0 0.000700 1373.79309 1430.03528
1414.0 0.000707 1371.63416 1423.29565
1391.0 0.000719 1369.47754 1417.09912
1399.0 0.000715 1367.32373 1411.36304
1421.0 0.000704 1365.17261 1406.02185
1376.0 0.000727 1363.02417 1401.01953
1384.0 0.000723 1360.87817 1396.31116
1391.0 0.000719 1358.73511 1391.85803
1376.0 0.000727 1356.59460 1387.62854
1406.0 0.000711 1354.45691 1383.59521
1429.0 0.000700 1352.32178 1379.73462
1332.0 0.000751 1350.18945 1376.02820
1406.0 0.000711 1348.06018 1372.45837
1332.0 0.000751 1345.93347 1369.01074
1376.0 0.000727 1343.80933 1365.67224
1362.0 0.000734 1341.68823 1362.43311
1399.0 0.000715 1339.56995 1359.28284
1369.0 0.000730 1337.45447 1356.21375
1354.0 0.000739 1335.34192 1353.21802
1318.0 0.000759 1333.23218 1350.28979
1347.0 0.000742 1331.12524 1347.42334
1362.0 0.000734 1329.02136 1344.61401
1362.0 0.000734 1326.92017 1341.85767
1369.0 0.000730 1324.82202 1339.15051
1354.0 0.000739 1322.72681 1336.48975
1310.0 0.000763 1320.63440 1333.87292
1303.0 0.000767 1318.54517 1331.29822
1282.0 0.000780 1316.45874 1328.76465
1347.0 0.000742 1314.37549 1326.27173
1310.0 0.000763 1312.29504 1323.82031
1332.0 0.000751 1310.21777 1321.41309
1376.0 0.000727 1308.14343 1319.05725
1347.0 0.000742 1306.07214 1316.76489
1310.0 0.000763 1304.00378 1314.55933
1289.0 0.000776 1301.93872 1306.46436
1310.0 0.000763 1299.87671 1304.75562
1340.0 0.000746 1297.81750 1300.29102
1325.0 0.000755 1295.76147 1299.09656
1274.0 0.000785 1293.70850 1298.12964
1384.0 0.000723 1291.65881 1297.54321
1347.0 0.000742 1289.61243 1297.40710
1296.0 0.000772 1287.56897 1297.56067
1325.0 0.000755 1285.52869 1297.94336
1296.0 0.000772 1283.49146 1298.22827
1347.0 0.000742 1281.45752 1297.52368
1325.0 0.000755 1279.42651 1295.09399
1296.0 0.000772 1277.39917 1290.78613
1340.0 0.000746 1275.37451 1285.55823
1289.0 0.000776 1273.35352 1280.41785
1260.0 0.000794 1271.33569 1276.00696
1303.0 0.000767 1269.32080 1272.42065
1274.0 0.000785 1267.30957 1269.45374
1225.0 0.000816 1265.30139 1266.87329
1296.0 0.000772 1263.29639 1264.51184
1232.0 0.000812 1261.29468 1262.27185
1289.0 0.000776 1259.29626 1260.10254
1239.0 0.000807 1257.30115 1257.97888
1225.0 0.000816 1255.30957 1255.88708
1274.0 0.000785 1253.32092 1253.81909
1246.0 0.000803 1251.33569 1251.77002
1246.0 0.000803 1249.35376 1249.73584
1232.0 0.000812 1247.37549 1247.71423
1246.0 0.000803 1245.40039 1245.70251
1176.0 0.000850 1243.42859 1243.69995
1211.0 0.000826 1241.45996 1241.70508
1246.0 0.000803 1239.49500 1239.71753
1197.0 0.000835 1237.53345 1237.73633
1197.0 0.000835 1235.57532 1235.76086
1225.0 0.000816 1233.62036 1233.79102
1211.0 0.000826 1231.66870 1231.82629
1197.0 0.000835 1229.72070 1229.86633
1183.0 0.000845 1227.77612 1227.91125
1282.0 0.000780 1225.83508 1225.96082
1204.0 0.000831 1223.89722 1224.01440
1204.0 0.000831 1221.96265 1222.07214
1183.0 0.000845 1220.03186 1220.13452
1253.0 0.000798 1218.10437 1218.20105
1232.0 0.000812 1216.18042 1216.27148
1211.0 0.000826 1214.26013 1214.34558
1232.0 0.000812 1212.34290 1212.42383
1239.0 0.000807 1210.42957 1210.50610
1260.0 0.000794 1208.51953 1208.59180
1232.0 0.000812 1206.61304 1206.68164
1289.0 0.000776 1204.70996 1204.77527
1211.0 0.000826 1202.81042 1202.87244
1218.0 0.000821 1200.91431 1200.97339
1239.0 0.000807 1199.02197 1199.07825
1303.0 0.000767 1197.13293 1197.18677
1267.0 0.000789 1195.24756 1195.29895
1225.0 0.000816 1193.36572 1193.41492
1211.0 0.000826 1191.48730 1191.53455
1176.0 0.000850 1189.61243 1189.65771
1183.0 0.000845 1187.74109 1187.78467
1170.0 0.000855 1185.87354 1185.91516
1136.0 0.000880 1184.00952 1184.04944
1232.0 0.000812 1182.14893 1182.18726
1183.0 0.000845 1180.29199 1180.35547
1129.0 0.000886 1178.43848 1178.50183
1149.0 0.000870 1176.58875 1176.66528
1197.0 0.000835 1174.74280 1174.81934
1149.0 0.000870 1172.90015 1172.97717
1211.0 0.000826 1171.06104 1171.11890
1163.0 0.000860 1169.22559 1169.28503
1197.0 0.000835 1167.39404 1167.44531
1122.0 0.000891 1165.56567 1165.61914
1122.0 0.000891 1163.74121 1163.79688
1129.0 0.000886 1161.92017 1166.58472
1163.0 0.000860 1160.10291 1164.93713
1136.0 0.000880 1158.28918 1165.59485
1170.0 0.000855 1156.47913 1164.05713
1183.0 0.000845 1154.67273 1162.55115
1149.0 0.000870 1152.87012 1161.05347
1190.0 0.000840 1151.07080 1159.58362
1096.0 0.000912 1149.27551 1158.13147
1116.0 0.000896 1147.48364 1156.70374
1170.0 0.000855 1145.69556 1155.30286
1136.0 0.000880 1143.91101 1153.93066
1136.0 0.000880 1142.13013 1152.58911
1183.0 0.000845 1140.35291 1151.28088
1096.0 0.000912 1138.57947 1150.00867
1136.0 0.000880 1136.80945 1148.77563
1129.0 0.000886 1135.04370 1147.58508
1142.0 0.000876 1133.28101 1146.44055
1163.0 0.000860 1131.52209 1145.34668
1129.0 0.000886 1129.76697 1144.30859
1082.0 0.000924 1128.01538 1143.33142
1089.0 0.000918 1126.26782 1142.42236
1102.0 0.000907 1124.52344 1141.58704
1142.0 0.000876 1122.78320 1140.83496
1129.0 0.000886 1121.04639 1140.17578
1136.0 0.000880 1119.31348 1139.61987
1163.0 0.000860 1117.58411 1139.18030
1122.0 0.000891 1115.85852 1138.87183
1122.0 0.000891 1114.13660 1138.71289
1109.0 0.000902 1112.41846 1138.72290
1183.0 0.000845 1110.70386 1138.92737
1149.0 0.000870 1108.99304 1139.35547
1089.0 0.000918 1107.28601 1140.04248
1190.0 0.000840 1105.58252 1141.03186
1129.0 0.000886 1103.88281 1142.37598
1116.0 0.000896 1102.18665 1144.14221
1116.0 0.000896 1100.49438 1146.41577
1102.0 0.000907 1098.80591 1149.30859
1149.0 0.000870 1097.12085 1155.23804
1163.0 0.000860 1095.43970 1159.95337
1089.0 0.000918 1093.76245 1167.03235
1109.0 0.000902 1092.08862 1174.60535
1089.0 0.000918 1090.41858 1184.16382
1163.0 0.000860 1088.75232 1196.24341
1183.0 0.000845 1087.08948 1211.64099
1176.0 0.000850 1085.43079 1231.32849
1204.0 0.000831 1083.77563 1256.74512
1267.0 0.000789 1082.12415 1290.57397
1296.0 0.000772 1080.47644 1337.24280
1347.0 0.000742 1078.83252 1404.51636
1467.0 0.000682 1077.19214 1504.72876
1632.0 0.000613 1075.55554 1654.20471
1858.0 0.000538 1073.92249 1868.22131
2088.0 0.000479 1072.29358 2151.36597
2381.0 0.000420 1070.66809 2510.70337
2809.0 0.000356 1069.04626 2978.35181
3352.0 0.0002983 1067.42810 3539.96411
3919.0 0.0002552 1065.81384 4079.55469
4436.0 0.0002254 1064.20325 4467.81934
4638.0 0.0002156 1062.59656 4561.25293
4396.0 0.0002275 1060.99329 4252.54053
3819.0 0.0002618 1059.39392 3682.26758
2927.0 0.0003416 1057.79834 3024.47290
2294.0 0.000436 1056.20593 2426.74634
1756.0 0.000569 1054.61755 1979.04468
1490.0 0.000671 1053.03308 1681.85522
1391.0 0.000719 1051.45215 1496.79749
1267.0 0.000789 1049.87488 1383.51367
1170.0 0.000855 1048.30127 1312.08069
1170.0 0.000855 1046.73120 1264.14404
1129.0 0.000886 1045.16541 1229.79480
1156.0 0.000865 1043.60303 1203.96655
1122.0 0.000891 1042.04419 1183.98438
1109.0 0.000902 1040.48926 1168.30090
1089.0 0.000918 1038.93774 1155.93738
1109.0 0.000902 1037.39001 1146.24609
1082.0 0.000924 1035.84644 1138.79785
1076.0 0.000929 1034.30591 1133.32129
1109.0 0.000902 1032.76929 1129.67419
1142.0 0.000876 1031.23657 1127.83057
1136.0 0.000880 1029.70715 1127.88928
1156.0 0.000865 1028.18164 1130.11621
1116.0 0.000896 1026.65991 1135.05383
1116.0 0.000896 1025.14185 1143.75195
1142.0 0.000876 1023.62726 1158.15869
1239.0 0.000807 1022.11633 1181.60522
1267.0 0.000789 1020.60931 1219.21838
1303.0 0.000767 1019.10565 1278.05518
1384.0 0.000723 1017.60571 1366.41516
1584.0 0.000631 1016.10956 1490.54761
1673.0 0.000598 1014.61707 1652.29980
1875.0 0.000533 1013.12830 1859.63916
2052.0 0.000487 1011.64307 2116.63428
2304.0 0.000434 1010.16156 2384.05249
2510.0 0.000398 1008.68365 2595.56274
2540.0 0.000394 1007.20941 2689.68604
2601.0 0.000384 1005.73865 2602.26929
2421.0 0.000413 1004.27179 2364.98584
2200.0 0.000455 1002.80835 2062.57007
1875.0 0.000533 1001.34869 1763.24878
1576.0 0.000635 999.89252 1521.71924
1340.0 0.000746 998.44000 1352.91345
1318.0 0.000759 996.99127 1244.30542
1156.0 0.000865 995.54614 1176.86292
1156.0 0.000865 994.10461 1134.46350
1122.0 0.000891 992.66638 1106.26978
1102.0 0.000907 991.23212 1086.12378
1082.0 0.000924 989.80139 1070.74097
1050.0 0.000952 988.37421 1058.47485
1030.0 0.000971 986.95068 1048.39050
1037.0 0.000964 985.53052 1039.91760
1069.0 0.000935 984.11426 1032.67285
1030.0 0.000971 982.70142 1026.38257
1037.0 0.000964 981.29218 1020.84650
1011.0 0.000989 979.88647 1015.91431
1018.0 0.000982 978.48468 1006.98059
986.0 0.001014 977.08612 1003.09351
973.0 0.001028 975.69110 997.28613
1011.0 0.000989 974.29962 994.07294
1011.0 0.000989 972.91187 991.07300
992.0 0.001008 971.52765 988.27563
986.0 0.001014 970.14679 985.63477
980.0 0.001020 968.76984 983.13928
942.0 0.001062 967.39618 980.76440
961.0 0.001041 966.02612 978.49414
980.0 0.001020 964.65961 976.31543
1005.0 0.000995 963.29657 974.21716
980.0 0.001020 961.93695 972.18982
955.0 0.001047 960.58130 970.22565
936.0 0.001068 959.22870 968.31744
986.0 0.001014 957.87970 966.45941
930.0 0.001075 956.53412 964.64655
980.0 0.001020 955.19238 962.87451
949.0 0.001054 953.85382 961.13916
924.0 0.001082 952.51886 959.43732
967.0 0.001034 951.18738 957.76593
961.0 0.001041 949.85950 956.12256
961.0 0.001041 948.53503 954.50494
955.0 0.001047 947.21399 952.91156
918.0 0.001089 945.89636 951.33929
973.0 0.001028 944.58228 949.78729
936.0 0.001068 943.27167 948.25415
900.0 0.001111 941.96448 948.83649
980.0 0.001020 940.66064 947.41364
980.0 0.001020 939.36041 947.04108
936.0 0.001068 938.06354 945.69440
930.0 0.001075 936.77008 944.36798
942.0 0.001062 935.47998 943.06183
949.0 0.001054 934.19336 942.52441
949.0 0.001054 932.91034 941.28088
986.0 0.001014 931.63043 940.42694
973.0 0.001028 930.35406 937.04968
949.0 0.001054 929.08118 935.95789
967.0 0.001034 927.81171 934.88562
906.0 0.001104 926.54523 932.77435
906.0 0.001104 925.28259 931.78027
912.0 0.001096 924.02295 930.80762
912.0 0.001096 922.76697 929.85834
936.0 0.001068 921.51440 928.93390
955.0 0.001047 920.26495 928.03674
942.0 0.001062 919.01880 927.16943
949.0 0.001054 917.77618 926.33423
876.0 0.001142 916.53699 925.53436
955.0 0.001047 915.30096 924.77319
942.0 0.001062 914.06830 924.05487
912.0 0.001096 912.83899 923.38422
961.0 0.001041 911.61285 922.76630
936.0 0.001068 910.39014 922.20685
930.0 0.001075 909.17078 921.71356
973.0 0.001028 907.95465 921.29443
936.0 0.001068 906.74200 920.95905
900.0 0.001111 905.53229 920.71924
955.0 0.001047 904.32605 920.58826
924.0 0.001082 903.12311 920.58246
936.0 0.001068 901.92340 920.72156
961.0 0.001041 900.72693 921.02905
949.0 0.001054 899.53369 921.53412
918.0 0.001089 898.34375 922.27203
936.0 0.001068 897.15710 923.28748
924.0 0.001082 895.97363 924.63617
924.0 0.001082 894.79340 926.38867
949.0 0.001054 893.61621 928.63660
918.0 0.001089 892.44257 931.49933
973.0 0.001028 891.27191 935.13641
955.0 0.001047 890.10455 939.76862
949.0 0.001054 888.94031 945.72156
918.0 0.001089 887.77936 953.51257
999.0 0.001001 886.62134 964.03003
1011.0 0.000989 885.46667 978.84204
1056.0 0.000947 884.31531 1000.64117
1116.0 0.000896 883.16699 1033.76770
1116.0 0.000896 882.02185 1084.67517
1204.0 0.000831 880.87970 1161.98914
1310.0 0.000763 879.74078 1274.93835
1436.0 0.000696 878.60510 1429.15222
1624.0 0.000616 877.47253 1625.64795
1866.0 0.000536 876.34308 1861.12231
2043.0 0.000489 875.21661 2105.62939
2266.0 0.000441 874.09320 2298.66870
2323.0 0.000430 872.97308 2383.68628
2372.0 0.000422 871.85602 2321.28516
2144.0 0.000466 870.74194 2134.73096
1884.0 0.000531 869.63123 1887.02783
1560.0 0.000641 868.52319 1630.72131
1325.0 0.000755 867.41846 1411.68640
1211.0 0.000826 866.31683 1251.18762
1082.0 0.000924 865.21814 1145.95142
1063.0 0.000941 864.12256 1083.39624
1018.0 0.000982 863.02991 1051.23010
999.0 0.001001 861.94025 1041.31799
1043.0 0.000959 860.85370 1050.48218
1122.0 0.000891 859.77020 1079.66675
1136.0 0.000880 858.68976 1131.86096
1239.0 0.000807 857.61212 1208.88464
1274.0 0.000785 856.53760 1310.19202
1429.0 0.000700 855.46606 1432.03601
1537.0 0.000651 854.39746 1555.83972
1722.0 0.000581 853.33191 1648.44617
1731.0 0.000578 852.26935 1680.20654
1665.0 0.000601 851.20947 1634.07678
1552.0 0.000644 850.15289 1526.67310
1325.0 0.000755 849.09906 1390.15503
1211.0 0.000826 848.04834 1251.29895
1043.0 0.000959 847.00024 1133.18481
955.0 0.001047 845.95526 1045.59082
912.0 0.001096 844.91321 986.05811
936.0 0.001068 843.87396 947.50055
858.0 0.001166 842.83771 922.76648
841.0 0.001189 841.80426 906.38824
900.0 0.001111 840.77386 894.84064
864.0 0.001157 839.74609 886.11420
864.0 0.001157 838.72131 879.14087
841.0 0.001189 837.69940 873.35333
888.0 0.001126 836.68036 868.67511
864.0 0.001157 835.66406 864.41003
853.0 0.001172 834.65063 860.65637
847.0 0.001181 833.64008 857.43561
882.0 0.001134 832.63239 854.42236
870.0 0.001149 831.62750 851.67902
801.0 0.001248 830.62531 849.15857
853.0 0.001172 829.62604 846.82483
870.0 0.001149 828.62952 844.64856
847.0 0.001181 827.63568 842.60638
824.0 0.001214 826.64465 840.67908
847.0 0.001181 825.65631 838.85138
801.0 0.001248 824.67108 837.26611
801.0 0.001248 823.68817 835.60577
853.0 0.001172 822.70825 834.08832
773.0 0.001294 821.73102 832.55658
882.0 0.001134 820.75659 831.07849
812.0 0.001232 819.78485 829.64813
847.0 0.001181 818.81555 828.26062
841.0 0.001189 817.84930 826.91193
841.0 0.001189 816.88556 825.59967
790.0 0.001266 815.92462 824.32019
824.0 0.001214 814.96631 821.02948
812.0 0.001232 814.01056 819.87848
818.0 0.001222 813.05768 818.74994
835.0 0.001198 812.10736 816.64520
790.0 0.001266 811.15967 815.59155
790.0 0.001266 810.21454 814.55560
795.0 0.001258 809.27228 813.53619
807.0 0.001239 808.33246 812.53302
818.0 0.001222 807.39520 811.54559
795.0 0.001258 806.46069 810.57343
824.0 0.001214 805.52869 809.61688
835.0 0.001198 804.59943 808.67548
841.0 0.001189 803.67249 807.74963
801.0 0.001248 802.74835 806.83978
807.0 0.001239 801.82678 805.94586
756.0 0.001323 800.90759 805.06903
795.0 0.001258 799.99115 804.20996
818.0 0.001222 799.07715 803.36951
807.0 0.001239 798.16559 802.54907
778.0 0.001285 797.25677 800.65436
812.0 0.001232 796.35040 799.91644
795.0 0.001258 795.44653 799.20270
847.0 0.001181 794.54498 797.97949
795.0 0.001258 793.64630 797.34161
807.0 0.001239 792.74976 796.73792
807.0 0.001239 791.85590 796.17352
835.0 0.001198 790.96442 795.65552
795.0 0.001258 790.07544 795.19208
812.0 0.001232 789.18896 794.79327
829.0 0.001206 788.30475 794.47223
773.0 0.001294 787.42316 794.24573
773.0 0.001294 786.54388 794.13544
807.0 0.001239 785.66718 794.17053
812.0 0.001232 784.79279 794.39160
773.0 0.001294 783.92065 794.85870
762.0 0.001312 783.05121 795.66919
824.0 0.001214 782.18396 796.99042
829.0 0.001206 781.31921 799.11774
807.0 0.001239 780.45673 802.55902
801.0 0.001248 779.59650 808.13904
812.0 0.001232 778.73907 817.09247
858.0 0.001166 777.88348 831.05750
876.0 0.001142 777.03052 851.77435
876.0 0.001142 776.17975 880.29321
973.0 0.001028 775.33148 916.23523
967.0 0.001034 774.48547 957.46448
992.0 0.001008 773.64166 997.92126
1069.0 0.000935 772.80011 1027.39148
1037.0 0.000964 771.96100 1037.04175
1050.0 0.000952 771.12408 1024.08618
1030.0 0.000971 770.28961 994.47003
986.0 0.001014 769.45715 957.28162
936.0 0.001068 768.62708 920.80316
864.0 0.001157 767.79932 892.85730
973.0 0.001028 766.97369 877.93872
894.0 0.001119 766.15033 876.42004
870.0 0.001149 765.32935 886.05328
864.0 0.001157 764.51031 903.04034
912.0 0.001096 763.69366 921.26849
949.0 0.001054 762.87921 933.06525
918.0 0.001089 762.06689 932.71753
918.0 0.001089 761.25684 919.09192
894.0 0.001119 760.44873 896.12170
829.0 0.001206 759.64307 868.73151
824.0 0.001214 758.83942 841.34857
824.0 0.001214 758.03796 817.83868
778.0 0.001285 757.23871 799.87292
812.0 0.001232 756.44141 787.12463
801.0 0.001248 755.64636 778.42633
778.0 0.001285 754.85352 772.51544
767.0 0.001304 754.06262 768.36395
729.0 0.001372 753.27399 765.26538
807.0 0.001239 752.48724 762.79218
778.0 0.001285 751.70288 760.70593
756.0 0.001323 750.92035 758.87787
767.0 0.001304 750.14001 757.23621
784.0 0.001276 749.36163 755.73615
740.0 0.001351 748.58545 754.34760
773.0 0.001294 747.81122 753.04889
767.0 0.001304 747.03894 751.82330
767.0 0.001304 746.26880 750.65845
686.0 0.001458 745.50073 749.54413
751.0 0.001332 744.73462 748.47284
751.0 0.001332 743.97034 747.43774
762.0 0.001312 743.20831 746.43396
778.0 0.001285 742.44824 745.45746
756.0 0.001323 741.69006 744.50464
729.0 0.001372 740.93396 743.57257
756.0 0.001323 740.17969 742.65887
697.0 0.001435 739.42749 741.76123
778.0 0.001285 738.67712 740.87854
729.0 0.001372 737.92883 740.00897
740.0 0.001351 737.18243 739.15131
751.0 0.001332 736.43787 740.18652
724.0 0.001381 735.69537 739.40491
756.0 0.001323 734.95471 738.63446
708.0 0.001412 734.21588 738.81372
724.0 0.001381 733.47906 738.09253
729.0 0.001372 732.74408 737.38257
681.0 0.001468 732.01099 736.68390
751.0 0.001332 731.27966 735.99585
734.0 0.001362 730.55017 735.31879
724.0 0.001381 729.82275 734.65253
702.0 0.001425 729.09705 733.99719
729.0 0.001372 728.37323 733.35291
713.0 0.001403 727.65112 732.71954
686.0 0.001458 726.93109 732.09784
734.0 0.001362 726.21252 731.48767
692.0 0.001445 725.49603 730.88953
708.0 0.001412 724.78131 730.30377
751.0 0.001332 724.06824 729.73120
713.0 0.001403 723.35687 729.17194
740.0 0.001351 722.64752 728.62683
713.0 0.001403 721.93982 728.09674
718.0 0.001393 721.23395 727.58258
729.0 0.001372 720.52979 727.08484
692.0 0.001445 719.82727 726.60498
708.0 0.001412 719.12659 725.90302
740.0 0.001351 718.42761 725.46918
729.0 0.001372 717.73035 724.93427
729.0 0.001372 717.03491 724.54895
702.0 0.001425 716.34088 724.18829
745.0 0.001342 715.64874 723.85535
790.0 0.001266 714.95844 723.55182
745.0 0.001342 714.26953 723.28107
745.0 0.001342 713.58246 723.04584
724.0 0.001381 712.89697 722.93237
756.0 0.001323 712.21332 722.78235
740.0 0.001351 711.53107 722.52667
692.0 0.001445 710.85052 722.48279
773.0 0.001294 710.17169 722.54065
686.0 0.001458 709.49445 722.54846
740.0 0.001351 708.81885 722.70966
708.0 0.001412 708.14478 722.95575
729.0 0.001372 707.47229 723.29810
718.0 0.001393 706.80151 723.75037
745.0 0.001342 706.13232 724.32855
697.0 0.001435 705.46466 725.05133
681.0 0.001468 704.79840 725.94159
708.0 0.001412 704.13397 727.02692
729.0 0.001372 703.47107 728.34088
740.0 0.001351 702.80963 729.92401
756.0 0.001323 702.14972 731.82709
745.0 0.001342 701.49133 734.11310
767.0 0.001304 700.83453 736.86182
745.0 0.001342 700.17926 740.17407
740.0 0.001351 699.52545 744.18109
734.0 0.001362 698.87317 749.05597
729.0 0.001372 698.22241 755.03680
756.0 0.001323 697.57300 762.47162
767.0 0.001304 696.92505 771.91589
773.0 0.001294 696.27881 784.33038
829.0 0.001206 695.63397 801.44647
858.0 0.001166 694.99054 826.34393
918.0 0.001089 694.34845 864.18842
942.0 0.001062 693.70795 923.54980
1076.0 0.000929 693.06885 1013.96588
1211.0 0.000826 692.43121 1148.58826
1421.0 0.000704 691.79492 1338.20691
1689.0 0.000592 691.15991 1582.94763
1910.0 0.000524 690.52655 1866.20923
2200.0 0.000455 689.89459 2156.56860
2460.0 0.000407 689.26385 2409.76489
2540.0 0.000394 688.63464 2554.70239
2570.0 0.000389 688.00671 2536.40918
2550.0 0.000392 687.38025 2380.00195
2172.0 0.000460 686.75507 2139.59351
1866.0 0.000536 686.13123 1852.98975
1537.0 0.000651 685.50873 1565.26208
1282.0 0.000780 684.88770 1318.33887
1156.0 0.000865 684.26782 1129.45667
999.0 0.001001 683.64935 996.04193
882.0 0.001134 683.03223 906.94073
882.0 0.001134 682.41644 849.34302
801.0 0.001248 681.80182 812.20355
807.0 0.001239 681.18872 787.50177
740.0 0.001351 680.57678 770.13538
778.0 0.001285 679.96606 757.16876
762.0 0.001312 679.35669 747.00861
671.0 0.001490 678.74860 738.78882
708.0 0.001412 678.14178 732.01068
686.0 0.001458 677.53619 726.36023
713.0 0.001403 676.93170 721.62543
718.0 0.001393 676.32867 717.66339
702.0 0.001425 675.72681 714.38739
734.0 0.001362 675.12616 711.77161
729.0 0.001372 674.52679 709.86774
713.0 0.001403 673.92847 708.83026
708.0 0.001412 673.33154 708.94373
745.0 0.001342 672.73572 710.62439
724.0 0.001381 672.14105 714.37335
756.0 0.001323 671.54761 720.62622
734.0 0.001362 670.95544 729.45197
751.0 0.001332 670.36432 740.19446
740.0 0.001351 669.77448 751.49115
756.0 0.001323 669.18567 761.45392
751.0 0.001332 668.59808 767.24719
812.0 0.001232 668.01160 766.42358
784.0 0.001276 667.42633 759.64435
756.0 0.001323 666.84204 749.17542
740.0 0.001351 666.25897 736.62885
740.0 0.001351 665.67700 724.38879
686.0 0.001458 665.09613 713.06433
697.0 0.001435 664.51660 704.33197
676.0 0.001479 663.93781 698.34979
692.0 0.001445 663.36029 694.23059
686.0 0.001458 662.78387 691.77863
702.0 0.001425 662.20844 690.59991
660.0 0.001515 661.63409 690.26105
708.0 0.001412 661.06085 690.63251
681.0 0.001468 660.48883 691.65991
692.0 0.001445 659.91760 693.40668
660.0 0.001515 659.34747 696.07544
681.0 0.001468 658.77850 700.08893
718.0 0.001393 658.21039 706.21265
724.0 0.001381 657.64349 715.80621
767.0 0.001304 657.07751 731.03143
751.0 0.001332 656.51251 754.98865
812.0 0.001232 655.94849 791.52570
864.0 0.001157 655.38562 844.46991
864.0 0.001157 654.82367 916.31445
936.0 0.001068 654.26257 1003.76135
1076.0 0.000929 653.70258 1098.83081
1149.0 0.000870 653.14368 1188.71960
1253.0 0.000798 652.58569 1255.53552
1303.0 0.000767 652.02856 1277.57849
1274.0 0.000785 651.47235 1249.94092
1149.0 0.000870 650.91718 1187.23303
1129.0 0.000886 650.36298 1103.50818
961.0 0.001041 649.80963 1009.98535
918.0 0.001089 649.25732 920.68671
829.0 0.001206 648.70587 846.20099
756.0 0.001323 648.15533 787.95111
724.0 0.001381 647.60583 748.19580
692.0 0.001445 647.05707 721.48346
676.0 0.001479 646.50928 703.08545
686.0 0.001458 645.96240 691.68689
676.0 0.001479 645.41626 683.99670
686.0 0.001458 644.87115 678.52618
655.0 0.001527 644.32697 674.40881
666.0 0.001502 643.78357 671.16962
640.0 0.001563 643.24109 668.54840
671.0 0.001490 642.69934 666.39642
650.0 0.001538 642.15863 664.62024
635.0 0.001575 641.61865 663.15814
671.0 0.001490 641.07959 661.96661
671.0 0.001490 640.54126 661.01611
640.0 0.001563 640.00385 660.28717
702.0 0.001425 639.46710 659.76935
671.0 0.001490 638.93140 659.45898
640.0 0.001563 638.39642 659.36096
660.0 0.001515 637.86224 659.48676
650.0 0.001538 637.32886 660.31183
645.0 0.001550 636.79620 660.97052
676.0 0.001479 636.26447 661.94824
625.0 0.001600 635.73334 663.53107
681.0 0.001468 635.20331 665.36816
686.0 0.001458 634.67377 667.81934
697.0 0.001435 634.14502 671.12433
671.0 0.001490 633.61719 675.70758
671.0 0.001490 633.09003 682.32745
697.0 0.001435 632.56360 692.28778
778.0 0.001285 632.03790 707.67621
724.0 0.001381 631.51288 731.52045
784.0 0.001276 630.98871 767.67407
824.0 0.001214 630.46527 820.09265
912.0 0.001096 629.94250 891.69836
1024.0 0.000977 629.42059 981.48871
1142.0 0.000876 628.89911 1082.75781
1211.0 0.000826 628.37854 1183.63940
1318.0 0.000759 627.85864 1267.07886
1369.0 0.000730 627.33954 1312.30261
1340.0 0.000746 626.82098 1309.18005
1289.0 0.000776 626.30310 1265.39539
1156.0 0.000865 625.78607 1192.21594
1069.0 0.000935 625.26947 1100.47510
961.0 0.001041 624.75372 1004.78882
900.0 0.001111 624.23865 918.18866
847.0 0.001181 623.72412 847.82489
718.0 0.001393 623.21039 796.07526
745.0 0.001342 622.69708 762.21973
773.0 0.001294 622.18457 744.19946
697.0 0.001435 621.67279 740.16595
713.0 0.001403 621.16150 749.26855
767.0 0.001304 620.65088 771.69885
801.0 0.001248 620.14093 807.98932
882.0 0.001134 619.63159 857.35400
924.0 0.001082 619.12280 915.76050
999.0 0.001001 618.61462 975.57318
1005.0 0.000995 618.10712 1026.44507
1122.0 0.000891 617.60022 1055.36047
1063.0 0.000941 617.09381 1052.91321
1030.0 0.000971 616.58813 1022.56403
986.0 0.001014 616.08295 974.41528
888.0 0.001126 615.57843 914.71387
870.0 0.001149 615.07440 852.27484
824.0 0.001214 614.57098 794.90076
790.0 0.001266 614.06812 747.70514
734.0 0.001362 613.56586 712.34283
708.0 0.001412 613.06415 687.32135
692.0 0.001445 612.56293 670.41632
645.0 0.001550 612.06219 659.31976
660.0 0.001515 611.56219 652.09332
655.0 0.001527 611.06262 647.33362
660.0 0.001515 610.56366 644.14362
635.0 0.001575 610.06512 642.01050
650.0 0.001538 609.56714 640.79785
692.0 0.001445 609.06982 640.40503
655.0 0.001527 608.57288 640.49451
640.0 0.001563 608.07648 641.44092
660.0 0.001515 607.58051 643.74817
650.0 0.001538 607.08508 647.67358
676.0 0.001479 606.59009 654.43427
692.0 0.001445 606.09583 665.64923
729.0 0.001372 605.60181 683.41486
740.0 0.001351 605.10846 710.21307
756.0 0.001323 604.61548 748.16876
778.0 0.001285 604.12305 797.85370
888.0 0.001126 603.63098 856.82581
882.0 0.001134 603.13953 918.77179
999.0 0.001001 602.64850 974.33405
1018.0 0.000982 602.15784 1011.70172
980.0 0.001020 601.66772 1020.28851
1043.0 0.000959 601.17804 999.85864
961.0 0.001041 600.68878 959.14001
835.0 0.001198 600.20007 905.87439
853.0 0.001172 599.71173 846.42053
778.0 0.001285 599.22382 788.72797
713.0 0.001403 598.73633 739.28320
666.0 0.001502 598.24921 700.65387
671.0 0.001490 597.76263 672.44128
635.0 0.001575 597.27637 652.83929
660.0 0.001515 596.79065 639.65198
660.0 0.001515 596.30524 630.86060
625.0 0.001600 595.82025 624.88800
635.0 0.001575 595.33575 620.64862
620.0 0.001613 594.85162 617.46808
620.0 0.001613 594.36786 614.95825
630.0 0.001587 593.88440 617.56970
571.0 0.001751 593.40137 615.98938
581.0 0.001721 592.91876 614.06067
615.0 0.001626 592.43658 615.27844
605.0 0.001653 591.95465 614.36652
645.0 0.001550 591.47327 613.43616
650.0 0.001538 590.99219 612.99420
586.0 0.001706 590.51147 612.66125
645.0 0.001550 590.03113 612.55072
650.0 0.001538 589.55109 612.61639
615.0 0.001626 589.07147 612.87793
620.0 0.001613 588.59229 613.37299
620.0 0.001613 588.11328 614.16949
590.0 0.001695 587.63458 615.39221
625.0 0.001600 587.15643 617.25568
610.0 0.001639 586.67865 620.14532
610.0 0.001639 586.20099 624.63239
635.0 0.001575 585.72369 631.51953
660.0 0.001515 585.24683 641.78723
681.0 0.001468 584.77026 656.38074
692.0 0.001445 584.29395 675.85095
666.0 0.001502 583.81805 699.35272
745.0 0.001342 583.34247 725.93353
724.0 0.001381 582.86719 751.82581
762.0 0.001312 582.39209 772.48822
762.0 0.001312 581.91748 783.81024
778.0 0.001285 581.44293 783.63007
756.0 0.001323 580.96887 774.50769
745.0 0.001342 580.49512 760.47943
729.0 0.001372 580.02161 744.94995
767.0 0.001304 579.54846 731.98651
778.0 0.001285 579.07550 726.33740
778.0 0.001285 578.60284 731.76880
767.0 0.001304 578.13049 750.23071
807.0 0.001239 577.65845 781.54236
888.0 0.001126 577.18665 822.84918
955.0 0.001047 576.71509 868.37622
961.0 0.001041 576.24384 910.13654
1005.0 0.000995 575.77295 938.96594
1005.0 0.000995 575.30219 947.69989
961.0 0.001041 574.83167 936.45886
936.0 0.001068 574.36151 911.05334
930.0 0.001075 573.89154 876.68665
858.0 0.001166 573.42188 837.45313
824.0 0.001214 572.95239 798.36273
795.0 0.001258 572.48322 763.80402
818.0 0.001222 572.01428 736.03015
734.0 0.001362 571.54553 715.56635
729.0 0.001372 571.07697 701.80573
718.0 0.001393 570.60883 693.64117
718.0 0.001393 570.14075 690.09863
708.0 0.001412 569.67303 690.51727
724.0 0.001381 569.20551 694.01935
740.0 0.001351 568.73816 701.32666
751.0 0.001332 568.27106 712.07520
773.0 0.001294 567.80420 726.76410
807.0 0.001239 567.33759 746.30676
876.0 0.001142 566.87115 773.38647
942.0 0.001062 566.40491 811.91229
1043.0 0.000959 565.93884 869.05359
1109.0 0.000902 565.47296 956.26819
1310.0 0.000763 565.00745 1090.09631
1498.0 0.000668 564.54205 1291.51855
1772.0 0.000564 564.07678 1582.73889
2134.0 0.000469 563.61194 1980.45923
2570.0 0.000389 563.14709 2485.30566
3069.0 0.0003258 562.68243 3069.14819
3576.0 0.0002796 562.21808 3668.26465
4186.0 0.0002389 561.75378 4190.22559
4502.0 0.0002221 561.28979 4527.90088
4583.0 0.0002182 560.82593 4600.49268
4369.0 0.0002289 560.36237 4415.96826
4032.0 0.0002480 559.89886 4048.15796
3552.0 0.0002815 559.43549 3562.71045
2959.0 0.0003380 558.97235 3013.25122
2530.0 0.000395 558.50940 2466.99902
2107.0 0.000475 558.04657 1984.81006
1714.0 0.000583 557.58405 1596.72424
1436.0 0.000696 557.12158 1305.24438
1197.0 0.000835 556.65930 1097.80176
1089.0 0.000918 556.19727 956.05182
980.0 0.001020 555.73529 861.47260
906.0 0.001104 555.27350 798.43439
818.0 0.001222 554.81189 755.79773
756.0 0.001323 554.35034 725.00342
756.0 0.001323 553.88916 702.22919
681.0 0.001468 553.42792 683.86511
692.0 0.001445 552.96698 669.04083
676.0 0.001479 552.50616 656.43353
620.0 0.001613 552.04547 645.92572
625.0 0.001600 551.58490 639.70636
692.0 0.001445 551.12439 631.76910
666.0 0.001502 550.66418 624.83606
610.0 0.001639 550.20410 618.74078
605.0 0.001653 549.74414 614.67346
590.0 0.001695 549.28424 609.93042
610.0 0.001639 548.82452 605.69934
635.0 0.001575 548.36499 601.81445
605.0 0.001653 547.90552 598.40887
581.0 0.001721 547.44623 595.33624
605.0 0.001653 546.98706 592.55591
595.0 0.001681 546.52789 590.03400
625.0 0.001600 546.06909 587.87689
590.0 0.001695 545.61029 585.79321
571.0 0.001751 545.15161 583.89453
552.0 0.001812 544.69305 582.16339
581.0 0.001721 544.23462 580.65271
650.0 0.001538 543.77637 579.09406
557.0 0.001795 543.31812 577.55798
600.0 0.001667 542.86005 576.38312
625.0 0.001600 542.40216 575.32214
630.0 0.001587 541.94427 574.19012
562.0 0.001779 541.48669 573.34509
620.0 0.001613 541.02899 572.59943
590.0 0.001695 540.57147 571.92511
586.0 0.001706 540.11414 571.37256
566.0 0.001767 539.65680 570.91516
630.0 0.001587 539.19977 570.54010
595.0 0.001681 538.74261 570.27570
600.0 0.001667 538.28564 570.51135
615.0 0.001626 537.82874 570.46094
571.0 0.001751 537.37201 570.51868
571.0 0.001751 536.91534 570.69098
581.0 0.001721 536.45892 571.18506
576.0 0.001736 536.00232 571.61584
571.0 0.001751 535.54608 572.18909
590.0 0.001695 535.08972 572.91760
581.0 0.001721 534.63367 573.81744
610.0 0.001639 534.17761 574.90753
610.0 0.001639 533.72156 576.20996
571.0 0.001751 533.26569 577.75171
576.0 0.001736 532.81000 579.56512
610.0 0.001639 532.35431 581.68896
566.0 0.001767 531.89874 584.17029
571.0 0.001751 531.44324 587.06671
571.0 0.001751 530.98785 590.44922
620.0 0.001613 530.53253 594.40747
615.0 0.001626 530.07727 599.05731
605.0 0.001653 529.62213 599.94476
625.0 0.001600 529.16718 606.65094
581.0 0.001721 528.71222 614.77588
650.0 0.001538 528.25732 624.87494
620.0 0.001613 527.80243 635.57025
635.0 0.001575 527.34784 652.88574
724.0 0.001381 526.89319 676.61591
745.0 0.001342 526.43854 709.78113
818.0 0.001222 525.98413 756.34662
807.0 0.001239 525.52985 821.09454
906.0 0.001104 525.07556 909.25171
1050.0 0.000952 524.62128 1025.83594
1176.0 0.000850 524.16711 1174.82495
1347.0 0.000742 523.71313 1358.54199
1584.0 0.000631 523.25922 1577.23279
1815.0 0.000551 522.80530 1829.10400
2144.0 0.000466 522.35144 2111.88867
2381.0 0.000420 521.89764 2420.74438
2652.0 0.000377 521.44409 2740.90186
3047.0 0.0003282 520.99048 3043.59790
3399.0 0.0002942 520.53699 3286.92456
3612.0 0.0002769 520.08356 3421.11597
3505.0 0.0002853 519.63019 3407.97998
3376.0 0.0002962 519.17700 3251.92383
2981.0 0.0003355 518.72375 2994.25317
2632.0 0.000380 518.27057 2675.13208
2209.0 0.000453 517.81763 2322.77710
1901.0 0.000526 517.36469 1970.39063
1521.0 0.000657 516.91180 1650.10779
1232.0 0.000812 516.45892 1386.18652
1043.0 0.000959 516.00616 1184.99377
961.0 0.001041 515.55359 1041.97864
912.0 0.001096 515.10095 944.41785
847.0 0.001181 514.64850 879.48846
801.0 0.001248 514.19604 834.35699
801.0 0.001248 513.74365 799.39337
762.0 0.001312 513.29132 769.36719
734.0 0.001362 512.83911 742.17053
708.0 0.001412 512.38696 716.97467
692.0 0.001445 511.93497 693.99390
666.0 0.001502 511.48291 674.64313
655.0 0.001527 511.03101 660.89105
610.0 0.001639 510.57913 654.55768
640.0 0.001563 510.12750 657.15533
686.0 0.001458 509.67572 669.83124
686.0 0.001458 509.22406 693.06903
708.0 0.001412 508.77252 726.12537
756.0 0.001323 508.32111 766.31396
841.0 0.001189 507.86963 808.51550
888.0 0.001126 507.41837 845.52948
894.0 0.001119 506.96710 869.47614
888.0 0.001126 506.51596 874.75830
835.0 0.001198 506.06488 861.49506
812.0 0.001232 505.61389 834.24976
751.0 0.001332 505.16293 797.57275
751.0 0.001332 504.71204 754.95386
708.0 0.001412 504.26129 710.57556
686.0 0.001458 503.81058 669.06482
590.0 0.001695 503.35999 633.59277
595.0 0.001681 502.90945 605.30060
605.0 0.001653 502.45889 583.90320
581.0 0.001721 502.00858 568.37946
600.0 0.001667 501.55823 557.44470
548.0 0.001825 501.10797 549.84949
581.0 0.001721 500.65787 544.54755
497.0 0.002012 500.20776 541.67310
511.0 0.001957 499.75778 538.89954
497.0 0.002012 499.30783 536.78729
520.0 0.001923 498.85803 535.14587
552.0 0.001812 498.40833 534.32153
515.0 0.001942 497.95862 533.36377
524.0 0.001908 497.50909 532.68201
529.0 0.001890 497.05963 532.26288
529.0 0.001890 496.61020 532.10327
543.0 0.001842 496.16089 532.20911
543.0 0.001842 495.71158 532.59601
497.0 0.002012 495.26245 533.28754
506.0 0.001976 494.81342 534.31940
520.0 0.001923 494.36441 535.73993
529.0 0.001890 493.91559 537.61700
520.0 0.001923 493.46680 540.05579
552.0 0.001812 493.01804 543.19495
543.0 0.001842 492.56949 547.28052
543.0 0.001842 492.12091 552.74011
538.0 0.001859 491.67258 559.89233
595.0 0.001681 491.22418 570.88434
581.0 0.001721 490.77594 587.41718
615.0 0.001626 490.32779 612.54126
586.0 0.001706 489.87970 650.35168
660.0 0.001515 489.43179 706.40179
756.0 0.001323 488.98395 782.95325
818.0 0.001222 488.53610 888.92206
930.0 0.001075 488.08850 1021.50970
1056.0 0.000947 487.64096 1174.57507
1310.0 0.000763 487.19348 1332.64124
1467.0 0.000682 486.74612 1476.60950
1714.0 0.000583 486.29883 1579.88696
1781.0 0.000561 485.85172 1622.71814
1689.0 0.000592 485.40466 1602.15588
1537.0 0.000651 484.95776 1531.20496
1436.0 0.000696 484.51096 1425.19995
1289.0 0.000776 484.06415 1295.47656
1089.0 0.000918 483.61758 1154.15564
973.0 0.001028 483.17111 1015.99231
795.0 0.001258 482.72458 893.57135
692.0 0.001445 482.27838 792.89825
645.0 0.001550 481.83212 714.84631
600.0 0.001667 481.38623 657.10211
576.0 0.001736 480.94022 615.98010
557.0 0.001795 480.49438 587.45563
548.0 0.001825 480.04868 567.95300
543.0 0.001842 479.60306 554.64105
538.0 0.001859 479.15759 545.40302
520.0 0.001923 478.71222 538.87488
520.0 0.001923 478.26700 534.19147
520.0 0.001923 477.82190 531.04858
534.0 0.001873 477.37701 528.73553
529.0 0.001890 476.93207 527.29614
515.0 0.001942 476.48737 526.66187
529.0 0.001890 476.04269 526.54871
538.0 0.001859 475.59827 527.66718
534.0 0.001873 475.15390 529.95776
493.0 0.002028 474.70972 533.90546
538.0 0.001859 474.26556 540.16516
562.0 0.001779 473.82175 550.52527
571.0 0.001751 473.37793 566.83405
595.0 0.001681 472.93423 591.82520
630.0 0.001587 472.49066 628.67688
697.0 0.001435 472.04727 680.42706
745.0 0.001342 471.60406 749.01337
835.0 0.001198 471.16095 833.99908
961.0 0.001041 470.71796 931.13733
1030.0 0.000971 470.27518 1031.27087
1176.0 0.000850 469.83255 1120.66980
1267.0 0.000789 469.39001 1183.80713
1296.0 0.000772 468.94766 1209.12671
1211.0 0.000826 468.50543 1195.52197
1136.0 0.000880 468.06329 1151.10754
1030.0 0.000971 467.62140 1085.14453
1011.0 0.000989 467.17963 1004.56555
900.0 0.001111 466.73801 916.81915
812.0 0.001232 466.29669 831.18542
702.0 0.001425 465.85535 755.69769
666.0 0.001502 465.41428 694.82007
640.0 0.001563 464.97327 649.90143
620.0 0.001613 464.53250 620.56250
640.0 0.001563 464.09186 606.34882
640.0 0.001563 463.65137 605.40186
620.0 0.001613 463.21112 620.22290
630.0 0.001587 462.77106 646.47729
681.0 0.001468 462.33102 687.05804
734.0 0.001362 461.89133 741.35925
824.0 0.001214 461.45172 809.22028
906.0 0.001104 461.01236 884.34973
949.0 0.001054 460.57309 960.83722
1043.0 0.000959 460.13397 1029.57629
1082.0 0.000924 459.69516 1081.93127
1076.0 0.000929 459.25653 1112.95593
1109.0 0.000902 458.81808 1121.29407
1136.0 0.000880 458.37970 1106.10730
1102.0 0.000907 457.94153 1067.26514
1018.0 0.000982 457.50363 1008.91248
918.0 0.001089 457.06589 939.36572
864.0 0.001157 456.62836 866.55603
807.0 0.001239 456.19098 796.76099
734.0 0.001362 455.75381 729.99744
666.0 0.001502 455.31702 673.27216
630.0 0.001587 454.88022 626.99658
610.0 0.001639 454.44366 591.97644
566.0 0.001767 454.00735 566.23834
543.0 0.001842 453.57114 548.21863
538.0 0.001859 453.13528 537.80505
534.0 0.001873 452.69955 532.92297
529.0 0.001890 452.26410 532.48511
520.0 0.001923 451.82886 535.61157
543.0 0.001842 451.39377 541.65649
552.0 0.001812 450.95901 550.16724
543.0 0.001842 450.52429 560.93829
595.0 0.001681 450.08987 574.02478
566.0 0.001767 449.65573 589.58807
543.0 0.001842 449.22171 607.28937
605.0 0.001653 448.78806 625.67609
605.0 0.001653 448.35464 642.38861
605.0 0.001653 447.92136 653.01343
615.0 0.001626 447.48834 655.42322
630.0 0.001587 447.05554 649.83539
635.0 0.001575 446.62299 638.60590
586.0 0.001706 446.19064 623.18286
586.0 0.001706 445.75858 604.85028
600.0 0.001667 445.32678 584.98212
581.0 0.001721 444.89517 565.50812
548.0 0.001825 444.46387 548.24921
534.0 0.001873 444.03284 534.21680
529.0 0.001890 443.60196 523.70612
502.0 0.001992 443.17142 516.51837
506.0 0.001976 442.74112 512.25745
511.0 0.001957 442.31100 510.43591
552.0 0.001812 441.88120 510.83945
529.0 0.001890 441.45166 512.63074
538.0 0.001859 441.02246 515.82428
529.0 0.001890 440.59344 520.35059
548.0 0.001825 440.16467 526.42902
552.0 0.001812 439.73624 534.13934
534.0 0.001873 439.30801 544.23535
590.0 0.001695 438.88016 556.98901
605.0 0.001653 438.45245 576.21973
660.0 0.001515 438.02502 604.28052
676.0 0.001479 437.59808 646.11438
702.0 0.001425 437.17120 708.09039
778.0 0.001285 436.74475 799.49738
900.0 0.001111 436.31848 928.71832
1056.0 0.000947 435.89252 1103.01709
1218.0 0.000821 435.46686 1325.21985
1513.0 0.000661 435.04144 1590.32849
1756.0 0.000569 434.61646 1882.04504
2125.0 0.000471 434.19165 2170.48413
2411.0 0.000415 433.76721 2414.31567
2683.0 0.000373 433.34311 2571.44092
2873.0 0.0003481 432.91919 2618.34082
2652.0 0.000377 432.49564 2561.59766
2510.0 0.000398 432.07242 2426.65869
2333.0 0.000429 431.64944 2236.55957
2061.0 0.000485 431.22687 2009.04395
1832.0 0.000546 430.80457 1765.77966
1624.0 0.000616 430.38266 1533.75793
1421.0 0.000704 429.96097 1336.75391
1225.0 0.000816 429.53964 1190.85315
1069.0 0.000935 429.11865 1101.63611
1089.0 0.000918 428.69791 1068.00317
1082.0 0.000924 428.27750 1084.26501
1156.0 0.000865 427.85751 1139.41895
1163.0 0.000860 427.43777 1216.92126
1170.0 0.000855 427.01846 1295.27588
1274.0 0.000785 426.59949 1350.79224
1325.0 0.000755 426.18073 1367.70105
1296.0 0.000772 425.76245 1344.87903
1232.0 0.000812 425.34439 1291.44678
1190.0 0.000840 424.92673 1215.85352
1183.0 0.000845 424.50940 1123.40076
1102.0 0.000907 424.09247 1021.00616
949.0 0.001054 423.67587 919.00421
888.0 0.001126 423.25970 827.40204
835.0 0.001198 422.84375 752.77448
734.0 0.001362 422.42822 698.24042
729.0 0.001372 422.01306 664.54688
681.0 0.001468 421.59827 650.88226
713.0 0.001403 421.18384 655.20984
681.0 0.001468 420.76971 674.53778
681.0 0.001468 420.35605 704.52350
697.0 0.001435 419.94281 739.32184
740.0 0.001351 419.52991 771.36945
740.0 0.001351 419.11731 792.84045
756.0 0.001323 418.70511 799.35461
812.0 0.001232 418.29327 791.03003
713.0 0.001403 417.88187 772.41327
686.0 0.001458 417.47083 746.45721
676.0 0.001479 417.06021 715.21875
645.0 0.001550 416.64999 681.62152
610.0 0.001639 416.24023 649.26996
630.0 0.001587 415.83069 622.34937
581.0 0.001721 415.42160 603.44604
562.0 0.001779 415.01306 593.82147
566.0 0.001767 414.60480 593.29895
576.0 0.001736 414.19696 600.35107
610.0 0.001639 413.78949 612.20166
586.0 0.001706 413.38248 624.88080
581.0 0.001721 412.97592 633.76947
571.0 0.001751 412.56970 635.37787
566.0 0.001767 412.16400 629.12158
586.0 0.001706 411.75867 616.65894
571.0 0.001751 411.35367 599.73645
552.0 0.001812 410.94919 579.38824
538.0 0.001859 410.54507 556.78082
529.0 0.001890 410.14145 533.80725
534.0 0.001873 409.73831 512.48566
524.0 0.001908 409.33551 494.22293
458.0 0.002183 408.93317 479.71335
502.0 0.001992 408.53125 469.18280
441.0 0.002268 408.12982 462.64490
408.0 0.002451 407.72876 460.07535
475.0 0.002105 407.32819 461.50000
467.0 0.002141 406.92810 466.99051
488.0 0.002049 406.52850 476.56631
475.0 0.002105 406.12924 490.02365
480.0 0.002083 405.73053 506.72571
529.0 0.001890 405.33218 524.84967
524.0 0.001908 404.93442 543.24451
562.0 0.001779 404.53702 556.06171
571.0 0.001751 404.14014 564.91058
506.0 0.001976 403.74362 565.90826
524.0 0.001908 403.34763 560.52533
520.0 0.001923 402.95227 549.12305
493.0 0.002028 402.55725 535.26819
529.0 0.001890 402.16263 518.65100
484.0 0.002066 401.76859 500.53845
488.0 0.002049 401.37497 482.61172
441.0 0.002268 400.98193 466.30585
404.0 0.002475 400.58929 452.43005
392.0 0.002551 400.19714 441.23022
433.0 0.002309 399.80560 432.58453
416.0 0.002404 399.41440 426.16446
424.0 0.002358 399.02383 421.55154
416.0 0.002404 398.63364 418.32220
412.0 0.002427 398.24396 415.01157
396.0 0.002525 397.85483 413.54623
380.0 0.002632 397.46616 412.60117
420.0 0.002381 397.07809 412.06033
380.0 0.002632 396.69052 411.33524
441.0 0.002268 396.30341 411.58408
404.0 0.002475 395.91684 412.37161
420.0 0.002381 395.53076 413.94711
420.0 0.002381 395.14517 416.70615
396.0 0.002525 394.76016 421.20932
400.0 0.002500 394.37561 428.16260
404.0 0.002475 393.99167 438.33670
449.0 0.002227 393.60818 452.41379
424.0 0.002358 393.22534 470.77148
458.0 0.002183 392.84299 493.23413
484.0 0.002066 392.46109 518.81451
475.0 0.002105 392.07983 545.44452
566.0 0.001767 391.69901 569.38177
600.0 0.001667 391.31873 587.41882
600.0 0.001667 390.93912 595.97491
605.0 0.001653 390.55991 594.67560
576.0 0.001736 390.18140 585.46808
552.0 0.001812 389.80338 570.29999
538.0 0.001859 389.42590 550.93170
520.0 0.001923 389.04901 528.31738
502.0 0.001992 388.67264 504.49802
471.0 0.002123 388.29681 481.36496
445.0 0.002247 387.92157 460.67767
416.0 0.002404 387.54691 443.26288
400.0 0.002500 387.17291 429.34320
404.0 0.002475 386.79929 418.58746
416.0 0.002404 386.42633 410.57678
353.0 0.002833 386.05396 404.74945
380.0 0.002632 385.68213 400.33286
376.0 0.002660 385.31097 397.31998
357.0 0.002801 384.94025 395.09332
388.0 0.002577 384.57019 393.38174
376.0 0.002660 384.20074 391.88126
357.0 0.002801 383.83188 390.72351
408.0 0.002451 383.46362 389.71286
369.0 0.002710 383.09592 388.80740
365.0 0.002740 382.72876 387.98141
372.0 0.002688 382.36224 387.21829
388.0 0.002577 381.99631 386.50681
361.0 0.002770 381.63101 385.83838
384.0 0.002604 381.26630 385.20673
376.0 0.002660 380.90219 384.60690
365.0 0.002740 380.53879 384.03430
384.0 0.002604 380.17584 383.48572
365.0 0.002740 379.81357 382.95834
365.0 0.002740 379.45193 382.44965
376.0 0.002660 379.09088 381.95779
361.0 0.002770 378.73053 381.48105
380.0 0.002632 378.37070 381.01791
357.0 0.002801 378.01157 380.36453
384.0 0.002604 377.65305 379.93134
404.0 0.002475 377.29510 379.50870
365.0 0.002740 376.93781 379.09607
392.0 0.002551 376.58115 378.69275
357.0 0.002801 376.22510 378.19873
350.0 0.002857 375.86975 377.81607
384.0 0.002604 375.51498 377.44199
342.0 0.002924 375.16092 377.07629
384.0 0.002604 374.80746 376.71918
376.0 0.002660 374.45462 376.37079
372.0 0.002688 374.10248 376.03137
372.0 0.002688 373.75098 375.70132
361.0 0.002770 373.40015 375.38135
380.0 0.002632 373.04987 375.07202
346.0 0.002890 372.70029 374.77451
353.0 0.002833 372.35141 374.48981
324.0 0.003086 372.00323 374.21951
350.0 0.002857 371.65564 373.96539
353.0 0.002833 371.30878 374.10770
365.0 0.002740 370.96246 373.90457
324.0 0.003086 370.61688 373.72720
365.0 0.002740 370.27197 373.58087
346.0 0.002890 369.92767 373.47382
357.0 0.002801 369.58417 373.60663
346.0 0.002890 369.24130 373.62994
346.0 0.002890 368.89914 373.76266
369.0 0.002710 368.55756 374.06549
369.0 0.002710 368.21671 374.63605
392.0 0.002551 367.87659 375.62225
384.0 0.002604 367.53705 378.02975
350.0 0.002857 367.19827 380.54938
372.0 0.002688 366.86020 384.25476
404.0 0.002475 366.52271 389.42850
357.0 0.002801 366.18613 395.98895
424.0 0.002358 365.85007 404.92819
412.0 0.002427 365.51480 414.90524
400.0 0.002500 365.18015 425.71643
437.0 0.002288 364.84619 436.32950
424.0 0.002358 364.51303 445.27402
471.0 0.002123 364.18045 451.07019
471.0 0.002123 363.84866 453.05093
424.0 0.002358 363.51767 451.23865
420.0 0.002381 363.18723 446.70953
437.0 0.002288 362.85760 440.04660
449.0 0.002227 362.52859 431.76944
420.0 0.002381 362.20032 422.43945
408.0 0.002451 361.87286 412.67078
408.0 0.002451 361.54602 403.33524
392.0 0.002551 361.21997 395.46701
392.0 0.002551 360.89462 388.47247
384.0 0.002604 360.56998 382.84787
365.0 0.002740 360.24609 378.50439
400.0 0.002500 359.92291 375.26886
408.0 0.002451 359.60052 373.15488
357.0 0.002801 359.27875 371.91208
408.0 0.002451 358.95776 370.78607
404.0 0.002475 358.63754 370.01578
388.0 0.002577 358.31799 369.49277
357.0 0.002801 357.99933 369.14322
380.0 0.002632 357.68130 369.11835
350.0 0.002857 357.36398 369.00119
372.0 0.002688 357.04749 368.96957
369.0 0.002710 356.73166 369.01691
357.0 0.002801 356.41666 369.14224
365.0 0.002740 356.10233 369.34735
365.0 0.002740 355.78876 369.63699
388.0 0.002577 355.47607 370.01859
353.0 0.002833 355.16403 370.50198
380.0 0.002632 354.85278 371.10107
365.0 0.002740 354.54221 371.83508
392.0 0.002551 354.23245 372.73248
376.0 0.002660 353.92346 373.83728
350.0 0.002857 353.61520 375.22095
384.0 0.002604 353.30780 377.00162
392.0 0.002551 353.00116 379.37125
408.0 0.002451 352.69516 382.63116
380.0 0.002632 352.39001 387.22794
437.0 0.002288 352.08557 394.75217
433.0 0.002309 351.78192 404.05261
428.0 0.002336 351.47913 416.94217
493.0 0.002028 351.17703 434.58551
506.0 0.001976 350.87576 456.89810
520.0 0.001923 350.57520 484.81836
493.0 0.002028 350.27551 516.89105
562.0 0.001779 349.97656 552.04529
581.0 0.001721 349.67838 587.97699
630.0 0.001587 349.38101 620.87347
660.0 0.001515 349.08432 647.43695
671.0 0.001490 348.78851 666.12939
692.0 0.001445 348.49350 678.76630
745.0 0.001342 348.19922 689.37781
729.0 0.001372 347.90582 701.99823
718.0 0.001393 347.61319 719.52771
762.0 0.001312 347.32132 743.99573
801.0 0.001248 347.03024 776.87622
841.0 0.001189 346.73993 818.48102
829.0 0.001206 346.45050 866.14801
918.0 0.001089 346.16180 914.33893
930.0 0.001075 345.87387 954.90057
942.0 0.001062 345.58682 980.35382
930.0 0.001075 345.30060 988.04669
906.0 0.001104 345.01508 980.96307
949.0 0.001054 344.73047 963.76935
906.0 0.001104 344.44656 940.18713
918.0 0.001089 344.16351 910.74011
906.0 0.001104 343.88129 877.57385
876.0 0.001142 343.59979 843.47546
835.0 0.001198 343.31918 811.37781
829.0 0.001206 343.03946 783.41913
807.0 0.001239 342.76041 761.67413
795.0 0.001258 342.48224 746.57874
762.0 0.001312 342.20486 739.06256
790.0 0.001266 341.92831 740.29028
784.0 0.001276 341.65259 748.81470
756.0 0.001323 341.37769 764.54236
790.0 0.001266 341.10358 785.24945
824.0 0.001214 340.83035 807.55023
790.0 0.001266 340.55789 828.03674
773.0 0.001294 340.28625 843.59448
807.0 0.001239 340.01544 854.56427
801.0 0.001248 339.74545 862.03400
829.0 0.001206 339.47632 865.96875
870.0 0.001149 339.20801 864.03192
900.0 0.001111 338.94049 852.80756
955.0 0.001047 338.67383 830.36615
918.0 0.001089 338.40805 797.92328
784.0 0.001276 338.14301 759.12299
745.0 0.001342 337.87885 717.62408
713.0 0.001403 337.61551 675.63971
666.0 0.001502 337.35297 634.25342
681.0 0.001468 337.09134 594.58539
600.0 0.001667 336.83047 558.31702
581.0 0.001721 336.57050 527.23444
534.0 0.001873 336.31134 502.72076
534.0 0.001873 336.05301 485.75598
520.0 0.001923 335.79559 477.21124
524.0 0.001908 335.53891 478.12534
543.0 0.001842 335.28305 489.84940
506.0 0.001976 335.02814 514.02026
571.0 0.001751 334.77399 552.33942
600.0 0.001667 334.52075 606.16522
676.0 0.001479 334.26834 675.95056
718.0 0.001393 334.01672 760.59418
818.0 0.001222 333.76599 856.73499
835.0 0.001198 333.51608 958.05646
967.0 0.001034 333.26706 1055.01624
1056.0 0.000947 333.01883 1136.18958
1163.0 0.000860 332.77142 1192.00745
1156.0 0.000865 332.52499 1218.34204
1183.0 0.000845 332.27936 1216.10510
1142.0 0.000876 332.03452 1188.26257
1089.0 0.000918 331.79056 1138.19446
1043.0 0.000959 331.54742 1070.11072
967.0 0.001034 331.30521 989.82568
918.0 0.001089 331.06375 904.10242
824.0 0.001214 330.82327 819.27661
762.0 0.001312 330.58350 740.16138
645.0 0.001550 330.34460 671.35840
610.0 0.001639 330.10672 614.98389
605.0 0.001653 329.86954 572.07031
552.0 0.001812 329.63330 542.41528
538.0 0.001859 329.39783 524.74792
529.0 0.001890 329.16327 518.12610
520.0 0.001923 328.92953 519.86755
562.0 0.001779 328.69669 528.27246
552.0 0.001812 328.46460 541.73230
600.0 0.001667 328.23355 559.39349
600.0 0.001667 328.00323 581.22443
581.0 0.001721 327.77386 605.87012
605.0 0.001653 327.54526 633.94745
660.0 0.001515 327.31757 662.17102
686.0 0.001458 327.09064 686.94183
734.0 0.001362 326.86465 704.09875
762.0 0.001312 326.63950 709.97607
734.0 0.001362 326.41528 704.61188
767.0 0.001304 326.19183 689.50507
734.0 0.001362 325.96927 667.33508
660.0 0.001515 325.74756 640.50397
702.0 0.001425 325.52670 610.08246
600.0 0.001667 325.30673 577.62079
620.0 0.001613 325.08759 544.99084
557.0 0.001795 324.86942 514.82495
524.0 0.001908 324.65198 489.54150
511.0 0.001957 324.43546 470.78271
433.0 0.002309 324.21976 460.02097
488.0 0.002049 324.00488 458.38373
493.0 0.002028 323.79095 467.23264
471.0 0.002123 323.57785 487.39450
511.0 0.001957 323.36566 520.80035
515.0 0.001942 323.15430 567.45856
600.0 0.001667 322.94376 626.82281
718.0 0.001393 322.73413 696.88000
740.0 0.001351 322.52536 773.46564
790.0 0.001266 322.31744 850.32562
912.0 0.001096 322.11032 919.40106
1005.0 0.000995 321.90414 970.81061
1069.0 0.000935 321.69885 997.86011
1037.0 0.000964 321.49432 999.80743
986.0 0.001014 321.29071 980.69098
924.0 0.001082 321.08792 946.08313
853.0 0.001172 320.88602 899.14392
801.0 0.001248 320.68503 841.96552
807.0 0.001239 320.48480 777.41382
734.0 0.001362 320.28549 709.95441
645.0 0.001550 320.08701 644.45691
595.0 0.001681 319.88943 584.66992
511.0 0.001957 319.69269 532.68854
488.0 0.002049 319.49680 489.18286
458.0 0.002183 319.30167 453.88266
412.0 0.002427 319.10760 426.00476
416.0 0.002404 318.91422 404.52072
388.0 0.002577 318.72177 389.02872
372.0 0.002688 318.53018 376.98083
369.0 0.002710 318.33948 368.08508
357.0 0.002801 318.14960 361.51462
408.0 0.002451 317.96051 356.63174
346.0 0.002890 317.77237 352.00266
357.0 0.002801 317.58505 349.62805
369.0 0.002710 317.39856 347.57059
357.0 0.002801 317.21295 345.71085
369.0 0.002710 317.02811 344.65842
380.0 0.002632 316.84427 343.52573
342.0 0.002924 316.66125 343.39334
372.0 0.002688 316.47900 343.79919
372.0 0.002688 316.29764 344.90253
353.0 0.002833 316.11713 346.74976
346.0 0.002890 315.93750 349.50336
369.0 0.002710 315.75864 353.31750
372.0 0.002688 315.58066 358.24258
380.0 0.002632 315.40359 364.26874
388.0 0.002577 315.22733 371.40167
357.0 0.002801 315.05191 379.21555
428.0 0.002336 314.87732 387.97559
392.0 0.002551 314.70355 396.47046
404.0 0.002475 314.53073 404.90564
441.0 0.002268 314.35867 414.13864
408.0 0.002451 314.18744 424.71039
420.0 0.002381 314.01709 437.78387
502.0 0.001992 313.84756 453.96225
480.0 0.002083 313.67889 473.88086
445.0 0.002247 313.51105 497.54465
511.0 0.001957 313.34409 524.22510
515.0 0.001942 313.17786 551.78961
520.0 0.001923 313.01254 578.46765
557.0 0.001795 312.84808 600.47559
571.0 0.001751 312.68442 614.79047
576.0 0.001736 312.52161 619.24628
610.0 0.001639 312.35965 614.59729
552.0 0.001812 312.19849 603.39185
529.0 0.001890 312.03815 587.52216
543.0 0.001842 311.87860 568.53241
511.0 0.001957 311.71997 548.00580
511.0 0.001957 311.56207 527.70697
471.0 0.002123 311.40509 510.28580
520.0 0.001923 311.24893 498.18362
484.0 0.002066 311.09357 493.12482
511.0 0.001957 310.93900 495.88593
488.0 0.002049 310.78528 506.25275
524.0 0.001908 310.63242 523.01440
571.0 0.001751 310.48032 543.94489
610.0 0.001639 310.32907 565.81396
655.0 0.001527 310.17862 584.68292
640.0 0.001563 310.02899 596.86060
650.0 0.001538 309.88016 600.32092
615.0 0.001626 309.73221 595.34320
581.0 0.001721 309.58499 583.61035
524.0 0.001908 309.43863 566.79773
562.0 0.001779 309.29303 545.97351
515.0 0.001942 309.14828 521.99396
515.0 0.001942 309.00430 496.14026
471.0 0.002123 308.86121 470.25638
484.0 0.002066 308.71887 445.87158
433.0 0.002309 308.57730 424.29654
384.0 0.002604 308.43658 406.18298
392.0 0.002551 308.29666 391.72977
388.0 0.002577 308.15747 380.82846
361.0 0.002770 308.01913 373.23038
353.0 0.002833 307.88162 368.47220
357.0 0.002801 307.74484 365.52457
380.0 0.002632 307.60889 365.57047
357.0 0.002801 307.47375 367.81680
396.0 0.002525 307.33932 372.46881
404.0 0.002475 307.20578 380.07782
408.0 0.002451 307.07297 391.59186
416.0 0.002404 306.94095 407.99005
449.0 0.002227 306.80966 431.53830
433.0 0.002309 306.67923 463.57114
520.0 0.001923 306.54959 505.40393
524.0 0.001908 306.42068 557.72955
600.0 0.001667 306.29254 620.19525
655.0 0.001527 306.16522 691.00983
745.0 0.001342 306.03864 766.65411
876.0 0.001142 305.91281 841.51526
930.0 0.001075 305.78778 908.11438
1082.0 0.000924 305.66354 958.49957
1069.0 0.000935 305.53998 987.22559
1076.0 0.000929 305.41727 993.92474
1018.0 0.000982 305.29532 982.98456
955.0 0.001047 305.17410 959.12317
906.0 0.001104 305.05362 926.94324
870.0 0.001149 304.93396 888.93365
882.0 0.001134 304.81500 848.25787
767.0 0.001304 304.69684 808.97253
724.0 0.001381 304.57935 775.65137
686.0 0.001458 304.46265 751.52185
702.0 0.001425 304.34671 739.36615
697.0 0.001435 304.23154 737.45282
702.0 0.001425 304.11707 746.05713
686.0 0.001458 304.00333 764.52399
724.0 0.001381 303.89035 792.92657
756.0 0.001323 303.77811 831.66907
818.0 0.001222 303.66660 880.84662
882.0 0.001134 303.55579 937.27368
986.0 0.001014 303.44577 997.30341
1076.0 0.000929 303.33646 1055.44153
1122.0 0.000891 303.22787 1106.19373
1225.0 0.000816 303.12000 1145.53503
1246.0 0.000803 303.01282 1171.25244
1170.0 0.000855 302.90640 1182.25903
1246.0 0.000803 302.80066 1177.67725
1204.0 0.000831 302.69571 1157.91016
1129.0 0.000886 302.59143 1125.38452
1102.0 0.000907 302.48785 1084.39624
1005.0 0.000995 302.38495 1039.42078
967.0 0.001034 302.28281 993.65991
992.0 0.001008 302.18137 948.68262
906.0 0.001104 302.08057 904.98987
829.0 0.001206 301.98056 862.29413
882.0 0.001134 301.88116 819.55634
807.0 0.001239 301.78247 776.72729
790.0 0.001266 301.68454 733.74707
702.0 0.001425 301.58725 691.55743
666.0 0.001502 301.49063 651.04169
640.0 0.001563 301.39474 612.29132
548.0 0.001825 301.29953 575.40228
566.0 0.001767 301.20496 540.74347
548.0 0.001825 301.11108 507.29041
493.0 0.002028 301.01785 476.53644
437.0 0.002288 300.92535 449.21957
433.0 0.002309 300.83347 425.80487
441.0 0.002268 300.74234 406.49957
404.0 0.002475 300.65179 391.55130
396.0 0.002525 300.56192 380.07343
376.0 0.002660 300.47266 372.16992
372.0 0.002688 300.38412 367.54843
396.0 0.002525 300.29623 365.61456
408.0 0.002451 300.20898 366.79050
376.0 0.002660 300.12238 370.16177
388.0 0.002577 300.03644 375.47498
392.0 0.002551 299.95108 382.24042
424.0 0.002358 299.86646 389.82632
400.0 0.002500 299.78238 397.28125
412.0 0.002427 299.69897 404.00494
412.0 0.002427 299.61621 408.79053
404.0 0.002475 299.53406 411.12991
400.0 0.002500 299.45261 411.02219
384.0 0.002604 299.37167 408.90421
412.0 0.002427 299.29141 405.29898
412.0 0.002427 299.21176 400.58066
420.0 0.002381 299.13275 394.99310
396.0 0.002525 299.05429 388.81683
400.0 0.002500 298.97647 382.47934
376.0 0.002660 298.89926 376.49695
416.0 0.002404 298.82269 371.34772
396.0 0.002525 298.74670 367.40833
392.0 0.002551 298.67130 364.96985
424.0 0.002358 298.59647 364.31564
396.0 0.002525 298.52216 365.76459
408.0 0.002451 298.44858 369.75452
433.0 0.002309 298.37555 376.89114
449.0 0.002227 298.30307 387.97443
441.0 0.002268 298.23114 403.99164
471.0 0.002123 298.15985 426.07770
484.0 0.002066 298.08914 455.41092
543.0 0.001842 298.01895 493.09619
595.0 0.001681 297.94934 540.01624
650.0 0.001538 297.88034 596.66650
650.0 0.001538 297.81180 662.21570
724.0 0.001381 297.74390 737.23004
818.0 0.001222 297.67651 818.99292
882.0 0.001134 297.60968 904.67584
1018.0 0.000982 297.54343 991.37714
1030.0 0.000971 297.47775 1077.09265
1176.0 0.000850 297.41251 1160.39709
1197.0 0.000835 297.34793 1240.58301
1310.0 0.000763 297.28378 1313.69812
1289.0 0.000776 297.22015 1373.23438
1369.0 0.000730 297.15720 1410.91748
1505.0 0.000664 297.09467 1419.98059
1452.0 0.000689 297.03259 1398.80090
1332.0 0.000751 296.97113 1351.47754
1232.0 0.000812 296.91019 1285.75562
1170.0 0.000855 296.84973 1207.91492
1056.0 0.000947 296.78973 1122.07190
1076.0 0.000929 296.73032 1030.87695
961.0 0.001041 296.67139 937.35883
847.0 0.001181 296.61295 845.80023
795.0 0.001258 296.55493 760.25531
767.0 0.001304 296.49750 683.70868
630.0 0.001587 296.44052 618.87012
615.0 0.001626 296.38403 565.87146
586.0 0.001706 296.32803 523.70752
557.0 0.001795 296.27252 491.80719
562.0 0.001779 296.21747 468.89648
548.0 0.001825 296.16284 453.57065
515.0 0.001942 296.10870 445.65250
515.0 0.001942 296.05505 444.86996
520.0 0.001923 296.00186 451.31006
515.0 0.001942 295.94910 465.80783
543.0 0.001842 295.89679 489.41098
595.0 0.001681 295.84497 522.78583
586.0 0.001706 295.79358 566.20673
620.0 0.001613 295.74261 620.02374
692.0 0.001445 295.69208 682.64063
847.0 0.001181 295.64203 751.50720
835.0 0.001198 295.59238 822.11975
949.0 0.001054 295.54309 888.36945
973.0 0.001028 295.49429 943.18066
1037.0 0.000964 295.44589 980.64478
973.0 0.001028 295.39798 997.72186
1005.0 0.000995 295.35040 995.82898
942.0 0.001062 295.30328 978.81866
967.0 0.001034 295.25650 950.58917
906.0 0.001104 295.21011 913.98279
900.0 0.001111 295.16425 870.32867
829.0 0.001206 295.11862 821.77509
824.0 0.001214 295.07343 771.09186
708.0 0.001412 295.02869 721.18066
713.0 0.001403 294.98428 674.08667
630.0 0.001587 294.94025 630.75812
635.0 0.001575 294.89661 591.10223
576.0 0.001736 294.85333 555.17896
571.0 0.001751 294.81042 523.02557
543.0 0.001842 294.76785 494.68204
529.0 0.001890 294.72568 469.86325
462.0 0.002165 294.68378 447.97696
416.0 0.002404 294.64230 428.27368
445.0 0.002247 294.60120 410.50394
445.0 0.002247 294.56033 394.41516
392.0 0.002551 294.51993 380.06140
392.0 0.002551 294.47977 367.50632
384.0 0.002604 294.44000 356.75003
369.0 0.002710 294.40054 347.67630
353.0 0.002833 294.36133 340.24936
353.0 0.002833 294.32257 334.25369
331.0 0.003021 294.28403 329.50082
357.0 0.002801 294.24579 325.78781
346.0 0.002890 294.20798 322.91797
350.0 0.002857 294.17032 320.71243
350.0 0.002857 294.13306 319.01740
320.0 0.003125 294.09601 317.71152
331.0 0.003021 294.05933 316.70016
339.0 0.002950 294.02286 315.91595
331.0 0.003021 293.98672 315.37579
292.0 0.003425 293.95090 315.03064
320.0 0.003125 293.91525 314.71405
303.0 0.003300 293.87994 314.52032
331.0 0.003021 293.84494 314.58524
310.0 0.003226 293.81015 314.63782
320.0 0.003125 293.77557 314.82352
320.0 0.003125 293.74127 315.24646
313.0 0.003195 293.70724 315.77313
335.0 0.002985 293.67343 316.54120
320.0 0.003125 293.63989 317.63879
346.0 0.002890 293.60660 318.96106
342.0 0.002924 293.57349 321.02194
331.0 0.003021 293.54062 324.19983
346.0 0.002890 293.50806 328.68704
331.0 0.003021 293.47556 334.94312
369.0 0.002710 293.44339 343.34363
346.0 0.002890 293.41144 354.77255
369.0 0.002710 293.37970 368.50269
376.0 0.002660 293.34808 387.21323
388.0 0.002577 293.31671 409.89362
424.0 0.002358 293.28549 436.45569
416.0 0.002404 293.25449 466.33606
480.0 0.002083 293.22372 498.42804
571.0 0.001751 293.19312 530.52209
566.0 0.001767 293.16266 561.45032
640.0 0.001563 293.13235 588.50482
605.0 0.001653 293.10226 610.03894
625.0 0.001600 293.07233 625.37103
660.0 0.001515 293.04248 634.38318
686.0 0.001458 293.01291 637.08441
640.0 0.001563 292.98340 633.56482
650.0 0.001538 292.95410 624.29443
640.0 0.001563 292.92487 610.30884
610.0 0.001639 292.89581 593.33246
562.0 0.001779 292.86694 575.12012
543.0 0.001842 292.83813 557.43213
534.0 0.001873 292.80945 541.71777
497.0 0.002012 292.78094 529.17419
441.0 0.002268 292.75247 520.32080
506.0 0.001976 292.72421 515.53613
488.0 0.002049 292.69595 514.55463
511.0 0.001957 292.66791 516.57220
511.0 0.001957 292.63989 520.45831
571.0 0.001751 292.61197 524.97870
506.0 0.001976 292.58417 529.30627
506.0 0.001976 292.55640 533.10431
502.0 0.001992 292.52878 536.58472
543.0 0.001842 292.50116 539.29083
502.0 0.001992 292.47366 542.46930
506.0 0.001976 292.44623 544.64398
493.0 0.002028 292.41879 544.79956
506.0 0.001976 292.39154 541.94891
502.0 0.001992 292.36423 535.45892
488.0 0.002049 292.33707 525.12305
471.0 0.002123 292.30988 512.40063
445.0 0.002247 292.28275 497.95068
458.0 0.002183 292.25565 482.63483
462.0 0.002165 292.22861 466.90811
454.0 0.002203 292.20154 450.89877
433.0 0.002309 292.17459 434.57901
404.0 0.002475 292.14755 418.48224
404.0 0.002475 292.12064 402.92450
365.0 0.002740 292.09360 388.44833
388.0 0.002577 292.06665 375.35132
392.0 0.002551 292.03970 363.90631
339.0 0.002950 292.01276 354.12164
357.0 0.002801 291.98572 346.11102
350.0 0.002857 291.95880 339.75238
335.0 0.002985 291.93179 335.01340
335.0 0.002985 291.90472 331.93347
342.0 0.002924 291.87766 330.53754
328.0 0.003049 291.85059 330.98044
313.0 0.003195 291.82346 333.45786
357.0 0.002801 291.79633 338.21692
313.0 0.003195 291.76913 345.52707
369.0 0.002710 291.74185 355.63168
357.0 0.002801 291.71457 368.68515
376.0 0.002660 291.68723 384.67941
384.0 0.002604 291.65979 403.36926
384.0 0.002604 291.63226 424.19373
392.0 0.002551 291.60477 446.21213
467.0 0.002141 291.57709 468.10104
493.0 0.002028 291.54935 488.30115
529.0 0.001890 291.52158 505.34641
538.0 0.001859 291.49368 518.19257
511.0 0.001957 291.46567 526.26733
552.0 0.001812 291.43762 529.28088
557.0 0.001795 291.40945 527.13593
524.0 0.001908 291.38113 520.05933
462.0 0.002165 291.35272 508.71933
511.0 0.001957 291.32422 494.14822
441.0 0.002268 291.29556 477.51602
458.0 0.002183 291.26682 459.89563
428.0 0.002336 291.23792 442.16162
449.0 0.002227 291.20886 425.04700
400.0 0.002500 291.17972 409.21167
369.0 0.002710 291.15042 395.20071
376.0 0.002660 291.12097 383.34445
339.0 0.002950 291.09134 373.70255
357.0 0.002801 291.06158 366.08167
342.0 0.002924 291.03165 360.10229
328.0 0.003049 291.00153 355.30508
357.0 0.002801 290.97125 351.28574
357.0 0.002801 290.94086 347.80127
331.0 0.003021 290.91022 344.78067
317.0 0.003155 290.87939 342.49783
346.0 0.002890 290.84848 340.54135
350.0 0.002857 290.81729 339.21732
350.0 0.002857 290.78586 338.36923
339.0 0.002950 290.75433 338.80322
353.0 0.002833 290.72253 340.18536
350.0 0.002857 290.69052 342.84030
335.0 0.002985 290.65836 347.43509
388.0 0.002577 290.62592 352.85272
361.0 0.002770 290.59326 359.30978
369.0 0.002710 290.56039 366.71674
376.0 0.002660 290.52731 374.39633
384.0 0.002604 290.49402 381.78268
396.0 0.002525 290.46042 388.50165
384.0 0.002604 290.42661 393.57315
396.0 0.002525 290.39255 396.68643
424.0 0.002358 290.35815 397.48062
408.0 0.002451 290.32358 395.86707
388.0 0.002577 290.28876 392.14517
400.0 0.002500 290.25363 386.73083
376.0 0.002660 290.21823 380.08057
369.0 0.002710 290.18262 372.46344
342.0 0.002924 290.14667 364.28958
369.0 0.002710 290.11044 355.92535
328.0 0.003049 290.07397 347.62122
335.0 0.002985 290.03717 339.74167
286.0 0.003497 290.00003 332.60629
328.0 0.003049 289.96268 326.39325
324.0 0.003086 289.92499 321.30145
339.0 0.002950 289.88699 317.43790
303.0 0.003300 289.84863 314.59082
320.0 0.003125 289.81003 313.11044
279.0 0.00358 289.77106 312.89957
331.0 0.003021 289.73175 313.58813
328.0 0.003049 289.69214 315.19852
320.0 0.003125 289.65222 317.57538
324.0 0.003086 289.61191 320.42841
320.0 0.003125 289.57132 323.69559
339.0 0.002950 289.53030 326.96942
328.0 0.003049 289.48898 329.99701
331.0 0.003021 289.44727 332.43048
317.0 0.003155 289.40527 333.81934
331.0 0.003021 289.36285 334.21271
317.0 0.003155 289.32007 333.70047
331.0 0.003021 289.27695 332.44904
303.0 0.003300 289.23346 330.64731
292.0 0.003425 289.18951 328.46625
328.0 0.003049 289.14526 325.85715
299.0 0.003344 289.10056 322.97522
313.0 0.003195 289.05551 319.95404
331.0 0.003021 289.01007 316.95486
296.0 0.003378 288.96423 314.12921
303.0 0.003300 288.91797 311.59125
292.0 0.003425 288.87125 309.41052
286.0 0.003497 288.82419 307.61902
272.0 0.00368 288.77670 306.22076
289.0 0.003460 288.72882 305.19922
292.0 0.003425 288.68048 304.54523
279.0 0.00358 288.63171 304.18527
289.0 0.003460 288.58252 304.17688
279.0 0.00358 288.53290 304.27249
292.0 0.003425 288.48279 304.58301
320.0 0.003125 288.43234 305.16562
317.0 0.003155 288.38138 305.94769
296.0 0.003378 288.32999 306.95569
324.0 0.003086 288.27814 308.14038
306.0 0.003268 288.22583 309.76410
306.0 0.003268 288.17303 311.70493
335.0 0.002985 288.11978 314.35382
339.0 0.002950 288.06607 317.82123
365.0 0.002740 288.01190 322.44086
361.0 0.002770 287.95724 328.55029
357.0 0.002801 287.90213 336.82928
369.0 0.002710 287.84650 347.72888
372.0 0.002688 287.79044 361.94266
369.0 0.002710 287.73386 380.16245
441.0 0.002268 287.67673 403.06046
462.0 0.002165 287.61908 431.22473
484.0 0.002066 287.56104 465.04990
493.0 0.002028 287.50247 504.60519
548.0 0.001825 287.44333 550.00012
576.0 0.001736 287.38373 599.61945
640.0 0.001563 287.32361 652.36932
671.0 0.001490 287.26297 706.43921
718.0 0.001393 287.20178 759.93549
767.0 0.001304 287.14011 810.98004
778.0 0.001285 287.07788 857.48865
864.0 0.001157 287.01517 897.15295
918.0 0.001089 286.95181 926.65686
980.0 0.001020 286.88800 943.59741
973.0 0.001028 286.82364 945.57257
955.0 0.001047 286.75876 932.90198
906.0 0.001104 286.69330 907.53955
870.0 0.001149 286.62729 872.43079
784.0 0.001276 286.56070 830.41882
745.0 0.001342 286.49359 783.65857
702.0 0.001425 286.42593 734.00049
676.0 0.001479 286.35767 682.60797
590.0 0.001695 286.28882 631.31976
615.0 0.001626 286.21945 581.93231
538.0 0.001859 286.14951 536.38000
506.0 0.001976 286.07895 495.85880
441.0 0.002268 286.00784 461.20306
449.0 0.002227 285.93616 432.74155
449.0 0.002227 285.86386 410.49390
420.0 0.002381 285.79105 394.20300
400.0 0.002500 285.71756 383.59216
400.0 0.002500 285.64349 378.13074
400.0 0.002500 285.56885 377.25723
404.0 0.002475 285.49359 380.35257
357.0 0.002801 285.41776 386.74808
416.0 0.002404 285.34131 395.72015
408.0 0.002451 285.26422 406.47098
428.0 0.002336 285.18652 418.11728
420.0 0.002381 285.10828 429.73325
428.0 0.002336 285.02936 440.48831
416.0 0.002404 284.94983 449.84021
462.0 0.002165 284.86972 457.62054
475.0 0.002105 284.78891 463.89935
458.0 0.002183 284.70755 468.76743
433.0 0.002309 284.62549 471.93466
441.0 0.002268 284.54288 473.02637
484.0 0.002066 284.45956 471.75394
467.0 0.002141 284.37564 467.22253
467.0 0.002141 284.29111 459.84967
467.0 0.002141 284.20590 450.35660
449.0 0.002227 284.12000 439.56039
424.0 0.002358 284.03357 428.19504
388.0 0.002577 283.94641 416.88419
404.0 0.002475 283.85867 406.15628
388.0 0.002577 283.77023 396.03506
396.0 0.002525 283.68112 387.11545
372.0 0.002688 283.59134 380.04080
361.0 0.002770 283.50095 374.72794
372.0 0.002688 283.40991 371.75168
357.0 0.002801 283.31818 371.27917
353.0 0.002833 283.22577 373.32629
357.0 0.002801 283.13275 377.69659
361.0 0.002770 283.03903 384.07623
380.0 0.002632 282.94461 392.08044
380.0 0.002632 282.84955 400.82013
388.0 0.002577 282.75381 409.70804
361.0 0.002770 282.65741 418.05261
396.0 0.002525 282.56027 425.30719
400.0 0.002500 282.46252 431.11334
428.0 0.002336 282.36407 435.33112
424.0 0.002358 282.26492 437.93719
437.0 0.002288 282.16516 438.96298
433.0 0.002309 282.06461 438.50748
458.0 0.002183 281.96344 436.83429
428.0 0.002336 281.86154 434.47855
416.0 0.002404 281.75897 432.24683
404.0 0.002475 281.65576 431.09360
424.0 0.002358 281.55176 431.95923
408.0 0.002451 281.44714 435.62854
408.0 0.002451 281.34180 442.68332
408.0 0.002451 281.23575 453.47079
441.0 0.002268 281.12903 468.09161
445.0 0.002247 281.02161 486.35257
511.0 0.001957 280.91348 507.70023
557.0 0.001795 280.80463 531.16968
595.0 0.001681 280.69516 555.38788
645.0 0.001550 280.58490 578.72540
666.0 0.001502 280.47400 599.64014
676.0 0.001479 280.36230 617.14923
666.0 0.001502 280.25000 631.13806
645.0 0.001550 280.13690 641.76532
655.0 0.001527 280.02313 650.10590
671.0 0.001490 279.90869 656.04883
581.0 0.001721 279.79346 659.12946
655.0 0.001527 279.67758 658.28973
630.0 0.001587 279.56107 652.85876
610.0 0.001639 279.44373 642.05298
586.0 0.001706 279.32568 625.41211
557.0 0.001795 279.20697 605.24420
497.0 0.002012 279.08752 582.23138
493.0 0.002028 278.96738 557.86914
502.0 0.001992 278.84650 532.77222
471.0 0.002123 278.72491 507.81180
462.0 0.002165 278.60266 482.89911
433.0 0.002309 278.47968 458.92252
408.0 0.002451 278.35599 435.99152
376.0 0.002660 278.23154 414.60260
350.0 0.002857 278.10638 395.20847
317.0 0.003155 277.98050 378.20264
353.0 0.002833 277.85397 363.59656
317.0 0.003155 277.72665 351.64630
335.0 0.002985 277.59872 342.07050
335.0 0.002985 277.46997 334.95538
313.0 0.003195 277.34055 330.26608
331.0 0.003021 277.21045 328.00385
331.0 0.003021 277.07956 328.22766
346.0 0.002890 276.94800 331.08884
369.0 0.002710 276.81577 336.93103
350.0 0.002857 276.68280 345.67258
361.0 0.002770 276.54907 357.59088
404.0 0.002475 276.41467 372.91406
400.0 0.002500 276.27957 391.67133
412.0 0.002427 276.14377 413.55154
416.0 0.002404 276.00723 438.43195
493.0 0.002028 275.87003 465.53592
497.0 0.002012 275.73212 493.71954
529.0 0.001890 275.59348 521.69006
520.0 0.001923 275.45410 548.00189
566.0 0.001767 275.31406 571.21234
557.0 0.001795 275.17334 590.18341
557.0 0.001795 275.03186 604.57416
600.0 0.001667 274.88980 615.01660
576.0 0.001736 274.74692 622.48065
562.0 0.001779 274.60333 627.51477
566.0 0.001767 274.45911 630.81000
566.0 0.001767 274.31421 632.37262
590.0 0.001695 274.16864 631.81232
595.0 0.001681 274.02228 628.48901
600.0 0.001667 273.87527 621.97607
566.0 0.001767 273.72760 611.92267
605.0 0.001653 273.57919 598.19391
566.0 0.001767 273.43015 581.22125
552.0 0.001812 273.28043 561.89368
524.0 0.001908 273.13004 541.12756
480.0 0.002083 272.97888 519.64954
475.0 0.002105 272.82715 497.89203
484.0 0.002066 272.67471 476.07312
424.0 0.002358 272.52158 454.38812
441.0 0.002268 272.36777 433.11606
416.0 0.002404 272.21332 412.61264
392.0 0.002551 272.05820 393.47894
372.0 0.002688 271.90244 375.96469
350.0 0.002857 271.74597 360.38272
357.0 0.002801 271.58890 346.80936
331.0 0.003021 271.43118 335.24927
317.0 0.003155 271.27277 325.60577
313.0 0.003195 271.11371 317.77588
320.0 0.003125 270.95398 311.66211
279.0 0.00358 270.79361 306.99106
306.0 0.003268 270.63266 303.60654
296.0 0.003378 270.47101 301.31424
303.0 0.003300 270.30878 299.98334
276.0 0.00362 270.14590 299.45499
306.0 0.003268 269.98239 299.74789
324.0 0.003086 269.81824 300.79385
296.0 0.003378 269.65344 302.58118
292.0 0.003425 269.48804 305.11026
310.0 0.003226 269.32208 308.38208
292.0 0.003425 269.15546 312.42093
324.0 0.003086 268.98825 317.19226
331.0 0.003021 268.82043 322.32916
320.0 0.003125 268.65204 328.67645
346.0 0.002890 268.48297 335.49026
339.0 0.002950 268.31335 342.90881
350.0 0.002857 268.14316 350.93887
369.0 0.002710 267.97238 359.61069
361.0 0.002770 267.80099 368.90585
408.0 0.002451 267.62906 378.56415
428.0 0.002336 267.45654 388.86484
388.0 0.002577 267.28342 398.96643
412.0 0.002427 267.10980 409.27893
416.0 0.002404 266.93558 419.21060
437.0 0.002288 266.76083 428.41205
480.0 0.002083 266.58551 436.54831
458.0 0.002183 266.40961 443.44928
488.0 0.002049 266.23325 449.21027
454.0 0.002203 266.05634 454.09512
458.0 0.002183 265.87888 458.91635
445.0 0.002247 265.70087 463.96994
484.0 0.002066 265.52237 469.47006
475.0 0.002105 265.34332 475.37018
462.0 0.002165 265.16382 481.44290
475.0 0.002105 264.98376 487.40433
484.0 0.002066 264.80322 493.07861
506.0 0.001976 264.62219 498.44162
484.0 0.002066 264.44070 503.55627
502.0 0.001992 264.25870 508.40320
502.0 0.001992 264.07623 512.71686
534.0 0.001873 263.89325 515.92749
581.0 0.001721 263.70981 517.26996
586.0 0.001706 263.52594 516.10150
566.0 0.001767 263.34158 512.05969
511.0 0.001957 263.15683 505.48331
515.0 0.001942 262.97168 497.13449
497.0 0.002012 262.78601 487.94452
493.0 0.002028 262.59988 478.73407
493.0 0.002028 262.41339 470.07938
458.0 0.002183 262.22647 462.53607
454.0 0.002203 262.03915 455.92633
441.0 0.002268 261.85144 450.52621
424.0 0.002358 261.66327 446.56351
462.0 0.002165 261.47479 443.92178
458.0 0.002183 261.28589 442.08841
441.0 0.002268 261.09668 441.16553
449.0 0.002227 260.90704 440.29822
454.0 0.002203 260.71704 438.69443
467.0 0.002141 260.52670 436.08701
458.0 0.002183 260.33600 432.48953
428.0 0.002336 260.14499 428.01550
454.0 0.002203 259.95358 422.69928
458.0 0.002183 259.76196 416.92361
420.0 0.002381 259.57001 410.25323
433.0 0.002309 259.37769 402.58658
420.0 0.002381 259.18509 393.54736
396.0 0.002525 258.99222 383.76688
408.0 0.002451 258.79904 373.29214
357.0 0.002801 258.60562 362.54794
369.0 0.002710 258.41190 351.96710
339.0 0.002950 258.21793 341.80045
328.0 0.003049 258.02374 332.28043
331.0 0.003021 257.82932 323.37366
313.0 0.003195 257.63461 315.39844
324.0 0.003086 257.43973 308.26660
313.0 0.003195 257.24454 302.02487
306.0 0.003268 257.04926 296.70496
299.0 0.003344 256.85376 292.34647
306.0 0.003268 256.65808 288.93573
320.0 0.003125 256.46222 286.46881
272.0 0.00368 256.26617 284.93903
303.0 0.003300 256.06992 284.34943
289.0 0.003460 255.87361 284.71777
269.0 0.00372 255.67712 286.07599
299.0 0.003344 255.48047 288.46747
286.0 0.003497 255.28375 291.93674
292.0 0.003425 255.08691 296.53589
306.0 0.003268 254.89001 302.29645
310.0 0.003226 254.69295 309.22003
299.0 0.003344 254.49586 317.34363
317.0 0.003155 254.29868 326.32590
339.0 0.002950 254.10144 335.98959
339.0 0.002950 253.90416 345.93076
369.0 0.002710 253.70686 355.68567
353.0 0.002833 253.50952 364.48593
369.0 0.002710 253.31223 371.72296
357.0 0.002801 253.11487 376.81070
361.0 0.002770 252.91753 379.47025
365.0 0.002740 252.72018 379.53134
331.0 0.003021 252.52290 377.41263
357.0 0.002801 252.32561 373.53204
350.0 0.002857 252.12845 368.22479
317.0 0.003155 251.93129 361.82068
331.0 0.003021 251.73427 354.48563
310.0 0.003226 251.53731 346.47180
292.0 0.003425 251.34045 337.95914
306.0 0.003268 251.14371 329.26538
296.0 0.003378 250.94708 320.70276
313.0 0.003195 250.75063 312.56842
292.0 0.003425 250.55424 304.94467
350.0 0.002857 250.35809 298.29895
310.0 0.003226 250.16208 292.63623
299.0 0.003344 249.96635 288.02792
289.0 0.003460 249.77072 284.53452
276.0 0.00362 249.57532 282.19693
269.0 0.00372 249.38017 281.04517
313.0 0.003195 249.18527 281.03378
289.0 0.003460 248.99062 282.35736
286.0 0.003497 248.79620 284.86264
282.0 0.00355 248.60211 288.95831
292.0 0.003425 248.40831 294.40491
276.0 0.00362 248.21483 301.30997
299.0 0.003344 248.02165 309.65213
299.0 0.003344 247.82880 319.33475
317.0 0.003155 247.63631 330.17264
328.0 0.003049 247.44418 342.06497
317.0 0.003155 247.25243 354.32135
342.0 0.002924 247.06110 366.77060
400.0 0.002500 246.87019 378.91687
441.0 0.002268 246.67970 390.19800
416.0 0.002404 246.48961 399.95413
449.0 0.002227 246.29997 407.50784
471.0 0.002123 246.11086 412.25595
502.0 0.001992 245.92221 414.35678
441.0 0.002268 245.73402 413.57700
416.0 0.002404 245.54639 410.62802
404.0 0.002475 245.35928 406.07956
404.0 0.002475 245.17276 400.42487
404.0 0.002475 244.98674 393.99557
384.0 0.002604 244.80135 386.99341
400.0 0.002500 244.61653 379.40298
376.0 0.002660 244.43230 371.74698
350.0 0.002857 244.24872 364.04071
339.0 0.002950 244.06581 356.43680
306.0 0.003268 243.88354 349.01059
324.0 0.003086 243.70197 341.77542
313.0 0.003195 243.52109 334.73804
296.0 0.003378 243.34088 327.85342
306.0 0.003268 243.16144 321.38486
299.0 0.003344 242.98277 315.34930
299.0 0.003344 242.80482 309.68161
310.0 0.003226 242.62766 304.39096
296.0 0.003378 242.45131 299.40942
289.0 0.003460 242.27582 294.67981
276.0 0.00362 242.10112 290.19482
299.0 0.003344 241.92731 286.17700
272.0 0.00368 241.75429 282.39990
282.0 0.00355 241.58226 279.16760
286.0 0.003497 241.41104 276.58871
282.0 0.00355 241.24084 274.74738
279.0 0.00358 241.07158 273.78784
266.0 0.00376 240.90324 273.82364
289.0 0.003460 240.73599 274.99347
286.0 0.003497 240.56967 277.40326
262.0 0.00382 240.40431 280.97165
286.0 0.003497 240.24011 285.78564
296.0 0.003378 240.07689 291.80109
276.0 0.00362 239.91481 298.85590
296.0 0.003378 239.75377 306.74448
310.0 0.003226 239.59392 315.14209
320.0 0.003125 239.43524 323.68304
365.0 0.002740 239.27766 331.85095
350.0 0.002857 239.12128 339.17917
380.0 0.002632 238.96613 345.29932
369.0 0.002710 238.81219 349.82272
339.0 0.002950 238.65944 352.64551
365.0 0.002740 238.50806 353.71860
380.0 0.002632 238.35797 353.11230
369.0 0.002710 238.20917 350.92963
365.0 0.002740 238.06165 347.15045
361.0 0.002770 237.91553 342.29529
339.0 0.002950 237.77077 336.41437
339.0 0.002950 237.62743 329.69171
320.0 0.003125 237.48552 322.40683
328.0 0.003049 237.34500 314.81860
339.0 0.002950 237.20602 307.36905
306.0 0.003268 237.06851 299.92206
299.0 0.003344 236.93250 292.77063
306.0 0.003268 236.79803 286.23499
282.0 0.00355 236.66513 280.33395
266.0 0.00376 236.53378 275.12976
286.0 0.003497 236.40407 270.64789
272.0 0.00368 236.27596 266.87476
262.0 0.00382 236.14951 263.88495
262.0 0.00382 236.02475 261.43811
262.0 0.00382 235.90170 259.56671
262.0 0.00382 235.78032 258.20410
292.0 0.003425 235.66074 257.30325
289.0 0.003460 235.54291 256.83142
262.0 0.00382 235.42693 256.77493
279.0 0.00358 235.31271 257.15845
303.0 0.003300 235.20039 258.02521
289.0 0.003460 235.08989 259.45593
279.0 0.00358 234.98135 261.57233
313.0 0.003195 234.87469 264.53445
292.0 0.003425 234.77002 268.55261
310.0 0.003226 234.66731 273.88107
279.0 0.00358 234.56659 280.81461
346.0 0.002890 234.46790 289.63483
328.0 0.003049 234.37125 300.76627
331.0 0.003021 234.27670 314.48956
313.0 0.003195 234.18427 331.08365
380.0 0.002632 234.09399 350.73633
380.0 0.002632 234.00586 373.49289
420.0 0.002381 233.91989 399.20432
454.0 0.002203 233.83617 427.28403
445.0 0.002247 233.75468 457.52063
493.0 0.002028 233.67546 489.01401
515.0 0.001942 233.59851 520.63568
566.0 0.001767 233.52396 551.34735
655.0 0.001527 233.45174 579.83655
681.0 0.001468 233.38188 604.58276
697.0 0.001435 233.31444 623.89105
697.0 0.001435 233.24947 636.53101
708.0 0.001412 233.18692 641.65955
645.0 0.001550 233.12691 639.42310
655.0 0.001527 233.06944 630.62903
615.0 0.001626 233.01450 616.59210
552.0 0.001812 232.96219 598.52289
566.0 0.001767 232.91246 577.58740
557.0 0.001795 232.86540 554.55396
576.0 0.001736 232.82098 530.08435
534.0 0.001873 232.77931 504.74771
493.0 0.002028 232.74037 479.51263
484.0 0.002066 232.70418 455.42783
437.0 0.002288 232.67079 433.45990
424.0 0.002358 232.64030 414.40067
380.0 0.002632 232.61261 398.88959
392.0 0.002551 232.58786 387.28085
396.0 0.002525 232.56601 379.78830
400.0 0.002500 232.54707 376.33835
369.0 0.002710 232.53117 376.70178
396.0 0.002525 232.51831 380.66696
428.0 0.002336 232.50851 387.78159
424.0 0.002358 232.50175 397.46790
428.0 0.002336 232.49817 409.03717
428.0 0.002336 232.49770 421.77805
462.0 0.002165 232.50043 435.08011
471.0 0.002123 232.50639 448.27969
462.0 0.002165 232.51559 460.92947
484.0 0.002066 232.52805 472.48236
488.0 0.002049 232.54387 482.35742
515.0 0.001942 232.56308 489.90826
566.0 0.001767 232.58560 494.56546
506.0 0.001976 232.61160 496.00580
493.0 0.002028 232.64107 494.20129
480.0 0.002083 232.67400 489.54568
484.0 0.002066 232.71045 482.65781
488.0 0.002049 232.75049 473.83957
424.0 0.002358 232.79413 463.53760
433.0 0.002309 232.84140 452.22375
449.0 0.002227 232.89233 440.13510
428.0 0.002336 232.94699 427.62277
441.0 0.002268 233.00539 415.11453
380.0 0.002632 233.06755 403.07169
353.0 0.002833 233.13359 391.95474
396.0 0.002525 233.20341 382.05048
400.0 0.002500 233.27716 373.54395
380.0 0.002632 233.35481 366.57758
372.0 0.002688 233.43646 361.18848
361.0 0.002770 233.52208 357.38202
350.0 0.002857 233.61177 355.17935
339.0 0.002950 233.70552 354.63870
361.0 0.002770 233.80342 355.85980
339.0 0.002950 233.90546 358.86850
372.0 0.002688 234.01172 363.67264
350.0 0.002857 234.12218 370.08142
376.0 0.002660 234.23692 377.82776
396.0 0.002525 234.35596 386.39886
392.0 0.002551 234.47935 395.22778
408.0 0.002451 234.60719 403.62061
437.0 0.002288 234.73941 410.83859
484.0 0.002066 234.87611 416.15179
454.0 0.002203 235.01735 419.02148
441.0 0.002268 235.16312 419.19986
433.0 0.002309 235.31352 416.79596
369.0 0.002710 235.46855 412.13748
408.0 0.002451 235.62819 405.73056
400.0 0.002500 235.79260 397.90860
400.0 0.002500 235.96179 388.96652
384.0 0.002604 236.13579 379.11307
384.0 0.002604 236.31459 368.47092
350.0 0.002857 236.49831 357.32104
350.0 0.002857 236.68695 345.91656
320.0 0.003125 236.88055 334.58182
306.0 0.003268 237.07919 323.72339
289.0 0.003460 237.28282 313.65158
299.0 0.003344 237.49164 304.53549
313.0 0.003195 237.70563 296.57047
279.0 0.00358 237.92471 289.86270
286.0 0.003497 238.14912 284.47406
276.0 0.00362 238.37877 280.43488
276.0 0.00362 238.61377 277.75342
286.0 0.003497 238.85405 276.42593
266.0 0.00376 239.09981 276.43515
225.0 0.00444 239.35104 277.75427
266.0 0.00376 239.60776 280.36365
286.0 0.003497 239.87003 284.17322
286.0 0.003497 240.13791 289.13034
279.0 0.00358 240.41145 295.14160
292.0 0.003425 240.69067 302.08749
303.0 0.003300 240.97560 309.81964
320.0 0.003125 241.26631 318.16034
296.0 0.003378 241.56284 326.90787
335.0 0.002985 241.86533 335.86624
317.0 0.003155 242.17366 344.76758
324.0 0.003086 242.48805 353.70187
342.0 0.002924 242.80840 362.63162
357.0 0.002801 243.13487 371.72198
384.0 0.002604 243.46744 381.18506
361.0 0.002770 243.80608 391.24768
388.0 0.002577 244.15108 401.67584
392.0 0.002551 244.50224 413.34030
392.0 0.002551 244.85982 425.74332
396.0 0.002525 245.22371 438.78217
412.0 0.002427 245.59404 452.10138
449.0 0.002227 245.97086 465.25391
480.0 0.002083 246.35414 477.66193
484.0 0.002066 246.74393 488.69067
484.0 0.002066 247.14047 497.55960
520.0 0.001923 247.54362 504.28253
543.0 0.001842 247.95354 508.56265
488.0 0.002049 248.37019 510.55853
493.0 0.002028 248.79369 510.53931
506.0 0.001976 249.22409 508.77277
484.0 0.002066 249.66141 505.23126
497.0 0.002012 250.10570 499.88748
475.0 0.002105 250.55701 492.62125
441.0 0.002268 251.01541 483.45615
471.0 0.002123 251.48099 472.62756
445.0 . . .
loop_
_refln_index_h
_refln_index_k
_refln_index_l
_pd_refln_wavelength_id
_refln_observed_status
_refln_F_squared_meas
_refln_F_squared_calc
_refln_phase_calc
_refln_d_spacing
_gsas_i100_meas
0 1 1 1 o 17791.176 17576.313 180.00 6.85965 96.14
0 1 1 2 o 17616.055 17576.313 180.00 6.85965 47.52
1 0 -1 1 o 556.229 134.083 180.00 6.21867 1.32
1 0 -1 2 o 515.966 134.083 180.00 6.21867 0.61
1 1 0 1 o 41.369 101.645 180.00 5.39697 0.14
1 1 0 2 o 64.303 101.645 180.00 5.39697 0.12
0 0 2 1 o 30090.283 32793.719 0.00 5.33036 62.41
0 0 2 2 o 29917.438 32793.719 0.00 5.33036 30.95
1 0 1 1 o 60.920 71.005 0.00 5.30765 0.16
1 0 1 2 o 55.122 71.005 0.00 5.30765 0.07
1 1 -1 1 o 8442.508 8456.672 180.00 5.10899 32.46
1 1 -1 2 o 8637.307 8456.672 180.00 5.10899 16.56
0 1 2 1 o 0.245 0.003 0.00 4.58116 0.01
0 1 2 2 o 0.090 0.003 0.00 4.58116 0.01
1 1 1 1 o 8638.603 8484.440 180.00 4.56672 30.34
1 1 1 2 o 8380.283 8484.440 180.00 4.56672 14.68
0 2 0 1 o 9164.133 9416.827 0.00 4.48057 15.61
0 2 0 2 o 8629.999 9416.827 0.00 4.48057 7.34
0 2 1 1 o 1977.427 1734.233 180.00 4.13058 6.00
0 2 1 2 o 1962.486 1734.233 180.00 4.13058 2.97
1 1 -2 1 o 1158.553 1137.777 0.00 4.08627 3.34
1 1 -2 2 o 1144.374 1137.777 0.00 4.08627 1.64
1 2 0 1 o 15622.624 15084.356 0.00 3.73480 41.28
1 2 0 2 o 15323.544 15084.356 0.00 3.73480 20.18
1 2 -1 1 o 716.622 656.768 180.00 3.63527 1.90
1 2 -1 2 o 677.517 656.768 180.00 3.63527 0.90
1 1 2 1 o 5108.521 5355.902 180.00 3.55410 12.82
1 1 2 2 o 5017.076 5355.902 180.00 3.55410 6.28
0 2 2 1 o 5921.767 5659.495 0.00 3.42982 13.69
1 2 1 1 o 927.152 917.531 180.00 3.42375 2.31
0 2 2 2 o 5621.875 5659.495 0.00 3.42982 6.47
1 2 1 2 o 871.542 917.531 180.00 3.42375 1.09
1 0 -3 1 o 86.260 93.740 180.00 3.39793 0.12
1 0 -3 2 o 92.577 93.740 180.00 3.39793 0.06
2 0 0 1 o 8718.677 8416.519 180.00 3.38030 9.70
2 0 0 2 o 8993.887 8416.519 180.00 3.38030 4.99
0 1 3 1 o 4426.434 4282.593 180.00 3.30332 9.60
0 1 3 2 o 4235.393 4282.593 180.00 3.30332 4.58
1 2 -2 1 o 1895.552 1886.761 0.00 3.20671 3.92
1 2 -2 2 o 1972.170 1886.761 0.00 3.20671 2.03
1 1 -3 1 o 1446.224 1242.680 180.00 3.17719 2.96
2 1 -1 1 o 2634.705 2246.711 0.00 3.17613 5.70
1 1 -3 2 o 1435.403 1242.680 180.00 3.17719 1.46
2 1 -1 2 o 2622.552 2246.711 0.00 3.17613 2.83
2 1 0 1 o 292.323 245.739 0.00 3.16276 0.63
2 1 0 2 o 300.606 245.739 0.00 3.16276 0.32
2 0 -2 1 o 98686.23 92950.46 180.00 3.10934 100.00
2 0 -2 2 o 98797.86 92950.46 180.00 3.10934 49.86
1 0 3 1 o 9506.434 9327.027 0.00 2.94211 9.01
2 1 -2 1 o 5075.875 5017.125 0.00 2.93753 9.49
1 0 3 2 o 9427.594 9327.027 0.00 2.94211 4.45
2 1 -2 2 o 5055.616 5017.125 0.00 2.93753 4.71
1 2 2 1 o 32709.459 32508.564 0.00 2.92948 61.15
1 2 2 2 o 31535.836 32508.564 0.00 2.92948 29.39
2 1 1 1 o 1468.802 1576.939 0.00 2.90611 2.58
2 1 1 2 o 1492.924 1576.939 0.00 2.90611 1.31
0 3 1 1 o 4382.061 4429.954 0.00 2.87628 7.95
0 3 1 2 o 4304.491 4429.954 0.00 2.87628 3.89
1 1 3 1 o 15579.935 16233.173 180.00 2.79530 26.97
1 1 3 2 o 15150.591 16233.173 180.00 2.79530 13.07
0 2 3 1 o 150.175 171.076 180.00 2.78421 0.25
0 2 3 2 o 137.384 171.076 180.00 2.78421 0.11
1 3 0 1 o 11063.803 10849.872 0.00 2.73224 18.57
1 3 0 2 o 10715.778 10849.872 0.00 2.73224 8.96
1 2 -3 1 o 72.317 71.181 0.00 2.70743 0.15
2 2 -1 1 o 42.440 41.926 0.00 2.70678 0.07
1 2 -3 2 o 71.568 71.181 0.00 2.70743 0.07
2 2 -1 2 o 42.094 41.926 0.00 2.70678 0.03
2 2 0 1 o 6597.919 6579.734 180.00 2.69848 10.44
1 3 -1 1 o 4662.139 4647.607 180.00 2.69254 7.39
2 2 0 2 o 6601.494 6579.734 180.00 2.69848 5.20
1 3 -1 2 o 4665.798 4647.607 180.00 2.69254 3.68
0 0 4 1 o 1079.091 1158.217 0.00 2.66518 0.83
0 0 4 2 o 1029.918 1158.217 0.00 2.66518 0.39
2 0 2 1 o 4714.421 5299.966 180.00 2.65382 3.63
2 0 2 2 o 5029.992 5299.966 180.00 2.65382 1.93
0 3 2 1 o 6790.037 6773.101 0.00 2.60579 10.40
1 3 1 1 o 30600.232 30079.641 180.00 2.60312 46.56
0 3 2 2 o 6997.878 6773.101 0.00 2.60579 5.33
1 3 1 2 o 31186.473 30079.641 180.00 2.60312 23.61
2 1 -3 1 o 14104.206 14386.406 0.00 2.57990 21.61
2 1 -3 2 o 14853.613 14386.406 0.00 2.57990 11.31
0 1 4 1 o 63.438 68.924 180.00 2.55459 0.13
2 2 -2 1 o 5287.014 5622.836 180.00 2.55450 7.83
0 1 4 2 o 59.241 68.924 180.00 2.55459 0.06
2 2 -2 2 o 5038.525 5622.836 180.00 2.55450 3.72
2 1 2 1 o 300.709 339.596 180.00 2.54458 0.45
2 1 2 2 o 293.234 339.596 180.00 2.54458 0.22
2 2 1 1 o 54.898 66.580 180.00 2.53375 0.09
1 1 -4 1 o 2756.749 3252.473 0.00 2.53318 4.00
2 2 1 2 o 57.542 66.580 180.00 2.53375 0.05
1 1 -4 2 o 2892.412 3252.473 0.00 2.53318 2.09
1 3 -2 1 o 2371.857 2823.336 180.00 2.50382 3.37
1 3 -2 2 o 2136.740 2823.336 180.00 2.50382 1.52
1 2 3 1 o 2793.924 3947.532 0.00 2.45931 3.94
1 2 3 2 o 2579.982 3947.532 0.00 2.45931 1.82
1 3 2 1 o 1246.928 1830.157 0.00 2.36498 1.67
1 3 2 2 o 1581.592 1830.157 0.00 2.36498 1.04
2 2 -3 1 o 6338.964 5857.575 180.00 2.30877 7.88
2 2 -3 2 o 6115.859 5857.575 180.00 2.30877 3.79
2 0 -4 1 o 25358.758 25417.902 180.00 2.29571 15.62
0 2 4 1 o 228.713 225.914 0.00 2.29058 0.28
2 0 -4 2 o 25844.217 25417.902 180.00 2.29571 7.92
3 0 -1 1 o 630.040 603.635 0.00 2.28663 0.38
0 3 3 1 o 2264.872 2168.094 0.00 2.28655 2.74
0 2 4 2 o 237.696 225.914 0.00 2.29058 0.14
2 2 2 1 o 2347.799 2224.641 180.00 2.28336 2.84
3 0 -1 2 o 632.419 603.635 0.00 2.28663 0.19
0 3 3 2 o 2271.277 2168.094 0.00 2.28655 1.37
2 2 2 2 o 2280.335 2224.641 180.00 2.28336 1.38
1 2 -4 1 o 7298.417 7214.655 0.00 2.27511 8.76
1 2 -4 2 o 7614.820 7214.655 0.00 2.27511 4.54
1 1 4 1 o 6974.638 6470.225 180.00 2.26810 8.36
1 1 4 2 o 7466.128 6470.225 180.00 2.26810 4.45
1 3 -3 1 o 14339.326 14911.910 180.00 2.24344 16.58
2 3 -1 1 o 1380.205 1435.173 180.00 2.24307 1.58
0 4 0 1 o 10862.614 11234.871 180.00 2.24029 6.38
2 3 0 1 o 573.475 586.755 180.00 2.23835 0.67
1 3 -3 2 o 14619.786 14911.910 180.00 2.24344 8.41
2 3 -1 2 o 1410.686 1435.173 180.00 2.24307 0.80
0 4 0 2 o 11260.438 11234.871 180.00 2.24029 3.29
2 3 0 2 o 596.351 586.755 180.00 2.23835 0.35
2 1 -4 1 o 2371.757 2248.067 0.00 2.22389 2.76
2 1 -4 2 o 2390.671 2248.067 0.00 2.22389 1.38
3 1 -1 1 o 8581.158 7861.178 0.00 2.21564 9.99
3 1 -1 2 o 9002.282 7861.178 0.00 2.21564 5.20
0 4 1 1 o 210.481 208.819 180.00 2.19240 0.29
2 1 3 1 o 17227.801 17108.414 0.00 2.19225 19.23
0 4 1 2 o 212.640 208.819 180.00 2.19240 0.14
2 1 3 2 o 17368.471 17108.414 0.00 2.19225 9.65
3 1 0 1 o 777.072 763.564 0.00 2.18549 0.88
3 1 0 2 o 799.517 763.564 0.00 2.18549 0.45
2 3 -2 1 o 732.051 662.320 0.00 2.15410 0.77
3 1 -2 1 o 875.099 799.071 180.00 2.15343 0.97
2 3 -2 2 o 655.702 662.320 0.00 2.15410 0.34
3 1 -2 2 o 779.832 799.071 180.00 2.15343 0.43
1 0 -5 1 o 13518.243 14838.413 180.00 2.14298 7.38
2 3 1 1 o 311.420 340.424 180.00 2.14161 0.31
1 0 -5 2 o 13738.862 14838.413 180.00 2.14298 3.73
2 3 1 2 o 322.163 340.424 180.00 2.14161 0.16
3 0 1 1 o 64.088 62.466 180.00 2.13119 0.04
1 4 0 1 o 8055.285 7586.928 0.00 2.12657 8.46
3 0 1 2 o 66.805 62.466 180.00 2.13119 0.02
1 4 0 2 o 7877.607 7586.928 0.00 2.12657 4.12
1 4 -1 1 o 116.739 110.550 180.00 2.10769 0.13
1 4 -1 2 o 113.635 110.550 180.00 2.10769 0.06
1 3 3 1 o 19853.658 19337.576 180.00 2.09609 20.45
1 3 3 2 o 19099.246 19337.576 180.00 2.09609 9.80
1 1 -5 1 o 5464.102 5866.383 180.00 2.08421 5.58
1 1 -5 2 o 5701.787 5866.383 180.00 2.08421 2.90
1 2 4 1 o 12118.653 12193.459 0.00 2.07725 12.32
0 1 5 1 o 6095.242 5993.445 180.00 2.07424 6.02
3 1 1 1 o 6092.733 5969.665 0.00 2.07336 6.14
3 0 -3 1 o 2507.563 2454.276 0.00 2.07289 1.25
1 2 4 2 o 12481.154 12193.459 0.00 2.07725 6.31
0 1 5 2 o 6164.629 5993.445 180.00 2.07424 3.03
3 1 1 2 o 6160.557 5969.665 0.00 2.07336 3.09
3 0 -3 2 o 2536.301 2454.276 0.00 2.07289 0.63
0 4 2 1 o 7555.975 7221.256 180.00 2.06529 7.59
1 4 1 1 o 766.782 725.665 180.00 2.06396 0.81
0 4 2 2 o 7780.374 7221.256 180.00 2.06529 3.88
1 4 1 2 o 793.803 725.665 180.00 2.06396 0.42
2 2 -4 1 o 2825.116 2549.957 180.00 2.04314 2.73
2 2 -4 2 o 2999.639 2549.957 180.00 2.04314 1.44
3 2 -1 1 o 55.222 44.807 0.00 2.03673 0.05
3 2 -1 2 o 62.479 44.807 0.00 2.03673 0.03
3 1 -3 1 o 9475.896 8900.536 0.00 2.01956 9.00
2 2 3 1 o 5121.927 4885.005 0.00 2.01852 4.91
3 1 -3 2 o 9110.282 8900.536 0.00 2.01956 4.31
2 2 3 2 o 5004.644 4885.005 0.00 2.01852 2.39
1 4 -2 1 o 6375.382 6223.001 0.00 2.01340 6.01
3 2 0 1 o 22985.922 22418.629 180.00 2.01324 22.07
1 4 -2 2 o 6644.524 6223.001 0.00 2.01340 3.12
3 2 0 2 o 24033.309 22418.629 180.00 2.01324 11.46
2 3 -3 1 o 1354.454 1055.241 180.00 2.00053 1.28
2 3 -3 2 o 1319.820 1055.241 180.00 2.00053 0.62
0 3 4 1 o 1525.661 1404.800 0.00 1.98866 1.38
3 2 -2 1 o 23236.492 21465.031 180.00 1.98810 21.68
2 3 2 1 o 528.719 497.287 180.00 1.98393 0.46
0 3 4 2 o 1497.358 1404.800 0.00 1.98866 0.67
3 2 -2 2 o 22998.465 21465.031 180.00 1.98810 10.68
2 3 2 2 o 553.647 497.287 180.00 1.98393 0.24
1 3 -4 1 o 4394.379 3877.444 180.00 1.97851 4.12
1 3 -4 2 o 4802.447 3877.444 180.00 1.97851 2.23
1 0 5 1 o 4090.440 3984.554 0.00 1.93911 1.77
1 4 2 1 o 5833.480 5676.767 0.00 1.93906 5.21
2 0 4 1 o 8963.700 8716.295 180.00 1.93581 4.03
1 0 5 2 o 4050.137 3984.554 0.00 1.93911 0.87
1 4 2 2 o 5770.479 5676.767 0.00 1.93906 2.57
1 2 -5 1 o 1463.836 1457.869 180.00 1.93324 1.27
2 0 4 2 o 8488.677 8716.295 180.00 1.93581 1.90
1 2 -5 2 o 1384.141 1457.869 180.00 1.93324 0.60
0 2 5 1 o 3034.850 3241.034 180.00 1.92527 2.56
3 2 1 1 o 2488.202 2680.077 180.00 1.92457 2.24
0 2 5 2 o 2927.238 3241.034 180.00 1.92527 1.23
3 2 1 2 o 2394.042 2680.077 180.00 1.92457 1.07
2 1 -5 1 o 5079.067 5680.885 0.00 1.91830 4.39
2 1 -5 2 o 5350.376 5680.885 0.00 1.91830 2.30
3 1 2 1 o 610.691 632.692 0.00 1.91223 0.52
3 1 2 2 o 642.203 632.692 0.00 1.91223 0.27
1 1 5 1 o 1898.606 2002.651 180.00 1.89524 1.61
0 4 3 1 o 3072.549 3240.690 180.00 1.89512 2.66
2 1 4 1 o 4198.685 4349.299 180.00 1.89217 3.61
1 1 5 2 o 1921.508 2002.651 180.00 1.89524 0.81
0 4 3 2 o 3103.774 3240.690 180.00 1.89512 1.34
2 1 4 2 o 4024.640 4349.299 180.00 1.89217 1.73
3 2 -3 1 o 1135.494 1259.271 0.00 1.88131 1.00
3 2 -3 2 o 1274.260 1259.271 0.00 1.88131 0.55
1 4 -3 1 o 1096.324 1048.172 0.00 1.87036 0.93
2 4 -1 1 o 184.282 174.983 0.00 1.87014 0.19
2 4 0 1 o 3084.894 3046.758 0.00 1.86740 2.50
1 4 -3 2 o 1032.966 1048.172 0.00 1.87036 0.44
2 4 -1 2 o 171.057 174.983 0.00 1.87014 0.09
2 4 0 2 o 2835.585 3046.758 0.00 1.86740 1.15
3 1 -4 1 o 1365.057 1614.985 180.00 1.84959 1.07
3 1 -4 2 o 1002.938 1614.985 180.00 1.84959 0.39
1 3 4 1 o 2.339 7.688 180.00 1.84423 0.01
1 3 4 2 o -0.531 7.688 180.00 1.84423 0.00
2 3 -4 1 o 8052.989 8024.065 0.00 1.82023 6.34
2 4 -2 1 o 4525.968 4618.017 0.00 1.81764 3.53
2 3 -4 2 o 7866.630 8024.065 0.00 1.82023 3.08
3 3 -1 1 o 18999.861 19377.791 0.00 1.81569 14.88
2 4 -2 2 o 4561.281 4618.017 0.00 1.81764 1.77
3 3 -1 2 o 19402.125 19377.791 0.00 1.81569 7.55
2 4 1 1 o 18.617 18.293 180.00 1.81012 0.02
2 4 1 2 o 19.996 18.293 180.00 1.81012 0.01
2 3 3 1 o 21.066 20.155 180.00 1.80276 0.01
3 3 0 1 o 494.657 495.527 0.00 1.79899 0.40
2 2 -5 1 o 4424.679 4454.234 180.00 1.79865 3.37
2 3 3 2 o 19.997 20.155 180.00 1.80276 0.01
3 3 0 2 o 477.970 495.527 0.00 1.79899 0.19
2 2 -5 2 o 4303.679 4454.234 180.00 1.79865 1.63
3 2 2 1 o 4502.732 4660.311 180.00 1.79364 3.35
3 2 2 2 o 4371.869 4660.311 180.00 1.79364 1.62
1 4 3 1 o 571.093 667.207 180.00 1.78238 0.43
3 3 -2 1 o 2217.532 2584.512 180.00 1.78098 1.71
1 2 5 1 o 1107.212 1269.496 0.00 1.77960 0.84
1 4 3 2 o 594.476 667.207 180.00 1.78238 0.22
2 2 4 1 o 1443.738 1610.008 180.00 1.77705 1.11
0 0 6 1 o 1442.740 1602.300 0.00 1.77679 0.54
3 3 -2 2 o 2326.424 2584.512 180.00 1.78098 0.89
1 2 5 2 o 1152.135 1269.496 0.00 1.77960 0.44
2 2 4 2 o 1488.111 1610.008 180.00 1.77705 0.57
0 0 6 2 o 1488.637 1602.300 0.00 1.77679 0.28
3 0 3 1 o 355.451 359.919 180.00 1.76922 0.12
0 5 1 1 o 12585.972 12550.021 0.00 1.76743 9.21
3 0 3 2 o 352.753 359.919 180.00 1.76922 0.06
0 5 1 2 o 11780.709 12550.021 0.00 1.76743 4.29
1 1 -6 1 o 9020.539 9958.640 0.00 1.76179 6.73
1 1 -6 2 o 8216.337 9958.640 0.00 1.76179 3.06
0 1 6 1 o 1741.758 1788.665 0.00 1.74286 1.25
3 2 -4 1 o 1089.481 1146.757 180.00 1.74164 0.78
1 3 -5 1 o 10560.409 11210.585 180.00 1.74122 7.60
0 1 6 2 o 1629.781 1788.665 0.00 1.74286 0.58
3 2 -4 2 o 1042.631 1146.757 180.00 1.74164 0.37
1 3 -5 2 o 10187.189 11210.585 180.00 1.74122 3.65
3 1 3 1 o 502.641 547.472 0.00 1.73571 0.34
0 3 5 1 o 44.256 49.511 180.00 1.73540 0.04
3 3 1 1 o 8960.311 9744.892 0.00 1.73488 6.32
1 5 0 1 o 505.634 541.360 180.00 1.73239 0.36
3 1 3 2 o 515.885 547.472 0.00 1.73571 0.17
0 3 5 2 o 45.816 49.511 180.00 1.73540 0.02
3 3 1 2 o 9190.213 9744.892 0.00 1.73488 3.22
1 5 0 2 o 510.129 541.360 180.00 1.73239 0.18
2 4 -3 1 o 87.693 96.314 0.00 1.72251 0.07
1 5 -1 1 o 10.903 11.954 180.00 1.72213 0.01
2 4 -3 2 o 92.238 96.314 0.00 1.72251 0.04
1 5 -1 2 o 11.512 11.954 180.00 1.72213 0.00
0 4 4 1 o 1421.798 1404.269 180.00 1.71491 0.97
2 4 2 1 o 1447.160 1380.542 0.00 1.71187 0.98
0 4 4 2 o 1480.356 1404.269 180.00 1.71491 0.50
1 4 -4 1 o 5995.096 5701.737 0.00 1.70839 4.19
2 4 2 2 o 1442.338 1380.542 0.00 1.71187 0.49
1 4 -4 2 o 5833.482 5701.737 0.00 1.70839 2.03
3 0 -5 1 o 119.124 116.519 0.00 1.70352 0.04
3 3 -3 1 o 5158.158 5035.776 0.00 1.70300 3.50
3 0 -5 2 o 123.024 116.519 0.00 1.70352 0.02
2 0 -6 1 o 2017.882 1905.555 180.00 1.69896 0.68
3 3 -3 2 o 5338.901 5035.776 0.00 1.70300 1.80
0 5 2 1 o 5364.435 5047.496 0.00 1.69877 3.75
4 0 -2 1 o 3369.403 3180.656 0.00 1.69832 1.08
1 5 1 1 o 1287.718 1210.446 180.00 1.69804 0.88
2 0 -6 2 o 2010.392 1905.555 180.00 1.69896 0.34
0 5 2 2 o 5335.567 5047.496 0.00 1.69877 1.86
4 0 -2 2 o 3345.013 3180.656 0.00 1.69832 0.54
1 5 1 2 o 1276.951 1210.446 180.00 1.69804 0.43
4 0 0 1 o 14858.141 13711.393 0.00 1.69015 5.00
4 0 0 2 o 15380.360 13711.393 0.00 1.69015 2.57
4 1 -1 1 o 2503.094 2230.230 180.00 1.68540 1.66
4 1 -1 2 o 2562.525 2230.230 180.00 1.68540 0.84
3 1 -5 1 o 468.507 457.397 0.00 1.67355 0.29
1 5 -2 1 o 193.945 210.371 180.00 1.66954 0.13
3 1 -5 2 o 423.055 457.397 0.00 1.67355 0.13
2 1 -6 1 o 30.734 34.185 0.00 1.66923 0.02
4 1 -2 1 o 1.687 1.831 180.00 1.66862 0.00
1 2 -6 1 o 5780.447 6547.753 0.00 1.66775 3.84
1 5 -2 2 o 179.138 210.371 180.00 1.66954 0.06
2 1 -6 2 o 28.155 34.185 0.00 1.66923 0.01
4 1 -2 2 o 1.619 1.831 180.00 1.66862 0.00
1 2 -6 2 o 5699.399 6547.753 0.00 1.66775 1.88
4 1 0 1 o 284.048 290.934 0.00 1.66087 0.19
4 1 0 2 o 300.294 290.934 0.00 1.66087 0.10
0 2 6 1 o 1609.828 1635.006 0.00 1.65166 1.07
2 1 5 1 o 8829.935 8279.613 0.00 1.64815 5.64
0 2 6 2 o 1751.782 1635.006 0.00 1.65166 0.58
3 2 3 1 o 98.264 94.423 180.00 1.64557 0.06
2 1 5 2 o 8240.258 8279.613 0.00 1.64815 2.62
3 2 3 2 o 86.723 94.423 180.00 1.64557 0.03
2 3 -5 1 o 2341.218 2585.871 180.00 1.64095 1.53
3 3 2 1 o 302.408 323.399 0.00 1.63714 0.21
2 3 -5 2 o 2444.045 2585.871 180.00 1.64095 0.79
3 3 2 2 o 329.638 323.399 0.00 1.63714 0.11
1 3 5 1 o 2339.930 2167.878 180.00 1.62645 1.42
1 5 2 1 o 1982.153 1833.739 0.00 1.62642 1.21
2 3 4 1 o 2991.721 2675.121 180.00 1.62450 1.87
1 4 4 2 o 45.832 29.364 0.00 1.61969 0.02
1 3 5 2 o 2472.292 2167.878 180.00 1.62645 0.74
1 5 2 2 o 2095.125 1833.739 0.00 1.62642 0.64
1 1 6 1 o 836.040 734.920 180.00 1.62220 0.49
4 1 -3 1 o 152.610 89.133 180.00 1.61400 0.11
2 3 4 2 o 3138.657 2675.121 180.00 1.62450 0.97
1 4 4 1 o 37.213 29.364 0.00 1.61969 0.03
1 1 6 2 o 895.635 734.920 180.00 1.62220 0.26
4 1 -3 2 o 167.234 89.133 180.00 1.61400 0.06
2 4 -4 1 o 5432.731 4629.429 0.00 1.60336 3.30
4 2 -1 1 o 39.173 34.646 0.00 1.60252 0.02
3 4 -1 1 o 215.923 195.764 180.00 1.60026 0.13
0 5 3 1 o 8687.446 7874.158 0.00 1.60023 5.15
4 1 1 1 o 16543.127 14997.896 180.00 1.60006 9.98
2 4 -4 2 o 5070.066 4629.429 0.00 1.60336 1.54
4 2 -1 2 o 37.280 34.646 0.00 1.60252 0.01
3 3 -4 1 o 0.259 0.226 0.00 1.59732 0.00
3 4 -1 2 o 209.074 195.764 180.00 1.60026 0.06
0 5 3 2 o 8412.477 7874.158 0.00 1.60023 2.48
4 1 1 2 o 16036.148 14997.896 180.00 1.60006 4.82
3 3 -4 2 o 0.257 0.226 0.00 1.59732 0.00
3 2 -5 1 o 534.012 497.557 0.00 1.59232 0.31
2 4 3 1 o 15.488 13.457 180.00 1.59138 0.02
3 4 0 1 o 3485.577 3218.285 180.00 1.58878 2.06
2 2 -6 1 o 141.221 128.992 0.00 1.58859 0.09
3 2 -5 2 o 536.751 497.557 0.00 1.59232 0.15
4 2 -2 1 o 2940.846 2729.125 0.00 1.58807 1.69
2 4 3 2 o 15.378 13.457 180.00 1.59138 0.01
1 5 -3 1 o 1909.877 1811.582 180.00 1.58524 1.15
2 5 -1 1 o 8599.904 8180.433 180.00 1.58510 5.03
3 4 0 2 o 3375.105 3218.285 180.00 1.58878 0.99
2 2 -6 2 o 135.865 128.992 0.00 1.58859 0.05
4 2 -2 2 o 2834.268 2729.125 0.00 1.58807 0.81
2 5 0 1 o 1720.798 1667.780 180.00 1.58343 1.04
4 2 0 1 o 2005.589 1979.398 0.00 1.58138 1.18
1 5 -3 2 o 1835.411 1811.582 180.00 1.58524 0.55
2 5 -1 2 o 8280.201 8180.433 180.00 1.58510 2.41
2 5 0 2 o 1682.133 1667.780 180.00 1.58343 0.51
4 2 0 2 o 1995.982 1979.398 0.00 1.58138 0.59
3 4 -2 1 o 2974.785 2949.625 180.00 1.57634 1.72
3 4 -2 2 o 3036.457 2949.625 180.00 1.57634 0.87
2 2 5 1 o 11310.339 10918.035 0.00 1.57039 6.60
2 2 5 2 o 10702.486 10918.035 0.00 1.57039 3.11
3 1 4 1 o 195.603 203.072 0.00 1.56560 0.10
3 1 4 2 o 178.282 203.072 0.00 1.56560 0.05
4 0 -4 1 o 8011.524 9451.496 0.00 1.55467 2.21
2 5 -2 1 o 1288.061 1500.436 180.00 1.55275 0.78
4 0 -4 2 o 8461.298 9451.496 0.00 1.55467 1.16
2 5 -2 2 o 1375.921 1500.436 180.00 1.55275 0.41
1 4 -5 1 o 2953.497 3192.273 0.00 1.54857 1.69
2 5 1 1 o 7776.348 8336.869 180.00 1.54806 4.33
1 2 6 1 o 2008.991 2148.057 0.00 1.54789 1.10
1 4 -5 2 o 3013.410 3192.273 0.00 1.54857 0.86
0 4 5 1 o 450.856 475.911 180.00 1.54447 0.24
1 0 -7 1 o 10402.539 11024.957 180.00 1.54434 2.94
2 5 1 2 o 7872.614 8336.869 180.00 1.54806 2.18
1 2 6 2 o 2029.293 2148.057 0.00 1.54789 0.55
3 4 1 1 o 229.542 244.491 180.00 1.54411 0.14
