#------------------------------------------------------------------------------
#$Date: 2017-03-10 09:35:35 +0200 (Fri, 10 Mar 2017) $
#$Revision: 194155 $
#$URL: file:///home/coder/svn-repositories/cod/cif/7/11/46/7114637.cif $
#------------------------------------------------------------------------------
#
# This file is available in the Crystallography Open Database (COD),
# http://www.crystallography.net/
#
# All data on this site have been placed in the public domain by the
# contributors.
#
data_7114637
loop_
_publ_author_name
'Nathan L. Strutt'
'Huacheng Zhang'
'J. Fraser Stoddart'
_publ_section_title
;
 Enantiopure pillar[5]arene active domains within a homochiral
 metal-organic framework
;
_journal_name_full               Chem.Commun.
_journal_page_first              7455
_journal_paper_doi               10.1039/C4CC02559H
_journal_volume                  50
_journal_year                    2014
_chemical_absolute_configuration ad
_chemical_formula_moiety         'C67 H72 N2 O12, 0.5(C H2 Cl2)'
_chemical_formula_sum            'C67.5 H73 Cl N2 O12'
_chemical_formula_weight         1139.72
_chemical_name_systematic
;
 ?
;
_space_group_crystal_system      monoclinic
_space_group_IT_number           4
_space_group_name_Hall           'P 2yb'
_space_group_name_H-M_alt        'P 1 21 1'
_symmetry_space_group_name_Hall  'P 2yb'
_symmetry_space_group_name_H-M   'P 1 21 1'
_atom_sites_solution_hydrogens   geom
_audit_creation_date             2014-04-22
_audit_creation_method
;
Olex2 1.2
(compiled 2014.03.20 svn.r2914 for OlexSys, GUI svn.r4816)
;
_cell_angle_alpha                90
_cell_angle_beta                 92.817(3)
_cell_angle_gamma                90
_cell_formula_units_Z            4
_cell_length_a                   12.0918(5)
_cell_length_b                   21.3853(9)
_cell_length_c                   26.0509(12)
_cell_measurement_reflns_used    4212
_cell_measurement_temperature    100(2)
_cell_measurement_theta_max      64.55
_cell_measurement_theta_min      4.60
_cell_volume                     6728.3(5)
_computing_cell_refinement       'SAINT V7.23A (Bruker, 2005)'
_computing_data_collection       'APEX2 V2.1-4 (Bruker, 2007)'
_computing_data_reduction        'Bruker SAINT'
_computing_molecular_graphics    'Olex2 (Dolomanov et al., 2009)'
_computing_publication_material  'Olex2 (Dolomanov et al., 2009)'
_computing_structure_refinement  'ShelXL (Sheldrick, 2008)'
_diffrn_ambient_temperature      99.9
_diffrn_detector_area_resol_mean 8
_diffrn_measured_fraction_theta_full 0.899
_diffrn_measured_fraction_theta_max 0.947
_diffrn_measurement_device_type  'Bruker Kappa APEX CCD area detector'
_diffrn_measurement_method       '\w and \f scans'
_diffrn_radiation_monochromator  'Quazar optics'
_diffrn_radiation_type           CuK\a
_diffrn_radiation_wavelength     1.54178
_diffrn_reflns_av_unetI/netI     0.0720
_diffrn_reflns_Laue_measured_fraction_full 0.899
_diffrn_reflns_Laue_measured_fraction_max 0.947
_diffrn_reflns_limit_h_max       13
_diffrn_reflns_limit_h_min       -13
_diffrn_reflns_limit_k_max       24
_diffrn_reflns_limit_k_min       0
_diffrn_reflns_limit_l_max       30
_diffrn_reflns_limit_l_min       0
_diffrn_reflns_number            10925
_diffrn_reflns_point_group_measured_fraction_full 0.463
_diffrn_reflns_point_group_measured_fraction_max 0.488
_diffrn_reflns_theta_full        67.679
_diffrn_reflns_theta_max         65.503
_diffrn_reflns_theta_min         4.467
_diffrn_source                   'sealed tube'
_exptl_absorpt_coefficient_mu    0.972
_exptl_absorpt_correction_T_max  1
_exptl_absorpt_correction_T_min  0.549453
_exptl_absorpt_correction_type   multi-scan
_exptl_absorpt_process_details
;
 TWINABS-2008/4 (Bruker,2010) was used for absorption correction.
 
For component 1:
 wR2(int) was 0.0662 before and 0.0413 after correction.
 The Ratio of minimum to maximum transmission not present.
 The \l/2 correction factor is Not present
 
For component 2:
 wR2(int) was 0.0849 before and 0.0454 after correction.
 The Ratio of minimum to maximum transmission is 0.73.
 The \l/2 correction factor is Not present

Final HKLF 4 output contains 38967 reflections, Rint = 0.0797
 (14879 with I > 3sig(I), Rint = 0.0617)
;
_exptl_crystal_colour            colourless
_exptl_crystal_colour_primary    colourless
_exptl_crystal_density_diffrn    1.125
_exptl_crystal_description       plate
_exptl_crystal_F_000             2420
_exptl_crystal_size_max          0.237
_exptl_crystal_size_mid          0.146
_exptl_crystal_size_min          0.015
_refine_diff_density_max         1.110
_refine_diff_density_min         -0.466
_refine_diff_density_rms         0.078
_refine_ls_abs_structure_details
;
No quotients, so Flack parameter determined by classical intensity fit
;
_refine_ls_abs_structure_Flack   0.12(4)
_refine_ls_extinction_method     none
_refine_ls_goodness_of_fit_ref   1.039
_refine_ls_hydrogen_treatment    constr
_refine_ls_matrix_type           full
_refine_ls_number_parameters     1500
_refine_ls_number_reflns         10925
_refine_ls_number_restraints     1522
_refine_ls_restrained_S_all      0.986
_refine_ls_R_factor_all          0.0986
_refine_ls_R_factor_gt           0.0824
_refine_ls_shift/su_max          0.005
_refine_ls_shift/su_mean         0.000
_refine_ls_structure_factor_coef Fsqd
_refine_ls_weighting_details
'w=1/[\s^2^(Fo^2^)+(0.1895P)^2^+0.3443P] where P=(Fo^2^+2Fc^2^)/3'
_refine_ls_weighting_scheme      calc
_refine_ls_wR_factor_gt          0.2261
_refine_ls_wR_factor_ref         0.2421
_reflns_Friedel_coverage         0.000
_reflns_Friedel_fraction_full    0.000
_reflns_Friedel_fraction_max     0.000
_reflns_number_gt                8786
_reflns_number_total             10925
_reflns_threshold_expression     'I > 2\s(I)'
_cod_data_source_file            c4cc02559h2.cif
_cod_data_source_block           n2285_sq_s
_cod_depositor_comments
;

2017-03-06
Z value and formula fixed to values more according to usual
chemical conventions.                 miguel
;
_cod_original_formula_sum            'C135 H146 Cl2 N4 O24'
_cod_original_formula_weight         2279.45
_cod_original_formula_moiety         '2(C67 H72 N2 O12), C H2 Cl2'
_cod_original_formula_units_Z            2
_cod_database_code               7114637
#BEGIN Tags that were not found in dictionaries:
_shelxl_version_number           2013-4
_shelx_space_group_comment
;
The symmetry employed for this shelxl refinement is uniquely defined
by the following loop, which should always be used as a source of
symmetry information in preference to the above space-group names.
They are only intended as comments.
;
_shelx_estimated_absorpt_t_max   0.986
_shelx_estimated_absorpt_t_min   0.802
_olex2_refinement_description
;
1. Fixed Uiso
 At 1.2 times of:
  All C(H) groups, All C(H,H) groups
 At 1.5 times of:
  All C(H,H,H) groups, All O(H) groups
2. Restrained distances
 O10-C55 \\sim O10A-C55A \\sim O12A-C67A \\sim O12-C67
 with sigma of 0.01
3. Rigid bond restraints
 All non-hydrogen atoms
 with sigma for 1-2 distances of 0.02 and sigma for 1-3 distances of 0.002
4. Uiso/Uaniso restraints and constraints
All non-hydrogen atoms have similar U: within 1.7A with sigma of 0.02 and sigma
for terminal atoms of 0.002
5.a Ternary CH refined with riding coordinates:
 C54(H54), C66(H66), C54A(H54A), C66A(H66A)
5.b Secondary CH2 refined with riding coordinates:
 C3(H3A,H3B), C10(H10A,H10B), C19(H19A,H19B), C28(H28A,H28B), C37(H37A,H37B),
 C51(H51A,H51B), C52(H52A,H52B), C53(H53A,H53B), C55(H55A,H55B), C63(H63A,H63B),
  C64(H64A,H64B), C65(H65A,H65B), C67(H67A,H67B), C3A(H3AA,H3AB), C10A(H10D,
 H10E), C19A(H19C,H19D), C28A(H28C,H28D), C37A(H37C,H37D), C51A(H51C,H51D),
 C52A(H52C,H52D), C53A(H53C,H53D), C55A(H55C,H55D), C63A(H63C,H63D), C64A(H64C,
 H64D), C65A(H65C,H65D), C67A(H67C,H67D), C68(H68A,H68B)
5.c Me refined with riding coordinates:
 C4(H4A,H4B,H4C), C18(H18A,H18B,H18C), C27(H27A,H27B,H27C), C36(H36A,H36B,
 H36C), C18A(H18D,H18E,H18F)
5.d Aromatic/amide H refined with riding coordinates:
 C1(H1), C7(H7), C14(H14), C16(H16), C22(H22), C25(H25), C31(H31), C34(H34),
 C40(H40), C43(H43), C45(H45), C46(H46), C48(H48), C49(H49), C57(H57), C58(H58),
  C60(H60), C61(H61), C1A(H1A), C7A(H7A), C14A(H14A), C16A(H16A), C22A(H22A),
 C25A(H25A), C31A(H31A), C34A(H34A), C40A(H40A), C43A(H43A), C45A(H45A),
 C46A(H46A), C48A(H48A), C49A(H49A), C57A(H57A), C58A(H58A), C60A(H60A),
 C61A(H61A)
5.e Tetrahedral OH refined with riding coordinates:
 O10(H10), O10A(H10C)
5.f Idealised Me refined as rotating group:
 C1B(H1BA,H1BB,H1BC), C9(H9A,H9B,H9C), C26(H26A,H26B,H26C), C35(H35A,H35B,
 H35C), C1AA(H1AA,H1AB,H1AC), C1BA(H1BD,H1BE,H1BF), C9A(H9AA,H9AB,H9AC),
 C26A(H26D,H26E,H26F), C27A(H27D,H27E,H27F), C35A(H35D,H35E,H35F), C36A(H36D,
 H36E,H36F)
5.g Idealised tetrahedral OH refined as rotating group:
 O12(H12), O12A(H12A)
;
_shelx_res_file
;
TITL n2285 in P2(1)
CELL 1.54178 12.0918 21.3853 26.0509 90 92.817 90
ZERR 2 0.0005 0.0009 0.0012 0 0.003 0
LATT -1
SYMM -X,0.5+Y,-Z

SFAC C H Cl N O
UNIT 270 292 4 8 48
SADI 0.01 O10 C55 O10A C55A O12A C67A O12 C67
DELU 0.02 0.002
SIMU 0.02 0.002 1.7

L.S. 30
PLAN  20
SIZE 0.015 0.146 0.237
TEMP -173.25
list 8
MORE -1
BOND $H
CONF
ABIN
fmap 2
acta
REM <HKL>Z:/Charlotte/n2285/n2285_sq_s.hkl</HKL>

WGHT    0.189500    0.344300
BASF   0.38487
FVAR       0.31215
O1    5    0.432663    0.240987   -0.123914    11.00000    0.09561    0.05111 =
         0.04303    0.00288    0.01287   -0.00142
O2    5    0.396201    0.088773    0.046276    11.00000    0.04834    0.03956 =
         0.04424    0.00583    0.00148    0.00315
O3    5    0.653349    0.056211   -0.098228    11.00000    0.06702    0.06367 =
         0.06199   -0.00625    0.01344    0.00531
O4    5    0.731858   -0.046444    0.095683    11.00000    0.08457    0.05706 =
         0.07222   -0.00926   -0.01655    0.01945
O5    5    1.055879    0.048058   -0.024775    11.00000    0.06342    0.04022 =
         0.10847   -0.02720   -0.01579    0.00847
O6    5    0.984920    0.155461    0.163722    11.00000    0.08628    0.04865 =
         0.09694   -0.00983   -0.00709   -0.00114
O7    5    1.102517    0.274010    0.001425    11.00000    0.03789    0.05227 =
         0.06938   -0.02497    0.00200    0.01201
O8    5    0.806990    0.361318    0.140123    11.00000    0.03501    0.04851 =
         0.05161    0.00989    0.00356    0.00214
O9    5    1.015981    0.393845   -0.207943    11.00000    0.05785    0.15114 =
         0.07101   -0.00034    0.02260    0.02819
O10   5    1.137376    0.491988   -0.259130    11.00000    0.12464    0.17702 =
         0.12670    0.02502    0.05522   -0.03665
AFIX  83
H10   2    1.187614    0.515432   -0.246720    11.00000   -1.50000
AFIX   0
O11   5    0.202931    0.277065    0.228756    11.00000    0.03982    0.04228 =
         0.04541    0.00348   -0.00303    0.00236
O12   5   -0.010412    0.269617    0.253808    11.00000    0.04514    0.05829 =
         0.06498    0.00150    0.01014   -0.01491
AFIX 147
H12   2   -0.001622    0.251807    0.282457    11.00000   -1.50000
AFIX   0
N1    4    0.907908    0.479225   -0.236607    11.00000    0.10373    0.07081 =
         0.06518   -0.00128    0.03834   -0.00794
N2    4    0.141798    0.377648    0.221888    11.00000    0.03294    0.04089 =
         0.05792   -0.00157    0.00460   -0.00070
C1    1    0.447905    0.139251   -0.083976    11.00000    0.04469    0.03893 =
         0.04297   -0.01073   -0.00265   -0.00520
AFIX  43
H1    2    0.470154    0.122203   -0.115525    11.00000   -1.20000
AFIX   0
C1B   1    0.472306    0.213358   -0.167980    11.00000    0.09790    0.05444 =
         0.04582    0.00369    0.01297    0.00029
AFIX 137
H1BA  2    0.462699    0.242366   -0.196979    11.00000   -1.50000
H1BB  2    0.430963    0.174813   -0.175748    11.00000   -1.50000
H1BC  2    0.551072    0.203510   -0.162133    11.00000   -1.50000
AFIX   0
C2    1    0.390306    0.229169   -0.036580    11.00000    0.03691    0.03267 =
         0.03723   -0.00076   -0.00370   -0.00160
C3    1    0.371851    0.300085   -0.031086    11.00000    0.02398    0.04005 =
         0.04822    0.00739   -0.00297    0.00282
AFIX  23
H3A   2    0.346397    0.317918   -0.064692    11.00000   -1.20000
H3B   2    0.313898    0.307903   -0.006310    11.00000   -1.20000
AFIX   0
C4    1    0.742698    0.078641   -0.125045    11.00000    0.06782    0.06552 =
         0.06340   -0.00615    0.01384    0.00446
AFIX  33
H4A   2    0.725219    0.075471   -0.162087    11.00000   -1.50000
H4B   2    0.808779    0.053688   -0.115984    11.00000   -1.50000
H4C   2    0.756646    0.122467   -0.115839    11.00000   -1.50000
AFIX   0
C5    1    0.440978    0.100057   -0.040047    11.00000    0.03389    0.03871 =
         0.04483    0.00107   -0.00040   -0.00868
C6    1    0.422099    0.202514   -0.080717    11.00000    0.04736    0.04320 =
         0.03920    0.00264   -0.00671   -0.00467
C7    1    0.381064    0.192502    0.005732    11.00000    0.02444    0.03533 =
         0.04686    0.00328    0.00420   -0.01332
AFIX  43
H7    2    0.356344    0.210690    0.036402    11.00000   -1.20000
AFIX   0
C8    1    0.407352    0.127906    0.005227    11.00000    0.03770    0.03423 =
         0.04472    0.00276   -0.00292   -0.00026
C9    1    0.371617    0.114007    0.093070    11.00000    0.04920    0.04159 =
         0.04513    0.00754    0.00147    0.00320
AFIX 137
H9A   2    0.302754    0.138082    0.089185    11.00000   -1.50000
H9B   2    0.432035    0.141595    0.105298    11.00000   -1.50000
H9C   2    0.362589    0.080278    0.117984    11.00000   -1.50000
AFIX   0
C10   1    0.467751    0.033628   -0.041614    11.00000    0.04578    0.03859 =
         0.04360   -0.01011    0.00040   -0.01489
AFIX  23
H10A  2    0.458941    0.018636   -0.077537    11.00000   -1.20000
H10B  2    0.415031    0.010192   -0.020983    11.00000   -1.20000
AFIX   0
C11   1    0.585148    0.020273   -0.021007    11.00000    0.05574    0.03159 =
         0.05003   -0.01633    0.00037    0.00354
C12   1    0.680603    0.031816   -0.050439    11.00000    0.04867    0.04452 =
         0.05319   -0.01957    0.00598   -0.00145
C14   1    0.788265    0.016266   -0.030511    11.00000    0.05516    0.03013 =
         0.09022   -0.02024    0.00094    0.00711
AFIX  43
H14   2    0.850076    0.022492   -0.051069    11.00000   -1.20000
AFIX   0
C15   1    0.713003   -0.020730    0.047499    11.00000    0.06844    0.03066 =
         0.07440   -0.01538   -0.01464    0.01130
C16   1    0.607425   -0.008642    0.028370    11.00000    0.06028    0.02948 =
         0.04937   -0.01329   -0.00110    0.00074
AFIX  43
H16   2    0.546854   -0.019734    0.048398    11.00000   -1.20000
AFIX   0
C17   1    0.803701   -0.006947    0.016654    11.00000    0.05651    0.03175 =
         0.08499   -0.01976   -0.01092    0.00437
C18   1    0.648431   -0.050282    0.128772    11.00000    0.08396    0.05671 =
         0.07001   -0.00983   -0.01702    0.01850
AFIX  33
H18A  2    0.577276   -0.053042    0.109209    11.00000   -1.50000
H18B  2    0.649123   -0.012969    0.150625    11.00000   -1.50000
H18C  2    0.658833   -0.087598    0.150306    11.00000   -1.50000
AFIX   0
C19   1    0.920870   -0.016960    0.038311    11.00000    0.06618    0.03967 =
         0.12551   -0.01710   -0.02192    0.01043
AFIX  23
H19A  2    0.964676   -0.038350    0.012414    11.00000   -1.20000
H19B  2    0.919655   -0.044111    0.069059    11.00000   -1.20000
AFIX   0
C20   1    0.976279    0.046234    0.053126    11.00000    0.04538    0.03619 =
         0.10592   -0.01444   -0.02422    0.01777
C21   1    1.042986    0.076439    0.021578    11.00000    0.06177    0.03670 =
         0.09654   -0.02018   -0.02796    0.01299
C22   1    1.091900    0.133913    0.035480    11.00000    0.04001    0.04626 =
         0.09398   -0.02434   -0.01935    0.01174
AFIX  43
H22   2    1.137701    0.155658    0.012853    11.00000   -1.20000
AFIX   0
C23   1    1.069899    0.158657    0.085461    11.00000    0.03097    0.04054 =
         0.09207   -0.01997   -0.02773    0.01009
C24   1    0.998590    0.127542    0.115071    11.00000    0.05802    0.03775 =
         0.09143   -0.00722   -0.01909    0.00967
C25   1    0.956058    0.069756    0.101361    11.00000    0.03745    0.04344 =
         0.12132   -0.01852   -0.01168    0.00921
AFIX  43
H25   2    0.913742    0.046524    0.124505    11.00000   -1.20000
AFIX   0
C26   1    1.126037    0.080959   -0.061205    11.00000    0.06441    0.04236 =
         0.10874   -0.02621   -0.01534    0.00810
AFIX 137
H26A  2    1.120862    0.059658   -0.094544    11.00000   -1.50000
H26B  2    1.203152    0.080754   -0.047740    11.00000   -1.50000
H26C  2    1.100510    0.124231   -0.065431    11.00000   -1.50000
AFIX   0
C27   1    0.889647    0.142005    0.187511    11.00000    0.08862    0.05104 =
         0.09667   -0.00924   -0.00402   -0.00230
AFIX  33
H27A  2    0.829731    0.134415    0.161551    11.00000   -1.50000
H27B  2    0.869966    0.177350    0.209199    11.00000   -1.50000
H27C  2    0.900862    0.104590    0.208857    11.00000   -1.50000
AFIX   0
C28   1    1.115544    0.222632    0.099320    11.00000    0.03992    0.04656 =
         0.07621   -0.01810   -0.01430    0.00719
AFIX  23
H28A  2    1.133380    0.224489    0.136787    11.00000   -1.20000
H28B  2    1.184914    0.229558    0.081471    11.00000   -1.20000
AFIX   0
C29   1    1.034947    0.272976    0.084724    11.00000    0.01990    0.03430 =
         0.06358   -0.00518   -0.01099   -0.00818
C30   1    1.030167    0.297012    0.034119    11.00000    0.02121    0.04519 =
         0.06575   -0.01815   -0.00473    0.00113
C31   1    0.950282    0.344789    0.020439    11.00000    0.02291    0.02255 =
         0.05717   -0.00158    0.00940   -0.00545
AFIX  43
H31   2    0.947443    0.361871   -0.013264    11.00000   -1.20000
AFIX   0
C32   1    0.876257    0.366469    0.056541    11.00000    0.02588    0.02096 =
         0.05106   -0.00977    0.00258   -0.00609
C33   1    0.880146    0.340839    0.104072    11.00000    0.03018    0.03348 =
         0.04695   -0.00852   -0.00181   -0.00742
C34   1    0.962856    0.296167    0.118978    11.00000    0.03086    0.02407 =
         0.06039   -0.00731   -0.00991   -0.00727
AFIX  43
H34   2    0.968241    0.282049    0.153587    11.00000   -1.20000
AFIX   0
C35   1    1.088483    0.289931   -0.050416    11.00000    0.03945    0.05337 =
         0.07000   -0.02532    0.00273    0.01167
AFIX 137
H35A  2    1.139402    0.265251   -0.070408    11.00000   -1.50000
H35B  2    1.104151    0.334534   -0.054721    11.00000   -1.50000
H35C  2    1.012038    0.281192   -0.062538    11.00000   -1.50000
AFIX   0
C36   1    0.752710    0.315282    0.166496    11.00000    0.03604    0.05030 =
         0.05296    0.00950    0.00261    0.00215
AFIX  33
H36A  2    0.716429    0.286281    0.141889    11.00000   -1.50000
H36B  2    0.696938    0.334587    0.187483    11.00000   -1.50000
H36C  2    0.806337    0.292387    0.188787    11.00000   -1.50000
AFIX   0
C37   1    0.790768    0.415757    0.038876    11.00000    0.03112    0.02281 =
         0.05601   -0.00803    0.00575   -0.00042
AFIX  23
H37A  2    0.777117    0.443911    0.068061    11.00000   -1.20000
H37B  2    0.821785    0.441302    0.011341    11.00000   -1.20000
AFIX   0
C38   1    0.683644    0.388674    0.019446    11.00000    0.03059    0.02251 =
         0.04631    0.00045    0.00229   -0.00435
C39   1    0.661944    0.374200   -0.033577    11.00000    0.03795    0.01999 =
         0.04957    0.00258    0.00009    0.00191
C40   1    0.562194    0.346175   -0.047576    11.00000    0.03454    0.02325 =
         0.04958    0.00483   -0.00414   -0.00619
AFIX  43
H40   2    0.547518    0.335991   -0.082748    11.00000   -1.20000
AFIX   0
C41   1    0.480379    0.331771   -0.012172    11.00000    0.03484    0.02726 =
         0.04604    0.00152   -0.00252    0.00092
C42   1    0.498196    0.351177    0.038559    11.00000    0.02587    0.02176 =
         0.05339    0.00663   -0.00081    0.00181
C43   1    0.604149    0.375679    0.053454    11.00000    0.03016    0.02333 =
         0.04800    0.00440   -0.00133    0.00029
AFIX  43
H43   2    0.620653    0.383448    0.088911    11.00000   -1.20000
AFIX   0
C44   1    0.736146    0.389854   -0.074745    11.00000    0.02716    0.03946 =
         0.04357   -0.00662   -0.00132    0.00046
C45   1    0.760885    0.451642   -0.085716    11.00000    0.02953    0.04016 =
         0.03774   -0.00282    0.00005   -0.00551
AFIX  43
H45   2    0.734148    0.483904   -0.064536    11.00000   -1.20000
AFIX   0
C46   1    0.825368    0.467735   -0.127959    11.00000    0.03710    0.05784 =
         0.04295   -0.00365    0.00113   -0.00961
AFIX  43
H46   2    0.841560    0.510051   -0.135764    11.00000   -1.20000
AFIX   0
C47   1    0.864067    0.418170   -0.157649    11.00000    0.04186    0.07835 =
         0.03798   -0.00349    0.00356    0.00530
C48   1    0.845764    0.357296   -0.146197    11.00000    0.06231    0.07398 =
         0.04209   -0.02366   -0.00620    0.03108
AFIX  43
H48   2    0.877063    0.324963   -0.165849    11.00000   -1.20000
AFIX   0
C49   1    0.778825    0.342430   -0.104211    11.00000    0.05346    0.04457 =
         0.05545   -0.00757    0.00391    0.01071
AFIX  43
H49   2    0.763513    0.299990   -0.096457    11.00000   -1.20000
AFIX   0
C50   1    0.936517    0.431919   -0.202486    11.00000    0.05622    0.14788 =
         0.06856   -0.00027    0.02307    0.02741
C51   1    0.804545    0.513173   -0.236888    11.00000    0.15405    0.07530 =
         0.09444    0.00725    0.05576    0.04585
AFIX  23
H51A  2    0.815194    0.555912   -0.222902    11.00000   -1.20000
H51B  2    0.748984    0.490943   -0.216996    11.00000   -1.20000
AFIX   0
C52   1    0.769681    0.514612   -0.296084    11.00000    0.17691    0.11165 =
         0.07693    0.04070    0.04554    0.06393
AFIX  23
H52A  2    0.735470    0.474487   -0.307243    11.00000   -1.20000
H52B  2    0.716682    0.548963   -0.304024    11.00000   -1.20000
AFIX   0
C53   1    0.864598    0.524058   -0.318812    11.00000    0.13612    0.12910 =
         0.09017    0.03110    0.03776    0.04231
AFIX  23
H53A  2    0.880356    0.569420   -0.320489    11.00000   -1.20000
H53B  2    0.858981    0.507492   -0.354330    11.00000   -1.20000
AFIX   0
C54   1    0.969200    0.486825   -0.284247    11.00000    0.12633    0.10668 =
         0.08400   -0.02210    0.05835   -0.03138
AFIX  13
H54   2    0.987996    0.445630   -0.299756    11.00000   -1.20000
AFIX   0
C55   1    1.054953    0.528984   -0.286389    11.00000    0.12528    0.17623 =
         0.12598    0.02579    0.05750   -0.03771
AFIX  23
H55A  2    1.039464    0.568544   -0.268357    11.00000   -1.20000
H55B  2    1.074528    0.537929   -0.322107    11.00000   -1.20000
AFIX   0
C56   1    0.419910    0.343134    0.080039    11.00000    0.03331    0.02331 =
         0.05013   -0.00239    0.00257   -0.00264
C57   1    0.311120    0.370834    0.076163    11.00000    0.02407    0.02819 =
         0.05348    0.00143   -0.00086   -0.00068
AFIX  43
H57   2    0.285662    0.389824    0.044800    11.00000   -1.20000
AFIX   0
C58   1    0.245325    0.370228    0.116080    11.00000    0.03487    0.01374 =
         0.05100   -0.00165    0.00226   -0.00144
AFIX  43
H58   2    0.176536    0.391726    0.113341    11.00000   -1.20000
AFIX   0
C59   1    0.276232    0.337951    0.162762    11.00000    0.03167    0.02502 =
         0.04811   -0.00538   -0.00310   -0.00095
C60   1    0.380141    0.308273    0.166374    11.00000    0.03868    0.03206 =
         0.04731    0.00162   -0.00065    0.00187
AFIX  43
H60   2    0.402796    0.286402    0.196844    11.00000   -1.20000
AFIX   0
C61   1    0.449126    0.310790    0.125942    11.00000    0.03536    0.03532 =
         0.04719    0.00160    0.00068    0.00542
AFIX  43
H61   2    0.518647    0.290089    0.129036    11.00000   -1.20000
AFIX   0
C62   1    0.204358    0.328880    0.205701    11.00000    0.03724    0.03989 =
         0.04435    0.00144   -0.00318    0.00242
C63   1    0.147117    0.443014    0.204934    11.00000    0.04860    0.04377 =
         0.05641   -0.00588    0.00309    0.01103
AFIX  23
H63A  2    0.086998    0.452700    0.178982    11.00000   -1.20000
H63B  2    0.219379    0.452532    0.190431    11.00000   -1.20000
AFIX   0
C64   1    0.132152    0.479545    0.255600    11.00000    0.05727    0.04578 =
         0.05739   -0.00749   -0.00216    0.00374
AFIX  23
H64A  2    0.204313    0.485473    0.274606    11.00000   -1.20000
H64B  2    0.098726    0.521072    0.248358    11.00000   -1.20000
AFIX   0
C65   1    0.057794    0.440621    0.285517    11.00000    0.04540    0.05606 =
         0.05395   -0.01213    0.00011   -0.00274
AFIX  23
H65A  2   -0.020584    0.451092    0.276660    11.00000   -1.20000
H65B  2    0.072586    0.447393    0.322817    11.00000   -1.20000
AFIX   0
C66   1    0.082978    0.370190    0.270651    11.00000    0.03202    0.04955 =
         0.05501   -0.00761   -0.00194    0.00166
AFIX  13
H66   2    0.131237    0.349297    0.297806    11.00000   -1.20000
AFIX   0
C67   1   -0.025268    0.335514    0.261434    11.00000    0.04547    0.05703 =
         0.06398    0.00113    0.01010   -0.01418
AFIX  23
H67A  2   -0.071619    0.341991    0.291267    11.00000   -1.20000
H67B  2   -0.065406    0.353314    0.230779    11.00000   -1.20000
AFIX   0

O1A   5   -0.063232    0.279983    0.623129    11.00000    0.10406    0.03832 =
         0.05192    0.00746   -0.00870   -0.00469
O2A   5   -0.095362    0.433078    0.451517    11.00000    0.03664    0.03215 =
         0.04974    0.00443    0.00195   -0.00208
O3A   5    0.176974    0.461709    0.601800    11.00000    0.05961    0.05018 =
         0.07623    0.00344   -0.00492    0.00904
O4A   5    0.239296    0.564117    0.411133    11.00000    0.06418    0.05266 =
         0.07646   -0.00679    0.01755   -0.00662
O5A   5    0.573702    0.467544    0.537116    11.00000    0.05157    0.06526 =
         0.08889   -0.02829    0.00508   -0.01852
O6A   5    0.471867    0.363172    0.346851    11.00000    0.05578    0.05055 =
         0.05307    0.00695    0.00825   -0.00247
O7A   5    0.589380    0.242299    0.511999    11.00000    0.03172    0.05192 =
         0.05259   -0.00401    0.00036   -0.00492
O8A   5    0.277409    0.156517    0.365298    11.00000    0.04990    0.03544 =
         0.04915    0.00018   -0.00833   -0.00219
O9A   5    0.509028    0.097867    0.726950    11.00000    0.04848    0.05693 =
         0.06002    0.00638   -0.01258   -0.01880
O10A  5    0.607651    0.000165    0.778258    11.00000    0.04124    0.05772 =
         0.07560    0.00557    0.00679    0.01519
AFIX  83
H10C  2    0.602532    0.039318    0.777130    11.00000   -1.50000
AFIX   0
O11A  5   -0.367555    0.234579    0.270642    11.00000    0.05456    0.05943 =
         0.04308    0.01504   -0.00081   -0.01105
O12A  5   -0.676207    0.161050    0.207051    11.00000    0.04800    0.04800 =
         0.05376    0.00095   -0.01069    0.01061
AFIX 147
H12A  2   -0.739983    0.159468    0.218396    11.00000   -1.50000
AFIX   0
N1A   4    0.366201    0.033360    0.746063    11.00000    0.04129    0.04172 =
         0.04634   -0.00028   -0.00321   -0.00593
N2A   4   -0.410979    0.132743    0.278695    11.00000    0.04116    0.05084 =
         0.04241    0.00310    0.00089    0.00782
C1A   1   -0.039549    0.382557    0.583195    11.00000    0.05829    0.03699 =
         0.05166    0.00435   -0.01023   -0.00302
AFIX  43
H1A   2   -0.011794    0.400307    0.614683    11.00000   -1.20000
AFIX   0
C1AA  1    0.266525    0.430435    0.629103    11.00000    0.06090    0.05084 =
         0.07801    0.00298   -0.00629    0.00824
AFIX 137
H1AA  2    0.297305    0.398452    0.606954    11.00000   -1.50000
H1AB  2    0.239300    0.410595    0.659956    11.00000   -1.50000
H1AC  2    0.324264    0.460854    0.639089    11.00000   -1.50000
AFIX   0
C1BA  1   -0.026357    0.301506    0.670080    11.00000    0.10695    0.04252 =
         0.05435    0.00934   -0.01049   -0.00617
AFIX 137
H1BD  2    0.049774    0.316724    0.668155    11.00000   -1.50000
H1BE  2   -0.028244    0.267525    0.695261    11.00000   -1.50000
H1BF  2   -0.074055    0.335764    0.680625    11.00000   -1.50000
AFIX   0
C2A   1   -0.106257    0.292674    0.535474    11.00000    0.03652    0.03088 =
         0.04636    0.00298    0.01185    0.00039
C3A   1   -0.134569    0.224107    0.530344    11.00000    0.03889    0.03154 =
         0.04431   -0.00110    0.00185    0.00823
AFIX  23
H3AA  2   -0.198574    0.218723    0.505556    11.00000   -1.20000
H3AB  2   -0.155280    0.207446    0.564003    11.00000   -1.20000
AFIX   0
C5A   1   -0.047578    0.419787    0.538766    11.00000    0.03759    0.02434 =
         0.05039    0.00614    0.00349    0.00498
C6A   1   -0.071736    0.319844    0.581804    11.00000    0.05340    0.02668 =
         0.05237    0.00737   -0.00380   -0.00273
C7A   1   -0.116658    0.330589    0.491035    11.00000    0.02740    0.03399 =
         0.04406    0.00080    0.01474    0.00125
AFIX  43
H7A   2   -0.144128    0.313007    0.459435    11.00000   -1.20000
AFIX   0
C8A   1   -0.086604    0.394276    0.493225    11.00000    0.02953    0.03020 =
         0.04582    0.00546    0.00979    0.00781
C9A   1   -0.131226    0.406625    0.401855    11.00000    0.03709    0.03445 =
         0.04922    0.00524    0.00088   -0.00326
AFIX 137
H9AA  2   -0.134937    0.439800    0.375876    11.00000   -1.50000
H9AB  2   -0.204575    0.387678    0.404300    11.00000   -1.50000
H9AC  2   -0.078268    0.374618    0.392015    11.00000   -1.50000
AFIX   0
C10A  1   -0.011905    0.489048    0.541786    11.00000    0.05553    0.03037 =
         0.05304    0.00040    0.00194    0.00974
AFIX  23
H10D  2   -0.065507    0.514482    0.520796    11.00000   -1.20000
H10E  2   -0.014215    0.503416    0.577843    11.00000   -1.20000
AFIX   0
C11A  1    0.100305    0.499699    0.523630    11.00000    0.04761    0.01791 =
         0.06647   -0.00312    0.00639   -0.00227
C12A  1    0.191757    0.488011    0.555558    11.00000    0.05542    0.03515 =
         0.06361   -0.00149    0.00695   -0.00255
C14A  1    0.297921    0.496995    0.536533    11.00000    0.04777    0.03555 =
         0.09826   -0.00466    0.00248    0.00017
AFIX  43
H14A  2    0.361245    0.483868    0.556735    11.00000   -1.20000
AFIX   0
C15A  1    0.223653    0.537674    0.459004    11.00000    0.04743    0.03471 =
         0.07568   -0.01335    0.01998    0.00010
C16A  1    0.117466    0.525396    0.474703    11.00000    0.04388    0.03389 =
         0.06689   -0.00502    0.00501    0.00427
AFIX  43
H16A  2    0.055442    0.534451    0.452127    11.00000   -1.20000
AFIX   0
C17A  1    0.312179    0.524638    0.488856    11.00000    0.04234    0.01315 =
         0.08782   -0.00845    0.01186   -0.01304
C18A  1    0.150144    0.574937    0.378041    11.00000    0.06538    0.05291 =
         0.07532   -0.00744    0.01677   -0.00747
AFIX  33
H18D  2    0.172831    0.571417    0.342556    11.00000   -1.50000
H18E  2    0.121417    0.617072    0.383822    11.00000   -1.50000
H18F  2    0.092249    0.544082    0.384015    11.00000   -1.50000
AFIX   0
C19A  1    0.428019    0.535563    0.470299    11.00000    0.04889    0.03406 =
         0.11244   -0.01151    0.00928   -0.01251
AFIX  23
H19C  2    0.423753    0.563358    0.439876    11.00000   -1.20000
H19D  2    0.474017    0.556525    0.497679    11.00000   -1.20000
AFIX   0
C20A  1    0.481732    0.473941    0.456274    11.00000    0.03288    0.02803 =
         0.09261    0.00837    0.01354   -0.00973
C21A  1    0.549047    0.441449    0.489747    11.00000    0.03250    0.03251 =
         0.07940   -0.00375    0.01909   -0.02114
C22A  1    0.591644    0.382895    0.476141    11.00000    0.03476    0.03252 =
         0.06051    0.00522    0.00679   -0.00649
AFIX  43
H22A  2    0.639281    0.360672    0.499795    11.00000   -1.20000
AFIX   0
C23A  1    0.563417    0.356936    0.426969    11.00000    0.02623    0.03625 =
         0.05805    0.00526    0.00947   -0.00905
C24A  1    0.495751    0.390367    0.393171    11.00000    0.03606    0.03431 =
         0.06249    0.01809    0.00577   -0.00653
C25A  1    0.455607    0.449863    0.407815    11.00000    0.04086    0.02705 =
         0.08592    0.00608    0.01297   -0.01100
AFIX  43
H25A  2    0.410303    0.473421    0.384094    11.00000   -1.20000
AFIX   0
C26A  1    0.645335    0.433633    0.571355    11.00000    0.05209    0.06724 =
         0.08790   -0.02793    0.00367   -0.01772
AFIX 137
H26D  2    0.721385    0.436754    0.560223    11.00000   -1.50000
H26E  2    0.622694    0.389636    0.571549    11.00000   -1.50000
H26F  2    0.641615    0.450987    0.606045    11.00000   -1.50000
AFIX   0
C27A  1    0.385891    0.393109    0.313743    11.00000    0.05688    0.05293 =
         0.05424    0.00689    0.00694   -0.00156
AFIX 137
H27D  2    0.365523    0.365453    0.284808    11.00000   -1.50000
H27E  2    0.414049    0.432719    0.300696    11.00000   -1.50000
H27F  2    0.320591    0.401179    0.333580    11.00000   -1.50000
AFIX   0
C28A  1    0.600350    0.292935    0.414760    11.00000    0.03372    0.03876 =
         0.04167    0.00849    0.00160   -0.00179
AFIX  23
H28C  2    0.670646    0.283983    0.434478    11.00000   -1.20000
H28D  2    0.614834    0.290496    0.377739    11.00000   -1.20000
AFIX   0
C29A  1    0.513850    0.242966    0.427539    11.00000    0.02929    0.03451 =
         0.04681   -0.00643    0.01260   -0.00645
C30A  1    0.508714    0.218898    0.476905    11.00000    0.02422    0.03197 =
         0.04821    0.00207    0.00629   -0.00125
C31A  1    0.431909    0.173888    0.488145    11.00000    0.03419    0.03635 =
         0.03670    0.00130    0.00265    0.00034
AFIX  43
H31A  2    0.432244    0.157158    0.521935    11.00000   -1.20000
AFIX   0
C32A  1    0.353410    0.152211    0.450998    11.00000    0.02649    0.02397 =
         0.04866   -0.00305   -0.00264    0.00584
C33A  1    0.356868    0.177602    0.402474    11.00000    0.03884    0.02683 =
         0.03704   -0.01032    0.00051   -0.00344
C34A  1    0.434714    0.223353    0.391488    11.00000    0.03561    0.03121 =
         0.05044    0.00076    0.00003    0.00339
AFIX  43
H34A  2    0.432844    0.241403    0.358135    11.00000   -1.20000
AFIX   0
C35A  1    0.582838    0.222871    0.564435    11.00000    0.03317    0.05224 =
         0.05325   -0.00446   -0.00078   -0.00631
AFIX 137
H35D  2    0.584148    0.177101    0.566228    11.00000   -1.50000
H35E  2    0.513837    0.238401    0.578006    11.00000   -1.50000
H35F  2    0.646056    0.239830    0.584913    11.00000   -1.50000
AFIX   0
C36A  1    0.218621    0.206652    0.338598    11.00000    0.05051    0.03727 =
         0.05021   -0.00012   -0.00836   -0.00229
AFIX 137
H36D  2    0.164260    0.188999    0.313483    11.00000   -1.50000
H36E  2    0.271322    0.232693    0.320794    11.00000   -1.50000
H36F  2    0.180429    0.232251    0.363419    11.00000   -1.50000
AFIX   0
C37A  1    0.268026    0.103639    0.463841    11.00000    0.04334    0.01797 =
         0.04027   -0.00163   -0.00515    0.00488
AFIX  23
H37C  2    0.249485    0.078199    0.432853    11.00000   -1.20000
H37D  2    0.300236    0.075360    0.490696    11.00000   -1.20000
AFIX   0
C38A  1    0.165239    0.131722    0.482222    11.00000    0.03094    0.01069 =
         0.04560    0.00885   -0.00421    0.00381
C39A  1    0.147843    0.145839    0.534685    11.00000    0.02763    0.02024 =
         0.04837    0.00090    0.00177   -0.00975
C40A  1    0.050178    0.175064    0.547826    11.00000    0.03256    0.01942 =
         0.05445    0.00046    0.00124   -0.00252
AFIX  43
H40A  2    0.041579    0.186463    0.582650    11.00000   -1.20000
AFIX   0
C41A  1   -0.034942    0.188066    0.511717    11.00000    0.03903    0.02279 =
         0.04606    0.01130    0.00132    0.00061
C42A  1   -0.021288    0.172145    0.460712    11.00000    0.02906    0.01398 =
         0.05628   -0.00019    0.00280    0.00760
C43A  1    0.077039    0.145426    0.447333    11.00000    0.03707    0.02041 =
         0.04930    0.00494   -0.00127   -0.00090
AFIX  43
H43A  2    0.085359    0.135711    0.412148    11.00000   -1.20000
AFIX   0
C44A  1    0.228887    0.127604    0.577896    11.00000    0.02836    0.03100 =
         0.03982   -0.00230    0.00656   -0.00266
C45A  1    0.254549    0.065064    0.587799    11.00000    0.03198    0.02558 =
         0.03942   -0.00786    0.00267    0.00090
AFIX  43
H45A  2    0.230776    0.034035    0.563601    11.00000   -1.20000
AFIX   0
C46A  1    0.313012    0.047556    0.631465    11.00000    0.04755    0.03482 =
         0.04028    0.00229    0.00168   -0.00421
AFIX  43
H46A  2    0.324951    0.004451    0.638603    11.00000   -1.20000
AFIX   0
C47A  1    0.354901    0.092080    0.665320    11.00000    0.04375    0.03686 =
         0.04670   -0.00169   -0.00538   -0.01357
C48A  1    0.336496    0.154438    0.654157    11.00000    0.03511    0.03842 =
         0.05644   -0.00695   -0.00567   -0.00552
AFIX  43
H48A  2    0.367271    0.185541    0.676639    11.00000   -1.20000
AFIX   0
C49A  1    0.274365    0.172214    0.611037    11.00000    0.04531    0.02649 =
         0.04961   -0.00508   -0.00259   -0.01342
AFIX  43
H49A  2    0.262603    0.215349    0.603967    11.00000   -1.20000
AFIX   0
C50A  1    0.415980    0.076128    0.715324    11.00000    0.04645    0.05463 =
         0.05782    0.00530   -0.01288   -0.01816
C51A  1    0.250710    0.012710    0.743522    11.00000    0.04269    0.05114 =
         0.06474    0.00489   -0.01623   -0.01872
AFIX  23
H51C  2    0.244750   -0.030613    0.730280    11.00000   -1.20000
H51D  2    0.204908    0.040394    0.720641    11.00000   -1.20000
AFIX   0
C52A  1    0.213439    0.016043    0.797497    11.00000    0.03205    0.06354 =
         0.07393   -0.00171    0.00088   -0.00521
AFIX  23
H52C  2    0.151070   -0.012861    0.802796    11.00000   -1.20000
H52D  2    0.191499    0.059060    0.806678    11.00000   -1.20000
AFIX   0
C53A  1    0.319301   -0.004665    0.828207    11.00000    0.04288    0.06285 =
         0.04955    0.00004    0.00810   -0.00068
AFIX  23
H53C  2    0.320213    0.012023    0.863673    11.00000   -1.20000
H53D  2    0.323817   -0.050850    0.829849    11.00000   -1.20000
AFIX   0
C54A  1    0.414198    0.021609    0.799708    11.00000    0.03192    0.05513 =
         0.04781   -0.00357   -0.00546    0.00320
AFIX  13
H54A  2    0.439300    0.061980    0.815765    11.00000   -1.20000
AFIX   0
C55A  1    0.511712   -0.025230    0.800371    11.00000    0.04234    0.05598 =
         0.07509    0.00608    0.00639    0.01524
AFIX  23
H55C  2    0.530851   -0.037655    0.836325    11.00000   -1.20000
H55D  2    0.488216   -0.063281    0.781132    11.00000   -1.20000
AFIX   0
C56A  1   -0.110347    0.178538    0.420122    11.00000    0.03337    0.02095 =
         0.04881   -0.00066    0.00222    0.00018
C57A  1   -0.213962    0.149317    0.423130    11.00000    0.02747    0.02607 =
         0.04548    0.00292    0.01156    0.00199
AFIX  43
H57A  2   -0.231000    0.128299    0.453882    11.00000   -1.20000
AFIX   0
C58A  1   -0.290472    0.150423    0.383019    11.00000    0.02772    0.03329 =
         0.03924    0.00178    0.00616    0.00620
AFIX  43
H58A  2   -0.358937    0.129418    0.386463    11.00000   -1.20000
AFIX   0
C59A  1   -0.271917    0.181419    0.336834    11.00000    0.03570    0.02868 =
         0.04817    0.00352    0.00912    0.00280
C60A  1   -0.169201    0.211824    0.334629    11.00000    0.03462    0.03587 =
         0.05026    0.01053    0.00998    0.00723
AFIX  43
H60A  2   -0.153497    0.233792    0.304139    11.00000   -1.20000
AFIX   0
C61A  1   -0.090863    0.211286    0.374259    11.00000    0.03344    0.03133 =
         0.05502    0.01042    0.01092   -0.00260
AFIX  43
H61A  2   -0.023025    0.232996    0.370998    11.00000   -1.20000
AFIX   0
C62A  1   -0.351708    0.184907    0.293841    11.00000    0.05230    0.05744 =
         0.04142    0.01346   -0.00028   -0.00979
C63A  1   -0.376402    0.069618    0.294580    11.00000    0.07309    0.04899 =
         0.07790   -0.01435   -0.02867    0.01675
AFIX  23
H63C  2   -0.422066    0.052673    0.321867    11.00000   -1.20000
H63D  2   -0.297076    0.067814    0.305853    11.00000   -1.20000
AFIX   0
C64A  1   -0.399706    0.037163    0.243310    11.00000    0.10561    0.06582 =
         0.08917   -0.02254   -0.03951    0.02914
AFIX  23
H64C  2   -0.338501    0.044812    0.220218    11.00000   -1.20000
H64D  2   -0.406960   -0.008503    0.248396    11.00000   -1.20000
AFIX   0
C65A  1   -0.505902    0.063721    0.220432    11.00000    0.08819    0.07082 =
         0.08408   -0.03168   -0.03757    0.03353
AFIX  23
H65C  2   -0.571184    0.045285    0.236240    11.00000   -1.20000
H65D  2   -0.512467    0.057498    0.182748    11.00000   -1.20000
AFIX   0
C66A  1   -0.491892    0.131878    0.234206    11.00000    0.04605    0.06528 =
         0.04514   -0.00934   -0.00432    0.01384
AFIX  13
H66A  2   -0.460337    0.154697    0.204783    11.00000   -1.20000
AFIX   0
C67A  1   -0.596452    0.163552    0.248773    11.00000    0.04776    0.04754 =
         0.05248    0.00176   -0.01055    0.01115
AFIX  23
H67C  2   -0.625850    0.142533    0.279098    11.00000   -1.20000
H67D  2   -0.580680    0.207687    0.257971    11.00000   -1.20000
AFIX   0

CL1   3    0.166779    0.360420    0.414553    11.00000    0.07083    0.07621 =
         0.07883   -0.01111   -0.00173    0.01659
CL2   3    0.201059    0.309446    0.515475    11.00000    0.08403    0.07317 =
         0.11742    0.03561    0.01644   -0.00106
C68   1    0.264134    0.342950    0.464579    11.00000    0.05175    0.12349 =
         0.07304   -0.01263    0.00159   -0.03923
AFIX  23
H68A  2    0.320391    0.313877    0.451919    11.00000   -1.20000
H68B  2    0.302345    0.381785    0.476129    11.00000   -1.20000
AFIX   0
HKLF 5

REM  n2285 in P2(1)
REM R1 =  0.0824 for    8786 Fo > 4sig(Fo)  and  0.0986 for all   10925 data
REM   1500 parameters refined using   1522 restraints

END

WGHT      0.1896      0.3445

REM Highest difference peak  1.110,  deepest hole -0.466,  1-sigma level  0.078
Q1    1   0.6635  0.1627  0.0822  11.00000  0.05    1.11
Q2    1   0.2567  0.3203 -0.2426  11.00000  0.05    0.89
Q3    1   0.3099  0.3225  0.5071  11.00000  0.05    0.86
Q4    1   0.3182 -0.1394  0.7084  11.00000  0.05    0.84
Q5    1   0.8146  0.1942 -0.0016  11.00000  0.05    0.76
Q6    1   1.1212  0.2320 -0.1896  11.00000  0.05    0.68
Q7    1   0.4526 -0.1143  0.2043  11.00000  0.05    0.65
Q8    1   1.1784  0.4286 -0.2570  11.00000  0.05    0.56
Q9    1   0.7888  0.1724 -0.2491  11.00000  0.05    0.53
Q10   1   0.6923  0.2106 -0.0049  11.00000  0.05    0.50
Q11   1   0.6408  0.2652  0.7033  11.00000  0.05    0.50
Q12   1   0.9499  0.5372 -0.3012  11.00000  0.05    0.42
Q13   1   0.5019  0.3987  0.6902  11.00000  0.05    0.41
Q14   1   0.0633  0.2968  0.6541  11.00000  0.05    0.40
Q15   1   0.3024  0.3404  0.2804  11.00000  0.05    0.39
Q16   1   0.1772  0.3100  0.4144  11.00000  0.05    0.38
Q17   1   1.0739  0.1919 -0.1728  11.00000  0.05    0.36
Q18   1   0.7853  0.5972 -0.2800  11.00000  0.05    0.34
Q19   1   1.1874  0.2971 -0.1871  11.00000  0.05    0.31
Q20   1   1.2064  0.2730 -0.0108  11.00000  0.05    0.29
;
_shelx_res_checksum              87208
_shelx_fab_checksum              52071
_shelx_fab_file
;
    2    0    0    -64.49      0.00
    3    0    0      6.19      0.01
    4    0    0      6.39      0.00
    5    0    0     -2.78     -0.01
    6    0    0     10.99      0.00
    8    0    0     -4.81      0.02
    9    0    0      3.27     -0.02
   10    0    0     -0.16      0.00
   11    0    0      1.25      0.01
   12    0    0      2.87     -0.01
    2    1    0    -55.36     -8.85
    3    1    0     -8.51     20.36
    4    1    0     14.50     -0.28
    5    1    0    -10.33      3.21
    6    1    0      1.73     -4.11
    7    1    0     12.27     -3.45
    8    1    0     -4.22      2.33
    9    1    0     -4.45     -0.63
   10    1    0      1.47      0.64
   11    1    0     -0.43      1.45
   12    1    0     -0.17     -2.24
    1    2    0     -4.16     46.88
    2    2    0     58.11    -13.13
    3    2    0      0.62      6.82
    4    2    0     -3.36     -9.20
    5    2    0      3.39     -0.51
    6    2    0     -4.29      8.74
    7    2    0     -0.27     -1.36
    8    2    0      3.19     -2.32
    9    2    0     -0.45      3.40
   10    2    0      1.39     -1.56
   11    2    0     -1.79      1.72
   12    2    0     -0.25      0.44
    1    3    0      8.43     43.44
    2    3    0      3.92     -2.37
    3    3    0     12.61    -28.09
    5    3    0      1.30     -0.92
    6    3    0     -3.83      5.69
    7    3    0     -4.44      5.15
    8    3    0      0.45     -4.18
    9    3    0      2.97      0.45
   10    3    0      3.28     -2.24
   11    3    0     -1.63     -3.74
   12    3    0     -0.57      3.53
    0    4    0    -28.13    -38.33
    1    4    0     19.52     -3.98
    2    4    0    -13.37     13.16
    3    4    0    -11.57      3.12
    4    4    0     -2.53      8.41
    5    4    0     -0.74      1.03
    6    4    0     -5.66    -10.45
    7    4    0      3.50      3.36
    8    4    0      1.20      4.67
    9    4    0     -2.53     -0.94
   10    4    0      0.04     -0.58
   11    4    0      1.62     -0.01
   12    4    0     -1.91      0.67
    1    5    0    -29.98    -44.79
    2    5    0      5.37     17.28
    3    5    0      0.05     19.82
    4    5    0     -8.19      1.08
    5    5    0      7.90     -3.29
    6    5    0      3.24     -2.49
    7    5    0     -3.36     -4.29
    8    5    0      3.87      1.31
    9    5    0      0.76      2.29
   10    5    0     -2.94      1.89
   11    5    0      3.16      2.81
   12    5    0      0.68     -1.66
    0    6    0     34.38     36.14
    1    6    0     -4.81     -7.53
    2    6    0    -27.50    -10.90
    3    6    0     10.32     -5.85
    4    6    0      5.50     -1.90
    5    6    0      2.07     -3.08
    6    6    0      5.90      5.02
    7    6    0     -3.59     -0.73
    8    6    0     -3.34     -5.04
    9    6    0      1.32     -0.51
   10    6    0     -2.26      3.36
   11    6    0      0.82     -0.36
   12    6    0      0.80     -0.63
    1    7    0     17.81     13.15
    2    7    0      6.51     -7.10
    3    7    0     -8.27    -13.75
    4    7    0      2.19     -2.33
    5    7    0     -7.73      2.98
    6    7    0      1.41      0.72
    7    7    0      5.59      4.64
    8    7    0     -2.95      2.76
    9    7    0     -1.74     -3.30
   10    7    0     -1.13      0.15
   11    7    0     -1.27      0.08
   12    7    0      0.07      0.89
   13    7    0      0.37      0.70
    0    8    0    -20.47     -1.45
    1    8    0     -7.98     -8.97
    2    8    0     24.57      6.11
    3    8    0      3.30      3.90
    4    8    0     -6.70      0.36
    5    8    0     -5.93      2.39
    6    8    0     -2.49      2.84
    7    8    0      4.20     -1.86
    8    8    0      1.66      1.12
    9    8    0      2.12      1.03
   10    8    0      0.29     -2.52
   11    8    0     -3.34      0.02
   12    8    0     -0.47      0.19
   13    8    0      1.19     -0.86
    1    9    0     -6.67     17.39
    2    9    0     -9.04     -6.10
    3    9    0      6.37      4.58
    4    9    0      6.87     -0.38
    5    9    0      1.42     -1.01
    6    9    0     -2.41      1.05
    7    9    0     -2.50     -0.47
    8    9    0     -0.33     -3.16
    9    9    0     -0.19      1.56
   10    9    0      3.05     -0.53
   11    9    0     -1.88     -0.22
   12    9    0     -1.00     -0.07
   13    9    0      0.24     -0.45
    0   10    0     15.10    -14.31
    1   10    0     -1.88      7.91
    2   10    0     -5.51      0.52
    3   10    0    -11.90     -2.45
    4   10    0      5.09      2.56
    5   10    0      4.58     -1.83
    6   10    0      0.27     -4.79
    7   10    0     -1.40      1.37
    8   10    0     -2.10      2.93
    9   10    0     -2.79     -0.89
   10   10    0      0.16      1.02
   11   10    0      3.63     -1.16
   12   10    0     -0.06     -0.62
    1   11    0      6.49    -17.95
    2   11    0     -1.73      0.29
    3   11    0      0.97      3.82
    4   11    0     -5.47      1.54
    5   11    0      2.92      2.84
    6   11    0     -1.23     -2.09
    7   11    0      0.14     -1.03
    8   11    0     -0.49      1.01
    9   11    0     -0.36      0.07
   10   11    0     -2.01      0.52
   11   11    0      2.00      0.41
   12   11    0      0.97     -1.45
    0   12    0     -4.34     -2.87
    1   12    0      4.08      4.54
    2   12    0     -0.68     -7.32
    3   12    0      0.40      0.12
    4   12    0     -1.12     -3.35
    5   12    0      0.31      2.80
    6   12    0     -2.36      2.93
    7   12    0     -1.50     -1.52
    8   12    0      3.36     -2.83
    9   12    0     -0.49     -0.93
   10   12    0     -0.37      0.69
   11   12    0     -0.72      1.04
   12   12    0      0.24      0.89
    1   13    0     -4.38      2.27
    2   13    0      4.67      5.28
    3   13    0      2.24     -4.42
    4   13    0     -5.95     -0.86
    5   13    0     -1.01     -1.55
    6   13    0      1.81      0.49
    7   13    0     -0.70     -1.45
    8   13    0     -0.14      0.38
    9   13    0      1.67     -0.76
   10   13    0     -0.90     -0.63
   11   13    0     -0.54      0.23
   12   13    0     -0.34      0.78
    0   14    0     -2.72     -0.54
    1   14    0      1.49     -3.13
    2   14    0     -3.29      0.94
    3   14    0      7.39      2.44
    4   14    0     -1.26     -0.72
    5   14    0     -2.25     -4.01
    6   14    0      2.89     -0.67
    7   14    0      2.87      0.90
    8   14    0     -3.15      1.06
    9   14    0      1.21      1.58
   10   14    0      1.57     -1.78
   11   14    0     -1.81     -0.69
    1   15    0      2.19      1.06
    2   15    0     -2.50     -1.50
    3   15    0     -0.94     -0.70
    4   15    0      7.40      1.67
    5   15    0      1.08     -1.63
    6   15    0     -2.02      0.26
    7   15    0     -0.36     -0.45
    8   15    0      0.97      0.14
    9   15    0     -0.64      0.09
   10   15    0      0.45     -0.21
   11   15    0     -0.24     -1.89
    0   16    0      0.73      4.79
    1   16    0      4.25     -2.28
    2   16    0      1.81      0.52
    3   16    0     -3.46     -1.32
    4   16    0      1.39      3.11
    5   16    0      2.81      0.34
    6   16    0     -1.42      0.95
    7   16    0     -1.91     -0.37
    8   16    0     -0.28     -0.42
    9   16    0      0.37     -0.63
   10   16    0      0.02      0.20
    1   17    0     -0.25      3.15
    2   17    0      1.80      0.38
    3   17    0     -1.59      2.19
    4   17    0     -2.11      0.79
    5   17    0     -0.50     -0.28
    6   17    0      0.85     -1.80
    7   17    0      0.75      1.81
    8   17    0      1.53     -0.92
    9   17    0     -0.36     -0.93
   10   17    0      1.02      0.81
    0   18    0      2.19     -1.62
    1   18    0     -4.62      3.72
    2   18    0      0.92      3.70
    3   18    0      1.92     -3.12
    4   18    0     -0.40     -1.29
    5   18    0     -2.02      1.21
    6   18    0     -0.25     -0.06
    7   18    0      0.59     -0.28
    8   18    0      2.48      0.84
    9   18    0      0.07     -1.03
    1   19    0     -0.26     -4.73
    2   19    0     -2.30      1.59
    3   19    0      1.72     -0.52
    4   19    0     -1.02     -3.32
    5   19    0      0.45      2.27
    6   19    0      1.29      1.28
    7   19    0      0.46     -0.08
    8   19    0     -0.37      1.27
    9   19    0      0.03      0.73
    0   20    0     -2.22      0.16
    1   20    0      0.33     -1.15
    2   20    0      0.86     -3.81
    3   20    0     -1.47      3.29
    4   20    0     -0.03      1.07
    5   20    0      0.17     -0.65
    6   20    0      1.12      0.73
    7   20    0     -0.50     -0.61
    8   20    0     -0.68     -0.04
    1   21    0      0.40      2.35
    2   21    0      0.34     -0.45
    3   21    0      0.37     -0.77
    4   21    0     -0.63      2.18
    5   21    0      0.29     -0.06
    6   21    0     -0.39      0.69
    7   21    0     -0.71     -0.35
    0   22    0      0.71      0.32
    1   22    0      1.34      0.71
    2   22    0     -0.86      0.21
    3   22    0     -0.12      0.19
    4   22    0      0.73     -0.66
    5   22    0     -1.37     -0.29
    6   22    0     -0.15      0.13
    1   23    0      0.35     -0.11
    2   23    0     -0.65     -0.11
    3   23    0     -0.32     -0.44
    4   23    0     -0.41      0.43
    5   23    0     -0.12     -1.02
    0   24    0     -0.94     -0.67
    1   24    0      0.13      0.53
    2   24    0     -0.59      0.62
    3   24    0      0.03     -0.14
    4   24    0      0.04     -0.47
  -10    0    1     -2.68      0.01
   -9    0    1      2.10      0.00
   -8    0    1     -2.49      0.00
   -5    0    1      4.39     -0.01
   -4    0    1    -16.80     -0.01
   -3    0    1     19.00      0.01
   -2    0    1    -46.62     -0.01
    2    0    1    -19.25     -0.01
    3    0    1     -8.46      0.01
    4    0    1     12.91      0.00
    5    0    1     -6.16      0.00
    6    0    1      6.93     -0.01
    8    0    1     -8.37      0.00
    9    0    1      4.62      0.00
   10    0    1      2.69      0.00
   11    0    1     -0.92      0.00
   12    0    1      1.75     -0.01
  -11    1    1      3.71     -0.48
  -10    1    1     -0.58     -0.11
   -9    1    1     -2.48     -1.38
   -8    1    1      4.77     -0.62
   -6    1    1     -7.17     -0.01
   -5    1    1     10.79     -0.63
   -4    1    1      4.71      9.02
   -3    1    1    -20.95    -13.35
   -2    1    1      0.69     -2.32
    1    1    1     44.87    -56.75
    2    1    1    -31.82     14.37
    3    1    1    -44.01     -0.35
    4    1    1     17.52     -3.59
    5    1    1      1.36      7.42
    6    1    1     -3.95     -3.53
    7    1    1     11.86     -7.06
    8    1    1      0.57      2.65
    9    1    1     -4.55     -0.31
   10    1    1      0.79     -2.30
   11    1    1      1.25      1.21
   12    1    1      1.55     -0.40
   13    1    1     -0.48     -1.48
  -11    2    1     -1.52      0.04
  -10    2    1      0.87     -0.92
   -9    2    1      1.69      0.53
   -8    2    1      2.89     -1.17
   -6    2    1     -6.70      7.38
   -5    2    1      2.48     -0.69
   -4    2    1     -2.55     -1.05
   -3    2    1      0.40    -14.26
   -2    2    1     33.21    -11.94
   -1    2    1     16.55      3.81
    1    2    1    -24.03    -27.92
    2    2    1     12.79    -32.18
    3    2    1     -1.86     41.21
    4    2    1      2.18     -4.25
    5    2    1      0.48     -6.80
    6    2    1     -2.96      8.27
    7    2    1      4.31     -4.36
    8    2    1      3.53     -4.30
    9    2    1     -3.48      4.56
   10    2    1     -2.39      0.14
   11    2    1      0.28      0.58
   12    2    1     -0.96      0.77
   13    2    1      0.95     -1.75
  -12    3    1      0.06     -1.87
  -11    3    1      0.48     -0.58
  -10    3    1      1.40      1.47
   -9    3    1     -2.13      0.93
   -8    3    1      2.12      0.73
   -7    3    1     -0.21     -4.00
   -6    3    1      1.65     -0.72
   -5    3    1      5.01      3.42
   -4    3    1      4.19    -13.98
   -3    3    1    -13.82     11.32
   -2    3    1     32.00     18.28
   -1    3    1     -0.25    -11.03
    0    3    1    -21.65     -6.33
    1    3    1    -19.57     75.72
    2    3    1     42.09    -14.17
    3    3    1      7.71    -17.69
    4    3    1      2.22      0.30
    5    3    1      7.15     -9.69
    6    3    1     -0.47      5.93
    7    3    1     -4.91     12.39
    8    3    1      0.14     -5.03
    9    3    1      1.41     -1.52
   10    3    1      2.49      3.49
   11    3    1     -0.01     -3.18
   12    3    1     -0.27     -0.13
   13    3    1      0.91      1.83
  -12    4    1     -0.49     -0.82
  -11    4    1     -0.45      0.58
  -10    4    1      1.97      2.51
   -9    4    1     -3.59     -0.40
   -8    4    1     -1.76      2.88
   -7    4    1      6.09      4.79
   -6    4    1      0.54     -6.31
   -5    4    1     -5.24     -7.07
   -3    4    1    -13.78      4.33
   -2    4    1    -21.28     22.14
   -1    4    1      9.83     -3.86
    0    4    1      6.40    -47.51
    1    4    1      0.81     18.61
    2    4    1     16.96     24.33
    3    4    1      3.86    -23.06
    4    4    1    -11.88     -5.20
    5    4    1      4.17     12.12
    6    4    1     -3.99     -8.21
    7    4    1     -4.27      1.27
    8    4    1      2.04      5.60
    9    4    1      0.16     -3.15
   10    4    1      1.44     -1.42
   11    4    1     -0.58     -3.64
   12    4    1     -0.78     -0.08
   13    4    1      0.34      1.57
  -12    5    1      2.12      1.91
  -11    5    1     -2.31      1.30
  -10    5    1      0.28     -3.18
   -9    5    1      4.19      0.08
   -8    5    1     -3.36     -0.22
   -7    5    1      1.93      6.41
   -6    5    1      5.11      0.49
   -5    5    1    -12.07     -2.72
   -4    5    1     -7.03      2.38
   -3    5    1     15.35      6.61
   -2    5    1    -15.26    -20.71
   -1    5    1      5.87     26.27
    0    5    1      6.39      5.82
    1    5    1    -16.38    -29.99
    2    5    1     -5.71     -8.74
    3    5    1     13.24     33.31
    4    5    1    -14.10      6.50
    5    5    1     -4.04      2.98
    6    5    1      2.59     -3.20
    7    5    1     -2.59     -7.34
    8    5    1      0.66      3.13
    9    5    1      1.22      3.17
   10    5    1     -0.37     -0.28
   11    5    1      0.95      0.79
   12    5    1     -0.77      0.48
   13    5    1      0.35     -0.05
  -12    6    1     -0.73      0.94
  -11    6    1      0.43     -0.52
  -10    6    1     -1.68     -0.42
   -9    6    1     -0.61     -0.63
   -8    6    1     -1.49     -1.69
   -7    6    1     -5.79     -1.42
   -6    6    1      3.54      3.16
   -5    6    1      1.44      8.34
   -4    6    1     -6.17     -6.74
   -3    6    1      7.67     -7.77
   -2    6    1      6.22    -10.08
   -1    6    1    -11.56     -4.04
    0    6    1     18.63     20.34
    1    6    1      3.01      8.01
    2    6    1    -31.51    -10.74
    3    6    1      5.07      4.33
    4    6    1      5.31      9.36
    5    6    1      0.02     -6.26
    6    6    1      6.74      1.54
    7    6    1     -0.56     -0.67
    8    6    1     -3.06     -4.66
    9    6    1      2.06     -0.88
   10    6    1     -0.07      2.32
   11    6    1      1.69      4.17
   12    6    1      2.56     -2.30
   13    6    1     -1.40     -0.59
  -12    7    1     -1.12      0.27
  -11    7    1      1.24     -0.49
  -10    7    1      0.24      1.86
   -9    7    1     -1.23      1.30
   -8    7    1      1.23     -0.86
   -7    7    1     -2.17     -1.62
   -6    7    1     -5.65     -2.69
   -5    7    1     10.23     -1.80
   -4    7    1      5.18      3.26
   -3    7    1      3.93     -4.48
   -2    7    1    -11.73      2.91
   -1    7    1    -12.97     -1.07
    0    7    1      4.22     -4.62
    1    7    1     27.51     12.34
    2    7    1    -21.37      8.99
    3    7    1     -7.23    -15.43
    4    7    1     10.33     -8.76
    5    7    1     -1.96     -1.05
    6    7    1     -0.69      0.12
    7    7    1      3.10      1.94
    8    7    1     -1.43      1.10
    9    7    1     -1.91     -1.96
   10    7    1     -1.49     -1.56
   11    7    1     -1.25      2.17
   12    7    1      2.23      1.01
   13    7    1     -0.63     -0.36
  -12    8    1      1.10     -0.59
  -11    8    1     -1.79      1.35
  -10    8    1     -1.07     -2.47
   -9    8    1      1.84      0.52
   -8    8    1      2.77     -0.77
   -7    8    1      1.48     -2.29
   -6    8    1     -3.96     -0.42
   -5    8    1      0.96     -0.56
   -4    8    1     -3.28     -1.21
   -3    8    1      1.92     10.00
   -2    8    1      9.67      1.14
   -1    8    1     -4.25      4.15
    0    8    1    -18.46     -1.60
    1    8    1      4.50    -11.40
    2    8    1     18.06     -1.58
    3    8    1     -5.73     -0.15
    4    8    1     -0.87     -0.83
    5    8    1     -5.58     -2.03
    6    8    1     -5.37      2.83
    7    8    1      4.73      0.88
    8    8    1      3.43      2.48
    9    8    1     -0.57      1.04
   10    8    1     -0.15     -1.17
   11    8    1     -1.85     -1.78
   12    8    1     -1.52      2.17
   13    8    1      1.26      1.15
  -12    9    1     -0.41     -1.54
  -11    9    1     -0.15      1.76
  -10    9    1     -1.75     -0.15
   -9    9    1     -0.74     -0.97
   -8    9    1      2.13     -0.07
   -7    9    1      3.37      0.68
   -6    9    1      0.76      2.36
   -5    9    1     -2.54      4.36
   -4    9    1     -5.29      0.48
   -3    9    1     -6.49     -5.11
   -2    9    1     14.55      9.66
   -1    9    1     14.64    -10.14
    0    9    1    -18.67      0.95
    1    9    1    -10.61     -1.98
    2    9    1     10.67      7.49
    3    9    1      4.65     -3.42
    4    9    1     -0.59      4.05
    5    9    1      3.04      1.50
    6    9    1     -3.00      0.89
    7    9    1     -1.51      1.01
    8    9    1      2.07     -3.70
    9    9    1      1.58      0.90
   10    9    1      1.78     -0.17
   11    9    1     -1.05     -0.33
   12    9    1     -2.78     -1.05
   13    9    1      0.30      0.72
  -12   10    1     -0.79     -1.12
  -11   10    1      2.72     -2.43
  -10   10    1      1.45      1.43
   -9   10    1     -0.72      0.58
   -8   10    1     -3.49      0.01
   -7   10    1      1.04      2.12
   -6   10    1     -1.08     -0.91
   -5   10    1      2.15     -5.48
   -4   10    1      2.56      5.69
   -3   10    1     -1.88     -1.25
   -2   10    1    -12.25     -1.56
   -1   10    1     10.50     -5.34
    0   10    1      7.50     -4.45
    1   10    1     -4.20      9.03
    2   10    1      0.15      5.41
    3   10    1     -4.95      1.14
    4   10    1      1.04     -5.67
    5   10    1      4.88      0.72
    6   10    1      4.26     -1.78
    7   10    1     -2.93      1.24
    8   10    1     -1.40     -0.68
    9   10    1     -1.20      1.42
   10   10    1      1.30      0.15
   11   10    1      0.58     -0.86
   12   10    1     -0.30     -0.35
  -12   11    1     -0.34      1.06
  -11   11    1      0.39     -1.12
  -10   11    1     -0.13     -1.28
   -9   11    1      1.57      0.82
   -8   11    1     -2.78      1.49
   -7   11    1     -2.21     -0.11
   -6   11    1      1.77      1.21
   -5   11    1     -2.37     -2.30
   -4   11    1      3.17     -1.80
   -3   11    1      1.13      0.75
   -2   11    1     -1.09      2.29
   -1   11    1    -12.51      1.91
    0   11    1      9.52      7.13
    1   11    1     -6.09     -5.45
    2   11    1      4.84     -5.55
    3   11    1     -3.28      4.09
    4   11    1     -4.32      5.12
    5   11    1     -0.40      0.09
    6   11    1      3.16     -2.77
    7   11    1      2.31     -0.65
    8   11    1     -1.59      2.42
    9   11    1     -1.03     -0.29
   10   11    1     -1.94      1.31
   11   11    1      2.49      0.03
   12   11    1      1.02     -1.29
  -12   12    1     -0.29      0.11
  -11   12    1     -0.49      1.94
  -10   12    1     -0.41      0.65
   -9   12    1     -0.16     -2.15
   -8   12    1      3.05      0.86
   -7   12    1      0.74     -4.07
   -6   12    1      0.56      0.28
   -5   12    1     -2.36      3.01
   -4   12    1     -2.51      1.70
   -3   12    1      0.95     -9.48
   -2   12    1      5.41      2.94
   -1   12    1     -1.51      6.92
    0   12    1     -2.56      2.57
    1   12    1      0.96     -1.17
    2   12    1     -3.58     -5.10
    3   12    1      4.43      0.39
    4   12    1      0.25     -0.28
    5   12    1     -0.52      4.03
    6   12    1     -2.37      1.92
    7   12    1     -0.71      0.27
    8   12    1      0.31     -0.24
    9   12    1      0.99     -1.16
   10   12    1     -1.83     -0.58
   11   12    1      0.49      2.54
   12   12    1      1.27      0.22
  -12   13    1     -0.17     -0.76
  -11   13    1      0.26     -0.93
  -10   13    1      0.97      2.53
   -9   13    1     -1.75      0.04
   -8   13    1      0.31     -1.96
   -7   13    1     -0.01     -0.64
   -6   13    1     -2.51     -2.88
   -5   13    1      0.28      1.83
   -4   13    1      1.98      2.50
   -3   13    1     -3.37      4.61
   -2   13    1     -1.52     -9.88
   -1   13    1     -1.63      1.02
    0   13    1      7.32     -4.11
    1   13    1     -3.49      4.47
    2   13    1     -3.66      0.40
    3   13    1     -0.22      0.89
    4   13    1     -0.34     -4.70
    5   13    1     -1.93     -0.14
    6   13    1     -0.68      3.13
    7   13    1     -1.56      0.24
    8   13    1      0.62     -0.73
    9   13    1      1.05     -0.86
   10   13    1     -0.69      0.50
   11   13    1     -0.74     -0.60
   12   13    1      0.32      1.72
  -11   14    1     -1.13     -1.83
  -10   14    1      0.34     -1.44
   -9   14    1      0.82      0.97
   -8   14    1      0.80      1.36
   -7   14    1     -2.04      1.77
   -6   14    1      1.66      1.03
   -5   14    1      0.86     -2.69
   -4   14    1      4.20     -3.49
   -3   14    1     -0.05      4.48
   -2   14    1      0.94      4.82
   -1   14    1     -4.53     -4.49
    0   14    1      0.27     -0.53
    1   14    1      0.66     -1.27
    2   14    1     -4.14     -0.65
    3   14    1      3.36      1.45
    4   14    1     -2.13      2.35
    5   14    1     -3.09     -2.40
    6   14    1      0.12     -2.51
    7   14    1      2.41     -0.65
    8   14    1     -2.03      1.09
    9   14    1      0.06      0.53
   10   14    1      0.84      0.38
   11   14    1     -0.73     -0.02
  -11   15    1     -0.25      0.10
  -10   15    1     -0.31     -0.63
   -9   15    1     -0.14     -0.47
   -8   15    1      0.28      0.40
   -7   15    1      1.94      1.71
   -6   15    1      1.72     -1.64
   -5   15    1      0.82     -0.31
   -4   15    1     -4.83     -2.76
   -3   15    1      1.98     -3.40
   -2   15    1      1.16      2.28
   -1   15    1      0.96      5.76
    0   15    1     -5.87     -7.42
    1   15    1      3.83      0.42
    2   15    1     -3.31     -1.90
    3   15    1     -1.24     -2.56
    4   15    1      1.95      0.07
    5   15    1      1.84      0.86
    6   15    1     -0.56     -1.71
    7   15    1      1.17     -0.97
    8   15    1     -0.47      0.46
    9   15    1     -1.67      1.61
   10   15    1      1.82     -0.41
   11   15    1     -0.90     -0.80
  -10   16    1      1.45      0.89
   -9   16    1     -0.91      0.98
   -8   16    1     -0.19     -2.43
   -7   16    1      0.58      2.10
   -6   16    1      0.48     -0.57
   -5   16    1      0.93     -0.71
   -4   16    1     -1.94      3.57
   -3   16    1     -4.48      2.55
   -2   16    1     -0.25     -5.04
   -1   16    1      1.70      2.56
    0   16    1     -0.22      0.89
    1   16    1      1.87     -2.27
    2   16    1      3.27      1.17
    3   16    1     -3.14     -3.62
    4   16    1      1.61      0.08
    5   16    1      3.07      0.39
    6   16    1     -0.54      1.73
    7   16    1     -1.52     -0.96
    8   16    1      0.28     -1.17
    9   16    1     -1.11      0.26
   10   16    1     -0.88      0.12
  -10   17    1      0.45     -0.78
   -9   17    1      0.93      0.01
   -8   17    1     -1.57      0.71
   -7   17    1     -1.23     -1.02
   -6   17    1     -1.93      1.36
   -5   17    1      3.06     -0.18
   -4   17    1      3.30      0.27
   -3   17    1     -0.26      1.76
   -2   17    1     -2.51      0.23
   -1   17    1      4.48     -6.21
    0   17    1     -0.93      2.11
    1   17    1      2.37     -1.82
    2   17    1      4.05     -0.41
    3   17    1     -0.02      0.47
    4   17    1     -2.45      1.59
    5   17    1      2.03     -0.75
    6   17    1     -0.43     -1.40
    7   17    1     -1.85      1.70
    8   17    1     -0.23     -0.18
    9   17    1      0.57     -1.10
   10   17    1     -0.15     -0.27
   -9   18    1     -0.54      0.12
   -8   18    1     -0.45      0.54
   -7   18    1      1.35      1.25
   -6   18    1     -1.07      0.39
   -5   18    1     -1.02      2.20
   -4   18    1     -0.23     -0.45
   -3   18    1      3.25     -4.77
   -2   18    1     -1.02     -0.35
   -1   18    1     -0.57      0.63
    0   18    1     -0.46     -1.39
    1   18    1     -2.68      2.46
    2   18    1      1.16      1.94
    3   18    1      1.05      2.51
    4   18    1      0.34     -1.96
    5   18    1     -1.73      0.28
    6   18    1      0.33     -0.94
    7   18    1     -0.81     -0.89
    8   18    1      0.96      0.82
    9   18    1      1.17     -1.11
   -9   19    1     -0.04     -0.10
   -8   19    1      0.64     -1.12
   -7   19    1      2.07      0.00
   -6   19    1     -0.75      1.75
   -5   19    1     -1.73     -2.52
   -4   19    1     -0.40      0.99
   -3   19    1      0.41      1.03
   -2   19    1      1.23     -0.28
   -1   19    1     -1.50      1.44
    0   19    1      3.69      4.44
    1   19    1     -2.27     -1.52
    2   19    1     -1.73      1.91
    3   19    1      2.22      0.63
    4   19    1      1.38     -2.88
    5   19    1     -1.43     -1.27
    6   19    1     -0.39      2.30
    7   19    1      1.57     -0.48
    8   19    1      0.27     -0.10
    9   19    1      0.49     -0.35
   -8   20    1     -1.53     -0.49
   -7   20    1     -1.42     -2.19
   -6   20    1     -0.07      1.05
   -5   20    1     -0.14     -0.78
   -4   20    1     -0.23     -0.36
   -3   20    1     -0.72      2.25
   -2   20    1      0.00      2.45
   -1   20    1     -0.05     -2.28
    0   20    1      1.60     -0.25
    1   20    1      0.59     -0.66
    2   20    1     -2.63     -3.42
    3   20    1      1.20      1.69
    4   20    1     -0.75      0.20
    5   20    1     -0.20     -0.27
    6   20    1      1.06     -0.48
    7   20    1      1.10      0.71
    8   20    1      0.05      0.50
   -7   21    1     -0.65     -0.36
   -6   21    1      0.71      0.55
   -5   21    1      0.72      1.26
   -4   21    1     -0.58     -0.24
   -3   21    1     -0.52     -1.20
   -2   21    1      1.52     -0.03
   -1   21    1     -2.62      0.66
    0   21    1     -1.13     -2.17
    1   21    1      0.49      1.04
    2   21    1      0.56     -0.98
    3   21    1     -0.43     -0.81
    4   21    1      0.48      2.26
    5   21    1      0.57      0.68
    6   21    1     -0.31      0.32
    7   21    1     -0.18     -0.77
   -6   22    1     -0.18     -0.91
   -5   22    1     -0.82     -0.46
   -4   22    1      0.80     -0.54
   -3   22    1     -0.72     -1.15
   -2   22    1      0.21     -0.69
   -1   22    1      0.43     -0.67
    0   22    1     -1.80      0.60
    1   22    1      1.35      1.89
    2   22    1      1.24      0.32
    3   22    1     -0.73     -1.02
    4   22    1     -0.46      0.34
    5   22    1      1.53      0.08
    6   22    1     -0.71      0.66
   -5   23    1     -0.82      0.51
   -4   23    1      0.09      1.00
   -3   23    1      0.14     -0.57
   -2   23    1      0.03      0.18
   -1   23    1      0.74      0.28
    0   23    1      0.79     -1.44
    1   23    1     -0.35      1.04
    2   23    1      0.91      0.51
    3   23    1      0.17     -0.63
    4   23    1     -0.79      0.61
    5   23    1     -0.58     -0.46
   -4   24    1      0.74      0.66
   -3   24    1      0.20     -0.39
   -2   24    1      0.61     -0.32
   -1   24    1     -0.41      0.27
    0   24    1     -0.02     -0.26
    1   24    1      0.73     -1.17
    2   24    1     -1.09      0.66
    3   24    1      0.26      0.34
    4   24    1      0.08     -0.15
  -10    0    2     -1.39      0.00
   -9    0    2      0.71     -0.01
   -8    0    2      1.52      0.01
   -3    0    2     14.10      0.00
   -1    0    2    -27.36      0.00
    2    0    2     -1.90     -0.01
    3    0    2     17.89      0.00
    4    0    2     -2.79      0.01
    5    0    2    -11.48      0.00
    6    0    2     11.39      0.00
    7    0    2     -6.02      0.00
    8    0    2    -11.16     -0.02
    9    0    2      2.72      0.01
   10    0    2      0.02      0.00
   11    0    2     -1.22     -0.02
   12    0    2      0.11      0.01
   13    0    2      0.11      0.00
  -11    1    2      1.92     -1.11
  -10    1    2      3.05     -0.15
   -9    1    2     -2.79      1.06
   -8    1    2     -0.02     -2.79
   -5    1    2     -0.55     -4.57
   -4    1    2      2.91      3.28
   -3    1    2     -0.22     19.68
   -2    1    2    -25.79    -28.77
   -1    1    2     -8.92     12.90
    1    1    2     57.44    -24.07
    2    1    2     18.38     12.35
    3    1    2    -41.28      2.45
    4    1    2      1.39     -7.62
    5    1    2      0.85      2.28
    6    1    2     -3.81      4.74
    7    1    2      6.82     -5.64
    8    1    2     -1.53     -0.77
    9    1    2     -1.03      4.37
   10    1    2      2.86     -3.83
   11    1    2     -1.21     -0.38
   12    1    2      1.46      1.53
   13    1    2      0.29     -0.53
  -11    2    2      0.18      1.06
  -10    2    2     -1.56     -1.98
   -9    2    2     -0.30      0.77
   -8    2    2     -0.55      0.52
   -6    2    2     -5.38      6.00
   -5    2    2     -3.90      2.49
   -4    2    2      3.76     -2.38
   -3    2    2     -5.02     10.38
   -2    2    2    -14.38     -7.98
   -1    2    2     34.72    -66.21
    0    2    2     27.50     57.63
    1    2    2    -13.99    -32.18
    2    2    2    -10.78    -43.64
    3    2    2    -15.23     15.08
    4    2    2     -1.64     16.96
    5    2    2      1.66    -10.03
    6    2    2     -7.36      0.87
    7    2    2      4.85      0.34
    8    2    2      7.50    -11.43
    9    2    2     -2.35      1.94
   10    2    2     -2.21      2.27
   11    2    2      0.02     -3.30
   12    2    2     -0.83      2.21
   13    2    2     -0.64     -1.35
  -12    3    2     -0.44     -0.17
  -11    3    2      0.48      0.10
  -10    3    2      1.10     -0.97
   -9    3    2      0.91     -0.68
   -8    3    2      0.90      3.41
   -6    3    2     -3.49     -4.51
   -5    3    2      2.44     12.09
   -4    3    2     -1.09    -10.08
   -3    3    2      8.51    -21.11
   -2    3    2     -0.19     33.50
   -1    3    2     18.82    -18.99
    0    3    2     -2.36    -14.69
    1    3    2    -47.18     37.18
    2    3    2     -3.16     -6.94
    3    3    2     12.97    -12.50
    4    3    2      7.31     11.94
    5    3    2     -0.70     -9.49
    6    3    2      3.00     -6.86
    7    3    2      0.32     13.40
    8    3    2     -1.32      0.18
    9    3    2      0.63     -6.87
   10    3    2     -2.20      5.27
   11    3    2      1.31      1.47
   12    3    2     -0.54     -1.16
   13    3    2     -0.27      0.33
  -12    4    2      0.44     -0.87
  -11    4    2     -2.88     -3.23
  -10    4    2      2.88      2.55
   -9    4    2     -0.52     -1.64
   -8    4    2     -3.19      0.49
   -7    4    2      1.55      0.90
   -6    4    2      5.01     -4.49
   -5    4    2     -2.29     -3.11
   -4    4    2      4.94      0.80
   -3    4    2     -1.29    -11.29
   -2    4    2      3.59     25.66
   -1    4    2    -18.08     20.91
    0    4    2     23.48    -38.10
    1    4    2     -2.06      4.20
    2    4    2     13.99     39.95
    3    4    2      4.97    -22.17
    4    4    2      5.49    -23.28
    5    4    2      6.38      7.28
    6    4    2     -0.23     -2.79
    7    4    2     -1.04      0.91
    8    4    2     -0.97      8.44
    9    4    2      0.89     -2.04
   10    4    2      2.17     -1.58
   11    4    2      0.58     -1.13
   12    4    2      0.19     -3.36
   13    4    2      0.17      1.62
  -12    5    2      2.78      0.55
  -11    5    2      0.04      1.86
  -10    5    2     -3.45      0.96
   -9    5    2      4.21     -0.93
   -8    5    2     -0.31      0.07
   -7    5    2     -0.97      5.27
   -6    5    2      6.97      4.05
   -5    5    2     -1.54     -7.65
   -4    5    2     -4.83      4.51
   -3    5    2     -1.44      0.70
   -2    5    2     -4.65      2.85
   -1    5    2     -5.63      8.17
    0    5    2      8.66     -4.26
    1    5    2      5.34    -17.34
    2    5    2      7.15    -11.76
    3    5    2      6.58      8.24
    4    5    2     -6.31     -1.49
    5    5    2     -2.70     11.92
    6    5    2     -0.72      0.45
    7    5    2     -4.61     -9.26
    8    5    2      1.34      1.88
    9    5    2      0.07      2.23
   10    5    2     -0.36      0.67
   11    5    2     -0.13     -3.01
   12    5    2     -0.96     -1.06
   13    5    2     -0.51      0.63
  -12    6    2      0.52     -0.80
  -11    6    2      1.95      1.57
  -10    6    2     -0.17     -0.89
   -9    6    2      0.03     -0.78
   -8    6    2      3.52     -1.60
   -7    6    2     -5.82      1.78
   -6    6    2      2.50      0.49
   -5    6    2      1.45      1.68
   -4    6    2     -9.86      3.81
   -3    6    2      2.71     -1.41
   -2    6    2     11.46    -20.09
   -1    6    2    -10.32     13.64
    0    6    2      5.03      6.15
    1    6    2      1.90      1.73
    2    6    2     -5.39    -10.77
    3    6    2      1.23      8.35
    4    6    2     -2.63     11.60
    5    6    2     -3.20      4.67
    6    6    2      6.02      2.43
    7    6    2      0.39     -3.51
    8    6    2     -4.43     -0.09
    9    6    2      1.80     -0.63
   10    6    2      0.81      0.19
   11    6    2      1.37      3.76
   12    6    2      0.63      0.15
   13    6    2      0.41     -1.55
  -12    7    2     -2.32      2.17
  -11    7    2      0.34     -2.49
  -10    7    2      2.07      1.45
   -9    7    2     -3.43      2.27
   -8    7    2     -0.79     -0.74
   -7    7    2     -2.35     -1.51
   -6    7    2     -3.51      1.63
   -5    7    2      2.47     -1.38
   -4    7    2      3.12     -1.06
   -3    7    2     -1.40      5.41
   -2    7    2     14.07    -12.80
   -1    7    2    -12.22     -7.43
    0    7    2     -9.69     14.39
    1    7    2     22.86      2.41
    2    7    2    -10.32      9.74
    3    7    2    -10.86      6.25
    4    7    2      4.82     -8.79
    5    7    2      4.18     -4.53
    7    7    2      4.53     -0.71
    8    7    2     -1.89     -2.65
    9    7    2     -2.20      1.26
   10    7    2      1.10     -2.67
   11    7    2     -0.15      2.05
   12    7    2      2.38      1.17
   13    7    2      0.33     -1.98
  -12    8    2      0.20      1.36
  -11    8    2      0.12      1.09
  -10    8    2     -0.38     -1.91
   -9    8    2     -0.54      1.29
   -8    8    2      1.03      2.36
   -7    8    2      3.22     -3.44
   -6    8    2     -3.59     -3.09
   -5    8    2      2.54      1.22
   -4    8    2      7.78     -6.68
   -3    8    2     -4.12      5.37
   -2    8    2     -8.25      6.90
   -1    8    2     13.25     -4.20
    0    8    2    -14.35     -1.92
    1    8    2      1.88      9.81
    2    8    2      6.72    -11.51
    3    8    2     -3.37      2.41
    4    8    2      2.10     -0.09
    5    8    2     -0.80    -10.53
    6    8    2     -7.59      0.76
    7    8    2     -1.21      3.95
    8    8    2      5.26     -0.30
    9    8    2     -2.02      0.70
   10    8    2     -1.64      0.49
   11    8    2     -1.50     -1.59
   12    8    2      0.75      2.25
   13    8    2      0.21      0.83
  -12    9    2      1.31     -1.88
  -11    9    2     -1.81      2.51
  -10    9    2     -0.78      0.28
   -9    9    2     -2.13     -3.34
   -8    9    2      1.15     -0.16
   -7    9    2      3.87      2.00
   -6    9    2      1.50     -5.66
   -5    9    2     -2.88      6.20
   -4    9    2     -0.77      2.27
   -3    9    2     -3.64     -3.05
   -2    9    2     -3.78      2.41
   -1    9    2     10.35     10.70
    0    9    2      4.52     -8.45
    1    9    2    -19.27     -9.02
    2    9    2      4.95      1.26
    3    9    2      6.31     -7.21
    4    9    2     -2.19      8.87
    5    9    2      0.29     -0.35
    6    9    2     -2.27     -2.21
    7    9    2     -3.36      2.74
    8    9    2      2.35      1.04
    9    9    2      2.95     -1.49
   10    9    2     -0.12     -0.18
   11    9    2     -0.05     -0.85
   12    9    2     -1.76      1.13
   13    9    2     -0.23      1.14
  -12   10    2     -0.99     -0.38
  -11   10    2     -0.57     -1.14
  -10   10    2      1.43      0.76
   -9   10    2      0.48      1.32
   -8   10    2     -1.33     -3.18
   -7   10    2      0.38      3.44
   -6   10    2      2.44      4.68
   -5   10    2     -0.01     -3.23
   -4   10    2     -1.64      1.70
   -3   10    2      3.56      1.27
   -2   10    2     -6.15      0.84
   -1   10    2      6.49     -7.71
    0   10    2      2.16      3.06
    1   10    2      3.08     -5.44
    2   10    2     -4.48      9.33
    3   10    2      3.18      2.02
    4   10    2     -0.20     -4.70
    5   10    2      2.76      2.61
    6   10    2      4.12     -1.75
    7   10    2     -1.56     -0.63
    8   10    2     -2.39     -2.24
    9   10    2      0.47      0.84
   10   10    2      1.41      0.71
   11   10    2     -0.34     -1.49
   12   10    2     -0.90     -1.20
  -12   11    2      0.06      0.26
  -11   11    2      0.06     -0.21
  -10   11    2      0.14     -3.48
   -9   11    2      2.78      2.08
   -8   11    2     -2.50      0.58
   -7   11    2     -3.33     -0.79
   -6   11    2     -2.15      2.96
   -5   11    2      3.38      0.05
   -4   11    2     -0.41     -6.34
   -3   11    2      6.68      2.10
   -2   11    2     -7.65      1.88
   -1   11    2     -4.13     -6.33
    0   11    2      5.76     -2.67
    1   11    2      1.91     10.33
    2   11    2      4.87     -3.38
    3   11    2     -3.00     -2.01
    4   11    2     -2.22      1.69
    5   11    2     -1.69      0.83
    6   11    2      4.59     -3.12
    7   11    2      1.98     -0.81
    8   11    2     -0.03      0.94
    9   11    2     -1.39     -0.19
   10   11    2      0.32      1.98
   11   11    2     -0.65     -0.42
   12   11    2      0.64     -2.23
  -12   12    2      0.10     -0.59
  -11   12    2      0.77      1.54
  -10   12    2     -2.02      0.52
   -9   12    2      0.59     -2.36
   -8   12    2      1.35      2.13
   -7   12    2     -0.56      0.16
   -6   12    2      0.61     -0.89
   -5   12    2     -1.26      1.93
   -4   12    2     -3.69      4.92
   -3   12    2      2.18     -8.91
   -2   12    2      8.58      1.96
   -1   12    2     -9.51      3.94
    0   12    2     -1.14      8.24
    1   12    2     -2.01     -2.32
    2   12    2      3.00      1.40
    3   12    2      3.09     -4.03
    4   12    2     -0.53      1.70
    5   12    2     -1.25      5.57
    6   12    2      0.83      0.08
    7   12    2      1.83     -1.78
    8   12    2     -0.57      1.11
    9   12    2      0.89     -0.55
   10   12    2     -0.94     -1.86
   11   12    2      0.70      2.34
   12   12    2      0.61     -0.19
  -11   13    2      1.19     -0.40
  -10   13    2      0.14      2.65
   -9   13    2     -0.49     -0.37
   -8   13    2     -0.01     -0.75
   -7   13    2      2.90     -3.39
   -6   13    2     -1.86     -1.90
   -5   13    2     -0.46     -0.96
   -4   13    2     -3.57      5.99
   -3   13    2     -0.13     -0.02
   -2   13    2      3.58     -3.92
   -1   13    2      2.96     -1.74
    0   13    2     -1.50      2.00
    1   13    2      2.49      2.96
    2   13    2     -1.87      1.07
    3   13    2     -0.24      4.41
    4   13    2      3.92     -6.79
    5   13    2     -0.23     -0.74
    6   13    2     -3.11      5.21
    7   13    2     -0.04      2.63
    8   13    2     -0.05     -1.14
    9   13    2      0.67     -0.36
   10   13    2      0.17     -1.69
   11   13    2     -0.31      0.84
   12   13    2      1.04      1.41
  -11   14    2     -0.84     -0.94
  -10   14    2      0.16     -0.12
   -9   14    2      0.18      0.18
   -8   14    2     -0.05      0.75
   -7   14    2     -2.31      0.01
   -6   14    2     -1.07     -1.66
   -5   14    2     -2.61      1.23
   -4   14    2      5.13     -0.57
   -3   14    2     -3.16      3.59
   -2   14    2      0.32      1.02
   -1   14    2     -3.09     -2.07
    0   14    2      4.38     -5.46
    1   14    2     -2.83      1.93
    2   14    2     -2.28      2.24
    3   14    2     -2.18      3.77
    4   14    2      1.08      1.66
    5   14    2     -1.42     -2.55
    6   14    2     -2.83     -0.36
    7   14    2      1.01      0.72
    8   14    2      0.80      1.00
    9   14    2      0.25     -0.42
   10   14    2      0.02      0.72
   11   14    2      0.27     -0.65
  -11   15    2     -0.47     -1.17
  -10   15    2     -0.97      0.14
   -9   15    2     -0.03     -2.12
   -8   15    2      2.58      0.70
   -7   15    2     -1.35      2.37
   -6   15    2      1.23      1.46
   -5   15    2      1.57     -3.13
   -4   15    2      0.46     -1.54
   -3   15    2     -0.02     -3.17
   -2   15    2      3.71      3.75
   -1   15    2     -0.33      4.78
    0   15    2     -4.81      1.95
    1   15    2      1.02     -4.54
    2   15    2     -3.20     -1.59
    3   15    2     -0.69      2.73
    4   15    2     -1.79      0.95
    5   15    2      1.25     -0.04
    6   15    2     -0.33     -1.02
    7   15    2      0.59     -1.70
    8   15    2     -0.35     -0.03
    9   15    2     -0.66      1.48
   10   15    2      0.88      0.96
   11   15    2      0.51      0.53
  -10   16    2      0.65      0.57
   -9   16    2     -1.45      1.81
   -8   16    2      0.46     -2.44
   -7   16    2      2.05      0.05
   -6   16    2     -0.09      0.02
   -5   16    2      0.17     -0.51
   -4   16    2     -1.52     -3.61
   -3   16    2     -3.36      1.47
   -2   16    2     -2.29     -2.18
   -1   16    2      4.14      2.04
    0   16    2     -2.30      0.73
    1   16    2     -1.85      1.64
    2   16    2      1.51     -5.08
    3   16    2     -2.85     -0.77
    4   16    2     -3.07     -0.41
    5   16    2      2.23      0.52
    6   16    2      2.13      1.20
    7   16    2     -0.61     -0.14
    8   16    2      0.77     -0.73
    9   16    2     -1.57      0.28
   10   16    2     -0.22      1.03
  -10   17    2      1.45     -0.22
   -9   17    2     -0.03      0.75
   -8   17    2      0.40      0.36
   -7   17    2     -0.62     -0.81
   -6   17    2      0.81     -1.13
   -5   17    2     -1.03      0.62
   -4   17    2      2.48      1.00
   -3   17    2      0.37      2.66
   -2   17    2     -5.44      1.17
   -1   17    2     -1.63     -1.67
    0   17    2      5.50     -1.55
    1   17    2     -2.07      0.06
    2   17    2      1.35      0.56
    3   17    2      3.70     -5.65
    4   17    2     -2.97      2.73
    5   17    2     -0.62      1.88
    6   17    2      2.21     -1.13
    7   17    2     -0.89     -0.40
    8   17    2     -0.79      0.70
    9   17    2     -0.37     -0.39
   10   17    2     -1.18     -0.01
   -9   18    2      0.01     -0.09
   -8   18    2     -1.37      0.07
   -7   18    2     -0.33      0.99
   -6   18    2     -0.06     -0.96
   -5   18    2      2.23      0.19
   -4   18    2     -1.10      1.27
   -3   18    2      3.64     -1.62
   -2   18    2      2.02     -1.85
   -1   18    2     -2.16     -1.12
    0   18    2     -1.76     -1.64
    1   18    2      3.59     -1.72
    2   18    2     -2.67      1.09
    3   18    2      1.53      0.09
    4   18    2      0.64     -0.47
    5   18    2     -1.50      0.36
    6   18    2     -0.08     -1.01
    7   18    2     -1.65     -0.29
    8   18    2     -0.68      0.35
    9   18    2      0.63      0.45
   -9   19    2     -0.24      0.96
   -8   19    2     -0.40      0.23
   -7   19    2      1.65      1.04
   -6   19    2      1.02      1.08
   -5   19    2     -0.51      1.48
   -4   19    2     -1.44     -1.14
   -3   19    2      0.02     -0.53
   -2   19    2      1.77     -2.12
   -1   19    2      1.31     -0.64
    0   19    2     -1.96      2.11
    1   19    2     -1.81      1.83
    2   19    2      1.64      0.91
    3   19    2     -2.51      1.89
    4   19    2      3.08     -1.16
    5   19    2     -0.03     -1.93
    6   19    2     -1.15      0.75
    7   19    2     -0.70      0.02
    8   19    2      0.36     -0.63
    9   19    2      0.68      0.34
   -8   20    2      0.15      0.81
   -7   20    2     -0.39     -0.45
   -6   20    2     -0.15     -0.82
   -5   20    2      0.37     -0.75
   -4   20    2     -0.16     -0.07
   -3   20    2      0.32      1.21
   -2   20    2     -1.19      3.88
   -1   20    2      0.46     -1.07
    0   20    2      4.01      0.39
    1   20    2      0.40     -0.52
    2   20    2     -2.16      0.09
    3   20    2      0.49     -0.19
    4   20    2      1.52     -1.58
    5   20    2     -1.24     -1.07
    6   20    2      0.01      0.18
    7   20    2      2.07      0.73
    8   20    2     -0.85     -0.18
   -7   21    2     -1.03      0.43
   -6   21    2     -1.59      0.43
   -5   21    2      1.82      0.28
   -4   21    2     -1.25      0.49
   -3   21    2     -1.19     -0.13
   -2   21    2      1.44      2.00
   -1   21    2     -1.70      1.88
    0   21    2     -0.56     -2.65
    1   21    2      1.94     -1.30
    2   21    2     -0.96     -1.60
    3   21    2     -1.69      1.24
    4   21    2      1.37      0.42
    5   21    2     -0.51      0.15
    6   21    2     -0.87     -0.40
    7   21    2      1.17      0.78
   -6   22    2      0.04      0.80
   -5   22    2      0.52      0.59
   -4   22    2      0.79     -0.21
   -3   22    2     -1.51     -1.78
   -2   22    2      0.66     -0.49
   -1   22    2      0.30      0.28
    0   22    2     -2.32      1.56
    1   22    2     -1.09     -0.18
    2   22    2      2.60     -0.09
    3   22    2      0.25     -0.13
    4   22    2     -1.21      0.09
    5   22    2      2.36      1.04
    6   22    2     -0.84     -0.49
   -5   23    2     -0.71     -1.15
   -4   23    2      0.40      0.87
   -3   23    2      0.01     -0.59
   -2   23    2     -1.80     -1.66
   -1   23    2      1.00      0.00
    0   23    2     -0.62      0.08
    1   23    2     -0.72      1.54
    2   23    2      0.73     -0.05
    3   23    2      0.97     -0.23
    4   23    2     -1.09     -0.74
    5   23    2      0.38      0.34
   -4   24    2      0.13      1.24
   -3   24    2      0.69      0.57
   -2   24    2      0.30     -0.38
   -1   24    2     -0.72     -0.49
    0   24    2      0.85     -0.62
    1   24    2     -0.61     -0.12
    2   24    2      0.09      0.24
    3   24    2      0.41     -0.45
    4   24    2     -0.41      0.37
  -10    0    3     -1.61      0.01
   -9    0    3     -0.84      0.02
   -8    0    3      1.62      0.00
   -2    0    3      4.38     -0.01
   -1    0    3    -27.15      0.00
    0    0    3     34.24     -0.01
    3    0    3     38.42      0.00
    4    0    3     15.53      0.01
    5    0    3    -12.20      0.00
    6    0    3     12.27      0.02
    7    0    3      3.06      0.00
    8    0    3    -13.84     -0.02
    9    0    3     -0.05      0.00
   10    0    3      3.13      0.00
   11    0    3     -3.36      0.00
   12    0    3      1.66      0.01
   13    0    3      0.13      0.00
  -11    1    3     -1.11     -1.32
  -10    1    3      2.82     -0.99
   -9    1    3      1.31      2.50
   -8    1    3      0.82     -2.03
   -4    1    3     -7.57    -12.55
   -3    1    3     16.48     12.83
   -2    1    3     23.14     -3.32
   -1    1    3    -53.91     12.25
    0    1    3    -88.33      7.75
    1    1    3     67.18     12.42
    2    1    3     30.95    -11.60
    3    1    3    -16.17     14.72
    4    1    3     -2.68     -1.41
    5    1    3     -7.26     -4.43
    6    1    3     -0.34      9.49
    7    1    3      5.86     -2.99
    8    1    3     -4.83     -0.55
    9    1    3     -7.50      5.36
   10    1    3      2.94      0.00
   11    1    3     -0.48     -0.33
   12    1    3     -1.14      0.50
   13    1    3      2.70      0.55
  -11    2    3     -0.17      2.61
  -10    2    3      0.54     -2.99
   -9    2    3     -2.29     -0.22
   -8    2    3      0.26      1.68
   -5    2    3     -6.01     11.16
   -4    2    3     -0.61     -5.49
   -3    2    3     -9.05      9.10
   -2    2    3     -2.92      0.85
   -1    2    3     16.75    -24.99
    0    2    3    -15.45      1.84
    1    2    3     19.59     40.25
    2    2    3     29.30    -19.15
    3    2    3    -17.28    -21.59
    4    2    3    -16.85     21.16
    5    2    3      6.10     -0.06
    6    2    3     -8.14      2.76
    7    2    3     -3.85      3.13
    8    2    3     10.09    -10.11
    9    2    3      0.79     -0.41
   10    2    3     -1.08      1.59
   11    2    3     -0.44     -1.22
   12    2    3     -0.85      0.33
   13    2    3      0.43      0.91
  -12    3    3     -0.06     -0.69
  -11    3    3      1.07      2.59
  -10    3    3     -1.21      1.11
   -9    3    3     -0.77     -2.10
   -8    3    3     -1.44      3.27
   -6    3    3     -4.93     -7.52
   -5    3    3     -2.56      2.65
   -4    3    3     -0.98     16.08
   -3    3    3      7.22     -9.93
   -2    3    3    -14.99     -5.49
   -1    3    3     27.87    -14.71
    0    3    3     14.05    -16.97
    1    3    3    -22.07      1.05
    2    3    3    -35.89     16.90
    3    3    3      3.41    -19.13
    4    3    3      3.65     11.71
    5    3    3     -6.15      4.42
    6    3    3     -1.11    -14.64
    7    3    3     -1.13      7.87
    8    3    3      1.73      0.38
    9    3    3      0.21     -8.36
   10    3    3     -0.82      0.20
   11    3    3     -1.67      1.45
   12    3    3     -2.09      1.74
   13    3    3     -0.58     -0.43
  -12    4    3     -0.45      0.11
  -11    4    3     -0.47     -2.80
  -10    4    3      1.14     -1.80
   -9    4    3      1.97      2.12
   -8    4    3     -2.38     -2.07
   -7    4    3      1.13      0.77
   -6    4    3     -0.22     -4.02
   -5    4    3      1.94     -2.34
   -4    4    3     -2.01     -2.93
   -3    4    3      6.14     -5.80
   -2    4    3      5.90      5.65
   -1    4    3     -0.26     21.43
    0    4    3    -12.36    -11.16
    1    4    3    -11.72    -26.20
    2    4    3     -3.83     37.02
    3    4    3     -6.62      8.97
    4    4    3      9.93    -17.10
    5    4    3      4.40     -7.46
    6    4    3      0.45     -5.78
    7    4    3      1.84      2.94
    8    4    3      0.38      9.04
    9    4    3     -2.02     -0.38
   10    4    3     -1.40     -2.03
   11    4    3      5.01      1.46
   12    4    3     -1.59     -1.55
   13    4    3     -0.66      0.19
  -12    5    3      0.49     -0.08
  -11    5    3     -0.74     -1.06
  -10    5    3     -2.75      1.64
   -9    5    3      0.33     -2.11
   -8    5    3     -1.24     -0.28
   -7    5    3     -0.50     -1.10
   -6    5    3      4.21      2.84
   -5    5    3      0.65     -0.06
   -4    5    3      1.25      0.94
   -3    5    3     -6.90    -10.90
   -2    5    3     -8.13     11.65
   -1    5    3      3.99     13.97
    0    5    3     15.21      4.62
    1    5    3     -9.09    -26.23
    2    5    3      8.56      0.61
    3    5    3      8.27      1.08
    4    5    3     -1.90    -15.09
    5    5    3      3.38      2.91
    6    5    3      1.14      3.35
    7    5    3     -4.45     -7.32
    8    5    3      1.18     -0.37
    9    5    3      4.21      4.28
   10    5    3     -2.90     -1.36
   11    5    3      0.26     -0.99
   12    5    3      2.33     -4.09
   13    5    3     -2.34     -0.17
  -12    6    3      1.25     -1.33
  -11    6    3      2.66      0.16
  -10    6    3     -2.20      3.16
   -9    6    3      2.82     -1.18
   -8    6    3      2.60     -2.88
   -7    6    3     -1.42      3.25
   -6    6    3     -0.48      5.00
   -5    6    3      5.30     -6.84
   -4    6    3     -2.57      9.26
   -3    6    3     -3.22      5.22
   -2    6    3     -6.85    -19.12
   -1    6    3     -5.10      0.49
    0    6    3     13.13     15.80
    1    6    3      8.27     -6.36
    2    6    3     -5.03    -24.47
    3    6    3      0.26      1.05
    4    6    3      4.52      3.96
    5    6    3    -10.57      9.53
    6    6    3      5.19      7.03
    7    6    3      1.99     -4.81
    8    6    3     -7.00     -3.52
    9    6    3      1.47      1.65
   10    6    3      1.43      0.94
   11    6    3     -1.90     -0.66
   12    6    3      0.35      1.69
   13    6    3      0.38     -1.11
  -12    7    3     -1.96      0.45
  -11    7    3     -0.08     -1.43
  -10    7    3      3.44     -2.19
   -9    7    3     -0.48      3.80
   -8    7    3      0.95     -1.55
   -7    7    3     -3.26     -4.02
   -6    7    3     -4.61      5.71
   -5    7    3     -2.57     -2.03
   -4    7    3      1.63     -8.94
   -3    7    3     -1.60     14.14
   -2    7    3     16.42     -6.89
   -1    7    3     -8.48    -19.14
    0    7    3    -15.16     11.27
    1    7    3     10.76     11.16
    2    7    3     17.14     -4.37
    3    7    3    -14.21      5.74
    4    7    3     -5.27      4.46
    5    7    3      3.83     -2.41
    7    7    3      8.68      2.04
    8    7    3     -1.79     -1.80
    9    7    3     -2.34     -0.67
   10    7    3      1.00      0.31
   11    7    3      2.32      0.09
   12    7    3      0.52      1.02
   13    7    3      0.88     -0.60
  -12    8    3     -1.19      2.14
  -11    8    3     -0.60      0.69
  -10    8    3      1.44     -1.29
   -9    8    3     -0.85      0.09
   -8    8    3     -1.10      6.86
   -7    8    3      0.53     -4.69
   -6    8    3      0.56     -1.50
   -5    8    3     -6.44      5.02
   -4    8    3      3.47     -8.78
   -3    8    3      6.51     -3.63
   -2    8    3      2.73     15.68
   -1    8    3      6.06    -13.62
    0    8    3    -10.52     -2.20
    1    8    3     -7.03     16.80
    2    8    3      5.55      1.88
    3    8    3      6.73      1.34
    4    8    3     -5.18     -1.75
    5    8    3      4.01     -4.74
    6    8    3     -4.73     -3.56
    7    8    3     -2.09      1.45
    8    8    3      4.15     -0.11
    9    8    3     -0.24     -0.08
   10    8    3     -0.95      0.19
   11    8    3     -2.07      0.04
   12    8    3      1.07     -0.64
   13    8    3      1.40     -0.55
  -12    9    3      1.87     -0.58
  -11    9    3      1.02      1.00
  -10    9    3     -1.62      1.59
   -9    9    3     -1.22     -2.90
   -8    9    3     -0.60      1.41
   -7    9    3      2.62      1.48
   -6    9    3      3.88     -9.91
   -5    9    3      2.51      0.32
   -4    9    3     -1.53      3.64
   -3    9    3     -2.65     -2.01
   -2    9    3     -7.17      0.42
   -1    9    3      6.17     10.96
    0    9    3     10.70     -9.18
    1    9    3    -10.42      3.54
    2    9    3    -10.91     -4.43
    3    9    3      5.19     -5.95
    4    9    3      5.68      3.74
    5    9    3     -1.10     -2.42
    6    9    3     -4.50     -1.81
    7    9    3     -5.76      3.69
    8    9    3      1.54      2.47
    9    9    3      0.81     -0.79
   10    9    3      1.17      0.57
   11    9    3      0.22     -0.30
   12    9    3     -1.82      1.99
   13    9    3      0.30      0.67
  -12   10    3      0.01      0.54
  -11   10    3     -1.35     -0.83
  -10   10    3      1.12      1.16
   -9   10    3     -2.34      0.23
   -8   10    3      0.30     -2.75
   -7   10    3      0.04      3.00
   -6   10    3      3.34     -0.65
   -5   10    3     -0.92     -0.86
   -4   10    3      1.79      3.91
   -3   10    3     -5.10     -0.97
   -2   10    3     -4.05      3.12
   -1   10    3     -1.39      8.44
    0   10    3      9.87     -5.88
    1   10    3     -1.99    -14.05
    2   10    3     -7.28      4.42
    3   10    3     -0.68      0.04
    4   10    3     -0.55      3.56
    5   10    3      3.18      0.45
    6   10    3      2.13     -2.68
    7   10    3     -1.94      0.86
    8   10    3     -0.96      1.07
    9   10    3      0.12     -2.16
   10   10    3     -0.56      0.61
   11   10    3      2.52     -0.64
   12   10    3      0.17      0.71
  -12   11    3      0.36      0.66
  -11   11    3     -1.97      0.62
  -10   11    3      0.74     -1.74
   -9   11    3      2.34     -0.40
   -8   11    3      0.15     -0.07
   -7   11    3     -2.11      0.73
   -6   11    3     -0.27      4.04
   -5   11    3      2.53     -0.23
   -4   11    3     -1.35     -2.53
   -3   11    3      9.29     -2.02
   -2   11    3     -6.30     -0.20
   -1   11    3     -3.87      3.87
    0   11    3      2.12     -5.33
    1   11    3     10.82     -4.18
    2   11    3     -2.84      4.83
    3   11    3     -0.54     -0.90
    4   11    3      0.08     -3.21
    5   11    3     -2.26      2.41
    6   11    3      3.47     -1.40
    7   11    3      0.70     -4.81
    8   11    3     -0.95      0.19
    9   11    3     -0.99      1.29
   10   11    3     -0.19      0.89
   11   11    3     -1.77      0.26
   12   11    3      0.58     -1.79
  -12   12    3      0.86     -1.13
  -11   12    3      0.32      1.44
  -10   12    3     -1.70     -0.86
   -9   12    3      0.27      0.21
   -8   12    3      0.90     -2.24
   -7   12    3     -2.48      2.36
   -6   12    3     -2.40      1.11
   -5   12    3      4.65      1.81
   -4   12    3     -0.90     -3.70
   -3   12    3     -3.40      2.95
   -2   12    3      5.58     -9.39
   -1   12    3     -4.19     -0.85
    0   12    3     -6.47      7.78
    1   12    3      3.59     -1.26
    2   12    3      6.69     -0.84
    3   12    3     -3.56     -3.97
    4   12    3      0.69     -2.16
    5   12    3     -2.11      2.98
    6   12    3      1.55      2.05
    7   12    3      2.00     -2.78
    8   12    3      0.58     -0.92
    9   12    3      0.02      1.34
   10   12    3      0.22     -0.16
   11   12    3     -1.40     -0.02
   12   12    3     -0.42     -0.36
  -11   13    3      0.80     -0.29
  -10   13    3      0.88      0.52
   -9   13    3     -1.51      1.07
   -8   13    3      0.18      0.72
   -7   13    3      4.19     -2.05
   -6   13    3     -1.28      1.00
   -5   13    3     -0.80     -0.86
   -4   13    3      1.33      3.30
   -3   13    3     -2.21     -0.41
   -2   13    3      1.62      2.45
   -1   13    3      5.18     -8.28
    0   13    3     -6.37     10.21
    1   13    3     -2.95      2.27
    2   13    3      7.97     -2.00
    3   13    3      3.18      2.00
    4   13    3     -0.25     -2.09
    5   13    3      1.58     -1.68
    6   13    3      1.19      1.44
    7   13    3     -0.83      2.90
    8   13    3     -1.18     -1.17
    9   13    3      1.45     -0.43
   10   13    3     -0.02     -2.39
   11   13    3     -0.48      0.33
   12   13    3      0.35      0.38
  -11   14    3      0.41      0.06
  -10   14    3     -0.31      0.00
   -9   14    3      1.63     -0.19
   -8   14    3     -3.52      0.80
   -7   14    3      2.74     -1.24
   -6   14    3      0.05     -3.57
   -5   14    3     -4.53      0.82
   -4   14    3     -2.56      2.03
   -3   14    3      6.65      1.84
   -2   14    3     -2.47      1.41
   -1   14    3     -0.07     -4.29
    0   14    3      5.89     -7.12
    1   14    3     -1.08      4.69
    2   14    3      0.17      1.24
    3   14    3      1.47      2.98
    4   14    3      3.27     -1.08
    5   14    3     -1.38     -1.75
    6   14    3     -2.86     -0.08
    7   14    3      0.62      2.45
    8   14    3      0.29      0.51
    9   14    3     -0.28      0.21
   10   14    3      0.77     -1.33
   11   14    3      0.01     -0.89
  -11   15    3     -0.10      0.19
  -10   15    3     -1.43     -0.03
   -9   15    3      0.46     -1.19
   -8   15    3      0.82     -0.75
   -7   15    3     -3.59      1.33
   -6   15    3      1.91      2.90
   -5   15    3     -0.36     -0.02
   -4   15    3      0.01      1.14
   -3   15    3     -2.25     -0.34
   -2   15    3      5.10      0.68
   -1   15    3     -2.14      2.12
    0   15    3      0.27     -0.71
    1   15    3     -1.99     -2.46
    2   15    3     -1.48      2.51
    3   15    3     -1.62      3.10
    4   15    3      2.36      3.02
    5   15    3      1.49     -0.12
    6   15    3     -3.74     -1.68
    7   15    3      0.80      0.43
    8   15    3      1.61     -0.46
    9   15    3     -0.12     -0.22
   10   15    3     -0.14      1.31
   11   15    3      1.20     -0.60
  -10   16    3     -0.26      0.20
   -9   16    3      0.59     -0.31
   -8   16    3     -0.04      0.45
   -7   16    3      0.38     -2.37
   -6   16    3     -0.35      2.75
   -5   16    3      1.65     -0.18
   -4   16    3      1.24     -2.69
   -3   16    3     -1.84     -2.91
   -2   16    3     -1.55      1.01
   -1   16    3      4.99      2.15
    0   16    3     -0.77      4.12
    1   16    3     -1.44      1.92
    2   16    3     -0.80     -3.99
    3   16    3     -0.08      2.28
    4   16    3     -3.92     -0.12
    5   16    3      2.03     -0.46
    6   16    3      2.39      0.05
    7   16    3     -1.28      0.80
    8   16    3     -0.16     -0.30
    9   16    3      0.79     -1.01
   10   16    3      0.09      1.35
  -10   17    3      0.05      0.48
   -9   17    3      0.38      0.36
   -8   17    3      1.56      0.63
   -7   17    3     -1.25     -0.41
   -6   17    3      0.43     -2.62
   -5   17    3     -2.78      1.84
   -4   17    3     -1.40     -1.87
   -3   17    3      1.69      0.31
   -2   17    3     -4.45      1.25
   -1   17    3     -4.62      0.74
    0   17    3      4.82     -2.91
    1   17    3     -0.45      4.72
    2   17    3     -1.20     -1.98
    3   17    3      1.12     -2.71
    4   17    3     -1.75      0.76
    5   17    3     -2.67      2.32
    6   17    3      2.04      1.95
    7   17    3      2.63     -1.50
    8   17    3     -0.59      0.74
    9   17    3     -0.90     -0.71
   10   17    3     -0.57      0.12
   -9   18    3     -0.55     -0.70
   -8   18    3      2.01      0.20
   -7   18    3     -1.10     -0.13
   -6   18    3     -0.67     -1.30
   -5   18    3      1.18     -1.09
   -4   18    3      0.30      2.03
   -3   18    3      0.07      0.64
   -2   18    3      2.58      0.68
   -1   18    3     -3.41      1.15
    0   18    3     -2.46     -2.35
    1   18    3      4.45     -3.13
    2   18    3     -1.82      3.92
    3   18    3      1.30     -3.57
    4   18    3      0.58      0.02
    5   18    3     -1.15      2.64
    6   18    3     -0.57     -0.10
    7   18    3      0.12     -1.87
    8   18    3     -0.39      0.91
    9   18    3     -0.56      0.07
   -9   19    3     -0.46      0.71
   -8   19    3     -1.32     -0.24
   -7   19    3      0.65      0.10
   -6   19    3      0.72     -0.39
   -5   19    3      0.87      0.62
   -4   19    3     -0.97      0.38
   -3   19    3     -0.18     -1.52
   -2   19    3      2.18     -4.46
   -1   19    3      3.04     -0.37
    0   19    3     -4.96      0.93
    1   19    3      0.11     -1.69
    2   19    3      0.09      0.71
    3   19    3     -1.72      2.65
    4   19    3     -0.40     -0.57
    5   19    3      0.09     -1.23
    6   19    3      0.72      0.38
    7   19    3     -2.50     -0.75
    8   19    3     -0.46     -0.35
    9   19    3      0.74      1.12
   -8   20    3      1.33      1.26
   -7   20    3      0.00      1.54
   -6   20    3      1.03     -1.07
   -5   20    3      0.77      0.24
   -4   20    3     -0.67     -0.24
   -3   20    3     -0.26      0.68
   -2   20    3      0.24     -0.48
   -1   20    3      0.87     -2.31
    0   20    3      1.16      3.34
    1   20    3     -1.65      0.77
    2   20    3      1.31     -0.32
    3   20    3     -1.52      0.56
    4   20    3      1.30      0.88
    5   20    3      0.59     -2.24
    6   20    3     -0.44     -0.02
    7   20    3      0.44      0.36
    8   20    3      0.74     -0.97
   -7   21    3      0.50      0.85
   -6   21    3     -1.90     -0.65
   -5   21    3      0.37     -1.62
   -4   21    3      1.54     -0.42
   -3   21    3     -0.67      1.47
   -2   21    3     -1.61      2.94
   -1   21    3      2.08     -0.04
    0   21    3      1.15     -1.11
    1   21    3      0.66     -1.38
    2   21    3      0.20     -0.56
    3   21    3     -2.11     -1.23
    4   21    3      0.46     -0.27
    5   21    3      0.06     -0.06
    6   21    3     -0.42     -0.79
    7   21    3      1.04      1.19
   -6   22    3     -0.08      1.51
   -5   22    3     -0.33      1.21
   -4   22    3      0.11     -0.05
   -3   22    3     -0.37     -0.89
   -2   22    3     -0.02      1.07
   -1   22    3     -0.71      1.70
    0   22    3      2.21     -0.48
    1   22    3     -1.99     -0.74
    2   22    3      0.13     -0.67
    3   22    3      0.28      0.71
    4   22    3      0.00      0.49
    5   22    3     -0.46      0.68
    6   22    3      0.42     -0.06
   -5   23    3      0.24     -0.39
   -4   23    3      0.23     -0.14
   -3   23    3      0.52     -0.87
   -2   23    3     -0.47     -0.47
   -1   23    3     -0.59     -1.04
    0   23    3      0.10      1.44
    1   23    3      0.00      1.25
    2   23    3      0.18     -0.67
    3   23    3      0.65      0.36
    4   23    3      0.45     -0.56
    5   23    3      0.26      0.22
   -4   24    3     -0.49     -0.38
   -3   24    3      0.52      1.18
   -2   24    3     -0.44     -0.45
   -1   24    3     -0.20      0.35
    0   24    3     -1.00     -0.68
    1   24    3     -0.60      1.08
    2   24    3      0.52      0.61
    3   24    3     -0.01     -0.08
  -10    0    4     -2.49      0.01
   -9    0    4     -1.85      0.01
   -8    0    4     -0.59      0.00
   -4    0    4      2.93     -0.01
   -3    0    4    -11.32      0.00
   -2    0    4     -9.82      0.01
   -1    0    4      7.73      0.00
    0    0    4     87.92     -0.01
    1    0    4     -7.61      0.00
    2    0    4    -76.67      0.02
    4    0    4     37.63      0.00
    5    0    4      3.50      0.01
    6    0    4     -1.64      0.01
    7    0    4     12.48     -0.01
    8    0    4     -9.59      0.02
    9    0    4     -0.30      0.01
   10    0    4     10.01      0.00
   11    0    4     -1.65     -0.01
   12    0    4      0.41      0.00
   13    0    4     -0.17      0.00
  -11    1    4     -0.60      0.66
  -10    1    4     -1.28     -1.60
   -9    1    4      1.57      1.32
   -8    1    4      1.53      1.75
   -4    1    4      9.08     -8.69
   -3    1    4     -2.16     -9.26
   -2    1    4     12.42     17.62
   -1    1    4    -23.27      4.34
    0    1    4    -29.34     -1.09
    1    1    4     13.29    -11.01
    2    1    4     19.03    -11.62
    3    1    4     -6.44     12.45
    4    1    4      7.09     -1.55
    5    1    4      3.92     -5.05
    6    1    4     -4.06      0.65
    7    1    4     12.00     -1.93
    8    1    4     -0.03      1.62
    9    1    4    -15.27      1.99
   10    1    4      1.88      1.88
   11    1    4      2.90     -0.80
   12    1    4     -0.87      0.43
   13    1    4      1.14     -0.72
  -11    2    4     -1.11      1.18
  -10    2    4      1.47      0.11
   -9    2    4      1.21     -3.73
   -8    2    4      1.90      1.83
   -5    2    4     -1.36      9.72
   -4    2    4     -5.02     -0.48
   -3    2    4      1.17    -14.73
   -2    2    4     17.32      3.63
   -1    2    4    -22.63     24.07
    0    2    4    -45.79    -10.44
    1    2    4     15.07     29.28
    2    2    4     52.78    -11.30
    3    2    4      7.33    -13.11
    4    2    4    -21.32      8.54
    5    2    4      1.16      0.79
    6    2    4     -0.18     11.55
    7    2    4     -5.09      1.12
    8    2    4      5.03     -4.28
    9    2    4      0.43      2.24
   10    2    4     -3.08      4.11
   11    2    4      0.76     -0.21
   12    2    4      0.31      0.21
   13    2    4      1.60      1.36
  -11    3    4      0.21     -0.12
  -10    3    4      0.33      5.09
   -9    3    4     -3.83     -3.22
   -8    3    4      0.55     -0.71
   -6    3    4     -0.87     -3.71
   -5    3    4     -2.36     -5.83
   -4    3    4      0.54     16.42
   -3    3    4    -16.38     11.85
   -2    3    4      5.20    -22.51
   -1    3    4     18.71    -10.97
    0    3    4      1.30     -9.53
    1    3    4     14.12     27.64
    2    3    4     -1.93     12.11
    3    3    4     -2.33    -25.69
    4    3    4     -6.05      4.63
    5    3    4      2.25     12.68
    6    3    4     -3.53     -0.57
    7    3    4     -7.11      2.14
    8    3    4      5.07     -1.67
    9    3    4      1.92     -6.13
   10    3    4      1.60     -1.14
   11    3    4     -2.69      1.36
   12    3    4     -1.83     -0.14
   13    3    4     -0.20      2.11
  -12    4    4     -0.60      0.37
  -11    4    4      0.68      0.40
  -10    4    4      1.63     -1.88
   -9    4    4      0.62      3.28
   -8    4    4     -1.89      0.40
   -7    4    4      2.53      3.82
   -6    4    4     -3.46      0.23
   -5    4    4     -6.19     -8.48
   -4    4    4     10.06      0.19
   -3    4    4      7.45     13.44
   -2    4    4    -15.01    -10.74
   -1    4    4     27.92     -0.96
    0    4    4     -8.86     -7.71
    1    4    4    -20.41    -21.43
    2    4    4     -7.75     25.17
    3    4    4     -3.51     18.75
    4    4    4     -3.60     -2.86
    5    4    4     -0.28     -2.60
    6    4    4      3.08    -10.70
    7    4    4     -5.85      0.16
    8    4    4      2.98     10.06
    9    4    4     -0.87     -2.33
   10    4    4     -3.96     -4.09
   11    4    4      1.15      2.00
   12    4    4     -1.11      1.82
   13    4    4     -1.52     -0.41
  -12    5    4     -0.25      0.55
  -11    5    4     -1.54     -0.95
  -10    5    4      0.11     -3.22
   -9    5    4     -0.86      1.29
   -8    5    4     -1.77     -1.51
   -7    5    4     -1.20     -1.39
   -6    5    4      7.05     -0.99
   -5    5    4     -2.50      2.07
   -4    5    4     -7.14     -7.03
   -3    5    4     15.51     -1.97
   -2    5    4     -4.45      1.26
   -1    5    4    -10.28     16.30
    0    5    4     12.22     18.83
    1    5    4    -18.16    -29.81
    2    5    4    -14.23      4.94
    3    5    4     14.75     19.59
    4    5    4      1.98     -4.43
    5    5    4     -1.79    -12.81
    6    5    4      5.90     -0.15
    7    5    4     -3.06     -2.72
    8    5    4     -2.96      0.83
    9    5    4      5.91      6.58
   10    5    4     -1.77     -2.31
   11    5    4      0.40      0.24
   12    5    4      1.46     -2.46
   13    5    4     -0.97     -0.90
  -12    6    4      0.42      1.04
  -11    6    4      1.72     -1.26
  -10    6    4     -3.54      2.63
   -9    6    4     -1.98      0.81
   -8    6    4      2.49     -3.44
   -7    6    4     -1.22     -1.38
   -6    6    4     -0.13      5.05
   -5    6    4      9.73      3.56
   -4    6    4     -3.75      1.70
   -3    6    4     -9.61      1.36
   -2    6    4     -4.32      2.73
   -1    6    4     -5.61    -13.54
    0    6    4     14.32     19.71
    1    6    4     14.55      3.16
    2    6    4    -18.58    -24.29
    3    6    4     -1.45     -8.64
    4    6    4     14.02     -1.32
    5    6    4     -6.41      2.28
    6    6    4     -2.33      6.13
    7    6    4      3.63     -0.14
    8    6    4     -4.55     -9.98
    9    6    4     -1.52      1.74
   10    6    4      2.56      1.40
   11    6    4     -2.01     -0.82
   12    6    4      0.41     -0.93
   13    6    4     -0.75     -1.34
  -12    7    4     -0.13     -1.66
  -11    7    4      0.21      0.93
  -10    7    4      0.99     -2.49
   -9    7    4      2.76      1.67
   -8    7    4      1.12     -0.23
   -7    7    4      2.07     -3.13
   -6    7    4     -8.24      2.82
   -5    7    4      0.98      3.32
   -4    7    4      7.81     -2.09
   -3    7    4     -3.06      2.12
   -2    7    4    -10.14      1.61
   -1    7    4     -0.93    -11.44
    0    7    4     -0.71    -11.06
    1    7    4      6.82     15.53
    2    7    4     17.27     -8.35
    3    7    4    -15.45     -9.08
    4    7    4     -2.07      7.81
    5    7    4     -1.95      2.31
    6    7    4     -0.62      2.67
    7    7    4      8.22      4.72
    8    7    4     -0.78     -1.49
    9    7    4     -3.74     -3.06
   10    7    4     -0.46      1.22
   11    7    4      0.90     -0.70
   12    7    4      0.80      2.74
   13    7    4      0.50      0.40
  -12    8    4     -0.36     -0.38
  -11    8    4     -2.74      1.03
  -10    8    4      1.12     -1.18
   -9    8    4      2.76     -1.64
   -8    8    4     -1.38      2.74
   -7    8    4     -1.33      0.74
   -6    8    4     -1.69     -1.46
   -5    8    4    -10.05      3.67
   -4    8    4     -5.03     -2.79
   -3    8    4      8.76     -8.47
   -2    8    4     18.51      6.08
   -1    8    4    -10.18     -0.31
    0    8    4    -12.85    -10.98
    1    8    4     -0.80      6.27
    2    8    4     14.55     12.68
    3    8    4      4.59     -1.90
    4    8    4     -9.62      1.40
    5    8    4      1.55      1.96
    6    8    4     -0.13     -4.04
    7    8    4      3.74     -0.86
    8    8    4      2.67      0.95
    9    8    4      1.04     -0.11
   10    8    4      0.51     -0.71
   11    8    4     -1.43     -1.01
   12    8    4      0.09     -1.72
   13    8    4      1.95      0.46
  -12    9    4     -0.58     -0.52
  -11    9    4      2.86      0.04
  -10    9    4     -1.30      2.56
   -9    9    4     -1.09     -1.24
   -8    9    4      0.34      1.40
   -7    9    4      0.61      1.04
   -6    9    4      1.57     -1.78
   -5    9    4      1.91     -3.81
   -4    9    4     -2.95      2.93
   -3    9    4     -2.88     -3.74
   -2    9    4      8.09     -0.16
   -1    9    4     13.91      0.91
    0    9    4    -10.98     -1.50
    1    9    4     -3.64      9.27
    2    9    4     -3.55      5.81
    3    9    4      2.89     -1.71
    4    9    4      4.96     -6.93
    5    9    4      2.90      1.87
    6    9    4     -4.88     -0.99
    7    9    4     -6.25     -1.56
    8    9    4      1.82      1.95
    9    9    4      0.98      0.23
   10    9    4      0.75      0.20
   11    9    4      0.18      0.40
   12    9    4     -2.78     -1.42
   13    9    4      0.67     -0.64
  -12   10    4     -0.08     -0.10
  -11   10    4      0.82     -1.45
  -10   10    4      1.36      0.84
   -9   10    4     -1.82      1.05
   -8   10    4     -3.51     -0.24
   -7   10    4      2.24     -0.81
   -6   10    4      2.68     -4.27
   -5   10    4     -0.22     -4.78
   -4   10    4      4.46      2.26
   -3   10    4     -4.95      6.56
   -2   10    4    -12.60     -5.27
   -1   10    4      6.05      8.03
    0   10    4     13.19     -0.67
    1   10    4     -7.92     -7.81
    2   10    4     -6.89     -0.78
    3   10    4     -0.38      2.44
    4   10    4     -3.26      1.13
    5   10    4      4.10     -1.10
    6   10    4      2.35     -0.36
    7   10    4     -4.55      1.85
    8   10    4     -1.44      4.60
    9   10    4      1.29     -1.74
   10   10    4     -0.11     -1.04
   11   10    4      3.27      1.06
   12   10    4      0.72      1.21
  -12   11    4      0.13      2.73
  -11   11    4     -1.72     -1.01
  -10   11    4      0.16      0.08
   -9   11    4      1.20     -0.90
   -8   11    4      1.31      0.30
   -7   11    4     -2.67      0.47
   -6   11    4      2.66      3.30
   -5   11    4     -2.37     -1.97
   -4   11    4     -2.47      0.68
   -3   11    4      5.59     -0.09
   -2   11    4      0.89      3.24
   -1   11    4    -11.31      8.41
    0   11    4      4.80      1.94
    1   11    4      7.62    -15.92
    2   11    4     -9.48     -0.17
    3   11    4      1.81      5.72
    4   11    4     -1.14      2.06
    5   11    4     -4.16      0.39
    6   11    4      3.92     -0.15
    7   11    4      1.81     -3.68
    8   11    4     -1.00     -0.59
    9   11    4     -1.59      0.34
   10   11    4     -1.14      0.25
   11   11    4      1.63      0.55
   12   11    4      1.51      0.34
  -12   12    4      0.68     -0.22
  -11   12    4     -0.02      1.00
  -10   12    4     -0.87      0.24
   -9   12    4     -0.74     -0.59
   -8   12    4      2.54     -1.76
   -7   12    4     -0.99     -1.06
   -6   12    4     -3.70      2.11
   -5   12    4      5.28      3.46
   -4   12    4     -0.12     -5.09
   -3   12    4     -1.09     -0.34
   -2   12    4      0.96     -5.52
   -1   12    4      3.24      0.09
    0   12    4     -5.39      3.89
    1   12    4      5.85     -1.83
    2   12    4      0.82     -1.76
    3   12    4     -5.38     -2.11
    4   12    4      1.91     -2.83
    5   12    4     -2.14     -0.69
    6   12    4     -2.14      4.18
    7   12    4      1.00     -2.96
    8   12    4      1.94     -3.08
    9   12    4     -0.92      2.19
   10   12    4     -1.16      1.78
   11   12    4     -1.01      0.30
   12   12    4     -0.14      0.28
  -11   13    4     -1.62      0.01
  -10   13    4      1.61     -0.65
   -9   13    4     -1.06      2.13
   -8   13    4     -1.13     -0.20
   -7   13    4     -0.09      0.40
   -6   13    4      1.21     -1.20
   -5   13    4     -0.75      1.54
   -4   13    4      5.17     -2.20
   -3   13    4     -4.89      2.90
   -2   13    4     -5.16     -2.72
   -1   13    4      3.10     -8.22
    0   13    4     -1.33      7.85
    1   13    4     -6.93      3.62
    2   13    4      5.17     -3.25
    3   13    4      1.30     -3.31
    4   13    4     -3.10      1.48
    5   13    4      0.48     -2.82
    6   13    4      2.86      0.30
    7   13    4     -0.16      2.36
    8   13    4     -0.88     -1.19
    9   13    4      1.25      0.14
   10   13    4      1.13     -0.02
   11   13    4     -2.08     -0.81
  -11   14    4      0.01     -0.36
  -10   14    4     -0.04     -0.98
   -9   14    4      1.46      0.29
   -8   14    4     -0.85      2.10
   -7   14    4      1.64      0.05
   -6   14    4      1.13     -1.61
   -5   14    4     -0.23     -2.51
   -4   14    4     -2.68     -0.61
   -3   14    4      5.59      0.23
   -2   14    4      0.54      9.57
   -1   14    4     -1.90     -6.49
    0   14    4     -0.69     -2.30
    1   14    4      2.91      5.10
    2   14    4      0.44     -1.02
    3   14    4      3.87     -2.53
    4   14    4      3.58      1.35
    5   14    4     -1.98     -1.86
    6   14    4      1.01     -3.63
    7   14    4     -0.48      2.41
    8   14    4     -1.29      0.38
    9   14    4     -0.08      0.34
   10   14    4      0.91     -1.19
   11   14    4     -0.83     -0.93
  -10   15    4     -0.90     -0.40
   -9   15    4     -1.07     -0.28
   -8   15    4     -1.04     -1.69
   -7   15    4      1.20      1.53
   -6   15    4     -0.51     -2.12
   -5   15    4     -0.96      2.22
   -4   15    4     -2.28      2.06
   -3   15    4      0.78     -3.13
   -2   15    4      2.83      1.81
   -1   15    4      0.90      2.22
    0   15    4      0.48     -9.34
    1   15    4     -0.36     -0.94
    2   15    4      1.80      3.37
    3   15    4     -4.19     -1.53
    4   15    4      4.86     -0.01
    5   15    4      1.55      2.71
    6   15    4     -3.98     -1.86
    7   15    4     -0.65     -0.78
    8   15    4      1.54      0.57
    9   15    4     -0.20      0.91
   10   15    4     -0.46     -0.13
   11   15    4      0.64     -0.96
  -10   16    4     -0.20     -0.38
   -9   16    4      0.69     -0.69
   -8   16    4     -1.25     -0.05
   -7   16    4     -1.86     -0.76
   -6   16    4      2.97      3.17
   -5   16    4      1.44     -0.49
   -4   16    4      1.15      4.27
   -3   16    4     -1.31     -0.61
   -2   16    4      0.21     -4.33
   -1   16    4      0.63      3.04
    0   16    4      2.78      4.95
    1   16    4     -3.60     -4.64
    2   16    4     -0.10      3.28
    3   16    4      0.52      2.78
    4   16    4     -0.67     -1.65
    5   16    4      2.92      0.43
    6   16    4      0.91     -1.26
    7   16    4     -1.01      1.25
    8   16    4     -0.11     -0.14
    9   16    4      1.12     -1.26
   10   16    4     -0.27      0.92
   -9   17    4      1.63     -0.25
   -8   17    4      0.76      0.68
   -7   17    4     -1.16     -0.69
   -6   17    4     -1.84      0.72
   -5   17    4      2.12     -0.39
   -4   17    4     -0.65     -2.37
   -3   17    4     -0.11      0.37
   -2   17    4      0.53     -0.56
   -1   17    4     -2.52     -0.04
    0   17    4      0.58      1.87
    1   17    4      3.70      3.27
    2   17    4     -0.77     -3.22
    3   17    4      0.25      1.80
    4   17    4     -0.57     -1.51
    5   17    4     -1.65     -1.19
    6   17    4      1.52      1.00
    7   17    4      1.62      1.54
    8   17    4     -0.61      0.97
    9   17    4      0.92     -1.52
   10   17    4     -0.38     -0.05
   -9   18    4     -1.04     -0.39
   -8   18    4      2.48     -0.59
   -7   18    4      0.90      0.93
   -6   18    4     -2.55     -0.44
   -5   18    4     -3.01      0.32
   -4   18    4      1.49     -0.03
   -3   18    4     -0.98      1.03
   -2   18    4     -0.51      1.15
   -1   18    4     -1.87      2.34
    0   18    4     -1.64     -2.12
    1   18    4     -0.50     -0.01
    2   18    4      3.33      0.75
    3   18    4      0.19     -0.94
    4   18    4      0.19     -0.64
    5   18    4     -0.06      2.79
    6   18    4     -1.88      2.69
    7   18    4      2.63     -1.74
    8   18    4     -0.06      0.38
    9   18    4     -1.07      0.15
   -8   19    4     -1.09     -0.51
   -7   19    4      0.29     -1.94
   -6   19    4      0.93      0.42
   -5   19    4     -0.49     -0.85
   -4   19    4      0.00      0.47
   -3   19    4      0.81      2.24
   -2   19    4     -0.51     -1.83
   -1   19    4      2.72     -1.07
    0   19    4     -1.65      1.03
    1   19    4     -0.88     -1.78
    2   19    4     -0.33     -0.15
    3   19    4      1.68      2.01
    4   19    4     -0.73     -0.60
    5   19    4     -0.18     -0.73
    6   19    4     -0.58      1.77
    7   19    4     -0.15     -0.84
    8   19    4     -1.29     -0.27
    9   19    4     -0.60     -0.05
   -8   20    4     -0.42      0.05
   -7   20    4     -0.27     -0.13
   -6   20    4      0.61     -0.11
   -5   20    4      1.05      1.29
   -4   20    4     -1.01     -1.39
   -3   20    4     -1.36     -0.19
   -2   20    4      0.68     -1.26
   -1   20    4      0.90     -2.43
    0   20    4     -1.21     -0.30
    1   20    4     -0.71      3.40
    2   20    4     -0.96     -0.93
    3   20    4     -0.19      0.52
    4   20    4     -0.89      3.92
    5   20    4      0.43     -2.06
    6   20    4     -0.33     -0.88
    7   20    4     -0.98     -0.28
    8   20    4      0.43     -0.54
   -7   21    4      0.75      0.73
   -6   21    4      0.15     -0.61
   -5   21    4     -0.73     -0.20
   -4   21    4      1.52     -0.61
   -3   21    4      1.19     -0.69
   -2   21    4     -2.61      2.06
   -1   21    4      0.62     -1.01
    0   21    4      0.49      0.98
    1   21    4      0.48     -0.23
    2   21    4      0.35      0.53
    3   21    4     -0.11     -1.72
    4   21    4     -0.70      0.39
    5   21    4      1.10      0.16
    6   21    4      0.60     -0.58
    7   21    4     -1.00     -1.18
   -6   22    4      0.31     -0.24
   -5   22    4     -1.00      0.81
   -4   22    4     -0.91     -0.01
   -3   22    4      1.52     -0.39
   -2   22    4     -1.28      0.47
   -1   22    4     -0.27      0.97
    0   22    4      1.23     -0.47
    1   22    4      0.72     -1.66
    2   22    4     -1.00     -0.20
    3   22    4     -1.32     -1.18
    4   22    4     -0.26      0.05
    5   22    4     -0.70      0.09
    6   22    4      1.17      0.52
   -5   23    4      0.50      0.96
   -4   23    4     -0.76      1.02
   -3   23    4     -0.49     -1.18
   -2   23    4      1.59      0.13
   -1   23    4     -0.96     -0.24
    0   23    4      1.45     -0.05
    1   23    4      0.15     -0.29
    2   23    4     -0.32      0.87
    3   23    4      0.28     -0.63
    4   23    4      0.67      0.78
    5   23    4     -0.54      0.57
   -3   24    4      0.33     -0.20
   -2   24    4      0.06      0.10
   -1   24    4     -0.25     -0.79
    0   24    4     -0.03      0.11
    1   24    4     -0.19     -0.16
    2   24    4      0.53      0.36
    3   24    4      0.00      0.45
  -10    0    5      1.37      0.00
   -9    0    5     -4.30     -0.03
   -8    0    5      1.68      0.00
   -5    0    5      3.55      0.00
   -4    0    5     -3.29     -0.01
   -3    0    5    -22.64      0.00
   -2    0    5     20.29      0.00
   -1    0    5     21.82      0.01
    0    0    5     -5.11      0.00
    1    0    5     33.38      0.00
    2    0    5    -33.18      0.03
    3    0    5    -45.37     -0.01
    4    0    5     19.35     -0.01
    5    0    5      6.42      0.01
    6    0    5     -6.68     -0.03
    7    0    5      2.56      0.00
    8    0    5     -4.19      0.04
    9    0    5      3.03      0.00
   10    0    5      5.86      0.01
   11    0    5      0.75      0.00
   12    0    5     -1.63      0.00
   13    0    5      0.31      0.00
  -10    1    5      0.54     -1.11
   -9    1    5     -2.89      0.15
   -8    1    5     -1.47      1.92
   -5    1    5     -0.98     -3.18
   -4    1    5     22.54      4.25
   -3    1    5     -9.57     -1.75
   -2    1    5    -28.54     -2.66
   -1    1    5     36.24      2.12
    0    1    5     25.08      5.91
    1    1    5    -25.20    -16.63
    2    1    5    -11.60     -1.50
    3    1    5    -18.02     13.67
    4    1    5      5.72     -3.23
    5    1    5     18.66     -3.50
    6    1    5     -5.09     -4.32
    7    1    5      7.15     -3.00
    8    1    5      6.24     -1.28
    9    1    5     -7.18      2.63
   10    1    5     -0.43     -2.11
   11    1    5      4.71     -1.84
   12    1    5      0.35      0.52
   13    1    5     -0.31     -1.39
  -11    2    5     -0.49      0.57
  -10    2    5     -1.81      0.35
   -9    2    5      4.25     -1.18
   -8    2    5     -0.11      0.09
   -6    2    5      0.92      1.52
   -5    2    5      2.27      1.67
   -4    2    5      2.07     -3.94
   -3    2    5      9.57     -4.85
   -2    2    5     -3.74      2.20
   -1    2    5    -16.65     10.26
    0    2    5    -10.36     14.47
    1    2    5    -24.40    -13.80
    2    2    5     26.46    -24.00
    3    2    5     23.51      4.73
    4    2    5     -9.67      3.57
    5    2    5     -3.56     -7.26
    6    2    5      0.81      1.58
    7    2    5      3.46      4.47
    8    2    5      1.59     -4.29
    9    2    5     -3.15     -0.67
   10    2    5     -4.02      8.53
   11    2    5      2.16     -2.78
   12    2    5      0.97      0.25
   13    2    5      0.73      0.24
  -11    3    5     -0.46     -1.82
  -10    3    5      1.13      2.25
   -9    3    5     -0.96     -0.44
   -8    3    5      0.66     -3.26
   -7    3    5      1.69     -0.92
   -6    3    5      2.42      0.24
   -5    3    5     -0.65      3.71
   -4    3    5      0.32     -1.93
   -3    3    5    -11.67     -1.96
   -2    3    5      2.33      4.68
   -1    3    5     -3.17     -3.26
    0    3    5     -3.04    -10.99
    1    3    5      2.93     30.92
    2    3    5     19.18      3.00
    3    3    5     11.14    -30.30
    4    3    5     -9.85     -1.63
    5    3    5      3.61      9.66
    6    3    5      0.04      5.87
    7    3    5     -4.46      5.56
    8    3    5      1.34      0.79
    9    3    5      4.29     -7.15
   10    3    5     -0.22      3.74
   11    3    5      1.37      2.79
   12    3    5      0.03     -2.53
   13    3    5      0.29      2.77
  -11    4    5     -1.43     -0.18
  -10    4    5      1.16      2.90
   -9    4    5      1.96     -1.75
   -8    4    5     -2.75      2.61
   -7    4    5      0.04      3.83
   -6    4    5      2.44      0.83
   -5    4    5    -10.02     -7.11
   -4    4    5      1.93      2.78
   -3    4    5      8.29      9.65
   -2    4    5    -14.08     -4.42
   -1    4    5      6.60     -9.21
    0    4    5     25.50    -17.80
    1    4    5      3.31      6.59
    2    4    5    -10.09     13.44
    3    4    5      6.35      2.57
    4    4    5     -8.65     -6.17
    5    4    5     -0.98      9.41
    6    4    5      5.32     -1.12
    7    4    5     -5.92     -8.77
    8    4    5     -0.32      8.55
    9    4    5      3.41     -0.31
   10    4    5      0.07     -6.14
   11    4    5     -4.13      1.27
   12    4    5      1.12      1.88
  -12    5    5      0.41      0.41
  -11    5    5      0.42      0.67
  -10    5    5     -1.05     -2.65
   -9    5    5      3.69     -0.20
   -8    5    5      0.15      1.63
   -7    5    5     -4.97      3.42
   -6    5    5      5.14      0.55
   -5    5    5      2.00     -5.40
   -4    5    5    -10.58     -7.46
   -3    5    5     16.89      4.44
   -2    5    5     15.55     -1.34
   -1    5    5    -13.72      5.88
    0    5    5     -8.17      3.88
    1    5    5      4.44    -13.38
    2    5    5    -16.45     -3.22
    3    5    5      1.28     25.25
    4    5    5      7.52     11.13
    5    5    5     -7.46    -11.31
    6    5    5      4.30     -2.24
    7    5    5      0.61     -4.95
    8    5    5     -4.53      3.83
    9    5    5      1.10      5.85
   10    5    5      1.91      0.05
   11    5    5     -2.32     -0.79
   12    5    5     -0.62      1.39
   13    5    5      0.85     -0.80
  -12    6    5     -0.59      0.87
  -11    6    5      0.93     -0.04
  -10    6    5      0.37     -1.34
   -9    6    5     -7.49      2.27
   -8    6    5      2.09     -1.08
   -7    6    5     -0.73     -3.73
   -5    6    5      8.41      4.71
   -4    6    5     -3.15     -1.59
   -3    6    5     -9.31     -4.96
   -2    6    5     11.29      5.29
   -1    6    5     -1.04      5.07
    0    6    5    -11.79     14.10
    1    6    5      9.51     -0.29
    2    6    5    -12.36     -0.95
    3    6    5     -5.18     -7.25
    4    6    5     12.47      1.22
    5    6    5      4.54     -4.50
    6    6    5     -3.95      0.42
    7    6    5     -0.21      2.90
    8    6    5     -0.81     -4.57
    9    6    5     -1.12      0.63
   10    6    5      2.14      0.22
   11    6    5      0.67      2.19
   12    6    5     -0.54     -2.35
   13    6    5     -0.72     -2.11
  -12    7    5      0.18      0.13
  -11    7    5      0.90      0.06
  -10    7    5      0.26      0.92
   -9    7    5     -2.12     -0.01
   -8    7    5      1.53      1.28
   -7    7    5      2.92     -2.92
   -5    7    5      3.89      5.39
   -4    7    5      8.04      6.24
   -3    7    5     -5.85      1.80
   -2    7    5    -16.23      2.79
   -1    7    5      1.25     -8.41
    0    7    5      7.67      0.62
    1    7    5      6.63      3.67
    2    7    5      0.01     -5.72
    3    7    5     -8.56     -8.50
    4    7    5      1.80     -4.60
    5    7    5     -0.95      1.59
    6    7    5     -3.31      4.41
    7    7    5      2.10      4.28
    8    7    5      1.72     -3.97
    9    7    5     -5.87     -1.82
   10    7    5     -1.01     -0.22
   11    7    5     -0.46     -0.53
   12    7    5      0.54      3.00
   13    7    5     -0.30     -0.15
  -12    8    5      0.62     -1.22
  -11    8    5     -1.51      1.36
  -10    8    5     -0.94     -1.55
   -9    8    5      3.47     -1.58
   -8    8    5      1.44     -0.44
   -7    8    5      0.10      1.89
   -6    8    5     -5.21     -2.32
   -5    8    5     -2.40      4.51
   -4    8    5      2.45      1.71
   -3    8    5     -2.60     -5.89
   -2    8    5      2.90      0.89
   -1    8    5     -5.28      3.33
    0    8    5     -6.17    -13.79
    1    8    5     -2.11     -2.96
    2    8    5     18.10      3.98
    3    8    5     -1.19     -2.28
    4    8    5     -7.08      7.33
    5    8    5     -1.43     -0.07
    6    8    5     -1.73     -2.69
    7    8    5      4.27      5.16
    8    8    5      4.93     -0.89
    9    8    5     -2.05     -1.93
   10    8    5     -1.59      1.20
   11    8    5      0.90     -0.95
   12    8    5     -0.65      0.33
   13    8    5      1.29      2.39
  -12    9    5     -0.05     -1.03
  -11    9    5     -0.91      0.26
  -10    9    5      0.84      1.77
   -9    9    5     -1.08     -0.33
   -8    9    5      0.02     -2.40
   -7    9    5      1.60      4.38
   -6    9    5     -1.14      2.23
   -5    9    5     -7.81     -1.66
   -4    9    5     -0.07      5.75
   -3    9    5     -1.11     -8.10
   -2    9    5      7.62     -7.12
   -1    9    5     10.75      9.09
    0    9    5     -9.26     -3.53
    1    9    5    -12.66     -1.79
    2    9    5     10.32     12.01
    3    9    5      5.62     -0.51
    4    9    5     -2.54     -6.10
    5    9    5      3.45      6.48
    6    9    5      0.77     -4.94
    7    9    5     -4.97     -3.28
    8    9    5      1.53      1.31
    9    9    5      4.18      0.03
   10    9    5     -0.76     -0.96
   11    9    5     -1.42     -0.96
   12    9    5     -1.11     -2.22
  -12   10    5     -0.16     -1.05
  -11   10    5      1.27     -1.47
  -10   10    5      0.35      0.98
   -9   10    5      1.52      2.24
   -8   10    5     -4.67     -0.94
   -7   10    5      0.13     -0.86
   -6   10    5      4.72      1.54
   -5   10    5      1.42     -7.10
   -4   10    5     -0.89     -1.82
   -3   10    5      4.56     12.43
   -2   10    5     -7.99    -10.06
   -1   10    5      3.82     -7.64
    0   10    5     12.65      7.43
    1   10    5     -5.96      6.53
    2   10    5     -6.32     -1.33
    3   10    5      3.99      3.66
    4   10    5     -0.50     -5.65
    5   10    5      1.63     -0.85
    6   10    5      3.09      2.97
    7   10    5     -2.90     -3.23
    8   10    5     -5.97      3.47
    9   10    5      2.90      2.37
   10   10    5      1.41     -1.49
   11   10    5     -0.72     -0.73
   12   10    5     -0.74     -0.72
  -12   11    5     -0.47      1.02
  -11   11    5      0.56      0.04
  -10   11    5     -1.07     -2.10
   -9   11    5      1.39      1.03
   -8   11    5      0.22      1.60
   -7   11    5     -2.98     -1.91
   -6   11    5      0.76     -0.42
   -5   11    5      0.02      0.57
   -4   11    5     -2.25     -6.33
   -3   11    5     -0.24      6.13
   -2   11    5      2.21      6.55
   -1   11    5    -10.20     -2.06
    0   11    5      1.42      0.90
    1   11    5      8.07     -1.31
    2   11    5     -6.90     -9.50
    3   11    5      1.08      5.32
    4   11    5     -0.67      6.18
    5   11    5     -2.69     -0.85
    6   11    5      1.00      0.43
    7   11    5      4.31      0.42
    8   11    5     -1.82      0.94
    9   11    5     -1.26     -0.34
   10   11    5      0.75     -1.40
   11   11    5      2.04      1.02
   12   11    5      1.44     -0.36
  -11   12    5      0.65      0.10
  -10   12    5     -0.03      1.54
   -9   12    5     -1.45     -2.93
   -8   12    5      2.32      1.10
   -7   12    5      2.87     -1.56
   -6   12    5     -3.32      1.28
   -5   12    5     -2.07      4.07
   -4   12    5     -1.46      2.56
   -3   12    5      2.05     -6.44
   -2   12    5      5.67      2.50
   -1   12    5     -0.02      7.18
    0   12    5     -5.42      0.25
    1   12    5      5.90     -3.44
    2   12    5     -2.22     -1.57
    3   12    5     -1.95      1.26
    4   12    5      1.97      0.09
    5   12    5     -2.25      1.21
    6   12    5     -2.70      3.73
    7   12    5      1.38     -2.63
    8   12    5      1.64     -2.89
    9   12    5     -0.84     -0.89
   10   12    5     -2.19      1.22
   11   12    5      1.10      1.05
   12   12    5      1.30      0.47
  -11   13    5     -0.56     -0.56
  -10   13    5     -0.09      1.29
   -9   13    5      0.39      0.72
   -8   13    5     -1.62     -1.17
   -7   13    5     -1.00     -0.76
   -6   13    5      0.69     -1.85
   -5   13    5      1.56      2.02
   -4   13    5      0.70     -0.25
   -3   13    5     -3.12      0.93
   -2   13    5     -3.10     -7.33
   -1   13    5      3.53     -4.88
    0   13    5      1.92      0.07
    1   13    5      0.73      4.55
    2   13    5     -3.83      0.64
    3   13    5     -1.21     -2.24
    4   13    5     -1.89     -1.17
    5   13    5     -0.64     -3.85
    6   13    5     -1.62      4.53
    7   13    5      0.49      1.46
    8   13    5      0.95     -2.03
    9   13    5     -0.74     -0.35
   10   13    5      0.65      1.47
   11   13    5     -0.34      0.30
  -11   14    5     -1.71     -0.66
  -10   14    5      0.23     -0.92
   -9   14    5      0.69      0.40
   -8   14    5      2.47      2.58
   -7   14    5     -3.75      1.38
   -6   14    5      0.73     -0.79
   -5   14    5      1.24     -2.22
   -4   14    5      2.28     -2.71
   -3   14    5     -3.05      0.59
   -2   14    5     -2.66      5.45
   -1   14    5      0.06     -0.86
    0   14    5     -4.47     -2.48
    1   14    5      0.46      1.84
    2   14    5      0.32      3.58
    3   14    5      0.93     -3.89
    4   14    5     -0.83      3.91
    5   14    5      0.04     -1.29
    6   14    5      1.76     -4.91
    7   14    5     -0.87      2.48
    8   14    5      0.79      1.67
    9   14    5     -1.24     -1.26
   10   14    5      1.66      0.05
   11   14    5     -0.34     -0.72
  -10   15    5      0.28      0.20
   -9   15    5     -0.99     -0.34
   -8   15    5      0.07     -0.91
   -7   15    5      3.02      1.89
   -6   15    5     -1.60     -1.09
   -5   15    5     -1.27     -2.74
   -4   15    5     -1.04     -0.71
   -3   15    5      3.47     -2.58
   -2   15    5      0.08      2.66
   -1   15    5      4.95      5.63
    0   15    5     -3.10     -2.46
    1   15    5      1.67     -5.17
    2   15    5      3.30      2.14
    3   15    5     -2.28     -2.20
    4   15    5      1.57     -1.44
    5   15    5      0.36      2.77
    6   15    5      0.27     -2.01
    7   15    5     -3.00     -3.51
    8   15    5      0.29      0.77
    9   15    5      0.05      1.40
   10   15    5     -0.13      0.01
   11   15    5      0.03     -0.65
  -10   16    5      0.24     -0.39
   -9   16    5     -1.77      1.25
   -8   16    5     -1.27     -2.26
   -7   16    5     -0.27     -0.21
   -6   16    5      1.95      0.09
   -5   16    5      0.25      1.11
   -4   16    5     -1.10      2.38
   -3   16    5     -0.75      0.62
   -2   16    5     -1.35     -3.93
   -1   16    5      2.40     -1.46
    0   16    5      4.17      2.47
    1   16    5     -5.66     -3.86
    2   16    5      0.86     -0.72
    3   16    5     -2.17      1.40
    4   16    5     -0.95      0.25
    5   16    5      2.01     -0.01
    6   16    5     -0.09      0.47
    7   16    5     -1.15     -1.06
    8   16    5      0.24     -1.48
    9   16    5      0.32      1.46
   10   16    5     -0.54     -0.20
   -9   17    5      0.45     -0.53
   -8   17    5      0.02      1.52
   -7   17    5     -0.75     -0.64
   -6   17    5     -0.11      0.89
   -5   17    5      3.08     -0.98
   -4   17    5      2.23      1.58
   -3   17    5      0.48      0.17
   -2   17    5     -1.21     -0.28
   -1   17    5     -2.05     -2.46
    0   17    5      2.44      4.52
    1   17    5      0.74      0.67
    2   17    5     -2.04     -0.08
    3   17    5      1.69      1.04
    4   17    5      0.06     -1.14
    5   17    5     -0.92     -1.77
    6   17    5      2.58     -2.84
    7   17    5      0.10      1.91
    8   17    5     -0.30      0.99
    9   17    5      1.68     -0.05
   10   17    5      0.05     -0.67
   -9   18    5      0.29      0.08
   -8   18    5     -0.28     -0.56
   -7   18    5      2.02      0.89
   -6   18    5     -1.42      1.83
   -5   18    5     -2.64     -1.12
   -4   18    5     -0.15     -2.25
   -3   18    5      1.82      0.71
   -2   18    5      2.05     -0.38
   -1   18    5     -3.87      0.11
    0   18    5     -1.30      1.12
    1   18    5      2.16      1.03
    2   18    5      1.47     -2.61
    3   18    5     -0.61      0.47
    4   18    5      1.93     -1.77
    5   18    5     -1.43     -0.69
    6   18    5     -1.00      1.81
    7   18    5      2.20      0.60
    8   18    5      0.03     -0.27
    9   18    5      1.11      0.82
   -8   19    5     -0.27      0.15
   -7   19    5     -0.08     -1.32
   -6   19    5      1.04      0.64
   -5   19    5     -1.49      1.17
   -4   19    5     -0.63     -0.70
   -3   19    5     -0.70      1.55
   -2   19    5      1.91      2.97
   -1   19    5      0.08     -1.94
    0   19    5      0.22     -0.76
    1   19    5     -2.34      1.86
    2   19    5      1.35     -1.60
    3   19    5      2.01     -0.03
    4   19    5      0.65     -0.13
    5   19    5      1.80      0.20
    6   19    5     -1.62      1.68
    7   19    5      0.98      1.90
    8   19    5     -0.47     -0.80
   -7   20    5     -1.45     -1.04
   -6   20    5      0.30     -1.13
   -5   20    5      1.12      0.45
   -4   20    5      0.50     -0.32
   -3   20    5     -1.41      0.38
   -2   20    5     -0.28      0.47
   -1   20    5      2.05      1.01
    0   20    5      1.21     -5.15
    1   20    5     -0.60      1.99
    2   20    5     -1.74      2.19
    3   20    5      1.14     -0.83
    4   20    5     -0.41      0.79
    5   20    5     -0.05      0.10
    6   20    5     -0.55     -0.88
    7   20    5      0.24      0.71
    8   20    5     -0.99      0.82
   -7   21    5     -0.31      0.53
   -6   21    5      0.27      0.43
   -5   21    5     -0.20      0.56
   -4   21    5      0.66     -0.92
   -3   21    5     -0.11     -0.80
   -2   21    5      0.13     -0.40
   -1   21    5     -1.72      2.56
    0   21    5     -1.11     -0.59
    1   21    5      1.33     -0.02
    2   21    5     -0.57      1.85
    3   21    5      0.47      0.31
    4   21    5     -0.41      1.59
    5   21    5      0.47      0.33
    6   21    5     -0.96     -0.74
    7   21    5     -0.45     -1.15
   -6   22    5      0.46     -0.91
   -5   22    5      0.03      0.40
   -4   22    5      0.21      0.47
   -3   22    5      1.21     -0.64
   -2   22    5     -1.26     -0.92
   -1   22    5      0.12      1.27
    0   22    5     -2.72      1.77
    1   22    5      1.64     -0.69
    2   22    5      1.08     -0.64
    3   22    5     -0.81     -1.03
    4   22    5     -0.86     -0.28
    5   22    5      0.91     -0.20
    6   22    5      0.21      0.20
   -5   23    5     -0.18      0.92
   -4   23    5     -0.59      1.18
   -3   23    5     -0.07      0.69
   -2   23    5     -1.16     -1.95
   -1   23    5      1.12     -0.05
    0   23    5     -0.81      0.95
    1   23    5     -0.29     -1.17
    2   23    5     -0.23      0.34
    3   23    5     -0.42     -0.39
    4   23    5     -0.91     -0.54
    5   23    5     -0.25      0.65
   -2   24    5     -0.05      0.20
   -1   24    5     -0.06     -1.96
    0   24    5      0.87     -0.06
    1   24    5      0.06     -0.37
    2   24    5     -0.63     -0.29
    3   24    5      0.66      0.36
  -10    0    6      3.27      0.00
   -9    0    6     -2.53      0.02
   -8    0    6      1.27     -0.01
   -6    0    6     -5.69      0.00
   -5    0    6     -2.33      0.01
   -4    0    6     -3.53      0.01
   -3    0    6     -2.53      0.00
   -2    0    6      9.33      0.00
   -1    0    6     -6.24      0.00
    0    0    6    -15.55      0.00
    1    0    6     23.95      0.01
    2    0    6     25.87      0.00
    3    0    6    -14.97      0.01
    4    0    6     -4.47     -0.01
    5    0    6     -4.78     -0.01
    6    0    6      1.76      0.01
    7    0    6     -4.33      0.00
    8    0    6     -5.78     -0.02
    9    0    6     -1.66     -0.02
   10    0    6      3.84      0.01
   11    0    6     -1.47      0.02
   12    0    6     -2.51      0.00
   13    0    6     -0.04      0.00
  -10    1    6      4.12      0.12
   -9    1    6     -2.39     -0.20
   -8    1    6     -3.31      0.13
   -6    1    6     -0.33      0.17
   -5    1    6    -11.50     -2.64
   -4    1    6      0.43      1.32
   -3    1    6      7.85      4.47
   -2    1    6      2.09     -1.90
   -1    1    6      8.44    -14.14
    0    1    6     10.15      7.61
    1    1    6      9.50      9.81
    2    1    6    -16.50     -2.92
    3    1    6    -31.65      6.41
    4    1    6     -2.87      6.27
    5    1    6     10.37     -2.81
    6    1    6     -0.84      0.25
    7    1    6      0.43      0.39
    8    1    6      3.19     -6.26
    9    1    6      0.76      4.76
   10    1    6     -1.37     -0.97
   11    1    6      2.63     -2.44
   12    1    6     -0.54     -0.10
   13    1    6      0.72      0.40
  -11    2    6     -0.32      0.79
  -10    2    6     -1.50     -0.62
   -9    2    6     -0.15      0.54
   -8    2    6     -0.01      1.00
   -6    2    6     -2.08     -0.82
   -5    2    6      1.10     -0.62
   -4    2    6      5.86      1.85
   -3    2    6      2.57     -0.91
   -2    2    6     -6.50      3.67
   -1    2    6     10.80     -3.27
    0    2    6      4.70      1.03
    1    2    6    -25.44      9.66
    2    2    6     -8.41    -10.53
    3    2    6      8.40      1.24
    4    2    6      3.56      9.65
    5    2    6      0.05     -3.13
    6    2    6     -2.00    -11.85
    7    2    6      1.07      6.29
    8    2    6      5.80     -4.22
    9    2    6     -0.57     -5.76
   10    2    6     -4.64      3.97
   11    2    6      0.29     -0.16
   12    2    6      1.70     -2.42
   13    2    6     -0.44     -0.99
  -11    3    6     -0.70      0.71
  -10    3    6      0.06     -1.99
   -9    3    6      1.23      2.30
   -8    3    6     -1.46     -2.29
   -7    3    6      3.08     -3.50
   -6    3    6      1.48     -1.59
   -5    3    6     -0.12      5.02
   -4    3    6      3.47      1.67
   -3    3    6      2.65     -8.22
   -2    3    6     -8.80      3.32
   -1    3    6    -10.07     15.97
    0    3    6      3.20     -4.93
    1    3    6    -21.95    -12.30
    2    3    6      6.51      8.48
    3    3    6     18.32    -11.73
    4    3    6      0.31    -12.54
    5    3    6     -4.86      4.62
    6    3    6      0.18     -1.49
    7    3    6      1.12      5.68
    8    3    6     -3.55      6.62
    9    3    6      3.14     -7.69
   10    3    6     -2.04      0.03
   11    3    6      2.16      4.22
   12    3    6      0.65     -0.51
   13    3    6      0.36     -1.07
  -11    4    6     -1.31     -0.72
  -10    4    6     -1.60      1.27
   -9    4    6      3.07      0.84
   -8    4    6     -1.39     -2.29
   -7    4    6     -1.65     -1.81
   -6    4    6      5.48      1.26
   -5    4    6     -1.38      1.92
   -4    4    6    -11.10     -2.44
   -3    4    6     -1.09     -1.01
   -2    4    6      1.47      3.92
   -1    4    6    -18.36     -3.88
    0    4    6     19.22     -6.87
    1    4    6     16.32      0.69
    2    4    6     -7.94      8.14
    3    4    6      4.66     -2.76
    4    4    6     -3.52    -15.87
    5    4    6      0.24      7.48
    6    4    6      1.25      6.39
    7    4    6      2.40     -5.01
    8    4    6     -3.53      2.29
    9    4    6      3.15      2.59
   10    4    6      1.95     -3.94
   11    4    6      1.04     -0.71
   12    4    6      1.06     -0.50
   13    4    6     -0.73      2.30
  -11    5    6      1.49      0.98
  -10    5    6     -2.83      1.04
   -9    5    6      3.47     -3.29
   -8    5    6      4.52      1.69
   -7    5    6     -4.39      4.52
   -6    5    6     -4.25      1.57
   -5    5    6      4.98     -3.71
   -4    5    6     -3.63     -1.07
   -3    5    6     -7.24     -3.23
   -2    5    6     14.34     -0.66
   -1    5    6      2.88      3.60
    0    5    6     -4.30    -14.55
    1    5    6     16.66      3.68
    2    5    6     -2.68     -9.71
    3    5    6     -5.44     11.40
    4    5    6      0.09      9.26
    5    5    6     -3.51      1.22
    6    5    6      0.46      0.09
    7    5    6      2.05    -10.15
    8    5    6     -1.66      1.01
    9    5    6     -0.29      4.19
   10    5    6      2.04      1.38
   11    5    6     -3.26     -2.07
   12    5    6      0.86      1.12
  -11    6    6      0.57      0.36
  -10    6    6      1.93     -1.13
   -9    6    6     -1.18     -1.09
   -8    6    6     -2.84      0.83
   -7    6    6      1.84      1.66
   -5    6    6      2.68     -7.88
   -4    6    6      4.65     -1.13
   -3    6    6     -1.12      1.73
   -2    6    6      8.79    -14.82
   -1    6    6      9.82     13.41
    0    6    6    -19.60     10.18
    1    6    6     -1.41     -5.27
    2    6    6      4.91      0.37
    3    6    6     -8.56      4.40
    4    6    6      2.17      8.31
    5    6    6      7.31     -5.12
    6    6    6      0.35      0.98
    7    6    6      0.41     -2.36
    8    6    6     -2.72      0.13
    9    6    6      0.03      3.00
   10    6    6      3.40      1.46
   11    6    6      0.41      0.58
   12    6    6     -1.63      1.38
   13    6    6      1.53     -1.74
  -11    7    6      0.63     -1.41
  -10    7    6      1.45      0.27
   -9    7    6     -3.09      2.56
   -8    7    6     -2.47      1.09
   -7    7    6      1.57     -3.72
   -6    7    6      4.30      0.91
   -5    7    6     -0.26     -0.12
   -4    7    6      1.92     -4.49
   -3    7    6      1.75      9.87
   -2    7    6     -5.51      5.81
   -1    7    6      4.34    -12.54
    0    7    6     -6.04     15.29
    1    7    6      3.66      7.76
    2    7    6     -2.37     -2.94
    3    7    6     -2.76     -4.97
    4    7    6      0.34     -5.44
    5    7    6      4.51     -5.09
    6    7    6     -2.20      2.40
    7    7    6     -1.16      5.25
    8    7    6      3.64     -2.97
    9    7    6     -4.44     -1.45
   10    7    6      0.21      0.77
   11    7    6      0.86     -0.27
   12    7    6     -0.02     -0.74
   13    7    6     -0.25      0.23
  -11    8    6      0.47      0.67
  -10    8    6     -0.24     -0.14
   -9    8    6     -0.79     -2.49
   -8    8    6      3.67      3.45
   -7    8    6      1.48     -2.06
   -6    8    6     -1.80     -3.61
   -5    8    6      1.80      5.58
   -4    8    6      5.38      3.52
   -3    8    6      0.10     -2.89
   -2    8    6    -12.28     11.94
   -1    8    6      2.86     -3.83
    0    8    6      4.72     -9.71
    1    8    6     -4.35      0.71
    2    8    6      2.78     -0.36
    3    8    6      1.64     -6.62
    4    8    6     -1.77      5.47
    5    8    6     -4.00     -1.42
    6    8    6     -2.90     -1.40
    7    8    6     -2.46      5.95
    8    8    6      6.74      1.62
    9    8    6     -1.77     -4.59
   10    8    6     -5.12      0.92
   11    8    6      0.87      2.26
   12    8    6     -0.03      1.17
   13    8    6      0.46      0.93
  -11    9    6     -2.07      0.21
  -10    9    6      0.42      0.95
   -9    9    6      0.71     -1.36
   -8    9    6     -0.85     -2.34
   -7    9    6      1.44      3.63
   -6    9    6     -0.01     -0.58
   -5    9    6     -5.87      0.37
   -4    9    6     -0.74      7.42
   -3    9    6      0.74     -8.74
   -2    9    6     -2.61     -5.69
   -1    9    6     -0.38      9.53
    0    9    6      6.43     -0.61
    1    9    6    -12.34    -16.08
    2    9    6      2.21      6.42
    3    9    6      8.51      3.29
    4    9    6     -3.46     -1.32
    5    9    6     -0.67      4.83
    6    9    6      3.52     -3.80
    7    9    6     -3.50      0.12
    8    9    6      0.34      0.33
    9    9    6      4.34     -0.06
   10    9    6     -0.99     -1.25
   11    9    6     -0.05      0.57
   12    9    6     -0.13      1.06
  -11   10    6     -0.39     -0.86
  -10   10    6     -0.20      0.14
   -9   10    6      0.99      2.80
   -8   10    6     -0.21     -1.90
   -7   10    6     -3.42      0.02
   -6   10    6      3.25      6.06
   -5   10    6      1.48     -2.51
   -4   10    6     -3.70     -0.83
   -3   10    6      3.22      2.09
   -2   10    6      3.02     -2.83
   -1   10    6     -5.50     -4.84
    0   10    6     10.67      3.76
    1   10    6     -2.96      4.62
    2   10    6     -5.78      2.20
    3   10    6      1.11      2.61
    4   10    6      4.49     -6.45
    5   10    6     -2.41      0.94
    6   10    6      5.43     -0.93
    7   10    6     -0.81     -3.74
    8   10    6     -5.29     -0.02
    9   10    6      1.48      2.11
   10   10    6      1.91      0.93
   11   10    6     -2.43     -2.75
   12   10    6     -0.67     -1.38
  -11   11    6      1.02      0.95
  -10   11    6     -1.03     -1.59
   -9   11    6      0.54      0.47
   -8   11    6      0.48      1.56
   -7   11    6     -2.52     -0.50
   -6   11    6     -0.92     -2.10
   -5   11    6      5.73     -1.00
   -4   11    6      1.67     -5.04
   -3   11    6     -1.82      3.56
   -2   11    6      3.45      2.15
   -1   11    6     -8.97     -4.29
    0   11    6      0.78     -3.24
    1   11    6      8.83      6.97
    2   11    6     -1.71     -1.14
    3   11    6     -3.74     -3.36
    4   11    6      2.65      1.36
    5   11    6      0.04      0.68
    6   11    6     -1.29     -0.86
    7   11    6      4.47     -1.05
    8   11    6     -3.97      1.92
    9   11    6     -0.30      3.01
   10   11    6      1.60     -1.41
   11   11    6     -1.24     -0.07
   12   11    6     -0.59     -0.99
  -10   12    6      0.14      0.11
   -9   12    6     -0.79     -0.77
   -8   12    6      0.84     -0.95
   -7   12    6      1.90      1.46
   -6   12    6     -1.57      0.06
   -5   12    6     -3.58      0.81
   -4   12    6     -1.17      1.70
   -3   12    6     -2.60      0.44
   -2   12    6      8.87      1.14
   -1   12    6     -3.16      5.53
    0   12    6    -12.10      2.97
    1   12    6      2.36     -2.31
    2   12    6      6.49     -7.94
    3   12    6     -1.90      3.99
    4   12    6     -0.48      0.41
    5   12    6      2.36      2.21
    6   12    6     -4.12      2.03
    7   12    6      3.27      1.00
    8   12    6      1.41     -2.02
    9   12    6     -1.43     -0.30
   10   12    6      0.67     -0.97
   11   12    6     -0.26      0.21
   12   12    6      0.50      0.30
  -10   13    6      0.00      1.06
   -9   13    6     -0.49     -0.23
   -8   13    6     -1.30     -0.43
   -7   13    6      3.71     -2.49
   -6   13    6     -1.44      0.12
   -5   13    6     -1.66      3.93
   -4   13    6      1.74      3.45
   -3   13    6     -1.38     -0.61
   -2   13    6      1.92     -1.62
   -1   13    6      6.49     -3.40
    0   13    6     -1.75     -1.52
    1   13    6     -0.23      6.12
    2   13    6      1.27     -2.47
    3   13    6     -0.36      0.89
    4   13    6     -0.52     -0.87
    5   13    6      1.37     -3.67
    6   13    6     -3.19      4.39
    7   13    6      0.25      2.00
    8   13    6      1.57     -1.73
    9   13    6     -0.76     -2.54
   10   13    6     -1.49      0.92
   11   13    6      0.97      0.72
  -10   14    6     -0.44      0.55
   -9   14    6      0.79     -0.38
   -8   14    6     -0.87      0.45
   -7   14    6     -1.22      1.93
   -6   14    6      0.64     -2.15
   -5   14    6     -1.29     -0.92
   -4   14    6      2.86      1.98
   -3   14    6     -1.89     -0.07
   -2   14    6     -6.88     -3.78
   -1   14    6      1.10      0.29
    0   14    6      1.47     -9.60
    1   14    6     -1.64      2.49
    2   14    6     -2.13      5.55
    3   14    6      1.83     -2.00
    4   14    6     -2.19      1.48
    5   14    6     -0.42     -1.22
    6   14    6     -0.90     -0.54
    7   14    6      0.85      1.93
    8   14    6      0.81      1.88
    9   14    6     -1.14     -1.04
   10   14    6     -0.35     -0.28
   11   14    6      1.26     -0.10
   -9   15    6      1.41      0.23
   -8   15    6      1.61     -0.30
   -7   15    6     -1.85      0.91
   -6   15    6      0.53      4.34
   -5   15    6     -0.43     -4.48
   -4   15    6     -1.57     -3.80
   -3   15    6      1.44      2.68
   -2   15    6     -0.35      0.72
   -1   15    6      0.21      5.95
    0   15    6     -2.41      3.29
    1   15    6     -0.20     -6.36
    2   15    6      0.41      2.13
    3   15    6      3.18      2.55
    4   15    6     -0.98     -0.67
    5   15    6      0.57      2.04
    6   15    6      1.79     -0.49
    7   15    6     -2.67     -2.66
    8   15    6      1.02      2.06
    9   15    6     -0.24     -1.03
   10   15    6     -0.32      0.40
   -9   16    6     -0.94      1.42
   -8   16    6     -0.47     -0.60
   -7   16    6      0.59     -3.36
   -6   16    6     -0.71     -0.04
   -5   16    6      0.03      3.00
   -4   16    6     -1.51     -3.88
   -3   16    6      0.35     -0.57
   -2   16    6     -1.63      0.30
   -1   16    6      5.29     -0.87
    0   16    6      3.72      1.96
    1   16    6     -0.04     -0.59
    2   16    6     -0.86     -4.82
    3   16    6     -0.65     -0.16
    4   16    6     -1.62      2.13
    5   16    6     -0.84      0.00
    6   16    6      2.23      2.49
    7   16    6     -3.06     -3.68
    8   16    6     -1.34     -1.32
    9   16    6      0.55      0.57
   10   16    6     -0.04      0.20
   -9   17    6     -1.18      0.10
   -8   17    6      0.00      0.87
   -7   17    6     -0.42     -0.18
   -6   17    6      0.59     -2.68
   -5   17    6      0.84      1.07
   -4   17    6      0.77      3.72
   -3   17    6      0.53     -0.59
   -2   17    6     -3.68     -0.85
   -1   17    6     -2.49     -2.12
    0   17    6      4.42     -0.33
    1   17    6      0.05      1.06
    2   17    6     -4.26      1.71
    3   17    6     -0.50     -2.18
    4   17    6     -0.31      2.72
    5   17    6     -2.17      0.54
    6   17    6      1.26     -1.94
    7   17    6      0.57     -0.05
    8   17    6     -0.58     -1.21
    9   17    6     -0.79      0.96
   -9   18    6      0.47     -0.51
   -8   18    6      0.00      0.96
   -7   18    6      1.02      0.36
   -6   18    6      0.01      0.97
   -5   18    6      1.03     -1.45
   -4   18    6     -1.22     -1.09
   -3   18    6      2.67     -0.04
   -2   18    6      2.44      0.56
   -1   18    6     -3.89     -0.93
    0   18    6     -3.36      2.06
    1   18    6      4.15      0.75
    2   18    6      0.64      0.33
    3   18    6     -2.85     -0.08
    4   18    6      2.08     -1.69
    5   18    6     -0.98     -1.79
    6   18    6     -0.69     -1.85
    7   18    6      0.22      0.46
    8   18    6      1.61     -0.07
    9   18    6      0.93      0.93
   -8   19    6     -0.55      0.43
   -7   19    6      0.83      0.57
   -6   19    6      0.45      0.09
   -5   19    6     -0.92      1.44
   -4   19    6     -1.91     -0.18
   -3   19    6     -1.75     -2.83
   -2   19    6      4.02      1.22
   -1   19    6      0.20     -0.42
    0   19    6     -2.92     -0.14
    1   19    6     -1.05      0.44
    2   19    6      2.68     -1.51
    3   19    6     -0.92     -1.27
    4   19    6      0.26     -0.06
    5   19    6      1.40     -0.63
    6   19    6     -0.51      0.02
    7   19    6     -0.08      1.72
    8   19    6      0.37     -1.28
   -7   20    6     -1.03      0.43
   -6   20    6     -0.35     -0.79
   -5   20    6      0.73     -1.69
   -4   20    6      0.97      2.38
   -3   20    6     -2.02      0.72
   -2   20    6     -0.45      0.13
   -1   20    6      3.12     -0.02
    0   20    6      2.16     -2.25
    1   20    6     -1.52     -0.88
    2   20    6     -0.54      1.06
    3   20    6      0.99      0.14
    4   20    6      1.20     -1.87
    5   20    6      0.51      0.76
    6   20    6      0.65     -0.53
    7   20    6      0.80      1.96
    8   20    6     -0.60      0.33
   -6   21    6     -0.94      0.74
   -5   21    6     -0.36     -1.11
   -4   21    6      1.27     -1.50
   -3   21    6     -1.04      0.49
   -2   21    6      0.61      0.54
   -1   21    6      0.26      1.46
    0   21    6      2.09     -1.99
    1   21    6     -0.46     -0.89
    2   21    6     -0.47      1.33
    3   21    6      0.30      1.25
    4   21    6     -0.39     -0.14
    5   21    6      0.03      0.75
    6   21    6     -1.04     -0.84
    7   21    6      0.52      0.09
   -6   22    6      0.39      0.71
   -5   22    6     -0.14     -0.40
   -4   22    6      1.33     -0.16
   -3   22    6     -0.12     -0.88
   -2   22    6      0.40     -0.55
   -1   22    6     -0.82      2.44
    0   22    6     -0.78      1.68
    1   22    6      0.28      0.21
    2   22    6      0.84      0.12
    3   22    6      1.44      0.76
    4   22    6     -0.47     -0.10
    5   22    6      0.54      0.97
    6   22    6     -0.70     -0.48
   -5   23    6     -0.28     -0.18
   -4   23    6      1.21      0.05
   -3   23    6      0.55      1.82
   -2   23    6     -1.28     -2.35
   -1   23    6     -0.52     -0.18
    0   23    6     -1.12      2.33
    1   23    6      0.27      0.90
    2   23    6      0.55     -0.95
    3   23    6      0.05     -0.12
    4   23    6     -0.87     -1.06
   -1   24    6     -0.17     -1.16
    0   24    6     -0.60     -0.53
    1   24    6     -0.21      1.48
    2   24    6     -0.63     -0.28
    3   24    6      0.24     -0.04
  -10    0    7      1.02      0.01
   -9    0    7      2.43      0.06
   -8    0    7     -2.56      0.00
   -6    0    7      2.95      0.00
   -5    0    7      4.64      0.00
   -4    0    7      2.87      0.01
   -3    0    7      4.17      0.00
   -2    0    7    -34.56      0.00
   -1    0    7     -3.13      0.00
    0    0    7     14.51      0.00
    1    0    7     -1.30      0.02
    2    0    7     17.24     -0.01
    3    0    7     17.49      0.02
    4    0    7      1.42      0.04
    5    0    7     -6.04     -0.02
    6    0    7      5.08      0.04
    7    0    7      0.53     -0.03
    8    0    7     -7.11     -0.04
    9    0    7     -7.61      0.01
   10    0    7      7.20      0.00
   11    0    7      0.32      0.01
   12    0    7     -2.50      0.00
   13    0    7     -0.99      0.01
  -10    1    7      0.77     -1.11
   -9    1    7      3.28     -0.37
   -8    1    7     -1.39      1.12
   -7    1    7     -0.94     -0.36
   -6    1    7      1.30      0.92
   -5    1    7     -2.23      7.13
   -4    1    7    -15.81     -9.65
   -3    1    7     12.09     -5.80
   -2    1    7     17.99     15.83
   -1    1    7    -26.68    -10.16
    0    1    7      1.35     -4.92
    1    1    7     28.00      4.71
    2    1    7     22.05     -3.70
    3    1    7    -16.19     -8.21
    4    1    7    -14.39      8.70
    5    1    7     -1.52     -1.83
    6    1    7      3.18      1.67
    7    1    7      1.10      1.34
    8    1    7      0.85     -1.65
    9    1    7     -5.50      1.13
   10    1    7     -1.27      3.54
   11    1    7      3.49     -1.69
   12    1    7     -1.80      0.28
   13    1    7     -1.25      1.15
  -10    2    7      0.58      1.97
   -9    2    7     -2.73     -3.62
   -8    2    7      1.25      3.14
   -7    2    7     -0.52      3.34
   -6    2    7     -2.13     -6.19
   -5    2    7     -2.21      0.33
   -4    2    7     -5.62     12.82
   -3    2    7      3.49    -14.36
   -2    2    7     18.86     -0.98
   -1    2    7      5.54      2.07
    0    2    7     -7.09     -9.32
    1    2    7      3.79     17.93
    2    2    7    -11.47     14.62
    3    2    7    -10.48    -12.02
    4    2    7     -0.70      7.20
    5    2    7      3.63     11.23
    6    2    7     -0.47     -8.68
    7    2    7     -4.59     -0.39
    8    2    7      7.42     -1.13
    9    2    7      3.61     -2.99
   10    2    7     -3.85      0.22
   11    2    7     -2.38      2.37
   12    2    7      1.19     -2.89
   13    2    7      0.30      0.59
  -10    3    7     -0.25      1.10
   -9    3    7     -0.57      0.33
   -8    3    7     -0.76     -1.23
   -7    3    7      0.03      3.26
   -6    3    7     -2.22     -2.57
   -5    3    7      2.26    -10.15
   -4    3    7      6.44     14.23
   -3    3    7     -0.01     11.74
   -2    3    7      0.49    -19.77
   -1    3    7      5.63      8.48
    0    3    7     -5.33     11.81
    1    3    7    -17.13    -11.40
    2    3    7     -3.99      7.78
    3    3    7      6.81      9.02
    4    3    7     13.11    -11.67
    5    3    7     -5.12     -1.08
    6    3    7     -0.64     -1.38
    7    3    7     -2.21      0.80
    8    3    7      0.43      3.97
    9    3    7      0.63     -3.17
   10    3    7     -0.93     -5.23
   11    3    7     -2.84      3.00
   12    3    7      0.39      1.21
   13    3    7      0.02     -2.95
  -10    4    7     -1.07     -2.11
   -9    4    7     -0.76      5.01
   -8    4    7      0.46     -2.47
   -7    4    7     -0.47     -5.63
   -6    4    7      2.15      2.39
   -5    4    7      0.89      2.69
   -4    4    7      0.59     -4.13
   -3    4    7     -2.95      3.30
   -2    4    7     -2.87      9.38
   -1    4    7     -9.04     -3.61
    0    4    7     -0.73      5.18
    1    4    7     -7.78    -14.93
    2    4    7      4.85      0.15
    3    4    7      2.28      8.47
    4    4    7      2.43    -11.50
    5    4    7      0.41     -8.34
    6    4    7     -2.79      3.54
    7    4    7      2.14      6.35
    8    4    7     -1.76      0.95
    9    4    7      0.97      1.70
   10    4    7     -1.45     -3.89
   11    4    7      2.96     -0.81
   12    4    7      0.78      1.15
   13    4    7     -0.45     -0.73
  -10    5    7     -0.50      1.42
   -9    5    7     -1.99      0.31
   -8    5    7      4.10     -2.52
   -7    5    7      1.08     -0.99
   -5    5    7     -1.30      5.53
   -4    5    7     -4.22      0.98
   -3    5    7    -10.25     -8.63
   -2    5    7     -3.01      2.88
   -1    5    7     -0.58      3.48
    0    5    7     11.47     -4.87
    1    5    7      6.94     -3.22
    2    5    7     -2.90     -5.88
    3    5    7      1.64      3.09
    4    5    7     -2.02     -1.87
    5    5    7     -2.26      7.29
    6    5    7     -0.38      0.71
    7    5    7      1.47     -6.05
    8    5    7     -2.30     -3.81
    9    5    7      2.00      4.56
   10    5    7      1.83     -0.63
   11    5    7     -1.12     -2.21
   12    5    7      1.48     -1.80
   13    5    7      0.01      1.05
  -10    6    7      0.39      0.03
   -9    6    7      2.29     -1.71
   -8    6    7      0.07     -2.31
   -7    6    7     -0.59      2.30
   -5    6    7      0.85     -3.87
   -4    6    7      6.46     -2.87
   -3    6    7     -7.20      5.54
   -2    6    7      1.04    -13.67
   -1    6    7      8.53     -3.37
    0    6    7      2.95      4.96
    1    6    7     -0.05      5.21
    2    6    7      5.07    -15.68
    3    6    7     -5.80      6.20
    4    6    7     -2.74     10.27
    5    6    7      0.49      0.25
    6    6    7      1.10      3.87
    7    6    7      5.22     -4.43
    8    6    7     -4.63     -5.92
    9    6    7     -2.13      2.32
   10    6    7      3.29      4.98
   11    6    7      0.35     -2.35
   12    6    7     -1.09      1.65
   13    6    7      0.17      0.23
  -10    7    7      1.23     -2.72
   -9    7    7      1.62      1.42
   -8    7    7     -5.73      2.50
   -7    7    7      0.39     -1.81
   -6    7    7      1.84     -1.19
   -5    7    7     -2.69      0.23
   -4    7    7      3.69    -11.15
   -3    7    7      6.89     -0.03
   -2    7    7     -0.26      5.83
   -1    7    7      0.32     -6.78
    0    7    7     -7.00     -2.90
    1    7    7     -2.24     19.62
    2    7    7      4.93     -0.67
    3    7    7      0.70     -6.03
    4    7    7     -8.24      5.20
    5    7    7      8.92     -4.69
    6    7    7      1.44     -4.20
    7    7    7      0.37      5.41
    8    7    7      1.92      0.69
    9    7    7     -1.08     -3.11
   10    7    7     -0.18      2.56
   11    7    7      2.52      0.23
   12    7    7      0.33     -1.66
   13    7    7      0.29      1.00
  -10    8    7      0.05      0.48
   -9    8    7     -0.21     -1.33
   -8    8    7     -0.24      1.92
   -7    8    7      2.01      1.79
   -6    8    7      4.43     -4.71
   -5    8    7     -1.78     -0.34
   -4    8    7     -5.86      2.21
   -3    8    7     11.54     -0.06
   -2    8    7     -1.86      6.87
   -1    8    7     -3.45      7.10
    0    8    7     -2.91    -10.13
    1    8    7      3.26      5.83
    2    8    7     -3.60      9.19
    3    8    7      3.83    -10.89
    4    8    7      1.56     -4.30
    5    8    7     -3.39      3.98
    6    8    7     -1.54     -2.64
    7    8    7     -3.95     -1.25
    8    8    7      4.97      6.80
    9    8    7      1.02     -2.92
   10    8    7     -2.60     -2.16
   11    8    7     -1.61      1.96
   12    8    7      0.48     -1.55
  -10    9    7     -1.54      1.16
   -9    9    7      0.88     -1.27
   -8    9    7      1.45     -1.19
   -7    9    7      0.37      0.08
   -6    9    7      0.69     -0.91
   -5    9    7      3.72     -1.72
   -4    9    7     -3.98      4.66
   -3    9    7     -1.71      3.16
   -2    9    7     -0.93     -4.29
   -1    9    7      3.26      0.53
    0    9    7      2.40      4.38
    1    9    7     -0.19    -15.57
    2    9    7     -6.07      2.79
    3    9    7      3.84      2.63
    4    9    7      2.19      1.04
    5    9    7     -1.79     -0.56
    6    9    7     -1.99      4.60
    7    9    7     -2.26     -0.14
    8    9    7      0.06      0.95
    9    9    7      2.77     -0.74
   10    9    7     -1.58     -1.15
   11    9    7      0.89      2.51
   12    9    7     -0.32      2.25
  -10   10    7      0.30     -0.49
   -9   10    7     -0.40      0.58
   -8   10    7      0.50      0.88
   -7   10    7     -0.64     -0.89
   -6   10    7     -1.81      2.06
   -5   10    7      0.62      2.15
   -4   10    7     -2.03      2.18
   -3   10    7     -2.16     -6.71
   -2   10    7     -2.63      1.72
   -1   10    7      0.94      0.35
    0   10    7      5.76      1.44
    1   10    7     -0.14     -6.21
    2   10    7     -6.73     -0.34
    3   10    7      1.21      7.56
    4   10    7      0.78      0.07
    5   10    7     -1.78     -2.05
    6   10    7      5.73     -0.68
    7   10    7     -1.20      0.62
    8   10    7     -2.51     -1.83
    9   10    7      0.15      0.41
   10   10    7      1.81     -0.22
   11   10    7      0.75      0.08
   12   10    7      1.00      0.56
  -12   11    7      0.68     -0.11
  -10   11    7      0.05      0.61
   -9   11    7     -0.38     -0.79
   -8   11    7      1.01      0.54
   -7   11    7     -1.24      1.42
   -6   11    7     -1.09      1.68
   -5   11    7      4.31     -2.39
   -4   11    7      1.99     -1.18
   -3   11    7      1.43     -2.06
   -2   11    7      2.79      0.34
   -1   11    7     -5.84      0.51
    0   11    7      4.61      2.05
    1   11    7      6.02     -1.52
    2   11    7     -1.30      7.18
    3   11    7     -8.01     -1.20
    4   11    7      6.22     -2.71
    5   11    7     -4.36      0.99
    6   11    7      1.81     -0.50
    7   11    7      3.50     -5.05
    8   11    7     -2.98     -0.45
    9   11    7     -1.75      3.58
   10   11    7      1.02      1.36
   11   11    7     -0.71     -1.99
   12   11    7     -0.65     -0.25
   -9   12    7     -0.87      1.42
   -8   12    7      0.83     -1.24
   -7   12    7     -0.71     -0.50
   -6   12    7     -0.90      0.78
   -5   12    7      1.91     -2.45
   -4   12    7      3.04     -4.07
   -3   12    7     -6.59      1.16
   -2   12    7      4.05      0.92
   -1   12    7      1.74     -3.03
    0   12    7    -10.25      7.83
    1   12    7      0.46      0.27
    2   12    7      8.19     -6.35
    3   12    7     -5.17      0.36
    4   12    7     -0.85      0.09
    5   12    7      3.64      0.25
    6   12    7     -4.80     -0.36
    7   12    7      1.69      2.08
    8   12    7      1.20     -2.49
    9   12    7     -0.88      2.37
   10   12    7      1.15      0.54
   11   12    7     -1.22     -0.52
   -9   13    7     -0.73      0.28
   -8   13    7     -0.59      0.53
   -7   13    7      2.44     -0.59
   -6   13    7      0.37     -1.06
   -5   13    7     -4.45      2.52
   -4   13    7      1.74      3.68
   -3   13    7      0.49     -0.09
   -2   13    7      0.27      3.99
   -1   13    7      3.26     -0.99
    0   13    7     -1.60      1.95
    1   13    7     -9.57      7.68
    2   13    7      6.83     -7.62
    3   13    7      2.37     -0.59
    4   13    7     -4.61      1.92
    5   13    7      3.35     -0.78
    6   13    7      0.67     -2.52
    7   13    7     -3.20      4.85
    8   13    7      3.28      0.04
    9   13    7      0.26     -2.72
   10   13    7     -0.09      0.15
   11   13    7     -0.67      0.17
   -9   14    7      0.25     -0.21
   -8   14    7     -1.98     -1.29
   -7   14    7      1.50      1.38
   -6   14    7      1.92     -1.19
   -5   14    7     -1.81     -0.04
   -4   14    7      0.37      3.61
   -3   14    7      4.89      0.85
   -2   14    7     -1.59     -1.21
   -1   14    7     -2.66     -4.35
    0   14    7      6.04     -8.28
    1   14    7     -1.80      4.57
    2   14    7     -2.61      3.62
    3   14    7      2.37     -3.20
    4   14    7      1.01     -1.75
    5   14    7     -1.32     -0.15
    6   14    7     -1.45     -1.52
    7   14    7      1.68      0.74
    8   14    7     -0.40      1.72
    9   14    7      1.00     -0.82
   10   14    7     -1.87     -0.25
   11   14    7      0.67      0.16
   -9   15    7      0.84      0.42
   -8   15    7      0.28     -0.24
   -7   15    7     -1.39      0.91
   -6   15    7      0.69      2.52
   -5   15    7     -0.18     -0.74
   -4   15    7     -0.94     -1.31
   -3   15    7     -1.44     -0.22
   -2   15    7      0.60     -0.37
   -1   15    7     -4.56      3.65
    0   15    7     -1.49     -5.62
    1   15    7     -2.23     -2.64
    2   15    7     -1.76      3.63
    3   15    7      2.82      1.43
    4   15    7      0.28     -1.81
    5   15    7      1.80      1.25
    6   15    7     -2.17      0.65
    7   15    7      1.33      0.40
    8   15    7      0.17      1.39
    9   15    7      0.19      0.15
   10   15    7     -0.88     -0.15
   -9   16    7      1.54     -0.21
   -8   16    7      0.54      0.71
   -7   16    7     -1.87     -1.26
   -6   16    7     -0.63      0.97
   -5   16    7      1.26      0.29
   -4   16    7     -1.64     -0.98
   -3   16    7      0.27     -0.93
   -2   16    7      2.28     -0.71
   -1   16    7     -0.23      5.70
    0   16    7      1.65      2.45
    1   16    7      3.02     -1.93
    2   16    7     -2.35     -2.13
    3   16    7      3.41      2.35
    4   16    7      0.03     -0.33
    5   16    7     -0.01     -0.86
    6   16    7      3.37      3.87
    7   16    7     -1.08     -1.52
    8   16    7     -1.88      0.35
    9   16    7      0.90     -1.06
   10   16    7     -0.14      0.15
   -9   17    7     -0.90      0.66
   -8   17    7      0.15     -0.37
   -7   17    7     -0.58     -1.59
   -6   17    7     -1.89     -1.44
   -5   17    7      1.12      1.13
   -4   17    7      0.43     -0.29
   -3   17    7     -1.97      2.07
   -2   17    7      0.09     -2.64
   -1   17    7      0.73     -1.78
    0   17    7      1.02      0.11
    1   17    7      5.80     -0.34
    2   17    7     -1.96     -1.35
    3   17    7     -3.35     -1.54
    4   17    7      1.11      3.32
    5   17    7     -2.36      0.57
    6   17    7     -0.58      1.85
    7   17    7      1.97     -1.59
    8   17    7     -2.57     -0.57
    9   17    7     -1.50     -0.62
   -9   18    7     -0.68     -0.07
   -8   18    7      0.43      0.76
   -7   18    7      1.29     -0.10
   -6   18    7     -0.42     -1.39
   -5   18    7      0.02      0.78
   -4   18    7      2.01      0.55
   -3   18    7     -0.03      0.68
   -2   18    7     -1.95      1.43
   -1   18    7      0.99     -0.31
    0   18    7     -4.46     -0.20
    1   18    7      0.40      0.53
    2   18    7      2.26      2.67
    3   18    7     -2.62     -0.34
    4   18    7     -0.74      0.61
    5   18    7      0.15      1.48
    6   18    7     -1.46     -1.13
    7   18    7     -0.31     -1.24
    8   18    7      1.38      0.71
    9   18    7     -1.71      0.12
   -8   19    7     -0.28     -0.32
   -7   19    7      0.89      1.19
   -6   19    7      0.74     -0.53
   -5   19    7      0.36      0.05
   -4   19    7     -1.42      0.50
   -3   19    7      0.35     -1.32
   -2   19    7      1.11     -1.46
   -1   19    7      0.50      1.43
    0   19    7     -2.39      2.06
    1   19    7     -2.38     -0.32
    2   19    7      2.89      0.06
    3   19    7     -0.35     -0.45
    4   19    7     -1.59     -0.61
    5   19    7      0.08     -1.75
    6   19    7      0.24     -0.13
    7   19    7     -2.12     -0.76
    8   19    7      1.94     -0.50
   -7   20    7      0.42      0.82
   -6   20    7     -0.35      0.58
   -5   20    7      0.29     -0.39
   -4   20    7     -0.48      1.07
   -3   20    7     -1.42      0.66
   -2   20    7     -1.69     -0.24
   -1   20    7      1.70     -3.45
    0   20    7      0.82      1.93
    1   20    7     -2.27     -1.00
    2   20    7      0.16     -1.72
    3   20    7     -0.02     -0.04
    4   20    7     -0.06      0.24
    5   20    7      0.90     -0.26
    6   20    7      0.82     -0.76
    7   20    7     -0.79      0.98
   -6   21    7     -0.71      0.40
   -5   21    7     -0.92     -0.68
   -4   21    7      0.26     -0.62
   -3   21    7      0.82      0.19
   -2   21    7     -2.00      1.92
   -1   21    7      0.55     -1.15
    0   21    7      4.06     -2.44
    1   21    7     -0.82     -0.84
    2   21    7     -1.38     -0.33
    3   21    7      0.15      0.04
    4   21    7      0.42     -0.68
    5   21    7     -0.02      0.53
    6   21    7      1.18     -0.72
   -5   22    7     -0.58     -0.55
   -4   22    7     -0.78     -0.25
   -3   22    7      0.06     -2.30
   -2   22    7      1.68      0.89
   -1   22    7     -1.17      1.56
    0   22    7      2.07     -0.68
    1   22    7      0.59     -0.66
    2   22    7     -1.42     -0.37
    3   22    7      0.89      1.28
    4   22    7      0.11     -0.19
    5   22    7     -0.86      0.89
   -4   23    7      0.47      0.12
   -3   23    7      0.22      0.01
   -2   23    7      0.53     -0.24
   -1   23    7     -1.28     -0.13
    0   23    7      0.05      1.16
    1   23    7      0.95      1.66
    2   23    7      0.99     -0.73
    3   23    7      0.69      0.35
    4   23    7      0.42     -0.21
   -1   24    7     -0.91     -0.07
    0   24    7     -1.42     -0.33
    1   24    7      0.93      1.41
  -10    0    8     -0.15      0.00
   -9    0    8     -0.15      0.00
   -8    0    8     -0.75      0.01
   -7    0    8     -1.38      0.00
   -6    0    8      1.29      0.00
   -5    0    8      5.09      0.00
   -4    0    8     13.11     -0.01
   -3    0    8    -12.83      0.00
   -2    0    8    -23.82     -0.01
   -1    0    8     20.26      0.00
    0    0    8     -5.89      0.01
    1    0    8     -9.56     -0.01
    2    0    8    -20.25     -0.01
    3    0    8      0.76      0.00
    4    0    8     13.43      0.06
    5    0    8     11.28      0.00
    6    0    8     -8.06     -0.10
    7    0    8      1.72     -0.01
    8    0    8     -0.17      0.02
    9    0    8     -4.18      0.02
   10    0    8      3.96      0.00
   11    0    8      3.04     -0.01
   12    0    8     -1.52      0.00
   13    0    8      1.78     -0.01
  -10    1    8     -1.22     -1.38
   -9    1    8      4.92     -1.31
   -8    1    8     -0.62      0.69
   -7    1    8     -1.72     -0.34
   -6    1    8      0.82     -0.65
   -5    1    8      4.99      4.94
   -4    1    8      3.44     -4.54
   -3    1    8     -1.90     -4.71
   -2    1    8    -27.95      2.98
   -1    1    8     -0.69     15.68
    0    1    8      8.93    -11.57
    1    1    8      4.87    -10.42
    2    1    8     28.02     -1.10
    3    1    8      9.14     -3.17
    4    1    8    -14.05      1.92
    5    1    8     -3.56     -1.02
    6    1    8      6.34      0.07
    7    1    8     -0.38     -1.54
    8    1    8     -0.63      3.84
    9    1    8     -5.86     -1.18
   10    1    8     -1.81      1.84
   11    1    8      4.17     -0.84
   12    1    8      0.87      0.49
   13    1    8     -2.52     -0.17
  -10    2    8     -0.02      2.89
   -9    2    8      0.64     -2.65
   -8    2    8      0.27     -2.03
   -7    2    8      0.26      4.52
   -6    2    8      1.71     -0.07
   -5    2    8     -2.35      0.96
   -4    2    8    -12.00      0.38
   -3    2    8      5.79     -9.09
   -2    2    8     15.35     -5.91
   -1    2    8     -8.18      4.68
    0    2    8     -1.39      5.32
    1    2    8     13.63    -15.15
    2    2    8      7.76      6.41
    3    2    8     -3.40    -10.87
    4    2    8    -14.52      0.59
    5    2    8     -2.84      7.23
    6    2    8      2.73      5.60
    7    2    8      0.36     -7.33
    8    2    8      0.63     -0.75
    9    2    8      2.36      2.09
   10    2    8     -1.90      2.19
   11    2    8     -0.35      0.74
   12    2    8      0.03     -0.49
   13    2    8     -0.60      1.41
  -10    3    8      0.01      1.88
   -9    3    8     -0.92      0.29
   -8    3    8      0.11     -0.10
   -7    3    8      0.00      2.53
   -6    3    8     -3.01      1.23
   -5    3    8      1.33     -7.69
   -4    3    8      0.31      2.60
   -3    3    8      0.56     12.52
   -2    3    8      7.43    -10.31
   -1    3    8     15.80    -21.86
    0    3    8     -7.95     17.84
    1    3    8     -2.62     15.91
    2    3    8     -9.04      2.92
    3    3    8     -3.26      2.76
    4    3    8      5.01     -2.95
    5    3    8      1.84      1.78
    6    3    8      1.63      1.04
    7    3    8     -6.87     -1.44
    8    3    8      4.27     -1.43
    9    3    8      1.96     -0.93
   10    3    8      0.02     -1.89
   11    3    8     -3.17      2.49
   12    3    8     -0.62     -0.66
   13    3    8      0.20     -0.03
  -10    4    8      1.19     -2.84
   -9    4    8     -1.14      0.29
   -8    4    8     -1.03      4.44
   -7    4    8     -0.55     -0.41
   -4    4    8      8.95      0.04
   -3    4    8      9.12     10.37
   -2    4    8     -5.97      7.74
   -1    4    8     -1.08     -7.13
    0    4    8      0.09     -0.06
    1    4    8    -12.45      1.71
    2    4    8      1.77     -0.61
    3    4    8      4.39      7.34
    4    4    8      8.44     -0.03
    5    4    8     -4.19    -13.48
    6    4    8      3.41     -2.54
    7    4    8     -2.42      5.15
    8    4    8     -1.64      6.00
    9    4    8      1.72     -0.84
   10    4    8     -1.24     -4.19
   11    4    8     -3.13     -0.60
   12    4    8      0.70      3.15
   13    4    8     -0.06     -2.12
  -10    5    8      0.58      0.83
   -9    5    8     -1.91      2.65
   -8    5    8     -0.59     -0.57
   -7    5    8      1.37     -2.97
   -5    5    8     -2.06      3.04
   -4    5    8     -8.52      0.41
   -3    5    8      3.81     -4.55
   -2    5    8      2.15      9.37
   -1    5    8    -13.60      4.51
    0    5    8     -0.34      2.06
    1    5    8      1.75    -14.47
    2    5    8     -3.57      0.22
    3    5    8      0.46      1.53
    4    5    8      7.37     -1.84
    5    5    8     -1.90     -2.07
    6    5    8     -4.50     -0.40
    7    5    8      2.19      3.18
    8    5    8     -0.89     -3.68
    9    5    8     -1.05      4.48
   10    5    8      2.04     -0.84
   11    5    8      0.66     -2.85
   12    5    8     -1.35      0.32
   13    5    8      1.48     -0.61
  -10    6    8     -1.27      0.49
   -9    6    8     -1.09      1.49
   -8    6    8      4.38     -3.08
   -7    6    8     -0.45     -3.91
   -6    6    8     -3.13      2.47
   -5    6    8      0.56      8.00
   -4    6    8     -2.09      0.16
   -3    6    8    -11.19     -3.81
   -2    6    8     -4.86      3.00
   -1    6    8      5.84     -5.94
    0    6    8     10.61      3.72
    1    6    8     -0.36      3.92
    2    6    8      2.50    -11.01
    3    6    8     -6.18     -0.52
    4    6    8      2.30      2.04
    5    6    8     -0.04      6.32
    6    6    8     -3.66      1.63
    7    6    8      1.17      0.85
    8    6    8      1.26     -7.76
    9    6    8     -4.08     -1.52
   10    6    8      0.97      4.05
   11    6    8      2.34     -0.96
   12    6    8     -0.71     -1.51
   13    6    8     -1.10      0.11
  -10    7    8      0.79      0.00
   -9    7    8      1.18     -3.69
   -8    7    8     -0.76      2.10
   -7    7    8     -3.60      0.60
   -6    7    8     -3.36     -3.89
   -5    7    8     -0.42      2.93
   -4    7    8      8.81      1.25
   -3    7    8     -1.46     -8.82
   -2    7    8     -2.33     -0.63
   -1    7    8     -3.53     -0.56
    0    7    8     11.16    -10.92
    1    7    8     -3.84     10.10
    2    7    8      4.12      1.30
    3    7    8     -0.20     -4.16
    4    7    8    -10.01      5.93
    5    7    8      2.82      1.15
    6    7    8      4.46     -3.70
    7    7    8      3.83      1.76
    8    7    8     -2.95      0.25
    9    7    8     -0.30     -3.62
   10    7    8     -1.03      2.19
   11    7    8      1.13      0.58
   12    7    8      1.36      0.76
  -10    8    8     -0.05      0.46
   -9    8    8      1.23      0.36
   -8    8    8     -2.32     -1.85
   -7    8    8     -0.49      4.45
   -6    8    8      2.16     -1.12
   -5    8    8     -1.83     -5.12
   -4    8    8     -2.71     -0.63
   -3    8    8      5.09     -3.86
   -2    8    8     10.58     -2.73
   -1    8    8     -9.41     13.27
    0    8    8    -14.31     -8.92
    1    8    8      4.58      4.64
    2    8    8      2.71      8.14
    3    8    8      3.34     -1.82
    4    8    8     -2.61     -8.53
    5    8    8      0.93      3.84
    6    8    8      0.42     -4.23
    7    8    8     -0.11     -2.93
    8    8    8      1.97      3.89
    9    8    8      1.60      1.48
   10    8    8     -0.41     -2.14
   11    8    8     -0.91     -0.52
   12    8    8      0.71     -1.78
  -10    9    8     -0.86     -0.39
   -9    9    8     -1.31      1.52
   -8    9    8      2.08     -2.10
   -7    9    8      2.27     -0.50
   -6    9    8      1.91     -0.15
   -5    9    8      1.30     -2.27
   -4    9    8     -2.54     -0.73
   -3    9    8     -0.74     11.60
   -2    9    8      2.78     -6.20
   -1    9    8      5.99      2.96
    0    9    8     -5.80      4.04
    1    9    8     -4.07     -2.47
    2    9    8      3.15     -1.36
    3    9    8      1.29     -0.74
    4    9    8      3.02     -4.69
    5    9    8      0.88      0.96
    6    9    8     -2.83      4.72
    7    9    8     -4.14     -4.38
    8    9    8      1.57      4.27
    9    9    8      3.59     -0.26
   10    9    8     -1.08     -2.14
   11    9    8     -2.48      0.89
   12    9    8      0.46     -0.61
  -10   10    8      0.12     -0.04
   -9   10    8      0.42     -0.23
   -8   10    8     -0.88      0.44
   -7   10    8      0.48     -0.88
   -6   10    8      0.28     -1.85
   -5   10    8      0.19     -0.04
   -4   10    8     -1.22      1.70
   -3   10    8     -1.94      7.21
   -2   10    8     -6.70     -5.11
   -1   10    8      4.20     -8.09
    0   10    8      4.10      4.12
    1   10    8      3.27     -7.31
    2   10    8     -9.32     -4.62
    3   10    8      6.55      4.85
    4   10    8     -1.61      4.68
    5   10    8      0.06     -4.24
    6   10    8      2.24      3.80
    7   10    8      1.44      1.69
    8   10    8     -4.40     -0.76
    9   10    8      0.77      0.69
   10   10    8      1.89     -2.46
   11   10    8      0.39      1.96
   12   10    8      0.47      1.12
  -10   11    8      0.18     -0.55
   -9   11    8      0.24      0.30
   -8   11    8      0.07     -0.04
   -7   11    8      0.75      0.56
   -6   11    8     -2.98      3.33
   -5   11    8      0.33      2.81
   -4   11    8     -1.94     -3.38
   -3   11    8      2.27     -1.86
   -2   11    8     -1.15      4.20
   -1   11    8     -2.02     -1.21
    0   11    8      0.79     -1.18
    1   11    8      7.88     -2.05
    2   11    8     -3.82     -0.69
    3   11    8     -3.13      5.68
    4   11    8      4.05      3.19
    5   11    8     -3.74     -2.19
    6   11    8      1.04      1.03
    7   11    8      3.55      0.24
    8   11    8      1.30     -4.15
    9   11    8     -4.74      1.67
   10   11    8      0.81      1.58
   11   11    8      2.52     -1.49
   12   11    8      0.33     -0.19
   -9   12    8     -0.32     -0.91
   -8   12    8     -0.46      1.51
   -7   12    8      1.25     -1.69
   -6   12    8     -0.14     -0.80
   -5   12    8      1.24      2.53
   -4   12    8      3.04     -3.91
   -3   12    8      0.05     -8.18
   -2   12    8     -2.22      4.13
   -1   12    8      4.99     -1.68
    0   12    8      1.16      3.03
    1   12    8      0.29      1.06
    2   12    8      4.32      2.44
    3   12    8     -5.49     -3.27
    4   12    8      1.32      2.26
    5   12    8      1.76     -0.37
    6   12    8     -2.85      1.63
    7   12    8     -0.28     -1.65
    8   12    8      1.36     -3.00
    9   12    8     -0.68      0.35
   10   12    8     -1.59      3.37
   11   12    8      1.17     -0.86
   -9   13    8      1.19     -0.30
   -8   13    8     -0.45      0.87
   -7   13    8     -2.42      0.29
   -6   13    8      2.20     -2.21
   -5   13    8      0.51     -3.26
   -4   13    8     -2.13      2.60
   -3   13    8     -1.44     -1.83
   -2   13    8     -2.75      0.18
   -1   13    8      2.43      1.70
    0   13    8     -0.34      2.61
    1   13    8     -4.12      4.17
    2   13    8      2.13     -1.46
    3   13    8      0.82     -4.02
    4   13    8     -4.01      2.83
    5   13    8      0.48      0.90
    6   13    8      1.85     -3.92
    7   13    8     -3.74      4.80
    8   13    8      0.22      0.02
    9   13    8      1.13     -1.32
   10   13    8      0.94      0.22
   11   13    8     -0.63      0.64
   -9   14    8     -0.43      0.50
   -8   14    8      1.63     -0.45
   -7   14    8     -0.50      0.28
   -6   14    8     -0.17      1.12
   -5   14    8      1.36     -1.07
   -4   14    8     -0.63      1.66
   -3   14    8      2.57      2.33
   -2   14    8      3.06      4.24
   -1   14    8     -2.37     -1.08
    0   14    8      1.85     -1.99
    1   14    8     -0.68      2.99
    2   14    8      0.25      3.05
    3   14    8     -1.09     -2.15
    4   14    8      0.93     -1.00
    5   14    8     -2.28      2.61
    6   14    8      2.49     -5.32
    7   14    8     -1.96     -0.35
    8   14    8      0.68      3.96
    9   14    8      1.87     -1.82
   10   14    8     -0.01     -0.71
   11   14    8     -0.31      0.05
   -9   15    8     -1.70     -0.54
   -8   15    8     -0.15     -0.05
   -7   15    8      1.69      0.46
   -6   15    8      1.30     -0.35
   -5   15    8     -0.99      1.71
   -4   15    8     -0.18      0.80
   -3   15    8      1.66     -3.26
   -2   15    8      0.67     -0.59
   -1   15    8     -2.08     -0.04
    0   15    8      0.12     -4.45
    1   15    8     -3.41     -3.62
    2   15    8     -0.16      3.59
    3   15    8     -0.57      1.10
    4   15    8      0.84     -5.37
    5   15    8      0.66      1.55
    6   15    8     -2.80     -0.07
    7   15    8      1.08     -3.07
    8   15    8     -0.50      0.72
    9   15    8      1.08      1.72
   10   15    8     -0.40     -0.63
   -9   16    8      0.73     -0.33
   -8   16    8      1.19      0.22
   -7   16    8     -1.50      2.21
   -6   16    8     -0.34      0.64
   -5   16    8      1.28     -1.82
   -4   16    8     -1.40      2.13
   -3   16    8     -2.56      0.18
   -2   16    8      2.61     -3.75
   -1   16    8     -2.98      3.65
    0   16    8     -1.39      3.19
    1   16    8     -1.98     -3.28
    2   16    8     -2.30     -1.18
    3   16    8      3.00      4.07
    4   16    8      0.64     -2.46
    5   16    8      0.94     -1.83
    6   16    8      0.52      1.56
    7   16    8      1.21      2.96
    8   16    8     -0.01     -0.86
    9   16    8      0.52      0.59
   10   16    8     -0.17     -0.08
   -9   17    8     -0.11      0.00
   -8   17    8      0.39     -0.36
   -7   17    8     -0.16     -0.27
   -6   17    8     -3.58      0.91
   -5   17    8      0.61     -1.18
   -4   17    8      2.84     -1.89
   -3   17    8     -1.83      2.57
   -2   17    8      1.62     -1.20
   -1   17    8      0.77     -1.80
    0   17    8      0.97      2.08
    1   17    8      5.06      1.39
    2   17    8      0.70     -3.83
    3   17    8     -1.08      0.39
    4   17    8      1.17      1.24
    5   17    8      0.86     -1.66
    6   17    8     -0.19      0.89
    7   17    8      2.54      1.09
    8   17    8     -1.27     -0.12
    9   17    8      0.28     -0.47
   -9   18    8     -0.74      0.45
   -8   18    8     -1.29     -0.42
   -7   18    8      1.17     -0.70
   -6   18    8      0.27     -0.38
   -5   18    8     -2.73      1.13
   -4   18    8      1.63     -0.77
   -3   18    8      1.42      0.08
   -2   18    8     -1.76      1.25
   -1   18    8      1.27     -2.12
    0   18    8     -0.49     -1.65
    1   18    8      0.24      0.88
    2   18    8      1.72     -0.75
    3   18    8     -0.56     -0.63
    4   18    8     -1.89      1.97
    5   18    8      1.14      1.80
    6   18    8     -2.65      1.29
    7   18    8      1.27     -1.08
    8   18    8     -0.46     -0.11
    9   18    8     -1.70      0.15
   -8   19    8     -0.21     -0.21
   -7   19    8     -0.16     -0.38
   -6   19    8      1.43     -0.73
   -5   19    8      0.41      0.13
   -4   19    8      0.00     -0.13
   -3   19    8      1.25      1.32
   -2   19    8     -0.04      0.09
   -1   19    8      1.53      1.53
    0   19    8     -1.92      0.02
    1   19    8     -2.47      2.32
    2   19    8      0.75      2.09
    3   19    8      1.55     -0.78
    4   19    8     -0.96      0.43
    5   19    8     -0.30     -0.31
    6   19    8     -0.01      0.66
    7   19    8     -1.17     -0.36
    8   19    8      0.64      0.70
   -7   20    8     -0.35      0.35
   -6   20    8      0.49     -0.07
   -5   20    8      0.28      0.65
   -4   20    8      0.34     -0.22
   -3   20    8     -0.53     -0.13
   -2   20    8     -0.75      1.03
   -1   20    8     -0.10     -0.71
    0   20    8      0.62      0.29
    1   20    8     -1.50      1.01
    2   20    8     -0.37      1.03
    3   20    8      1.05     -1.50
    4   20    8     -1.52      0.36
    5   20    8     -0.55     -0.88
    6   20    8      0.73     -0.28
    7   20    8     -1.19     -0.55
   -6   21    8      0.06      0.11
   -5   21    8      0.48      1.13
   -4   21    8     -1.19      0.68
   -3   21    8      1.28     -0.54
   -2   21    8     -1.97      1.09
   -1   21    8     -1.98     -0.19
    0   21    8      1.23     -0.53
    1   21    8      0.76     -1.63
    2   21    8     -1.76     -0.12
    3   21    8     -0.62      0.14
    4   21    8      0.74     -0.17
    5   21    8     -0.22      0.52
    6   21    8      1.17     -0.17
   -5   22    8     -0.63      0.86
   -4   22    8     -0.94     -0.20
   -3   22    8     -0.28     -0.78
   -2   22    8      1.19     -0.75
   -1   22    8     -0.18      0.81
    0   22    8     -0.16      0.41
    1   22    8      1.46     -2.39
    2   22    8     -0.98     -0.67
    3   22    8     -1.91      0.02
    4   22    8      0.84     -0.25
    5   22    8     -0.41      0.42
   -4   23    8     -1.04      0.72
   -3   23    8     -0.24     -1.20
   -2   23    8      0.51      0.20
   -1   23    8      0.52     -0.05
    0   23    8      0.37     -0.10
    1   23    8     -0.44      0.35
    2   23    8      0.35     -1.14
    3   23    8      0.13      0.53
    4   23    8     -0.20      0.41
  -10    0    9      2.35     -0.01
   -9    0    9     -6.49     -0.02
   -8    0    9      0.04      0.00
   -7    0    9      3.86      0.00
   -6    0    9     -4.34      0.00
   -5    0    9     -6.28      0.00
   -4    0    9      9.18      0.01
   -3    0    9     -3.36      0.00
   -2    0    9     16.85      0.00
   -1    0    9      6.09      0.01
    0    0    9     -8.41      0.00
    1    0    9    -17.39     -0.01
    2    0    9    -17.44     -0.01
    3    0    9    -10.63     -0.02
    4    0    9      5.01      0.04
    5    0    9     17.09      0.01
    6    0    9     -5.45     -0.05
    7    0    9     -3.86      0.05
    8    0    9      4.77     -0.02
    9    0    9      3.30      0.01
   10    0    9     -2.57     -0.01
   11    0    9      1.41      0.00
   12    0    9     -0.79      0.01
   13    0    9      1.07     -0.01
  -10    1    9      0.61      1.70
   -9    1    9      1.66     -1.82
   -8    1    9     -0.71      0.12
   -7    1    9     -0.69      1.07
   -6    1    9      1.19     -1.34
   -5    1    9     -1.56     -3.49
   -4    1    9     12.38      6.30
   -3    1    9     -1.30      5.07
   -2    1    9    -29.59     -8.10
   -1    1    9      1.32     10.85
    0    1    9      7.39     -2.95
    1    1    9     -5.49      1.02
    2    1    9    -12.97     -0.65
    3    1    9     11.97      7.71
    4    1    9      0.10     -2.60
    5    1    9      1.39      2.08
    6    1    9      2.17     -2.35
    7    1    9     -1.20      0.65
    8    1    9     -1.34      1.06
    9    1    9      0.34     -0.44
   10    1    9     -1.63     -0.39
   11    1    9      0.95     -0.07
   12    1    9      2.21     -1.06
   13    1    9      1.30     -0.07
  -10    2    9     -1.55     -0.26
   -9    2    9      2.93      2.92
   -8    2    9      0.75     -6.93
   -7    2    9     -1.50      0.06
   -6    2    9      2.87      5.52
   -5    2    9      1.53      1.60
   -4    2    9     -1.08     -9.01
   -3    2    9     -5.47      5.45
   -2    2    9     -9.82     -6.81
   -1    2    9     -3.54     12.91
    0    2    9      3.20      1.66
    1    2    9      8.67    -19.68
    2    2    9     15.62     -9.14
    3    2    9      6.97      1.03
    4    2    9     -7.59      1.46
    5    2    9     -8.16     -1.97
    6    2    9     -0.35      6.84
    7    2    9      4.93     -1.59
    8    2    9     -2.36     -0.07
    9    2    9     -1.57     -0.72
   10    2    9     -0.26      2.28
   11    2    9      0.67      0.81
   12    2    9      0.99     -0.56
   13    2    9     -0.69     -0.27
  -11    3    9     -0.08      0.47
  -10    3    9      0.03     -0.91
   -9    3    9     -0.12      3.28
   -8    3    9     -0.87     -1.18
   -7    3    9      1.37     -3.86
   -4    3    9     -6.82    -10.13
   -3    3    9      2.55     -5.94
   -2    3    9     -0.47      4.17
   -1    3    9      8.40    -13.60
    0    3    9      4.55      3.57
    1    3    9      0.25      4.28
    2    3    9     -6.35      0.74
    3    3    9     -0.15     -8.48
    4    3    9    -11.09      1.52
    5    3    9      2.45      3.57
    6    3    9      1.27      2.94
    7    3    9     -2.54     -1.35
    8    3    9     -1.44     -2.73
    9    3    9      3.87      1.03
   10    3    9      0.56     -0.12
   11    3    9      0.24      1.48
   12    3    9     -0.88      0.87
   13    3    9     -0.14      0.38
  -11    4    9      0.91      1.02
  -10    4    9     -0.53     -1.66
   -9    4    9      2.31     -3.91
   -8    4    9     -0.61      4.43
   -7    4    9     -2.38      3.39
   -4    4    9     -2.57     -0.11
   -3    4    9      9.38      3.16
   -2    4    9      3.39      2.97
   -1    4    9     -1.75    -11.50
    0    4    9      2.26     -4.40
    1    4    9      6.80     19.57
    2    4    9    -12.84      4.52
    3    4    9     -0.04      0.27
    4    4    9      6.43      1.75
    5    4    9     -5.24     -2.91
    6    4    9      5.57     -2.42
    7    4    9      0.70     -3.90
    8    4    9     -3.80      4.43
    9    4    9      0.41      1.46
   10    4    9      3.05     -2.04
   11    4    9     -2.89     -1.22
   12    4    9     -0.89      0.66
   13    4    9      0.40      0.62
  -10    5    9      0.85     -2.24
   -9    5    9     -0.96     -1.44
   -8    5    9     -0.73      4.14
   -7    5    9     -0.54      3.01
   -6    5    9     -0.50     -1.54
   -5    5    9      4.05     -4.04
   -4    5    9      2.52      0.89
   -3    5    9      0.59      1.56
   -2    5    9     11.86      5.48
   -1    5    9     -2.51      5.39
    0    5    9    -20.54     -3.82
    1    5    9      6.67     -7.86
    2    5    9      6.65      3.08
    3    5    9     -7.24     -1.45
    4    5    9      9.46      4.39
    5    5    9      1.68     -8.37
    6    5    9     -5.87     -2.08
    7    5    9      2.75      1.43
    8    5    9      1.89      2.22
    9    5    9     -2.54      1.04
   10    5    9     -0.13      0.66
   11    5    9     -0.69     -1.52
   12    5    9     -1.10      0.81
   13    5    9      0.34     -0.26
  -10    6    9      0.45      1.31
   -9    6    9     -1.56      1.43
   -8    6    9     -1.32      1.02
   -7    6    9      5.41     -2.61
   -6    6    9      2.49      0.48
   -5    6    9     -3.96      2.51
   -4    6    9     -4.97      4.84
   -3    6    9     -0.87     -4.39
   -2    6    9     -5.88      1.76
   -1    6    9      6.94      4.40
    0    6    9     -4.42      6.23
    1    6    9     -5.10     -8.82
    2    6    9      4.08     -0.32
    3    6    9     -1.90     -2.45
    4    6    9      1.52     -3.05
    5    6    9      4.74      4.49
    6    6    9     -2.79      0.32
    7    6    9     -7.31      3.53
    8    6    9      4.72     -2.67
    9    6    9     -0.39     -1.63
   10    6    9     -1.67      1.30
   11    6    9      2.42      0.34
   12    6    9     -0.87     -0.77
  -10    7    9     -1.37      2.96
   -9    7    9      0.39     -1.21
   -8    7    9      2.80     -2.79
   -7    7    9     -3.22      0.29
   -6    7    9     -2.28     -0.24
   -5    7    9      0.68      1.01
   -4    7    9     -0.95      5.85
   -3    7    9     -2.16      1.84
   -2    7    9     -6.88     -3.63
   -1    7    9     -0.68     -5.13
    0    7    9     20.53      3.97
    1    7    9     -2.35     -1.89
    2    7    9     -1.08      1.13
    3    7    9     -1.30     -0.11
    4    7    9     -0.99      0.29
    5    7    9     -5.30      2.43
    6    7    9      2.67      2.09
    7    7    9      1.92      0.81
    8    7    9     -0.25     -0.34
    9    7    9     -2.85     -3.95
   10    7    9     -0.88      0.49
   11    7    9      1.67      1.64
   12    7    9     -0.20     -0.53
  -10    8    9      0.55      0.63
   -9    8    9     -0.12      0.42
   -8    8    9      0.19     -0.58
   -7    8    9     -3.41     -0.56
   -6    8    9     -4.31      2.84
   -5    8    9     -0.05     -1.60
   -4    8    9      7.84     -1.89
   -3    8    9     -3.28     -6.70
   -2    8    9      3.43      0.08
   -1    8    9     -1.90      0.13
    0    8    9     -2.03     -0.70
    1    8    9     -0.63     -4.77
    2    8    9      3.70      6.43
    3    8    9     -1.01      4.41
    4    8    9     -5.96     -1.38
    5    8    9      1.30     -0.46
    6    8    9     -0.40     -3.89
    7    8    9      2.24     -0.05
    8    8    9      0.11     -0.21
    9    8    9      0.47      0.33
   10    8    9     -2.01     -0.22
   11    8    9      0.59      0.05
   12    8    9      0.56      1.30
  -10    9    9      0.39     -0.87
   -9    9    9     -0.30      0.93
   -8    9    9     -2.01     -0.08
   -7    9    9      2.40     -0.76
   -6    9    9      2.90      1.33
   -5    9    9     -3.71     -0.94
   -4    9    9     -0.34     -3.01
   -3    9    9      3.70     -2.11
   -2    9    9      2.99     -0.76
   -1    9    9     -1.45      9.63
    0    9    9     -4.25      1.72
    1    9    9    -11.89      6.39
    2    9    9      4.97     -3.83
    3    9    9      4.26      1.91
    4    9    9     -1.54     -7.64
    5    9    9      0.35      1.25
    6    9    9      2.47     -0.37
    7    9    9     -5.29     -3.86
    8    9    9     -1.07      0.78
    9    9    9      4.74      3.44
   10    9    9      1.07     -1.20
   11    9    9     -3.20     -2.50
   12    9    9      0.70      0.14
   -9   10    9     -0.01      0.70
   -8   10    9      1.57     -0.60
   -7   10    9     -2.20     -1.17
   -6   10    9      3.59     -2.36
   -5   10    9      2.49     -1.41
   -4   10    9     -0.90     -1.39
   -3   10    9     -1.96     12.65
   -2   10    9      2.63     -1.86
   -1   10    9     -3.97     -8.73
    0   10    9      5.23      3.40
    1   10    9     -0.35      5.39
    2   10    9     -5.66     -6.65
    3   10    9      2.40     -4.29
    4   10    9      3.99      0.95
    5   10    9     -2.06     -3.51
    6   10    9      0.08      3.55
    7   10    9      3.40     -1.53
    8   10    9     -4.24      0.80
    9   10    9      0.19      0.94
   10   10    9      3.31     -1.27
   11   10    9     -2.52     -0.61
   12   10    9     -0.53      0.41
  -10   11    9      0.88     -1.55
   -9   11    9     -0.53      0.37
   -8   11    9      0.23      1.06
   -7   11    9      0.19     -1.02
   -6   11    9     -2.51     -0.68
   -5   11    9     -1.87      3.00
   -4   11    9      1.05     -0.75
   -3   11    9     -1.41      3.28
   -2   11    9     -1.98      3.43
   -1   11    9     -0.74     -5.20
    0   11    9     -8.41     -7.54
    1   11    9     10.40      0.13
    2   11    9     -2.51     -4.63
    3   11    9     -1.71      1.98
    4   11    9      1.37      3.98
    5   11    9      1.82     -1.17
    6   11    9     -3.62     -1.89
    7   11    9      4.53      4.21
    8   11    9      2.13     -1.93
    9   11    9     -3.92      0.07
   10   11    9      0.81     -0.34
   11   11    9      0.95      0.89
   -9   12    9      0.60     -1.62
   -8   12    9     -1.38     -0.04
   -7   12    9      2.14      2.11
   -6   12    9      0.68     -0.88
   -5   12    9     -3.05      4.93
   -4   12    9     -1.59      0.79
   -3   12    9      5.47     -6.40
   -2   12    9      0.31     -0.20
   -1   12    9     -0.26      5.87
    0   12    9     -0.34     -4.12
    1   12    9      0.97     -1.16
    2   12    9      2.92      0.92
    3   12    9     -0.37      0.96
    4   12    9      0.31      0.96
    5   12    9      1.99      0.59
    6   12    9      0.54      2.57
    7   12    9     -1.76     -0.28
    8   12    9      4.90     -2.12
    9   12    9     -1.68     -1.75
   10   12    9     -1.91      2.31
   11   12    9      1.54     -0.05
   -9   13    9      0.59     -0.63
   -8   13    9      0.44     -0.40
   -7   13    9     -1.73      0.14
   -6   13    9      0.74     -2.46
   -5   13    9      3.61     -1.61
   -4   13    9     -1.32      0.10
   -3   13    9     -3.04     -3.56
   -2   13    9     -2.41     -3.75
   -1   13    9      4.58     -0.43
    0   13    9      2.51      2.35
    1   13    9      0.61      0.25
    2   13    9     -0.61      3.32
    3   13    9      1.82     -4.51
    4   13    9     -1.39      1.91
    5   13    9      0.88     -0.60
    6   13    9      1.03      1.04
    7   13    9     -0.99      1.20
    8   13    9     -1.58     -0.93
    9   13    9      0.40     -1.28
   10   13    9     -1.61      0.66
   11   13    9      1.48      0.84
   -9   14    9      1.06      0.51
   -8   14    9      0.24      0.22
   -7   14    9     -0.70      0.26
   -6   14    9     -2.12      0.30
   -5   14    9      1.03     -3.72
   -4   14    9      1.08      0.65
   -3   14    9     -1.77      3.01
   -2   14    9     -3.84      1.19
   -1   14    9      2.68      3.88
    0   14    9     -0.03     -0.63
    1   14    9      0.09     -1.30
    2   14    9      1.99      4.72
    3   14    9     -0.78     -1.23
    4   14    9     -1.68      0.50
    5   14    9     -1.80      4.21
    6   14    9      2.19     -4.32
    7   14    9     -1.36      0.87
    8   14    9     -0.76      3.52
    9   14    9      0.26     -0.48
   10   14    9      0.33     -1.26
   -9   15    9     -0.52      0.16
   -8   15    9      0.27     -1.04
   -7   15    9      0.56     -1.28
   -6   15    9      1.65      2.55
   -5   15    9      0.73      0.30
   -4   15    9     -1.51     -1.18
   -3   15    9      4.08      1.68
   -2   15    9      2.05      0.68
   -1   15    9     -0.86      0.17
    0   15    9      1.95      2.58
    1   15    9     -0.89     -4.54
    2   15    9      0.37      1.46
    3   15    9     -1.27      3.29
    4   15    9      0.71     -1.99
    5   15    9     -1.13      0.83
    6   15    9      0.95      1.49
    7   15    9     -1.67     -5.86
    8   15    9     -0.41      1.12
    9   15    9      1.65      1.42
   10   15    9      0.16     -1.15
   -9   16    9     -1.65     -0.18
   -8   16    9      0.77      0.78
   -7   16    9      1.37     -0.93
   -6   16    9      0.18     -0.09
   -5   16    9      1.10      2.48
   -4   16    9     -1.17     -0.53
   -3   16    9     -2.90     -1.60
   -2   16    9     -0.18     -0.41
   -1   16    9      1.01     -3.79
    0   16    9     -1.30      3.62
    1   16    9     -4.12     -0.42
    2   16    9     -2.20     -3.83
    3   16    9     -0.04      2.17
    4   16    9      1.08     -0.23
    5   16    9     -0.87     -2.31
    6   16    9     -0.77      0.97
    7   16    9     -0.24      0.37
    8   16    9     -0.89     -2.63
    9   16    9      0.46      2.03
   -9   17    9      0.80     -0.39
   -8   17    9      0.42      1.07
   -7   17    9      0.61      1.77
   -6   17    9     -1.46     -0.75
   -5   17    9     -1.50     -1.13
   -4   17    9      1.93      0.56
   -3   17    9      0.35      0.61
   -2   17    9     -3.07      1.07
   -1   17    9     -2.00     -1.38
    0   17    9      1.99      0.74
    1   17    9     -0.55      3.07
    2   17    9     -0.13     -1.90
    3   17    9     -0.53      0.34
    4   17    9      1.61     -0.35
    5   17    9      0.00     -1.09
    6   17    9      0.46     -1.69
    7   17    9      1.34      3.36
    8   17    9      1.00     -0.06
    9   17    9      0.31     -0.64
   -8   18    9     -0.82     -0.13
   -7   18    9     -0.13      0.18
   -6   18    9      0.23      0.80
   -5   18    9     -1.52     -0.21
   -4   18    9     -1.00     -1.34
   -3   18    9      1.71     -1.36
   -2   18    9      3.10      0.95
   -1   18    9     -4.24     -1.68
    0   18    9      1.47     -2.61
    1   18    9      4.33      1.44
    3   18    9     -0.32     -1.06
    4   18    9     -0.63      0.92
    5   18    9      1.66     -0.24
    6   18    9     -1.04     -0.44
    7   18    9      0.25      0.62
    8   18    9      0.73     -0.67
   -8   19    9     -0.74      0.34
   -7   19    9      0.01     -0.41
   -6   19    9      1.05     -0.39
   -5   19    9      0.32      0.54
   -4   19    9     -0.87      0.71
   -3   19    9     -0.38     -1.73
   -2   19    9      2.02      0.05
   -1   19    9      2.22      0.81
    0   19    9     -2.35     -3.01
    1   19    9     -0.98      1.12
    2   19    9      0.24      1.34
    3   19    9      1.41     -1.14
    4   19    9     -0.82      0.79
    5   19    9      0.67      1.93
    6   19    9     -0.24     -0.40
    7   19    9     -0.41      1.01
    8   19    9     -0.61     -0.35
   -7   20    9     -1.55      0.20
   -6   20    9      0.57     -0.66
   -5   20    9      0.42     -1.05
   -4   20    9      0.99     -0.06
   -3   20    9      0.42      1.18
   -2   20    9     -0.03     -0.75
   -1   20    9      1.71      2.10
    0   20    9      0.73     -0.93
    1   20    9     -1.26      0.11
    2   20    9     -0.78      4.48
    3   20    9      2.17     -0.52
    4   20    9     -0.05     -1.59
    5   20    9     -1.15      0.31
    6   20    9      0.15     -0.52
    7   20    9      0.83      0.12
   -6   21    9     -0.23      0.60
   -5   21    9      0.75     -0.11
   -4   21    9      0.25      0.76
   -3   21    9     -0.42     -0.02
   -2   21    9      0.11      0.20
   -1   21    9     -0.87      1.12
    0   21    9     -0.95      0.36
    1   21    9      1.92     -1.16
    2   21    9     -0.78      0.74
    3   21    9     -0.03      0.86
    4   21    9      0.06     -0.24
    5   21    9     -0.75     -0.32
    6   21    9     -0.71      0.36
   -5   22    9      0.20      1.05
   -4   22    9      0.42      0.29
   -3   22    9     -0.17      0.47
   -2   22    9     -0.96     -1.08
   -1   22    9      0.63      0.06
    0   22    9     -1.25      2.32
    1   22    9      0.17     -1.23
    2   22    9      1.14     -0.66
    3   22    9     -2.09      0.33
    4   22    9      0.42     -0.01
    5   22    9      0.74     -0.01
   -4   23    9     -0.12     -0.28
   -3   23    9      0.09     -0.27
   -2   23    9     -0.36     -0.69
   -1   23    9      0.93     -1.04
    0   23    9     -0.02      1.60
    1   23    9     -0.55     -0.35
    2   23    9     -0.09     -1.01
    3   23    9     -0.88      0.03
  -10    0   10      2.14      0.00
   -9    0   10      0.55      0.02
   -8    0   10     -6.72      0.00
   -7    0   10      3.77     -0.01
   -3    0   10     15.06      0.01
   -2    0   10     13.55      0.02
   -1    0   10     -1.99      0.00
    0    0   10     15.09     -0.01
    1    0   10    -15.74      0.00
    2    0   10      9.19      0.02
    3    0   10     -2.13      0.00
    4    0   10     -6.84      0.00
    5    0   10      0.28     -0.03
    6    0   10     11.80      0.20
    7    0   10     -2.69      0.03
    8    0   10     -2.98     -0.02
    9    0   10      3.24     -0.02
   10    0   10     -0.26     -0.01
   11    0   10      0.68      0.01
   12    0   10     -1.60      0.01
  -11    1   10      0.01     -0.83
  -10    1   10     -0.08      1.64
   -9    1   10     -0.14     -0.99
   -8    1   10      0.21      2.00
   -7    1   10     -1.93      0.15
   -4    1   10     -2.73      3.76
   -3    1   10     11.55     -0.44
   -2    1   10     19.12      3.91
   -1    1   10    -22.59     -8.51
    0    1   10     -1.93      2.26
    1    1   10     -0.83     10.16
    2    1   10    -23.40      3.13
    3    1   10     -0.48     -1.48
    4    1   10      8.79      0.29
    5    1   10      1.18      1.73
    6    1   10     -0.29     -4.72
    7    1   10      5.26      1.86
    8    1   10     -0.68     -1.69
    9    1   10      2.12     -0.36
   10    1   10     -1.26      0.12
   11    1   10     -1.09     -0.01
   12    1   10      1.56     -0.52
   13    1   10      0.30      0.40
  -11    2   10     -0.32     -0.42
  -10    2   10     -1.22     -0.05
   -9    2   10      0.26      0.06
   -8    2   10      3.85      0.02
   -7    2   10     -1.20     -0.86
   -4    2   10      7.56      6.16
   -3    2   10     -9.30      5.12
   -2    2   10     -6.53     -4.40
   -1    2   10     -4.38     10.70
    0    2   10     -7.07     -2.54
    1    2   10      6.11      2.90
    2    2   10      1.75     -4.04
    3    2   10      4.39      6.98
    4    2   10      8.68     -3.61
    5    2   10     -3.11      4.79
    6    2   10     -4.34     -0.53
    7    2   10      0.42      1.64
    8    2   10      3.37      2.64
    9    2   10     -1.37     -2.74
   10    2   10     -1.18     -1.61
   11    2   10     -1.59      2.22
   12    2   10      2.05     -0.94
   13    2   10      1.39     -1.12
  -11    3   10     -1.51      0.81
  -10    3   10     -0.97     -0.25
   -9    3   10     -0.04      2.89
   -8    3   10      0.32     -2.65
   -7    3   10     -0.90     -2.90
   -6    3   10      4.06      2.33
   -4    3   10     -0.95     -3.73
   -3    3   10     -6.25     -1.95
   -2    3   10     -4.88     -3.53
   -1    3   10      0.05     10.90
    0    3   10      6.74     -2.62
    1    3   10      0.19    -14.66
    2    3   10      5.58     -6.00
    3    3   10      2.78      2.95
    4    3   10     -4.65     -2.71
    5    3   10     -1.76     -1.31
    6    3   10     -2.25      7.05
    7    3   10      2.63      1.01
    8    3   10     -3.53     -0.79
    9    3   10      1.08      0.47
   10    3   10      1.30     -0.69
   11    3   10      0.00      0.31
   12    3   10      0.02      1.91
   13    3   10     -0.18     -0.43
  -11    4   10      1.82     -0.43
  -10    4   10     -2.03      1.68
   -9    4   10     -0.44      1.14
   -8    4   10      3.20     -2.12
   -7    4   10     -2.01     -1.55
   -6    4   10     -0.80      1.33
   -5    4   10      3.40      4.18
   -4    4   10     -6.77     -5.34
   -3    4   10     -2.86     -5.04
   -2    4   10      3.31      1.16
   -1    4   10      3.09     -3.47
    0    4   10      1.30     -5.71
    1    4   10      7.17      7.50
    2    4   10    -12.60      3.82
    3    4   10     -4.37     -0.85
    4    4   10     -3.54      1.65
    5    4   10      1.29      2.13
    6    4   10     -2.10     -2.05
    7    4   10      2.36     -0.22
    8    4   10     -1.46     -2.18
    9    4   10     -2.30      2.53
   10    4   10      3.32      1.47
   11    4   10      1.99     -2.19
   12    4   10     -1.34     -0.26
   13    4   10      0.08      1.44
  -11    5   10      0.13      1.22
  -10    5   10      1.54     -2.77
   -9    5   10     -1.92     -3.66
   -8    5   10      0.58      0.85
   -7    5   10      1.12      5.02
   -6    5   10     -6.49     -3.23
   -5    5   10      4.38     -1.81
   -4    5   10      9.72      0.15
   -3    5   10     -3.02      1.72
   -2    5   10      0.34     -3.16
   -1    5   10      9.38      3.97
    0    5   10     -9.38     -4.25
    1    5   10      0.31      4.42
    2    5   10      7.14      3.93
    3    5   10     -4.65     -1.56
    4    5   10     -2.01      3.86
    5    5   10      4.22     -1.19
    6    5   10      0.80     -2.53
    7    5   10     -0.59     -6.42
    8    5   10      1.62      3.27
    9    5   10     -0.74      1.83
   10    5   10     -0.51      0.47
   11    5   10     -0.43     -0.53
   12    5   10     -0.62     -1.83
  -11    6   10     -1.31     -0.83
  -10    6   10      3.16     -0.12
   -9    6   10      0.66     -1.34
   -8    6   10     -5.91      2.53
   -7    6   10      3.49      3.26
   -6    6   10      5.12     -0.06
   -5    6   10     -3.32     -4.73
   -4    6   10      2.15      2.06
   -3    6   10      4.92      3.17
   -2    6   10     -2.55     -3.10
   -1    6   10      2.89      1.02
    0    6   10    -10.34      6.07
    1    6   10     -5.24     -6.72
    2    6   10      4.80     -4.27
    3    6   10      4.60     -2.23
    4    6   10     -4.31      0.10
    5    6   10      5.29     -3.33
    6    6   10      1.23      2.61
    7    6   10     -2.50      0.78
    8    6   10     -1.35     -1.87
    9    6   10      2.16      0.23
   10    6   10     -0.60      1.27
   11    6   10     -1.26      0.44
   12    6   10      0.31      0.24
  -10    7   10     -0.46      0.82
   -9    7   10      0.79      2.77
   -8    7   10     -0.02     -1.80
   -7    7   10      2.75     -1.17
   -6    7   10      2.56      2.06
   -5    7   10     -1.48     -0.23
   -4    7   10     -8.79      1.24
   -3    7   10      3.54      6.68
   -2    7   10     -5.37      0.67
   -1    7   10     -0.47     -5.09
    0    7   10      2.71      0.65
    1    7   10      3.89      4.75
    2    7   10     -4.54     -3.31
    3    7   10      2.06     -4.09
    4    7   10      5.61      1.61
    5    7   10     -4.39      1.73
    6    7   10      0.27      0.58
    7    7   10     -1.72      4.87
    8    7   10      2.92      1.85
    9    7   10     -1.23     -3.77
   10    7   10     -1.52     -0.90
   11    7   10      1.91      2.61
   12    7   10      0.05     -1.73
  -10    8   10     -0.19     -0.44
   -9    8   10      0.18      1.00
   -8    8   10      1.26     -0.39
   -7    8   10     -2.00     -0.89
   -6    8   10     -3.21      0.89
   -5    8   10     -0.95      1.20
   -4    8   10      0.60      0.72
   -3    8   10      0.61      1.89
   -2    8   10     -3.62      0.09
   -1    8   10      0.41     -6.78
    0    8   10     12.38      0.87
    1    8   10      3.36     -9.11
    2    8   10     -0.44      8.12
    3    8   10     -2.53      1.43
    4    8   10      0.69      2.21
    5    8   10     -3.96      1.56
    6    8   10     -0.40      0.48
    7    8   10      1.13     -2.48
    8    8   10      1.48      3.15
    9    8   10      0.73     -0.73
   10    8   10     -3.00     -3.02
   11    8   10      0.14      2.25
   12    8   10      0.25      0.92
  -10    9   10     -1.10     -0.07
   -9    9   10      1.83     -0.27
   -8    9   10     -1.53      1.60
   -7    9   10     -2.60     -1.83
   -6    9   10      0.03      3.61
   -5    9   10      0.55      0.81
   -4    9   10     -2.04     -3.02
   -3    9   10      1.02     -9.89
   -2    9   10      3.97      2.18
   -1    9   10     -0.72      0.94
    0    9   10     -1.03      5.87
    1    9   10     -1.90     -4.92
    2    9   10     -3.02      2.01
    3    9   10      2.06      9.31
    4    9   10     -2.71     -3.10
    5    9   10      0.06     -1.73
    6    9   10      0.30      1.02
    7    9   10     -1.04     -0.46
    8    9   10     -4.63     -3.99
    9    9   10      2.15      3.07
   10    9   10      1.28      1.25
   11    9   10     -0.38     -2.04
   12    9   10     -1.06      1.56
  -10   10   10     -1.47     -0.19
   -9   10   10     -1.33     -0.37
   -8   10   10      1.56      0.87
   -7   10   10      0.63     -0.65
   -6   10   10     -0.82     -1.17
   -5   10   10      3.20      1.47
   -4   10   10      1.59     -2.77
   -3   10   10     -4.42     -4.05
   -2   10   10      5.07      5.05
   -1   10   10     -1.22      4.86
    0   10   10      1.56     -0.12
    1   10   10     -4.81     11.04
    2   10   10     -0.46     -1.53
    3   10   10     -2.30     -4.77
    4   10   10      3.65     -0.99
    5   10   10     -1.63     -1.60
    6   10   10      0.52     -1.34
    7   10   10     -0.18      0.79
    8   10   10     -2.16     -0.39
    9   10   10     -1.33      0.39
   10   10   10      2.90      1.50
   11   10   10      0.19     -2.94
   -9   11   10     -0.87     -0.85
   -8   11   10      0.32      0.88
   -7   11   10     -0.62      0.01
   -6   11   10      0.62     -3.34
   -5   11   10     -1.38     -3.14
   -4   11   10      4.93      3.41
   -3   11   10     -2.75      3.88
   -2   11   10     -1.26      1.41
   -1   11   10     -1.21     -2.02
    0   11   10     -1.81     -3.74
    1   11   10      1.55     -0.15
    2   11   10      1.97      1.66
    3   11   10     -4.37     -5.88
    4   11   10     -0.65      0.24
    5   11   10      1.85      0.33
    6   11   10     -4.20     -2.36
    7   11   10      3.03     -1.50
    8   11   10      0.73      1.59
    9   11   10     -1.73     -0.71
   10   11   10      0.32      0.26
   11   11   10     -0.44     -0.96
  -10   12   10      0.82     -0.02
   -9   12   10      0.32     -0.31
   -8   12   10     -0.49     -0.77
   -7   12   10     -0.75      0.74
   -6   12   10      0.04      2.08
   -5   12   10     -3.13      0.06
   -4   12   10     -1.77      2.26
   -3   12   10      2.59      3.25
   -2   12   10      2.32     -3.28
   -1   12   10     -0.96      2.63
    0   12   10     -9.78     -2.37
    1   12   10      0.40     -2.68
    2   12   10      4.83     -5.07
    3   12   10     -0.56      4.82
    4   12   10     -2.64     -0.94
    5   12   10      3.08     -0.08
    6   12   10     -2.03     -0.46
    7   12   10     -1.77      2.03
    8   12   10      4.87     -0.51
    9   12   10     -0.78     -1.55
   10   12   10      0.11      0.38
   11   12   10     -0.96      1.16
   -9   13   10     -1.70     -0.11
   -8   13   10      0.80     -1.35
   -7   13   10      1.67      1.03
   -6   13   10      0.17     -0.49
   -5   13   10     -1.29      2.23
   -4   13   10      1.11      0.16
   -3   13   10      1.46     -1.63
   -2   13   10     -0.42     -5.19
   -1   13   10      2.59     -1.07
    0   13   10      2.26      1.51
    1   13   10     -4.01      2.17
    2   13   10      0.90     -1.22
    3   13   10      3.16     -2.05
    4   13   10      0.23      0.31
    5   13   10      0.33     -1.72
    6   13   10      3.68      1.80
    7   13   10     -2.00     -0.36
    8   13   10      1.99      0.63
    9   13   10      0.75     -2.36
   10   13   10     -1.23      0.05
   11   13   10      0.13      0.79
   -9   14   10      0.72      0.52
   -8   14   10     -1.03     -0.33
   -7   14   10     -0.33      0.23
   -6   14   10      0.37     -1.15
   -5   14   10     -0.96     -3.12
   -4   14   10      0.08     -1.38
   -3   14   10      0.42      1.91
   -2   14   10     -5.88     -1.77
   -1   14   10     -0.07     -2.23
    0   14   10      4.80      0.35
    1   14   10      0.90     -0.31
    2   14   10     -2.80      2.89
    3   14   10      4.43     -1.47
    4   14   10     -1.01     -1.63
    5   14   10     -1.55      1.09
    6   14   10      0.85     -0.01
    7   14   10      1.78     -1.01
    8   14   10     -1.77      0.89
    9   14   10     -0.21      1.05
   10   14   10     -1.34     -0.89
   -9   15   10      1.93      1.08
   -8   15   10     -0.29     -0.40
   -7   15   10     -1.82     -1.19
   -6   15   10     -0.63      1.80
   -5   15   10      2.01      0.38
   -4   15   10     -0.96     -3.41
   -3   15   10      1.07      3.11
   -2   15   10      2.36      4.62
   -1   15   10     -1.93      1.99
    0   15   10      0.72     -0.64
    1   15   10      3.10     -1.77
    2   15   10     -0.33      0.35
    3   15   10      0.21      3.05
    4   15   10      0.10      0.56
    5   15   10     -0.97      0.66
    6   15   10      1.50      1.73
    7   15   10     -0.63     -1.20
    8   15   10     -0.02      0.28
    9   15   10      0.03      1.49
   10   15   10      0.17     -0.76
   -9   16   10     -0.96     -0.16
   -8   16   10     -0.49     -0.39
   -7   16   10      1.02     -2.38
   -6   16   10      0.93     -0.20
   -5   16   10      1.28      3.89
   -4   16   10      0.22     -0.38
   -3   16   10     -1.01     -3.02
   -2   16   10      1.80      0.93
   -1   16   10      2.81      0.27
    0   16   10     -0.14      1.57
    1   16   10      0.46     -0.91
    2   16   10     -2.38     -0.55
    3   16   10     -1.31     -1.02
    4   16   10      1.40      2.61
    5   16   10     -0.10     -1.09
    6   16   10      0.83      1.07
    7   16   10     -0.32     -0.88
    8   16   10     -2.18     -2.37
    9   16   10      0.41      0.94
   -9   17   10      0.60      0.10
   -8   17   10      0.31      0.88
   -7   17   10      0.73      0.04
   -6   17   10      0.59     -1.29
   -5   17   10     -0.53      0.37
   -4   17   10     -0.91      1.66
   -3   17   10     -0.22     -0.39
   -2   17   10     -3.38      0.27
   -1   17   10     -0.35     -0.64
    0   17   10     -0.62      1.10
    1   17   10     -1.08      1.58
    2   17   10     -1.38     -0.73
    3   17   10     -2.16     -0.85
    4   17   10      1.07      0.52
    5   17   10     -0.76      0.10
    6   17   10     -1.06     -1.40
    7   17   10      0.88      1.37
    8   17   10     -0.12      0.01
    9   17   10     -1.19     -0.40
   -8   18   10      0.82      0.99
   -7   18   10     -0.40      1.27
   -6   18   10     -0.77     -1.31
   -5   18   10     -0.21     -0.36
   -4   18   10     -0.14     -0.21
   -3   18   10      0.16     -0.13
   -2   18   10      0.39      1.57
   -1   18   10     -3.52      0.70
    0   18   10     -0.99     -1.19
    1   18   10      1.55      0.88
    3   18   10     -1.93     -1.47
    4   18   10     -0.21      0.10
    5   18   10      0.96     -0.35
    6   18   10     -0.05     -0.65
    7   18   10     -0.39      0.00
    8   18   10      1.79      1.06
   -7   19   10      0.34      0.87
   -6   19   10      0.57      0.18
   -5   19   10     -0.28     -0.31
   -4   19   10     -0.62      1.53
   -3   19   10     -1.36     -2.30
   -2   19   10      1.38     -2.36
   -1   19   10      0.79      0.85
    0   19   10     -1.35     -0.66
    1   19   10     -0.44     -2.34
    2   19   10      1.63     -0.43
    3   19   10      0.47     -0.65
    4   19   10     -0.89     -0.43
    5   19   10      0.76      1.06
    6   19   10      0.54     -0.17
    7   19   10     -1.22     -0.02
   -6   20   10     -0.34      0.24
   -5   20   10      1.02     -1.25
   -4   20   10     -0.01     -0.31
   -3   20   10      0.05      1.76
   -2   20   10      0.02     -2.00
   -1   20   10      1.37     -0.97
    0   20   10      1.18      0.16
    1   20   10     -2.40     -0.64
    2   20   10     -1.34      0.36
    3   20   10      1.44      1.96
    4   20   10      0.94     -1.12
    5   20   10     -0.28      0.60
    6   20   10      0.68     -0.22
    7   20   10     -0.05      0.21
   -6   21   10     -0.24      0.34
   -5   21   10     -0.47     -0.84
   -4   21   10      0.91     -1.40
   -3   21   10      0.13      1.21
   -2   21   10      0.00      1.21
   -1   21   10      0.58     -0.60
    0   21   10      0.53     -0.65
    1   21   10      0.84      0.05
    2   21   10     -0.89      0.71
    3   21   10      1.28      1.01
    4   21   10      0.54     -0.56
    5   21   10     -0.76     -0.58
   -5   22   10      0.40      0.18
   -4   22   10      0.00      0.44
   -3   22   10      0.59      0.19
   -2   22   10     -1.26      0.16
   -1   22   10      0.13      0.66
    0   22   10      0.07     -0.08
    1   22   10      0.62      0.23
    2   22   10      0.21     -0.59
    3   22   10      0.37      0.45
    4   22   10     -0.28      0.31
   -2   23   10     -0.40     -0.83
   -1   23   10     -0.48     -0.74
    0   23   10      0.06      1.13
    1   23   10      0.60      0.73
    2   23   10      0.39     -0.12
    3   23   10     -0.37     -0.48
  -11    0   11     -1.12      0.00
  -10    0   11     -1.33      0.00
   -9    0   11      6.44      0.01
   -8    0   11     -5.61      0.01
   -7    0   11     -2.53     -0.01
   -6    0   11      6.03     -0.01
   -3    0   11     -0.88     -0.01
   -2    0   11    -15.72      0.01
   -1    0   11     11.16     -0.01
    0    0   11     18.19      0.01
    1    0   11      5.68      0.00
    2    0   11      4.81      0.01
    3    0   11      1.41     -0.01
    5    0   11     -5.92     -0.03
    6    0   11      9.04     -0.07
    7    0   11     -3.10      0.02
    8    0   11     -6.39      0.07
    9    0   11     -1.51     -0.02
   10    0   11      1.34      0.01
   11    0   11      2.45      0.00
   12    0   11     -1.39      0.00
  -11    1   11      2.67      1.07
  -10    1   11     -1.96     -1.30
   -9    1   11      2.04     -0.26
   -8    1   11     -0.50     -0.20
   -7    1   11     -3.05      0.76
   -6    1   11      1.57     -0.29
   -4    1   11     -9.84     -2.47
   -3    1   11      9.52     -7.66
   -2    1   11     25.15      5.19
   -1    1   11     -7.19     -2.24
    0    1   11     -2.62     -2.28
    1    1   11     -1.04     -3.46
    2    1   11      3.47      6.45
    3    1   11     -6.69     -7.65
    4    1   11     -1.61      1.62
    5    1   11     -0.89      0.74
    6    1   11      4.55     -3.91
    7    1   11      6.84     -3.15
    8    1   11     -1.51      1.50
    9    1   11     -0.75      0.15
   10    1   11      0.33     -0.33
   11    1   11      0.43      0.27
   12    1   11     -0.28      0.19
   13    1   11     -1.92      0.19
  -11    2   11      1.16     -0.09
  -10    2   11      0.06      1.66
   -9    2   11     -1.28     -2.10
   -8    2   11      2.06      1.74
   -7    2   11      1.77      1.45
   -6    2   11     -3.76     -2.23
   -4    2   11      0.65      9.39
   -3    2   11      4.43      0.78
   -2    2   11     10.98     -2.92
   -1    2   11     -8.27     -7.02
    0    2   11    -12.68     10.52
    1    2   11     -2.57      5.41
    2    2   11     -3.65      5.90
    3    2   11     -0.10     -0.33
    4    2   11      7.23     -7.66
    5    2   11      1.38      6.31
    6    2   11     -2.84     -0.19
    7    2   11      0.02     -3.73
    8    2   11      3.91     -1.81
    9    2   11      1.55      2.20
   10    2   11     -0.91     -1.87
   11    2   11     -2.40     -1.06
   12    2   11      0.72      0.89
   13    2   11      1.29      0.01
  -12    3   11     -1.19     -0.82
  -11    3   11      0.18     -0.37
  -10    3   11     -1.23      0.18
   -9    3   11     -0.01      0.01
   -8    3   11      2.10      1.54
   -7    3   11      0.09     -1.12
   -6    3   11     -1.68     -0.40
   -4    3   11      6.87      4.37
   -3    3   11     -8.46      9.40
   -2    3   11     -1.32     -3.15
   -1    3   11     -2.90     -1.43
    0    3   11     -0.80      5.25
    1    3   11      0.96      3.40
    2    3   11      8.28    -11.61
    3    3   11      2.65      9.30
    4    3   11      8.15     -1.89
    5    3   11     -1.61     -6.60
    6    3   11     -1.93      7.28
    7    3   11      0.06      5.85
    8    3   11      1.20     -1.60
    9    3   11     -0.13     -2.21
   10    3   11     -0.16      0.01
   11    3   11     -1.41     -0.16
   12    3   11      0.26      0.71
  -12    4   11     -0.68     -0.26
  -11    4   11      0.19     -0.93
  -10    4   11      1.06      1.58
   -9    4   11     -3.58      2.67
   -8    4   11      1.90      0.47
   -7    4   11      1.34     -3.87
   -6    4   11      0.36      1.83
   -5    4   11     -4.70      3.25
   -4    4   11      2.53     -2.85
   -3    4   11     -7.18     -5.80
   -2    4   11     -1.91      4.22
   -1    4   11      3.46      5.92
    0    4   11      4.36     -9.67
    1    4   11     -0.35     -4.48
    2    4   11      0.76     -2.07
    3    4   11     -2.38      1.70
    4    4   11     -2.96      3.25
    5    4   11      2.47     -1.83
    6    4   11     -4.81     -2.47
    7    4   11      1.02      5.39
    8    4   11      0.73      0.97
    9    4   11     -1.67     -1.89
   10    4   11      1.19      0.53
   11    4   11      1.24      0.23
   12    4   11      0.44      1.02
  -11    5   11     -0.06      0.08
  -10    5   11      0.23      0.90
   -9    5   11      0.17      0.28
   -8    5   11     -0.51     -3.56
   -7    5   11      1.39     -0.97
   -6    5   11     -0.60      1.52
   -5    5   11     -3.04      2.40
   -4    5   11      0.77     -3.22
   -3    5   11      3.53     -1.59
   -2    5   11     -6.73     -4.37
   -1    5   11      5.11      6.33
    0    5   11      7.86     -1.68
    1    5   11     -4.82      1.40
    2    5   11     -5.00      5.05
    3    5   11     -1.45      3.84
    4    5   11     -3.79     -0.93
    5    5   11     -0.61      6.56
    6    5   11      1.96     -2.30
    7    5   11     -2.42     -5.32
    8    5   11      0.79     -0.38
    9    5   11     -0.60      3.22
   10    5   11      0.49      1.75
   11    5   11      2.44     -1.59
   12    5   11     -1.32     -1.81
  -11    6   11     -1.37      0.89
  -10    6   11     -0.75     -1.84
   -9    6   11      2.05     -1.85
   -8    6   11     -0.82     -0.07
   -7    6   11     -4.80      1.93
   -6    6   11      1.32     -1.36
   -5    6   11      3.61      1.04
   -4    6   11      4.63     -4.01
   -3    6   11      1.75      2.39
   -2    6   11      1.32     -0.94
   -1    6   11     -3.17     -1.69
    0    6   11      2.82      4.30
    1    6   11     -4.92      4.02
    2    6   11      0.02     -4.07
    3    6   11      3.89     -1.74
    4    6   11     -5.76      2.16
    5    6   11      1.71     -4.72
    6    6   11      4.63      1.34
    7    6   11      1.16     -1.42
    8    6   11     -3.02     -3.10
    9    6   11      0.86     -0.30
   10    6   11     -0.31      1.98
   11    6   11     -0.76      1.02
   12    6   11      0.31     -1.59
  -11    7   11      0.09     -1.29
  -10    7   11      1.43      0.42
   -9    7   11     -0.04     -0.87
   -8    7   11     -1.12      2.66
   -7    7   11      1.58      0.95
   -6    7   11      3.76     -2.00
   -5    7   11      1.12     -0.11
   -4    7   11     -2.12      2.67
   -3    7   11      2.36     -2.06
   -2    7   11      1.08      3.22
   -1    7   11     -4.60      1.99
    0    7   11    -11.42     -6.19
    1    7   11      3.68      5.85
    2    7   11     -2.95     -2.23
    3    7   11      4.20     -9.00
    4    7   11     -1.33     -0.72
    5    7   11      1.72      1.98
    6    7   11      0.91     -3.05
    7    7   11     -0.19      3.03
    8    7   11     -0.72      2.35
    9    7   11      0.41     -2.12
   10    7   11     -0.28     -1.37
   11    7   11     -1.02      1.48
   12    7   11      1.39      1.06
  -10    8   11     -0.35      0.16
   -9    8   11      0.83      1.07
   -8    8   11      0.40     -1.89
   -7    8   11      2.08      2.04
   -6    8   11      0.62     -0.78
   -5    8   11     -0.26     -1.55
   -4    8   11     -6.89      2.71
   -3    8   11      2.90      9.17
   -2    8   11      0.14     -3.85
   -1    8   11     -3.59      1.05
    0    8   11     -0.98     -4.76
    1    8   11      6.98     -1.81
    2    8   11      1.36      1.43
    3    8   11     -1.40     -2.61
    4    8   11      7.27     -1.24
    5    8   11     -4.29      4.59
    6    8   11     -1.37      1.64
    7    8   11      1.64     -2.18
    8    8   11      2.85      3.37
    9    8   11      1.46      2.06
   10    8   11     -1.15     -3.48
   11    8   11     -0.77      0.50
   12    8   11      0.70     -0.24
  -10    9   11     -0.63     -0.47
   -9    9   11     -0.80      0.77
   -8    9   11      2.77      0.73
   -7    9   11     -3.21     -0.70
   -6    9   11     -2.97      1.35
   -5    9   11      2.40      1.07
   -4    9   11     -0.79      0.00
   -3    9   11     -4.57      1.45
   -2    9   11      2.91     -1.51
   -1    9   11      4.15     -8.69
    0    9   11      0.72      4.36
    1    9   11      5.64     -9.32
    2    9   11     -0.76      0.61
    3    9   11     -2.48      6.65
    4    9   11      1.02      3.86
    5    9   11      1.00     -3.36
    6    9   11     -2.61      3.10
    7    9   11      1.84      0.70
    8    9   11     -1.07     -3.26
    9    9   11      0.39      0.77
   10    9   11      0.85      0.47
   11    9   11     -1.46      0.56
   12    9   11     -0.57      0.23
  -10   10   11      0.98      0.45
   -9   10   11     -1.95     -1.13
   -8   10   11     -1.33      0.59
   -7   10   11      3.36      0.77
   -6   10   11     -3.34      1.47
   -5   10   11      0.15      1.53
   -4   10   11      1.90     -0.57
   -3   10   11     -2.09     -9.53
   -2   10   11     -2.60      1.23
   -1   10   11      7.47      4.05
    0   10   11     -1.86      2.08
    1   10   11     -1.24      1.16
    2   10   11     -1.75      1.46
    3   10   11     -0.11      5.14
    4   10   11     -0.79     -0.37
    5   10   11      2.20     -0.15
    6   10   11      0.36     -1.32
    7   10   11     -0.73      3.47
    8   10   11     -2.73     -1.05
    9   10   11     -2.05      0.50
   10   10   11      1.01      1.23
   11   10   11      2.36     -0.34
   -9   11   11      0.49      0.69
   -8   11   11     -1.11     -1.67
   -7   11   11      1.56      1.06
   -6   11   11      1.04      0.26
   -5   11   11     -0.34     -1.99
   -4   11   11      3.01     -1.74
   -3   11   11     -0.66     -1.01
   -2   11   11     -2.84      3.36
   -1   11   11     -0.50      3.35
    0   11   11      7.19      1.24
    1   11   11     -4.11      1.80
    2   11   11      1.32      2.94
    3   11   11     -2.27     -3.17
    4   11   11      0.35     -1.90
    5   11   11     -0.55      1.41
    6   11   11     -0.59     -0.40
    7   11   11      0.66     -2.17
    8   11   11      0.43      1.22
    9   11   11     -1.40      0.42
   10   11   11     -1.28      1.14
   11   11   11      1.98     -2.19
   -9   12   11      0.92      0.27
   -8   12   11     -0.36      1.36
   -7   12   11     -1.78     -2.61
   -6   12   11      0.40     -0.07
   -5   12   11     -0.90     -1.50
   -4   12   11      1.08      1.45
   -3   12   11     -1.47      1.82
   -2   12   11     -0.74      2.95
   -1   12   11     -0.31     -0.79
    0   12   11     -2.46     -1.24
    1   12   11     -1.57     -1.65
    2   12   11      1.92     -0.99
    3   12   11      0.53     -1.46
    4   12   11     -5.49      1.85
    5   12   11      2.13      0.30
    6   12   11     -3.09     -1.29
    7   12   11     -2.22     -0.24
    8   12   11      0.47      0.23
    9   12   11      1.47     -1.91
   10   12   11     -1.48      1.31
   11   12   11     -0.20     -0.07
   -9   13   11      0.25     -0.16
   -8   13   11     -1.24     -0.30
   -7   13   11      0.26      0.74
   -6   13   11      0.96      1.85
   -5   13   11     -2.51     -0.25
   -4   13   11     -2.10      2.98
   -3   13   11      3.84      2.07
   -2   13   11      2.06     -5.20
   -1   13   11     -1.89      1.61
    0   13   11     -1.68     -0.65
    1   13   11     -3.42      1.66
    2   13   11      0.54     -2.71
    3   13   11      1.93      0.39
    4   13   11     -1.06     -0.48
    5   13   11     -0.61      0.72
    6   13   11      1.98     -1.13
    7   13   11     -3.26      1.16
    8   13   11      0.60      2.61
    9   13   11      2.11     -2.60
   10   13   11      0.77     -0.96
   -9   14   11     -1.30      0.26
   -8   14   11      1.12      0.14
   -7   14   11      0.08     -0.96
   -6   14   11      1.62      1.08
   -5   14   11     -0.32      0.13
   -4   14   11     -1.77     -3.02
   -3   14   11      1.28      1.53
   -2   14   11      1.46     -3.04
   -1   14   11     -3.59     -6.50
    0   14   11      2.17      1.83
    1   14   11      1.09      2.28
    2   14   11     -2.54      1.07
    3   14   11      0.92     -1.69
    4   14   11      2.61     -2.20
    5   14   11     -1.27     -1.85
    6   14   11      0.02      1.58
    7   14   11      2.14     -3.60
    8   14   11     -0.78      1.04
    9   14   11      0.64     -0.02
   10   14   11      0.50     -0.82
   -9   15   11      0.32     -0.83
   -8   15   11      0.24      1.95
   -7   15   11     -1.03      0.07
   -6   15   11     -1.48     -2.42
   -5   15   11      0.16      0.56
   -4   15   11      0.46     -1.29
   -3   15   11     -1.52     -1.58
   -2   15   11     -0.17      3.75
   -1   15   11     -0.41      0.79
    0   15   11     -2.15     -4.48
    1   15   11      3.53      0.55
    2   15   11     -0.19      0.68
    3   15   11      1.90      1.30
    4   15   11      0.13     -0.62
    5   15   11     -1.53     -1.68
    6   15   11     -1.13      1.29
    7   15   11      1.32      0.03
    8   15   11      0.50     -1.74
    9   15   11     -1.36      1.59
   -9   16   11      0.56     -0.23
   -8   16   11     -0.49     -1.18
   -7   16   11     -1.50      0.87
   -6   16   11     -0.52     -0.36
   -5   16   11      1.54      0.05
   -4   16   11      1.53      1.39
   -3   16   11     -0.47     -0.47
   -2   16   11      2.80     -0.72
   -1   16   11      1.72      4.32
    0   16   11      0.54     -0.40
    1   16   11      1.39     -2.69
    2   16   11      0.32      0.67
    3   16   11     -1.50      1.18
    4   16   11      1.52      1.27
    5   16   11      0.35     -0.83
    6   16   11      1.10      0.83
    7   16   11      0.35      1.41
    8   16   11      0.13     -0.41
    9   16   11     -0.14     -0.56
   -9   17   11     -0.81      0.19
   -8   17   11      0.15     -1.10
   -7   17   11      0.76     -1.46
   -6   17   11      0.38      0.95
   -5   17   11     -0.18      1.18
   -4   17   11      1.19      0.06
   -3   17   11     -1.66     -0.38
   -2   17   11     -0.47     -1.14
   -1   17   11      4.20     -0.98
    0   17   11     -1.11      2.81
    1   17   11      0.48     -0.15
    2   17   11     -0.55     -0.77
    3   17   11     -2.10     -0.40
    4   17   11     -0.58      0.79
    5   17   11      1.78      0.57
    6   17   11     -0.70     -1.22
    7   17   11      0.84     -0.40
    8   17   11     -0.78      0.03
   -8   18   11      0.65      0.13
   -7   18   11      0.33      0.42
   -6   18   11      0.00     -0.85
   -5   18   11     -1.56     -0.64
   -4   18   11      0.44      0.73
   -3   18   11      1.25      0.93
   -2   18   11     -3.47      0.85
   -1   18   11      0.14      1.58
    0   18   11     -0.54     -0.06
    1   18   11     -1.91      1.31
    3   18   11      0.31     -1.35
    4   18   11     -1.90      0.09
    5   18   11     -0.59      1.32
    6   18   11      0.10     -0.42
    7   18   11     -0.49     -0.47
    8   18   11      1.23      0.66
   -7   19   11     -0.79      0.60
   -6   19   11      0.42     -0.12
   -5   19   11     -0.38     -0.72
   -4   19   11     -0.98     -0.03
   -3   19   11      0.72      0.67
   -2   19   11     -0.26     -0.38
   -1   19   11     -2.16     -0.36
    0   19   11      0.72      2.84
    1   19   11     -0.27     -1.19
    2   19   11      1.08      0.32
    3   19   11      0.99     -0.81
    4   19   11     -0.93     -1.25
    5   19   11      0.13      0.31
    6   19   11      0.51      0.97
    7   19   11     -0.43     -0.47
   -6   20   11     -0.01      0.37
   -5   20   11      0.41      0.49
   -4   20   11     -0.30     -0.38
   -3   20   11     -0.92     -0.26
   -2   20   11      0.29     -0.46
   -1   20   11     -0.01     -1.89
    0   20   11      0.25      0.67
    1   20   11     -1.16      0.09
    2   20   11     -0.84     -2.26
    3   20   11     -0.02      0.95
    4   20   11     -0.21      0.03
    5   20   11      0.68     -0.38
    6   20   11      0.34      0.56
   -5   21   11     -0.39     -0.35
   -4   21   11      0.92     -1.58
   -3   21   11      0.12      0.08
   -2   21   11      0.24      1.06
   -1   21   11     -0.82     -0.41
    0   21   11      1.29     -1.66
    1   21   11     -0.88      0.45
    2   21   11     -1.79      0.04
    3   21   11      0.16      0.76
    4   21   11      1.17      0.76
    5   21   11     -0.13     -0.75
   -4   22   11     -0.74     -0.46
   -3   22   11      0.37     -0.35
   -2   22   11      0.52      1.14
   -1   22   11     -0.80      0.93
    0   22   11      0.23     -1.33
    1   22   11      1.43     -0.10
    2   22   11     -0.98     -0.58
    3   22   11      0.09      0.11
    4   22   11      0.73      0.27
   -1   23   11     -0.11      0.70
    0   23   11     -0.43     -0.69
    1   23   11      0.90      0.47
  -11    0   12     -0.54      0.01
  -10    0   12     -0.15      0.00
   -9    0   12     -1.26     -0.01
   -8    0   12      0.96      0.00
   -7    0   12     -1.57     -0.01
   -6    0   12     -1.64      0.00
   -3    0   12     -9.96     -0.02
   -2    0   12    -22.20     -0.01
   -1    0   12      1.23      0.03
    0    0   12     11.16      0.00
    1    0   12      9.58      0.00
    2    0   12    -10.71      0.00
    5    0   12      0.89      0.03
    6    0   12     -3.92     -0.44
    7    0   12     -5.50      0.03
    8    0   12     -1.76      0.05
    9    0   12      0.28     -0.01
   10    0   12     -0.58      0.01
   11    0   12     -0.80     -0.01
   12    0   12      2.75     -0.01
  -11    1   12      0.06      0.20
  -10    1   12      0.76      0.26
   -9    1   12      1.50     -0.30
   -8    1   12     -0.95     -3.13
   -7    1   12     -2.66      3.23
   -6    1   12      1.10      0.04
   -4    1   12     -2.22     -0.30
   -3    1   12     -6.60     -1.22
   -2    1   12     -5.53     -4.40
   -1    1   12     13.67     10.03
    0    1   12      5.86     -3.45
    1    1   12      9.02    -10.95
    2    1   12      2.63      1.48
    3    1   12     -4.87      2.95
    4    1   12     -6.50     -0.57
    5    1   12     -4.05      0.44
    6    1   12      6.01      1.64
    7    1   12      0.78     -4.04
    8    1   12     -3.55      2.42
    9    1   12     -2.78      1.50
   10    1   12      1.11     -0.72
   11    1   12      0.50      1.03
   12    1   12     -0.16     -0.31
  -12    2   12      0.97      0.73
  -11    2   12     -0.07      0.30
  -10    2   12      0.48     -0.85
   -9    2   12      0.31      3.02
   -8    2   12     -1.28     -5.66
   -7    2   12      0.36     -0.68
   -6    2   12      0.62      6.36
   -4    2   12     -6.51     -5.82
   -3    2   12      7.60      0.74
   -2    2   12     11.46      0.27
   -1    2   12      2.81     -9.39
    0    2   12     -9.72      9.52
    1    2   12     -6.98     -4.69
    2    2   12      3.63     -1.02
    3    2   12     -2.84      0.35
    5    2   12      1.01     -3.42
    6    2   12      0.33      2.66
    7    2   12      2.35     -4.90
    8    2   12      1.05     -5.49
    9    2   12     -0.11      4.31
   10    2   12      0.82      0.34
   11    2   12      0.24     -0.87
   12    2   12     -1.56      0.05
  -12    3   12      0.11     -0.58
  -11    3   12      0.91      0.35
  -10    3   12     -1.01     -2.77
   -9    3   12      0.19      0.94
   -8    3   12     -0.38      3.45
   -7    3   12      2.53     -3.83
   -6    3   12     -2.36     -0.75
   -4    3   12      0.66     -0.75
   -3    3   12      4.04      3.93
   -2    3   12     -0.57      7.13
   -1    3   12     -3.27    -18.42
    0    3   12     -4.37      7.07
    1    3   12     -5.84     18.02
    2    3   12      1.68     -4.12
    3    3   12      4.09     -5.78
    4    3   12      3.39      1.97
    5    3   12      1.41     -2.17
    6    3   12      1.75     -1.93
    7    3   12     -3.53      5.49
    8    3   12      1.23     -2.22
    9    3   12      2.13     -2.52
   10    3   12     -0.54      0.68
   11    3   12     -0.97     -1.63
   12    3   12     -1.25      0.01
  -12    4   12     -0.53     -0.50
  -11    4   12     -1.67      0.79
  -10    4   12      1.62     -1.46
   -9    4   12     -0.24     -2.14
   -8    4   12     -1.55      5.75
   -7    4   12      2.10      1.34
   -6    4   12     -0.06     -5.56
   -5    4   12     -1.78     -1.32
   -4    4   12      3.95      5.95
   -3    4   12     -3.79     -2.61
   -2    4   12     -0.56      3.61
   -1    4   12     -5.16      1.36
    0    4   12      3.38     -7.43
    1    4   12      4.04      0.02
    2    4   12      5.07      0.29
    3    4   12      3.45     -3.62
    4    4   12      3.87      2.90
    5    4   12     -1.72     -2.15
    6    4   12      1.29     -1.89
    7    4   12      1.82      3.73
    8    4   12     -0.89      4.56
    9    4   12      0.19     -2.78
   10    4   12     -0.59     -2.20
   11    4   12     -0.13      0.63
   12    4   12      0.27      1.02
  -12    5   12      1.38     -0.31
  -11    5   12      0.12      0.04
  -10    5   12     -0.22      1.76
   -9    5   12      1.15      0.62
   -8    5   12     -1.11      0.05
   -7    5   12      1.38     -2.40
   -6    5   12      3.04      3.11
   -5    5   12     -6.34     -0.82
   -4    5   12     -3.52      1.49
   -3    5   12      0.93     -5.62
   -2    5   12      1.14      0.29
   -1    5   12     -0.02      5.79
    0    5   12      3.87     -4.24
    1    5   12      2.05     -7.66
    2    5   12     -1.77      1.93
    3    5   12     -3.52      5.79
    4    5   12      2.06     -0.13
    5    5   12      0.10      3.39
    6    5   12     -6.29     -0.40
    7    5   12      0.13      0.21
    8    5   12      2.68     -1.17
    9    5   12     -1.57      1.14
   10    5   12     -0.08      1.60
   11    5   12      2.05     -0.72
   12    5   12      0.57      0.41
  -11    6   12      1.43      2.11
  -10    6   12     -3.04      0.14
   -9    6   12      1.42     -1.34
   -8    6   12      2.11     -1.62
   -7    6   12     -3.08     -1.55
   -6    6   12     -1.08     -0.27
   -5    6   12      0.70      3.09
   -4    6   12      0.13     -3.29
   -3    6   12      1.90     -1.87
   -2    6   12      0.01     -3.29
   -1    6   12      1.31      4.55
    0    6   12     10.72      0.92
    1    6   12     -5.24      3.96
    2    6   12     -3.58      3.22
    3    6   12     -1.44      2.81
    4    6   12     -0.51      0.80
    5    6   12     -1.20      2.45
    6    6   12      2.32     -0.63
    7    6   12     -1.59     -1.42
    8    6   12     -0.34     -0.24
    9    6   12      1.07     -1.71
   10    6   12     -0.69      2.11
   11    6   12      1.20      1.15
   12    6   12     -0.18     -1.98
  -11    7   12     -0.79     -0.24
  -10    7   12     -0.54      1.46
   -9    7   12     -0.05     -1.68
   -8    7   12      2.06     -0.91
   -7    7   12     -4.99      2.70
   -6    7   12      0.79     -1.83
   -5    7   12      4.33     -1.30
   -4    7   12      4.37      0.78
   -3    7   12     -2.46     -1.33
   -2    7   12      4.04     -2.62
   -1    7   12     -4.02      2.85
    0    7   12     -0.79      3.75
    1    7   12     -0.32     -1.76
    2    7   12     -3.38      4.14
    3    7   12      1.00     -1.73
    4    7   12     -3.58     -4.88
    5    7   12     -1.16     -2.56
    6    7   12      3.89      0.95
    7    7   12      2.34     -2.36
    8    7   12     -4.18     -0.02
    9    7   12     -0.62      0.11
   10    7   12      0.83     -1.90
   11    7   12     -1.86      0.83
   12    7   12      1.07      1.17
  -10    8   12     -0.19      0.74
   -9    8   12     -0.39      1.34
   -8    8   12      0.55     -0.60
   -7    8   12      3.05     -1.01
   -6    8   12     -0.07      1.70
   -5    8   12      2.44     -1.13
   -4    8   12     -0.97     -1.10
   -3    8   12     -0.57      2.72
   -2    8   12      2.94      2.28
   -1    8   12     -2.22      1.78
    0    8   12    -13.80     -0.75
    1    8   12      1.51      2.46
    2    8   12      4.03     -4.94
    3    8   12     -0.51     -0.80
    4    8   12      0.44     -3.70
    5    8   12      1.14      0.06
    6    8   12     -2.60      1.22
    7    8   12     -0.29     -0.11
    8    8   12      2.10     -0.04
    9    8   12     -0.04      2.26
   10    8   12     -0.27     -0.40
   11    8   12     -0.48     -1.89
   12    8   12      0.60      1.01
  -10    9   12      0.59     -1.10
   -9    9   12     -1.07      0.68
   -8    9   12      0.86      0.54
   -7    9   12      1.81      1.11
   -6    9   12     -0.84     -2.93
   -5    9   12     -1.79      1.32
   -4    9   12      1.02      0.77
   -3    9   12     -1.17      6.54
   -2    9   12     -0.65     -0.83
   -1    9   12      1.66     -3.33
    0    9   12      0.19     -3.51
    1    9   12     -1.89      2.12
    2    9   12      5.52     -5.13
    3    9   12      0.45     -3.88
    4    9   12      1.03      4.12
    5    9   12      0.06      0.93
    6    9   12      0.05     -0.91
    7    9   12     -0.51      0.19
    8    9   12      2.73     -0.47
    9    9   12      1.76     -0.12
   10    9   12      1.43     -0.45
   11    9   12     -1.74      0.45
  -10   10   12      1.99      0.15
   -9   10   12     -1.11     -0.19
   -8   10   12     -0.96      0.27
   -7   10   12     -0.97      0.41
   -6   10   12      0.15      1.12
   -5   10   12     -0.85     -0.72
   -4   10   12      0.05      2.24
   -3   10   12      0.62      1.14
   -2   10   12     -2.38     -3.94
   -1   10   12      3.83     -6.42
    0   10   12      1.18      2.12
    1   10   12      3.00     -3.02
    2   10   12     -3.51      0.76
    3   10   12      0.23      2.40
    4   10   12      0.34      3.21
    5   10   12      0.30     -0.88
    6   10   12      1.09     -1.19
    7   10   12      1.20      2.47
    8   10   12     -0.84     -1.98
    9   10   12     -2.09     -0.62
   10   10   12      1.48      0.70
   11   10   12      0.07      1.19
  -10   11   12      0.33     -0.64
   -9   11   12      0.18      0.14
   -8   11   12     -1.77     -0.86
   -7   11   12      2.73      0.12
   -6   11   12     -0.91      2.30
   -5   11   12     -0.23      2.70
   -4   11   12     -0.16     -3.29
   -3   11   12      3.10     -5.47
   -2   11   12     -3.20      2.98
   -1   11   12      1.18      2.91
    0   11   12      1.97     -0.20
    1   11   12      0.66      2.88
    2   11   12     -0.80      0.00
    3   11   12     -1.01      3.88
    4   11   12      1.74     -1.78
    5   11   12      1.55      0.89
    6   11   12      0.38     -1.01
    7   11   12      0.46      2.68
    8   11   12      1.87     -0.22
    9   11   12     -1.83      1.50
   10   11   12     -1.69      0.49
   11   11   12      2.27      0.47
   -9   12   12      1.33     -0.17
   -8   12   12      0.41      0.07
   -7   12   12     -0.40      0.33
   -6   12   12      1.71     -2.65
   -5   12   12      0.29      0.29
   -4   12   12      0.13      1.01
   -3   12   12      0.64     -3.88
   -2   12   12     -2.29      4.33
   -1   12   12     -2.49      5.05
    0   12   12      7.55     -0.78
    1   12   12     -2.73     -1.77
    2   12   12     -0.85      2.52
    3   12   12      0.69     -2.61
    4   12   12     -1.29     -0.71
    5   12   12     -0.27      2.23
    6   12   12      1.09      0.28
    7   12   12     -0.90     -1.59
    8   12   12     -0.36      0.33
    9   12   12      1.59     -0.01
   10   12   12     -2.36      0.47
   -9   13   12      1.99      0.58
   -8   13   12     -0.46      0.30
   -7   13   12     -2.42     -0.56
   -6   13   12     -0.62      0.41
   -5   13   12      2.36     -2.68
   -4   13   12     -2.26      3.17
   -3   13   12     -2.47      2.81
   -2   13   12      3.07     -0.77
   -1   13   12     -1.46      1.96
    0   13   12     -2.29      0.17
    1   13   12      2.04     -2.45
    2   13   12     -2.60      0.03
    3   13   12      1.15     -0.01
    4   13   12     -1.49      0.26
    5   13   12     -1.36      2.59
    6   13   12      0.08     -0.80
    7   13   12     -0.52      1.04
    8   13   12     -4.49      1.47
    9   13   12      2.27     -0.52
   10   13   12     -0.57     -0.64
   -9   14   12     -0.40      0.60
   -8   14   12      0.09      0.39
   -7   14   12      1.08      0.03
   -6   14   12     -0.77      2.35
   -5   14   12      0.22      0.62
   -4   14   12     -0.07     -0.81
   -3   14   12     -1.39      1.92
   -2   14   12      3.80     -2.18
   -1   14   12     -1.53     -1.84
    0   14   12     -2.91     -0.39
    1   14   12     -0.38      2.07
    2   14   12      1.31     -0.72
    3   14   12     -2.40      0.30
    4   14   12      0.79     -1.30
    5   14   12      0.81      0.47
    6   14   12     -0.68      0.56
    7   14   12      0.54     -1.17
    8   14   12     -1.20      2.40
    9   14   12      0.61     -0.16
   10   14   12      1.24     -1.12
   -9   15   12     -1.59     -0.96
   -8   15   12      0.72      0.88
   -7   15   12      1.41      0.12
   -6   15   12      0.69     -0.56
   -5   15   12     -1.44     -0.35
   -4   15   12     -0.44     -0.76
   -3   15   12     -0.51     -0.86
   -2   15   12     -0.47     -1.11
   -1   15   12     -0.04     -2.64
    0   15   12     -3.07      0.85
    1   15   12      0.37     -0.64
    2   15   12      0.65      0.81
    3   15   12      0.93      0.33
    4   15   12      0.15     -1.12
    5   15   12      0.28     -1.66
    6   15   12     -2.87      0.92
    7   15   12      0.91     -2.37
    8   15   12      0.31     -1.55
    9   15   12     -0.41      0.75
   -9   16   12      0.12     -0.48
   -8   16   12     -0.36      0.51
   -7   16   12     -1.00      0.81
   -6   16   12     -1.84     -0.98
   -5   16   12      0.76     -1.49
   -4   16   12      1.33      0.23
   -3   16   12     -1.16      1.42
   -2   16   12     -0.96     -0.02
   -1   16   12      2.17      0.62
    0   16   12     -1.30     -1.46
    1   16   12     -0.37     -0.32
    3   16   12      0.39      1.46
    4   16   12      0.93      0.72
    5   16   12     -0.81     -1.47
    6   16   12     -1.42      0.10
    7   16   12     -0.20      1.90
    8   16   12      1.10     -0.86
    9   16   12     -0.59     -0.61
   -8   17   12     -0.81     -0.84
   -7   17   12      0.14      0.06
   -6   17   12     -0.15      0.51
   -5   17   12     -0.52      0.51
   -4   17   12      2.66      0.39
   -3   17   12      0.48     -0.85
   -2   17   12     -1.18     -0.08
   -1   17   12      1.90     -0.62
    0   17   12      4.06     -0.21
    1   17   12     -1.63     -0.10
    4   17   12     -0.98      1.17
    5   17   12      2.43     -1.48
    6   17   12      0.42      0.10
    7   17   12     -0.06      0.31
    8   17   12      0.57      0.70
   -8   18   12      0.14     -0.92
   -7   18   12      1.01     -1.14
   -6   18   12      1.19      1.62
   -5   18   12     -1.54      0.27
   -4   18   12     -1.11      0.11
   -3   18   12      2.64      0.06
   -2   18   12     -1.32     -0.77
   -1   18   12     -0.02      0.33
    0   18   12      1.33     -0.02
    1   18   12      0.14      0.36
    4   18   12     -1.07      0.11
    5   18   12     -0.58      0.55
    6   18   12      0.52     -1.08
    7   18   12     -0.61     -0.40
   -7   19   12     -0.72     -0.52
   -6   19   12      0.09     -0.02
   -5   19   12      0.05     -0.21
   -4   19   12     -1.33     -0.41
   -3   19   12      0.66      1.28
   -2   19   12      1.11      1.35
   -1   19   12     -2.07     -0.23
    0   19   12     -0.43      0.26
    1   19   12      0.96      1.46
    2   19   12      0.11      1.32
    3   19   12      0.66     -1.01
    4   19   12      0.56     -1.06
    5   19   12     -1.99      1.26
    6   19   12      0.67      0.34
   -6   20   12      0.29      0.01
   -5   20   12      0.29      0.12
   -4   20   12     -1.10      0.95
   -3   20   12     -0.93     -1.29
   -2   20   12      0.66      0.90
   -1   20   12      0.05     -0.34
    0   20   12     -0.75      0.73
    1   20   12      1.33      0.53
    2   20   12      0.29     -0.05
    3   20   12      0.42     -0.14
    4   20   12     -0.32     -1.19
    5   20   12     -0.07     -0.06
    6   20   12     -0.03      0.72
   -5   21   12     -0.14      0.32
   -4   21   12      0.53     -0.25
   -3   21   12     -0.55     -0.69
   -2   21   12      0.16     -0.50
   -1   21   12      0.12      0.36
    0   21   12     -0.44      0.29
    1   21   12     -0.42     -0.46
    2   21   12     -0.60     -0.76
    3   21   12     -0.83      1.00
    5   21   12      0.37      0.20
   -4   22   12      0.56     -0.55
   -3   22   12     -0.77     -1.00
   -2   22   12      0.61      0.44
   -1   22   12     -0.25      0.63
    0   22   12     -0.28     -0.01
    1   22   12     -0.24     -0.23
    2   22   12     -0.11      0.37
    3   22   12     -1.32      0.03
   -2   23   12      0.02      0.04
  -11    0   13      1.73      0.00
  -10    0   13      0.28      0.00
   -9    0   13     -2.66      0.00
   -8    0   13      0.30     -0.01
   -7    0   13      1.53      0.00
   -6    0   13      0.42      0.00
   -5    0   13     -4.62     -0.01
   -3    0   13      9.88     -0.01
   -2    0   13     -1.37      0.00
   -1    0   13    -18.20      0.01
    0    0   13      3.12     -0.01
    1    0   13     -6.25      0.01
    2    0   13     -4.92      0.00
    3    0   13     11.87      0.00
    5    0   13      1.22      0.01
    6    0   13      0.63     -0.05
    7    0   13     -1.43     -0.03
    8    0   13     -1.25      0.00
    9    0   13      3.73     -0.01
   10    0   13      0.57      0.00
   11    0   13     -1.57      0.00
   12    0   13      1.45      0.00
  -12    1   13     -0.88      0.73
  -11    1   13     -1.18     -1.94
  -10    1   13      1.61      1.10
   -9    1   13      0.06      0.44
   -8    1   13      0.71     -0.14
   -7    1   13     -2.63      1.90
   -6    1   13     -1.85     -0.77
   -5    1   13      3.62     -0.63
   -3    1   13     -7.20      4.71
   -2    1   13    -13.08     -5.10
   -1    1   13     -2.95      2.56
    0    1   13     13.23      3.16
    1    1   13     14.41     -3.03
    2    1   13    -11.69     -0.87
    3    1   13     -1.74      4.39
    5    1   13     -6.24      0.34
    6    1   13     -3.19      3.61
    7    1   13      1.16      0.33
    8    1   13     -1.31      0.46
    9    1   13     -3.21      0.13
   10    1   13      0.87      0.13
   11    1   13     -0.87     -0.18
   12    1   13      1.96      0.06
  -12    2   13     -0.66      1.45
  -11    2   13     -1.78      1.49
  -10    2   13      1.45     -1.35
   -9    2   13      0.28      2.20
   -8    2   13      0.96     -3.01
   -7    2   13     -1.77     -1.19
   -6    2   13     -0.21      3.76
   -5    2   13     -0.11      2.05
   -4    2   13     -1.06     -6.76
   -3    2   13     -6.60      0.44
   -2    2   13      0.80      1.83
   -1    2   13     13.34      4.05
    0    2   13     -1.70     -2.41
    1    2   13      3.83     -6.44
    2    2   13      1.73     -4.50
    3    2   13     -7.41      5.57
    5    2   13     -0.12     -5.43
    6    2   13     -1.61      1.96
    7    2   13      0.88      1.28
    8    2   13      1.54     -2.78
    9    2   13     -2.48      0.60
   10    2   13     -0.17      1.72
   11    2   13      0.90      1.58
   12    2   13     -0.25     -0.06
  -12    3   13      1.87     -0.47
  -11    3   13     -0.04      0.89
  -10    3   13     -0.12      0.02
   -9    3   13     -0.40      0.07
   -8    3   13     -1.36     -0.65
   -7    3   13     -0.34     -3.01
   -6    3   13      1.66      1.73
   -5    3   13     -0.67      4.58
   -4    3   13     -4.76     -5.41
   -3    3   13      7.32     -4.99
   -2    3   13      1.32      7.51
   -1    3   13      3.05     -2.45
    0    3   13     -5.47     -3.94
    1    3   13     -9.30      7.78
    2    3   13     -1.47      0.88
    3    3   13     -0.20     -6.95
    4    3   13     -2.46      0.57
    5    3   13      1.10     -0.05
    6    3   13      1.65     -4.44
    7    3   13     -2.69     -0.58
    8    3   13     -0.52     -1.05
    9    3   13      0.73      0.19
   10    3   13      1.64      0.62
   11    3   13      0.13     -0.77
   12    3   13     -1.59      0.02
  -12    4   13      0.55     -0.18
  -11    4   13     -0.29     -0.59
  -10    4   13     -1.61     -1.72
   -9    4   13      0.60     -0.54
   -8    4   13     -0.54      1.50
   -7    4   13     -0.39      3.20
   -6    4   13     -1.99     -5.38
   -5    4   13      6.78     -0.60
   -4    4   13     -1.43      2.96
   -3    4   13      1.45      1.80
   -2    4   13     -2.18     -0.22
   -1    4   13     -4.76     -4.19
    0    4   13     -3.38      1.62
    1    4   13      0.47      5.39
    2    4   13      2.84      3.68
    3    4   13      0.26     -8.81
    4    4   13      3.54     -1.32
    5    4   13     -0.32      1.87
    6    4   13      3.15     -2.68
    7    4   13      0.81     -1.13
    8    4   13     -1.21      3.34
    9    4   13      0.14     -0.07
   10    4   13     -0.87     -1.62
   11    4   13      0.45     -1.46
   12    4   13     -1.15     -0.97
  -12    5   13      0.62      0.77
  -11    5   13     -0.11      0.35
  -10    5   13      1.50     -1.27
   -9    5   13     -1.32     -1.00
   -8    5   13     -0.89      2.22
   -7    5   13      2.21      2.82
   -6    5   13     -0.97     -2.62
   -5    5   13     -1.26     -3.60
   -4    5   13      0.98      6.25
   -3    5   13     -4.91     -1.85
   -2    5   13      0.73      0.60
   -1    5   13     -1.97     -1.14
    0    5   13     -3.87     -0.63
    1    5   13      4.35     -8.38
    2    5   13      8.89     -1.17
    3    5   13      0.95      0.21
    4    5   13     -1.76     -0.56
    5    5   13      3.38      0.94
    6    5   13     -1.14     -0.39
    7    5   13     -0.44      0.28
    8    5   13      1.08      0.01
    9    5   13      1.34      0.38
   10    5   13     -2.01     -1.15
   11    5   13     -0.73      0.52
   12    5   13      2.10      0.23
  -12    6   13      0.01     -0.52
  -11    6   13      1.67      0.04
  -10    6   13      1.26      2.43
   -9    6   13     -0.14     -1.28
   -8    6   13     -1.91     -1.27
   -7    6   13      3.18     -1.02
   -6    6   13      0.77      2.97
   -5    6   13     -5.23     -3.54
   -4    6   13     -3.60      3.74
   -3    6   13      3.15     -2.68
   -2    6   13      0.17     -3.24
   -1    6   13      1.47      2.48
    0    6   13      5.05     -1.35
    1    6   13     -0.54     -3.05
    2    6   13     -3.05     -0.73
    3    6   13      2.47      5.66
    4    6   13      0.97     -0.03
    5    6   13     -1.24      4.14
    6    6   13     -1.50      2.05
    7    6   13     -1.65     -0.07
    8    6   13      0.75     -0.07
    9    6   13      0.99     -1.30
   10    6   13      0.59      1.68
   11    6   13      0.49      0.54
   12    6   13      0.13      0.16
  -11    7   13     -1.14      0.51
  -10    7   13     -0.93     -0.28
   -9    7   13      1.24      2.12
   -8    7   13      1.51     -4.03
   -7    7   13     -2.69     -0.44
   -6    7   13     -1.53      2.04
   -5    7   13      0.81     -1.48
   -4    7   13      1.54     -4.38
   -3    7   13     -0.77      4.66
   -2    7   13      1.18     -5.58
   -1    7   13      0.86     -2.43
    0    7   13      9.18      5.36
    1    7   13     -0.41      0.63
    2    7   13     -5.84      3.47
    3    7   13     -2.09      4.93
    4    7   13      3.20     -0.20
    5    7   13     -2.08     -3.63
    6    7   13     -0.41      1.96
    7    7   13      3.95     -0.21
    8    7   13     -1.12      0.05
    9    7   13     -1.19     -0.56
   10    7   13      0.40     -1.01
   11    7   13      0.52      1.46
  -11    8   13     -1.06      1.03
  -10    8   13     -0.41     -0.99
   -9    8   13     -0.59      1.42
   -8    8   13      1.04      1.27
   -7    8   13     -0.65     -4.05
   -6    8   13      0.87      2.00
   -5    8   13      0.97      1.51
   -4    8   13      4.21     -3.93
   -3    8   13     -2.60     -2.56
   -2    8   13      0.70      5.46
   -1    8   13      0.49     -1.72
    0    8   13     -3.55      3.37
    1    8   13     -1.62     -0.30
    2    8   13      0.69      1.02
    3    8   13     -1.25      1.77
    4    8   13     -3.62     -1.57
    5    8   13      2.00     -5.12
    6    8   13     -1.20      0.48
    7    8   13     -1.35      0.83
    8    8   13     -0.46     -1.23
    9    8   13     -1.22      1.12
   10    8   13      0.07      0.08
   11    8   13     -1.76     -1.50
  -10    9   13     -0.79      0.18
   -9    9   13      1.28     -0.65
   -8    9   13     -1.41      1.57
   -7    9   13      2.82     -0.47
   -6    9   13      1.61     -1.26
   -5    9   13     -0.73      1.99
   -4    9   13     -1.30     -1.77
   -3    9   13      1.72     -1.86
   -2    9   13      0.21      4.80
   -1    9   13     -1.55      4.33
    0    9   13     -4.53     -4.21
    1    9   13     -3.21      4.39
    2    9   13      2.62     -4.57
    3    9   13      4.01     -4.36
    4    9   13     -1.51      1.14
    5    9   13     -0.20      0.35
    6    9   13      0.47      1.11
    7    9   13     -2.69     -0.89
    8    9   13      0.18      0.70
    9    9   13      1.26      0.79
   10    9   13      0.95      0.29
   11    9   13      0.44     -1.45
  -10   10   13     -0.45     -1.18
   -9   10   13      0.46      0.33
   -8   10   13      0.99      1.11
   -7   10   13     -2.91      0.97
   -6   10   13      1.06     -3.09
   -5   10   13      0.20      1.00
   -4   10   13      0.15      1.33
   -3   10   13     -1.53      3.73
   -2   10   13      0.60     -1.24
   -1   10   13     -0.23     -4.70
    0   10   13      2.01     -3.76
    1   10   13     -0.23      3.09
    2   10   13      1.22     -0.30
    3   10   13     -0.67     -7.10
    4   10   13      0.71      3.92
    5   10   13     -1.57      1.09
    6   10   13      1.33     -1.97
    7   10   13      0.29     -0.68
    8   10   13      1.22     -0.87
    9   10   13     -1.11     -1.68
   10   10   13      1.46     -0.31
   11   10   13      0.29      0.35
  -10   11   13      0.68      0.60
   -9   11   13     -0.89     -1.95
   -8   11   13     -0.94      1.34
   -7   11   13     -0.97      0.18
   -6   11   13     -0.04     -0.39
   -5   11   13     -0.55      0.44
   -4   11   13     -0.05      2.87
   -3   11   13      3.04     -2.27
   -2   11   13     -0.94     -3.47
   -1   11   13      1.17     -1.53
    0   11   13     -2.30     -1.53
    1   11   13      3.71     -1.32
    2   11   13     -0.31      4.64
    3   11   13     -0.90      0.94
    4   11   13      0.33      0.12
    5   11   13     -0.70      1.05
    6   11   13      1.53     -2.63
    7   11   13     -0.81      1.06
    8   11   13      1.98      0.34
    9   11   13     -0.77     -1.83
   10   11   13     -0.93      0.99
   11   11   13      0.01      1.27
   -9   12   13     -0.36     -0.99
   -8   12   13      1.30     -2.58
   -7   12   13      0.68      2.25
   -6   12   13      0.10      0.61
   -5   12   13      0.73     -0.06
   -4   12   13     -2.05     -0.39
   -3   12   13      4.06     -2.40
   -2   12   13      0.67     -2.63
   -1   12   13     -2.51      5.62
    0   12   13      1.58      2.59
    1   12   13      1.07     -2.29
    2   12   13     -0.26     -0.25
    3   12   13     -0.64      3.89
    4   12   13      3.14     -3.25
    5   12   13     -1.16     -0.20
    6   12   13      2.16      0.78
    7   12   13     -0.25     -0.01
    8   12   13      2.36      0.03
    9   12   13      1.00      1.24
   10   12   13     -0.74     -0.96
   -9   13   13     -0.34      0.67
   -8   13   13      2.36     -0.78
   -7   13   13     -0.07     -0.62
   -6   13   13     -1.66     -1.69
   -5   13   13      2.43     -0.36
   -4   13   13      1.21      0.48
   -3   13   13     -3.27      0.51
   -2   13   13     -0.33      2.30
   -1   13   13      1.84     -0.13
    0   13   13      2.75      4.77
    1   13   13     -0.76     -2.75
    2   13   13     -0.77     -0.50
    3   13   13     -1.21      0.35
    4   13   13      0.80     -0.76
    5   13   13     -0.70      0.71
    6   13   13      0.37      0.63
    7   13   13      1.58     -0.24
    8   13   13     -1.61     -1.12
    9   13   13      0.29      1.53
   10   13   13     -0.41     -0.32
   -9   14   13      1.36      0.91
   -8   14   13     -1.38     -0.07
   -7   14   13      0.23      1.18
   -6   14   13     -1.16      0.28
   -5   14   13      0.03     -1.15
   -4   14   13      1.22      1.35
   -3   14   13     -1.17      1.89
   -2   14   13     -0.80      1.02
   -1   14   13      1.19      0.33
    0   14   13      0.22     -1.04
    1   14   13     -0.45      0.59
    2   14   13     -0.16     -1.10
    3   14   13     -0.40      1.05
    4   14   13     -0.90      0.08
    5   14   13     -0.20      1.67
    6   14   13      0.34     -0.39
    7   14   13      0.97      1.81
    8   14   13     -2.12      0.78
    9   14   13     -0.31      1.19
   -9   15   13     -0.42      1.02
   -8   15   13     -0.34     -0.86
   -7   15   13      1.55      0.30
   -6   15   13      1.06      3.05
   -5   15   13     -0.50      0.73
   -4   15   13     -0.90     -2.48
   -3   15   13     -0.41      0.55
   -2   15   13      2.75      0.60
   -1   15   13     -2.70     -2.05
    0   15   13     -1.02      0.59
    1   15   13     -0.95      1.75
    2   15   13      0.43     -1.12
    3   15   13     -1.31     -0.54
    4   15   13     -0.11      0.72
    5   15   13      1.69      0.12
    6   15   13     -0.22      0.79
    7   15   13      0.04     -0.82
    8   15   13     -0.73     -0.21
    9   15   13      0.68      0.95
   -9   16   13     -0.71      0.03
   -8   16   13     -0.39      0.54
   -7   16   13      0.94     -0.93
   -6   16   13     -0.10     -0.90
   -5   16   13     -0.91      0.71
   -4   16   13      0.09     -0.82
   -3   16   13     -0.73     -1.46
   -2   16   13     -1.60      1.70
   -1   16   13      1.92     -0.84
    0   16   13     -2.83     -0.87
    1   16   13     -1.09      1.64
    3   16   13      0.88     -0.60
    4   16   13     -0.66     -0.20
    5   16   13      0.72      1.01
    6   16   13     -2.33     -0.64
    7   16   13     -0.03      0.08
    8   16   13     -0.53     -1.63
   -8   17   13     -0.84      0.62
   -7   17   13     -1.77      0.79
   -6   17   13     -0.42     -1.44
   -5   17   13      0.27     -1.44
   -4   17   13      0.75      1.39
   -3   17   13      1.29      0.65
   -2   17   13     -1.71     -0.85
   -1   17   13     -1.33      1.68
    0   17   13      3.10     -2.39
    1   17   13     -0.73     -0.22
    4   17   13     -0.27      0.52
    5   17   13     -0.37     -0.34
    6   17   13      0.02     -0.07
    7   17   13     -0.78      0.95
    8   17   13      0.85      1.22
   -7   18   13      0.70     -0.67
   -6   18   13      0.40      0.82
   -5   18   13      0.65      0.58
   -4   18   13     -0.84     -0.06
   -3   18   13      1.11     -0.66
   -2   18   13      1.50     -0.80
   -1   18   13     -1.81     -0.07
    0   18   13      1.05      0.17
    1   18   13      2.14     -1.57
    4   18   13      0.09      0.54
    5   18   13      0.52     -1.26
    6   18   13      0.38     -0.49
    7   18   13     -0.43     -0.39
   -6   19   13      0.01     -0.27
   -5   19   13      0.23      0.87
   -4   19   13     -0.49      0.26
   -3   19   13     -0.08      0.40
   -2   19   13      1.30     -0.88
   -1   19   13      0.40      0.94
    0   19   13     -1.99     -0.84
    1   19   13      0.19     -0.81
    2   19   13      0.55      0.74
    3   19   13     -0.40      0.31
    4   19   13      0.48     -0.96
    5   19   13     -0.74      0.13
    6   19   13     -0.59     -0.47
   -6   20   13     -0.27      0.10
   -5   20   13      0.46     -0.97
   -4   20   13     -0.03      0.94
   -3   20   13     -0.94      1.66
   -2   20   13      0.18     -0.22
   -1   20   13      1.02     -0.76
    0   20   13     -0.83      0.54
    1   20   13      0.13      0.16
    2   20   13      1.09      1.00
    3   20   13      0.20     -0.08
    4   20   13      0.93     -1.02
    5   20   13     -0.69     -0.52
   -5   21   13     -0.07      0.33
   -4   21   13     -0.87      0.08
   -2   21   13     -0.65      0.71
   -1   21   13      1.51     -1.02
    0   21   13     -0.52      0.55
    1   21   13      0.44      0.61
    2   21   13      0.94     -1.11
    3   21   13      0.04     -0.25
    4   21   13      0.32      0.25
   -2   22   13     -0.84      0.20
   -1   22   13      0.60      0.36
    0   22   13     -0.03      0.15
    1   22   13     -1.15      0.27
    2   22   13      0.69     -0.04
  -11    0   14      1.22     -0.01
  -10    0   14     -2.04      0.00
   -9    0   14      1.41      0.00
   -8    0   14     -1.92      0.00
   -7    0   14     -0.43      0.00
   -6    0   14      7.20     -0.01
   -5    0   14     -4.83     -0.01
   -3    0   14     12.02      0.00
   -2    0   14     13.94      0.00
   -1    0   14     -7.61     -0.05
    0    0   14    -14.24      0.01
    1    0   14     -4.95      0.01
    2    0   14      3.53      0.00
    3    0   14      9.08     -0.01
    4    0   14     -2.04     -0.03
    5    0   14     -1.10      0.03
    6    0   14      8.44      0.20
    7    0   14      5.09     -0.03
    8    0   14     -5.63      0.00
    9    0   14      1.50     -0.01
   10    0   14      2.59      0.00
   11    0   14      0.38      0.00
   12    0   14     -2.75      0.00
  -12    1   14      0.18     -0.04
  -11    1   14      1.96     -0.44
  -10    1   14     -0.95     -1.12
   -9    1   14     -0.75      0.04
   -8    1   14      2.73      2.20
   -7    1   14     -1.96     -1.86
   -6    1   14     -0.97      0.15
   -5    1   14      1.25      0.10
   -3    1   14      5.37      2.19
   -2    1   14      2.12     -1.09
   -1    1   14    -14.79     -5.20
    0    1   14     -3.15      2.14
    1    1   14      5.74      5.33
    2    1   14     -0.74     -1.32
    3    1   14      3.53     -2.53
    4    1   14      6.98     -1.32
    5    1   14     -2.39      2.00
    6    1   14     -5.29     -0.10
    7    1   14      4.14     -0.17
    8    1   14      1.82     -0.01
    9    1   14     -1.49      0.69
   10    1   14      0.05     -1.03
   11    1   14      0.52     -1.25
   12    1   14      0.76      0.38
  -12    2   14     -2.21     -1.21
  -11    2   14     -0.45      1.38
  -10    2   14      0.35     -0.05
   -9    2   14      0.23     -2.00
   -8    2   14      2.46      3.58
   -7    2   14      0.27      0.88
   -6    2   14     -3.61     -3.69
   -5    2   14      2.28      2.13
   -4    2   14      4.16      2.89
   -3    2   14     -8.73      0.80
   -2    2   14     -6.37     -1.66
   -1    2   14      3.34      0.23
    0    2   14     10.27      1.07
    1    2   14      7.20     -2.91
    2    2   14     -3.15      0.78
    3    2   14     -2.94      3.15
    4    2   14      1.09      1.95
    5    2   14     -0.26      0.69
    6    2   14     -5.20      3.95
    7    2   14     -0.79      2.30
    8    2   14      2.88      0.38
    9    2   14     -0.41     -2.13
   10    2   14     -2.23      1.37
   11    2   14     -0.02     -0.36
   12    2   14      1.22      0.53
  -12    3   14     -0.91     -0.49
  -11    3   14     -0.84     -0.14
  -10    3   14      1.43      4.19
   -9    3   14     -0.88     -1.60
   -8    3   14      2.15     -2.29
   -7    3   14     -1.04      1.35
   -6    3   14      0.49      0.71
   -5    3   14     -3.00      1.34
   -4    3   14      0.26     -0.68
   -3    3   14     -3.49     -4.03
   -2    3   14      3.32      1.46
   -1    3   14      9.11     10.17
    0    3   14     -1.44     -5.79
    1    3   14      1.63     -6.24
    2    3   14     -4.30      1.31
    3    3   14     -3.34      6.04
    4    3   14     -0.90      2.00
    5    3   14      0.73     -3.88
    6    3   14     -2.33      0.63
    7    3   14     -0.14      1.55
    8    3   14      0.37     -0.72
    9    3   14     -0.76     -1.76
   10    3   14      0.52      1.87
   11    3   14      0.81      1.99
   12    3   14      0.15     -0.05
  -12    4   14      0.83      0.56
  -11    4   14      0.66     -2.94
  -10    4   14     -0.48      1.38
   -9    4   14     -1.89      1.68
   -8    4   14     -0.11     -2.70
   -7    4   14      0.02     -0.02
   -6    4   14     -0.87      3.04
   -5    4   14      0.92      1.20
   -4    4   14      0.97     -3.25
   -3    4   14      3.47      0.53
   -2    4   14     -2.63      0.20
   -1    4   14      5.50      3.61
    0    4   14     -4.08     -0.39
    1    4   14     -8.43      3.92
    2    4   14      1.23      3.65
    3    4   14     -5.32     -5.82
    4    4   14     -0.74     -0.42
    5    4   14      3.18      0.80
    6    4   14     -0.45     -3.70
    7    4   14     -3.19     -2.39
    8    4   14      1.58      2.05
    9    4   14     -1.15      0.98
   10    4   14      0.45      0.41
   11    4   14      0.60     -0.86
   12    4   14     -0.75     -0.84
  -12    5   14      0.48      0.60
  -11    5   14     -1.23     -0.39
  -10    5   14     -0.25     -2.45
   -9    5   14      0.36      0.95
   -8    5   14     -2.12     -0.15
   -7    5   14      0.04      3.60
   -6    5   14     -0.29     -2.56
   -5    5   14      2.37     -0.30
   -4    5   14      1.03     -0.58
   -3    5   14      1.66      4.42
   -2    5   14     -7.67     -1.95
   -1    5   14     -3.56     -3.07
    0    5   14      1.37      5.98
    1    5   14     -5.03     -1.08
    2    5   14      6.34      0.83
    3    5   14      3.70     -4.76
    4    5   14     -6.22     -3.09
    5    5   14      1.09      1.79
    6    5   14      7.09     -0.03
    7    5   14     -1.59     -4.42
    8    5   14     -2.64      1.09
    9    5   14      1.99      2.13
   10    5   14     -0.98     -1.43
   11    5   14     -0.95     -0.64
   12    5   14     -0.30     -0.92
  -12    6   14     -0.18      1.47
  -11    6   14      0.38     -1.35
  -10    6   14      2.09      0.28
   -9    6   14     -0.49      0.11
   -8    6   14     -1.46     -0.42
   -7    6   14     -0.67     -0.11
   -6    6   14      1.75      0.90
   -5    6   14     -0.99     -1.66
   -4    6   14     -4.52      2.93
   -3    6   14      0.04      0.56
   -2    6   14      2.45      1.11
   -1    6   14     -6.25     -3.89
    0    6   14     -2.72      2.37
    1    6   14      4.58     -3.63
    2    6   14      2.35     -7.35
    3    6   14      4.30      2.10
    4    6   14     -0.18     -0.46
    5    6   14     -3.15     -0.24
    6    6   14      1.62      3.19
    7    6   14      0.91      0.80
    8    6   14     -2.02     -3.40
    9    6   14     -0.01      0.39
   10    6   14      1.02     -0.40
   11    6   14     -0.98      0.54
  -11    7   14      0.63      0.01
  -10    7   14      1.39     -1.05
   -9    7   14      0.32      0.86
   -8    7   14     -1.56      0.23
   -7    7   14      2.62     -2.49
   -6    7   14     -2.74      1.36
   -5    7   14     -1.37     -0.42
   -4    7   14     -2.81     -0.39
   -3    7   14      1.46     -0.41
   -2    7   14      1.95      0.43
   -1    7   14      1.65     -4.11
    0    7   14      1.87     -2.75
    1    7   14      2.00      4.18
    2    7   14     -3.39     -2.19
    3    7   14     -1.11      1.21
    4    7   14      5.35      3.72
    5    7   14     -1.08      0.86
    6    7   14     -3.06     -0.34
    7    7   14      1.93      2.72
    8    7   14      2.67      0.66
    9    7   14     -0.10     -1.61
   10    7   14     -0.74      0.01
   11    7   14      1.53      0.52
  -11    8   14     -1.19      2.07
  -10    8   14     -0.69     -1.80
   -9    8   14      1.25      0.06
   -8    8   14      0.79      0.59
   -7    8   14     -2.04     -0.76
   -6    8   14      0.87     -1.56
   -5    8   14     -0.72     -0.31
   -4    8   14      1.78     -0.89
   -3    8   14     -0.71      0.14
   -2    8   14     -0.44     -0.73
   -1    8   14     -0.12     -1.21
    0    8   14      6.81     -0.54
    1    8   14      0.27      1.20
    2    8   14     -5.14      3.73
    3    8   14     -1.79      4.03
    4    8   14      1.19     -0.81
    5    8   14      1.25     -2.15
    6    8   14     -1.83     -2.59
    7    8   14      1.78      0.96
    8    8   14      0.16      0.20
    9    8   14      0.33      0.15
   10    8   14     -0.25     -0.54
   11    8   14     -0.92      0.04
  -10    9   14     -1.02      1.56
   -9    9   14     -0.90     -1.25
   -8    9   14      1.47      1.33
   -7    9   14     -0.21     -2.03
   -6    9   14      1.25      1.03
   -5    9   14      1.77      0.44
   -4    9   14      0.14     -1.33
   -3    9   14     -2.02     -4.09
   -2    9   14      2.27      4.01
   -1    9   14     -0.18      4.47
    0    9   14     -5.07      1.10
    1    9   14      1.31     -2.66
    2    9   14     -0.63      0.25
    3    9   14     -0.38      1.74
    4    9   14     -0.98     -0.94
    5    9   14      2.43     -1.89
    6    9   14     -2.12      0.47
    7    9   14     -2.05      1.29
    8    9   14     -1.23      0.32
    9    9   14     -0.83      0.33
   10    9   14      0.80      1.78
   11    9   14     -0.61     -1.35
  -10   10   14     -0.20      0.46
   -9   10   14      0.59     -0.24
   -8   10   14     -0.08     -0.05
   -7   10   14      2.27      2.65
   -6   10   14     -0.73     -1.87
   -5   10   14     -0.31      0.69
   -4   10   14      0.64     -0.16
   -3   10   14     -1.97     -1.67
   -2   10   14     -2.04      2.26
   -1   10   14      2.24      4.76
    0   10   14     -1.90     -4.46
    1   10   14     -3.51      1.30
    2   10   14      2.45     -0.93
    3   10   14      2.57     -5.71
    4   10   14     -2.87      0.38
    5   10   14      2.19      2.11
    6   10   14      0.57      0.50
    7   10   14     -1.31     -1.10
    8   10   14     -0.30      1.51
    9   10   14      0.08      0.10
   10   10   14     -0.20     -0.35
   11   10   14      1.54     -1.12
  -10   11   14      0.14      0.35
   -9   11   14      0.61      0.12
   -8   11   14     -0.44     -0.02
   -7   11   14     -2.89      0.96
   -6   11   14      1.16     -0.38
   -5   11   14     -0.38     -2.16
   -4   11   14      0.58      2.77
   -3   11   14     -0.74      4.01
   -2   11   14     -0.84     -4.16
   -1   11   14     -0.67     -3.72
    0   11   14      2.75     -1.81
    1   11   14     -0.99     -0.80
    2   11   14      0.49      3.39
    3   11   14      1.42     -2.95
    4   11   14     -2.86      0.21
    5   11   14     -1.69      1.59
    6   11   14      1.71      0.46
    7   11   14     -0.38     -3.97
    8   11   14     -0.42      0.62
    9   11   14     -0.37     -1.68
   10   11   14     -0.08      0.02
   -9   12   14     -1.18     -0.17
   -8   12   14     -0.56     -0.53
   -7   12   14     -0.29     -1.19
   -6   12   14     -0.75      2.16
   -5   12   14     -0.28      0.06
   -4   12   14     -0.50     -1.56
   -3   12   14      2.60      0.83
   -2   12   14      1.81     -4.00
   -1   12   14     -0.25     -2.13
    0   12   14     -5.21      1.22
    1   12   14      3.46     -0.96
    2   12   14      1.26      0.78
    3   12   14      0.45      2.12
    4   12   14      1.60      0.98
    5   12   14     -2.15     -2.24
    6   12   14      0.19      1.45
    7   12   14     -0.38     -0.61
    8   12   14      0.71      0.14
    9   12   14      0.73     -1.11
   10   12   14      0.25     -0.20
   -9   13   14     -1.74     -0.01
   -8   13   14      1.35     -0.74
   -7   13   14      1.67     -0.86
   -6   13   14      0.30     -0.59
   -5   13   14     -1.34      1.02
   -4   13   14     -0.06     -1.22
   -3   13   14      2.49     -0.78
   -2   13   14     -0.88     -1.02
   -1   13   14      0.01      0.51
    0   13   14      1.60      4.08
    1   13   14     -0.90     -0.39
    2   13   14      0.15     -1.68
    3   13   14     -0.66      1.09
    4   13   14      2.98     -0.58
    5   13   14     -0.68     -3.01
    6   13   14      0.52      1.02
    7   13   14     -0.30      0.34
    8   13   14      2.16     -0.91
    9   13   14      0.68      0.19
   10   13   14      0.32     -0.85
   -9   14   14      0.48      0.07
   -8   14   14      0.77      0.38
   -7   14   14     -0.56     -0.78
   -6   14   14      0.11     -1.69
   -5   14   14      1.10     -0.42
   -4   14   14     -0.19      0.62
   -3   14   14      0.16      1.04
   -2   14   14     -1.59      2.58
   -1   14   14      1.23     -3.18
    0   14   14      3.11      2.43
    1   14   14      1.08      0.37
    2   14   14     -1.73     -1.03
    3   14   14     -0.41      1.06
    4   14   14      0.92      0.33
    5   14   14     -1.31     -1.05
    6   14   14      0.16     -0.40
    7   14   14      1.00      0.51
    8   14   14      0.16     -0.95
    9   14   14     -0.82      1.22
   -9   15   14      1.08      0.15
   -8   15   14     -0.71     -0.03
   -7   15   14     -0.54      1.39
   -6   15   14      0.37      0.52
   -5   15   14      0.60      1.32
   -4   15   14      0.24     -0.51
   -3   15   14     -0.67     -1.53
   -2   15   14      0.89      3.31
   -1   15   14     -0.55      0.46
    0   15   14      0.45     -3.81
    1   15   14     -0.01      1.70
    2   15   14      0.65      0.73
    4   15   14      0.60      1.28
    5   15   14     -0.33      1.01
    6   15   14      1.42     -0.91
    7   15   14      0.39      2.10
    8   15   14      0.16     -0.15
   -8   16   14      0.02     -0.77
   -7   16   14      0.52      0.26
   -6   16   14      1.58      1.19
   -5   16   14     -0.47      1.10
   -4   16   14     -0.88      0.43
   -3   16   14     -0.43     -3.33
   -2   16   14      1.52      0.38
   -1   16   14     -0.80      2.28
    0   16   14     -0.26     -0.19
    1   16   14     -1.35     -0.60
    4   16   14     -0.89     -0.45
    5   16   14      2.22      1.69
    6   16   14      0.60     -0.21
    7   16   14      0.17     -0.02
    8   16   14     -0.78     -0.40
   -8   17   14      0.46      0.04
   -7   17   14     -1.03     -0.15
   -6   17   14     -1.43     -0.85
   -5   17   14      0.45     -0.92
   -4   17   14      0.30      0.05
   -3   17   14     -0.96      1.06
   -2   17   14     -0.22     -1.27
   -1   17   14      0.25      1.08
    0   17   14     -0.57      0.32
    1   17   14      0.02      0.39
    4   17   14     -1.21     -0.23
    5   17   14     -0.52      2.07
    6   17   14     -0.17     -0.31
    7   17   14     -0.03     -0.20
   -7   18   14     -0.72      0.51
   -6   18   14     -0.52     -0.66
   -5   18   14      0.13     -0.69
   -4   18   14      1.10      0.01
   -3   18   14     -0.12      0.16
   -2   18   14      0.02     -0.13
   -1   18   14     -1.09      0.25
    0   18   14      0.98      0.20
    1   18   14      0.94     -0.22
    4   18   14      0.63      0.40
    5   18   14     -0.88      0.88
    6   18   14      0.05      0.48
   -6   19   14      0.46     -0.11
   -5   19   14      0.39      0.43
   -4   19   14     -0.53      0.21
   -3   19   14      0.34     -0.50
   -2   19   14      1.11     -1.85
   -1   19   14     -0.22      0.97
    0   19   14     -1.26      1.31
    1   19   14      0.92     -1.76
    2   19   14     -0.80     -0.38
    3   19   14     -0.49      1.77
    4   19   14      0.15     -0.61
    5   19   14      0.57     -0.91
    6   19   14     -1.03     -0.14
   -5   20   14      0.12     -0.20
   -4   20   14      1.55     -0.17
   -3   20   14     -0.80      2.56
   -2   20   14     -0.08     -0.77
   -1   20   14      0.97     -1.43
    0   20   14     -0.99      0.20
    1   20   14     -1.25      0.43
    2   20   14     -0.02     -0.95
    3   20   14     -0.12      1.15
    5   20   14      0.02     -1.40
   -4   21   14     -0.15     -0.43
   -3   21   14      0.54      1.12
   -2   21   14     -0.91      1.62
   -1   21   14      0.92     -1.38
    0   21   14      0.94     -1.47
    1   21   14     -0.63      1.35
    2   21   14      0.23      0.66
    3   21   14      0.26     -1.54
  -11    0   15      1.24      0.00
  -10    0   15     -1.38      0.00
   -9    0   15     -0.02      0.00
   -8    0   15     -0.95      0.00
   -7    0   15     -1.82      0.00
   -6    0   15      0.70      0.00
   -5    0   15      4.11      0.00
   -4    0   15     -2.96      0.00
   -2    0   15      9.36      0.00
   -1    0   15      6.08      0.01
    0    0   15     -4.74      0.00
    1    0   15      0.91     -0.01
    2    0   15     -2.95      0.00
    3    0   15     -7.75      0.00
    4    0   15     -0.25     -0.02
    5    0   15     -0.35      0.05
    6    0   15      3.88     -0.05
    7    0   15      2.43      0.01
    8    0   15     -3.87      0.04
    9    0   15     -1.73     -0.01
   10    0   15      1.94     -0.01
   11    0   15     -0.53     -0.01
   12    0   15     -0.79      0.00
  -12    1   15      0.43      0.49
  -11    1   15      0.69      0.87
  -10    1   15      0.93     -0.53
   -9    1   15     -2.01     -0.42
   -8    1   15     -0.50     -0.71
   -7    1   15      1.04     -0.19
   -6    1   15      1.27      1.60
   -5    1   15     -2.80     -1.52
   -4    1   15     -0.06     -1.15
   -3    1   15      4.85     -0.42
   -2    1   15      9.04      1.03
   -1    1   15      0.39      0.30
    0    1   15    -23.34     -1.47
    1    1   15     -3.32      2.05
    2    1   15     12.18     -0.77
    3    1   15      2.73     -0.48
    4    1   15     -1.96     -4.43
    5    1   15      3.45      2.74
    6    1   15      1.68     -2.48
    7    1   15      3.82     -2.03
    8    1   15      0.07     -0.84
    9    1   15     -1.53      2.13
   10    1   15      1.24     -0.47
   11    1   15      0.53     -0.55
   12    1   15     -1.95      0.10
  -12    2   15      0.55     -0.88
  -11    2   15      0.64     -0.26
  -10    2   15     -0.94      0.47
   -9    2   15      0.65     -1.25
   -8    2   15     -0.24      1.27
   -7    2   15      1.45     -1.61
   -6    2   15     -0.55     -0.27
   -5    2   15     -0.12     -0.73
   -4    2   15      1.72      1.30
   -3    2   15      4.06      3.83
   -2    2   15     -4.95     -3.57
   -1    2   15     -7.13     -7.29
    0    2   15      3.67      1.64
    1    2   15     -1.56      7.21
    2    2   15      5.32     -4.95
    3    2   15      2.81     -1.06
    4    2   15      1.91     -3.34
    5    2   15      0.07      0.79
    6    2   15     -3.16      3.07
    7    2   15     -0.58     -0.04
    8    2   15      2.39     -0.98
    9    2   15      0.88      0.18
   10    2   15     -1.03      0.17
   11    2   15     -0.06     -2.11
   12    2   15     -0.17     -0.32
  -12    3   15     -2.42     -1.01
  -11    3   15     -0.70      0.36
  -10    3   15      0.24      0.58
   -9    3   15      0.15      0.36
   -8    3   15      1.99      1.37
   -7    3   15      1.90      0.15
   -6    3   15     -1.67     -3.84
   -5    3   15      0.47      0.44
   -4    3   15      1.85      2.83
   -3    3   15     -5.78     -0.16
   -2    3   15     -1.76     -1.66
   -1    3   15      2.28     -1.02
    0    3   15      7.67     -0.43
    1    3   15      5.75     -3.19
    2    3   15     -3.93     -0.65
    3    3   15      1.41      3.84
    4    3   15     -1.93      6.18
    5    3   15      1.90     -3.65
    6    3   15     -2.66      2.17
    7    3   15     -0.21      5.14
    8    3   15      0.60      0.64
    9    3   15      1.64     -3.89
   10    3   15     -1.63     -0.25
   11    3   15      0.18      1.79
  -12    4   15     -0.26      0.88
  -11    4   15     -1.18     -0.20
  -10    4   15      2.53      1.20
   -9    4   15     -0.70      0.08
   -8    4   15     -0.50     -0.71
   -7    4   15      1.77     -0.62
   -6    4   15      1.38      2.18
   -5    4   15     -5.51      0.15
   -4    4   15      2.16      0.51
   -3    4   15      1.36     -2.92
   -2    4   15      0.99      1.11
   -1    4   15      7.52      8.54
    0    4   15      0.93     -4.85
    1    4   15     -0.67     -3.94
    2    4   15     -5.68      2.79
    3    4   15      0.72      4.29
    4    4   15     -1.05      0.89
    5    4   15      0.69     -0.05
    6    4   15     -0.79     -2.40
    7    4   15     -1.54      0.30
    8    4   15      0.56      1.66
    9    4   15      0.22     -0.50
   10    4   15      0.33     -0.25
   11    4   15      0.13      1.88
  -12    5   15      1.09     -0.98
  -11    5   15      0.26     -0.28
  -10    5   15     -3.03     -0.32
   -9    5   15      2.27      0.49
   -8    5   15     -1.60     -0.21
   -7    5   15     -1.91     -0.22
   -6    5   15      3.00      4.20
   -5    5   15      0.14      0.83
   -4    5   15     -0.03     -3.71
   -3    5   15      5.98      2.17
   -2    5   15     -2.75     -1.05
   -1    5   15     -0.94      1.46
    0    5   15      3.49      2.67
    1    5   15     -4.43      2.17
    2    5   15     -4.64      3.89
    3    5   15     -0.22     -4.10
    4    5   15      0.33     -1.38
    5    5   15     -1.80      0.84
    6    5   15      1.91      0.36
    7    5   15     -0.14     -4.60
    8    5   15     -0.89      1.47
    9    5   15     -0.27      2.14
   10    5   15      0.32      1.07
   11    5   15      0.67     -0.63
  -12    6   15     -0.43      0.21
  -11    6   15     -0.03      0.01
  -10    6   15     -2.26     -1.05
   -9    6   15      0.62      0.61
   -8    6   15      2.46     -0.02
   -7    6   15     -4.99      1.40
   -6    6   15      1.04     -1.98
   -5    6   15      4.55      3.46
   -4    6   15     -2.09     -2.45
   -3    6   15     -2.09      2.63
   -2    6   15     -0.93      1.10
   -1    6   15     -4.35     -2.15
    0    6   15     -4.09      3.80
    1    6   15      2.71      0.04
    2    6   15      3.39      0.31
    3    6   15      1.86     -4.80
    4    6   15     -3.06     -0.93
    5    6   15     -1.14     -0.45
    6    6   15      3.40      1.56
    7    6   15      1.04     -1.11
    8    6   15     -2.82     -2.19
    9    6   15     -0.92      1.35
   10    6   15      0.04     -0.99
   11    6   15      0.13      0.11
  -11    7   15      0.90     -0.81
  -10    7   15      1.55      0.93
   -9    7   15     -1.46     -1.08
   -8    7   15     -0.11      0.63
   -7    7   15     -0.09     -0.40
   -6    7   15     -2.51     -0.69
   -5    7   15      0.76      1.34
   -4    7   15     -2.79      2.96
   -3    7   15     -1.50     -2.78
   -2    7   15      2.88      2.62
   -1    7   15     -0.91     -1.28
    0    7   15     -4.57     -0.02
    1    7   15      1.64     -2.63
    2    7   15      5.48     -2.15
    3    7   15     -0.89     -0.94
    4    7   15      1.67     -0.34
    5    7   15     -2.73      1.74
    6    7   15      0.12      1.53
    7    7   15     -0.05      1.73
    8    7   15      0.74     -1.38
    9    7   15     -1.03     -0.31
   10    7   15     -0.22     -0.12
   11    7   15     -0.20     -0.79
  -11    8   15      0.85     -0.70
  -10    8   15     -0.01     -0.37
   -9    8   15      0.72     -0.44
   -8    8   15     -0.70      0.27
   -7    8   15      2.22      0.93
   -6    8   15     -3.84     -1.19
   -5    8   15     -0.65     -1.43
   -4    8   15     -0.11      1.33
   -3    8   15      0.34      0.08
   -2    8   15      0.76     -1.59
   -1    8   15      1.43     -3.32
    0    8   15      1.95     -1.26
    1    8   15      0.79      2.89
    2    8   15     -1.09     -0.68
    3    8   15     -4.01      1.57
    4    8   15      4.31      2.85
    5    8   15      0.41     -0.21
    6    8   15     -3.06     -1.85
    7    8   15      2.35      0.97
    8    8   15      2.40      0.27
    9    8   15      1.22     -0.70
   10    8   15     -0.93      0.14
   11    8   15      0.61     -0.25
  -10    9   15      0.62     -0.36
   -9    9   15     -2.49     -0.88
   -8    9   15      1.30      0.12
   -7    9   15     -0.25     -0.29
   -6    9   15      0.51     -1.91
   -5    9   15     -0.87     -1.40
   -4    9   15      3.30      1.03
   -3    9   15     -1.28      0.08
   -2    9   15     -0.88     -1.43
   -1    9   15      1.36      1.09
    0    9   15      2.29      1.01
    1    9   15     -1.18      0.97
    2    9   15     -0.32      1.21
    3    9   15     -3.10      3.33
    4    9   15     -0.66     -0.80
    5    9   15      3.34     -0.30
    6    9   15     -1.59     -3.87
    7    9   15     -2.03      1.44
    8    9   15      0.92     -0.22
    9    9   15      0.19     -0.56
   10    9   15      0.34      0.54
   11    9   15     -0.83      0.55
  -10   10   15      1.27      1.55
   -9   10   15     -0.77     -0.44
   -8   10   15     -1.33     -1.35
   -7   10   15      2.67      0.87
   -6   10   15      0.97      2.12
   -5   10   15     -0.60     -2.18
   -4   10   15     -0.27     -0.09
   -3   10   15      1.46     -2.39
   -2   10   15     -1.58      1.12
   -1   10   15     -0.19      5.48
    0   10   15     -0.66      2.92
    1   10   15     -2.03     -4.24
    2   10   15     -0.62     -1.57
    3   10   15      1.84      3.11
    4   10   15     -1.20     -3.50
    5   10   15      1.24      1.12
    6   10   15      1.29      0.28
    7   10   15     -1.81      0.54
    8   10   15     -1.79      2.33
    9   10   15      0.74      0.12
   10   10   15     -0.16      0.88
  -10   11   15      0.27     -0.97
   -9   11   15      2.48      1.97
   -8   11   15      0.02     -1.49
   -7   11   15      0.18      0.58
   -6   11   15      0.46      2.26
   -5   11   15     -0.21     -0.14
   -4   11   15     -0.50     -2.00
   -3   11   15     -1.72      2.78
   -2   11   15     -1.70      1.86
   -1   11   15     -0.89     -0.24
    0   11   15      2.56     -1.77
    1   11   15     -1.98      1.51
    2   11   15     -1.90     -3.00
    3   11   15      2.33     -0.79
    4   11   15     -2.35     -1.59
    5   11   15      0.61      1.36
    6   11   15      0.75      1.41
    7   11   15      1.74     -2.32
    8   11   15     -1.67      0.33
    9   11   15     -0.25      1.28
   10   11   15     -0.18     -0.52
   -9   12   15      1.26      0.51
   -8   12   15     -1.34      1.30
   -7   12   15     -1.84     -1.84
   -6   12   15      0.61      0.13
   -5   12   15     -0.20      1.11
   -4   12   15      0.46      0.20
   -3   12   15     -0.85      1.14
   -2   12   15      0.44      0.06
   -1   12   15     -0.05     -3.33
    0   12   15      0.32     -3.67
    1   12   15     -0.20      1.48
    2   12   15     -0.48      1.63
    3   12   15      2.37     -1.67
    4   12   15     -3.00      1.26
    5   12   15     -0.62      0.58
    6   12   15     -0.36      1.92
    7   12   15      0.13     -2.39
    8   12   15     -1.06     -0.72
    9   12   15     -0.64     -0.47
   -9   13   15     -0.22      0.14
   -8   13   15     -1.08      0.78
   -7   13   15     -0.39     -0.57
   -6   13   15      0.23     -0.03
   -5   13   15     -0.58      0.12
   -4   13   15     -1.93     -1.33
   -3   13   15      2.34     -0.25
   -2   13   15      2.38     -2.78
   -1   13   15     -2.40      0.46
    0   13   15     -3.57     -0.23
    1   13   15      2.30      0.11
    2   13   15     -0.12     -0.25
    3   13   15      1.24     -0.58
    4   13   15      1.03      1.78
    5   13   15     -0.18     -2.63
    6   13   15     -0.68      1.14
    7   13   15     -0.25      0.79
    8   13   15     -0.27      0.42
    9   13   15      0.78     -1.28
   -9   14   15     -1.21     -0.48
   -8   14   15      1.61      1.54
   -7   14   15      0.88     -1.62
   -6   14   15     -0.40     -1.58
   -5   14   15     -0.17      0.65
   -4   14   15     -0.18     -0.68
   -3   14   15     -0.13      0.43
   -2   14   15      0.56      0.59
   -1   14   15      0.48     -1.31
    0   14   15     -1.39      1.86
    1   14   15      1.82      1.32
    2   14   15     -0.29     -0.25
    4   14   15      1.78      1.11
    5   14   15     -0.02     -3.16
    6   14   15     -1.29     -0.21
    7   14   15      0.11     -0.34
    8   14   15      1.20     -0.31
   -8   15   15      0.14      0.64
   -7   15   15     -0.43      0.61
   -6   15   15      0.24     -2.18
   -5   15   15      0.52     -0.55
   -4   15   15      0.35      2.16
   -3   15   15      0.36     -0.61
   -2   15   15     -1.94      0.69
   -1   15   15      2.59      0.12
    0   15   15     -0.21     -1.84
    1   15   15      0.54     -0.83
    2   15   15      0.52      2.10
    4   15   15      0.99      0.06
    5   15   15     -1.25     -0.59
    6   15   15     -0.96     -1.16
    7   15   15     -0.08      0.68
    8   15   15      1.50     -0.75
   -8   16   15      0.21     -0.74
   -7   16   15     -1.29      1.28
   -6   16   15      1.22      1.57
   -5   16   15      1.34     -0.55
   -4   16   15     -0.99      0.98
   -3   16   15     -0.33     -0.78
   -2   16   15      0.41     -0.80
   -1   16   15     -0.15      0.93
    0   16   15      0.48      0.22
    1   16   15     -1.38     -2.67
    4   16   15      0.57     -0.82
    5   16   15      0.67     -0.30
    6   16   15      1.86      0.06
    7   16   15     -0.40      0.59
   -7   17   15      0.72     -0.55
   -6   17   15     -0.84      1.19
   -5   17   15      0.03      0.59
   -4   17   15      0.54     -0.87
   -3   17   15     -0.74     -0.30
   -2   17   15     -0.78      0.04
   -1   17   15      1.25     -0.77
    0   17   15      0.31      1.93
    1   17   15     -1.25     -0.67
    4   17   15     -0.90     -0.18
    5   17   15      0.69      0.40
    6   17   15      1.48      0.03
    7   17   15      0.46     -0.32
   -6   18   15     -1.01     -0.29
   -5   18   15     -1.18     -0.36
   -4   18   15      1.19     -0.58
   -2   18   15     -1.00      0.90
   -1   18   15     -0.92     -0.76
    0   18   15      2.03     -0.05
    1   18   15      0.16      1.26
    3   18   15      0.56     -1.00
    4   18   15     -0.10      0.29
    5   18   15     -1.18      2.43
    6   18   15      0.55      0.43
   -6   19   15      0.68      0.12
   -5   19   15      0.21     -0.03
   -4   19   15     -0.74     -0.14
   -3   19   15      0.19     -1.52
   -2   19   15      1.36      0.43
   -1   19   15     -1.38     -0.31
    0   19   15      0.42      1.07
    1   19   15      1.29      0.68
    2   19   15      0.22     -0.53
    3   19   15     -0.68      0.61
    4   19   15      0.70      0.18
    5   19   15      0.35      0.69
   -5   20   15      0.11      0.22
   -4   20   15      0.58      0.10
   -3   20   15     -0.40     -0.46
   -2   20   15      0.39     -0.09
   -1   20   15     -0.03      0.13
    0   20   15     -1.20      0.13
    1   20   15      0.00      0.42
    2   20   15      0.10     -0.97
    3   20   15     -0.36      0.96
    4   20   15     -0.22      1.01
   -4   21   15      1.05      0.30
   -3   21   15      0.02      0.79
   -2   21   15     -0.09      0.14
   -1   21   15     -0.52      0.52
    0   21   15      0.51     -1.97
    1   21   15     -0.76      0.77
    2   21   15     -0.87      0.75
    3   21   15     -0.26     -0.01
  -11    0   16      1.33      0.01
  -10    0   16      1.36      0.00
   -9    0   16     -2.09      0.00
   -8    0   16      1.68     -0.01
   -7    0   16     -0.14      0.00
   -6    0   16     -4.77      0.00
   -5    0   16      6.38      0.00
   -4    0   16      2.00      0.01
   -3    0   16     -9.73     -0.02
   -2    0   16     -4.49      0.00
   -1    0   16      3.69      0.10
    0    0   16     18.62     -0.02
    1    0   16      0.60     -0.02
    2    0   16     -8.49      0.00
    3    0   16     -7.72      0.01
    4    0   16      2.85      0.02
    5    0   16     -3.55     -0.01
    6    0   16     -1.29     -0.09
    7    0   16     -2.22     -0.01
    8    0   16      0.03      0.05
    9    0   16     -0.30      0.01
   10    0   16     -0.07     -0.02
   11    0   16     -0.64     -0.01
  -12    1   16     -0.46      0.09
  -11    1   16     -0.88      0.41
  -10    1   16      2.55     -0.72
   -9    1   16      0.09      0.66
   -8    1   16     -3.66     -1.31
   -7    1   16      0.41      1.93
   -6    1   16     -1.05      1.39
   -5    1   16     -0.24     -1.14
   -4    1   16      1.92     -0.52
   -3    1   16     -6.41     -1.93
   -2    1   16      4.84      3.08
   -1    1   16      7.50      0.71
    0    1   16     -5.57      3.64
    1    1   16     -5.86     -5.06
    2    1   16     -0.80      1.82
    3    1   16     -2.88      3.30
    4    1   16     -1.57     -0.02
    5    1   16     -0.93     -1.41
    6    1   16      3.44      1.27
    7    1   16      1.76     -0.56
    8    1   16     -1.49     -1.37
    9    1   16     -1.65      0.25
   10    1   16      0.92      1.30
   11    1   16     -0.13      0.34
  -12    2   16      2.41      1.01
  -11    2   16     -0.26      0.02
  -10    2   16     -0.04     -0.07
   -9    2   16      0.60      0.21
   -8    2   16     -1.86     -1.38
   -7    2   16     -0.05     -1.86
   -6    2   16      2.62      4.18
   -5    2   16     -4.00     -0.46
   -4    2   16     -0.66     -3.53
   -3    2   16      6.39      0.48
   -2    2   16      2.56      4.32
   -1    2   16     -2.59     -1.28
    0    2   16    -12.84     -4.56
    1    2   16     -4.22      9.58
    2    2   16      9.17     -5.90
    3    2   16      1.57     -0.83
    4    2   16      0.30     -2.72
    5    2   16      1.67     -0.81
    6    2   16      0.87     -2.30
    7    2   16     -0.13      0.05
    8    2   16      1.13     -1.65
    9    2   16     -1.07      0.68
   10    2   16      0.45      0.67
   11    2   16      0.26      0.18
  -12    3   16      0.66     -0.41
  -11    3   16      0.58     -0.72
  -10    3   16     -1.72      0.00
   -9    3   16      0.96      0.12
   -8    3   16     -1.26      1.74
   -7    3   16      0.69     -1.86
   -6    3   16      1.26     -3.34
   -5    3   16      0.75      0.61
   -4    3   16      0.08      1.09
   -3    3   16      0.86      1.05
   -2    3   16     -3.99     -3.39
   -1    3   16     -6.48     -3.47
    0    3   16      6.52     -3.04
    1    3   16     -3.26      5.70
    2    3   16      5.56     -0.79
    3    3   16      0.28     -7.57
    4    3   16     -0.91      1.82
    5    3   16      1.01      2.35
    6    3   16      0.32     -2.78
    7    3   16     -2.54      1.57
    8    3   16      0.56      2.21
    9    3   16      1.45     -1.14
   10    3   16     -0.48     -1.49
   11    3   16     -0.32     -1.07
  -12    4   16     -0.39      0.16
  -11    4   16     -1.55      1.27
  -10    4   16      0.00     -0.77
   -9    4   16      1.86      0.38
   -8    4   16      0.76      1.08
   -7    4   16      0.15      1.11
   -6    4   16      0.86     -4.87
   -5    4   16     -0.01     -1.61
   -4    4   16     -2.36      3.70
   -3    4   16     -1.17     -0.18
   -2    4   16      1.16     -3.78
   -1    4   16     -2.07      1.63
    0    4   16      5.04      0.59
    1    4   16      6.21     -6.43
    2    4   16     -5.54     -0.33
    3    4   16      3.48      5.54
    4    4   16     -1.75      1.63
    5    4   16     -0.24      1.01
    6    4   16      0.91     -0.87
    7    4   16      0.94      1.80
    8    4   16     -1.87      0.74
    9    4   16      1.84     -1.05
   10    4   16     -0.18     -1.84
   11    4   16     -0.42      0.43
  -12    5   16      0.29     -0.40
  -11    5   16      1.93      0.96
  -10    5   16      0.01      0.56
   -9    5   16     -1.06     -1.85
   -8    5   16      1.35      1.08
   -7    5   16     -0.08     -1.29
   -6    5   16      0.65      2.49
   -5    5   16     -0.95     -0.31
   -4    5   16      0.01     -0.18
   -3    5   16      1.13     -0.28
   -2    5   16      7.15     -0.16
   -1    5   16      1.53      3.84
    0    5   16     -0.85     -3.87
    1    5   16      2.76      1.19
    2    5   16     -5.97     -0.98
    3    5   16     -1.26      3.99
    4    5   16      3.81     -0.73
    5    5   16     -0.74      0.13
    6    5   16     -3.36      0.13
    7    5   16      1.87     -1.10
    8    5   16      1.15     -0.08
    9    5   16     -0.43      0.78
   10    5   16      0.73      0.57
   11    5   16     -0.48      1.03
  -12    6   16     -0.62     -1.32
  -11    6   16      0.75      0.39
  -10    6   16     -1.05      0.79
   -9    6   16     -0.91     -0.71
   -8    6   16      1.39     -0.41
   -7    6   16     -0.22      2.15
   -6    6   16     -0.37      1.40
   -5    6   16      2.75      0.36
   -4    6   16      2.99     -1.67
   -3    6   16     -0.50      1.28
   -2    6   16     -2.22     -1.14
   -1    6   16      3.64      1.33
    0    6   16     -2.13      0.17
    1    6   16     -0.97      0.46
    2    6   16     -3.47      6.17
    3    6   16      0.61     -3.86
    4    6   16      0.71     -2.79
    5    6   16      0.43      0.38
    6    6   16     -0.84      1.73
    7    6   16      1.40     -2.63
    8    6   16     -0.20      0.15
    9    6   16     -0.20      1.06
   10    6   16      0.13      0.65
   11    6   16      0.49     -0.01
  -11    7   16     -1.53      0.18
  -10    7   16      0.01      0.54
   -9    7   16     -0.57      1.86
   -8    7   16      2.36     -2.79
   -7    7   16     -2.09      0.78
   -6    7   16     -0.66      0.74
   -5    7   16      1.92      1.15
   -4    7   16      0.49     -0.93
   -3    7   16     -2.71      3.00
   -2    7   16     -2.81      0.00
   -1    7   16      1.14      0.65
    0    7   16     -4.69      2.94
    1    7   16      2.10     -3.28
    2    7   16      3.61     -0.56
    3    7   16      1.59      0.56
    4    7   16     -2.36     -2.82
    5    7   16     -0.35     -1.92
    6    7   16      1.46      3.07
    7    7   16     -0.01      1.00
    8    7   16     -1.67     -1.77
    9    7   16     -1.20      0.52
   10    7   16      0.10     -0.36
   11    7   16     -0.30      0.02
  -11    8   16      0.54     -0.96
  -10    8   16      0.41      0.31
   -9    8   16     -0.39      0.99
   -8    8   16     -1.52      0.74
   -7    8   16      2.49     -1.68
   -6    8   16     -2.73      1.74
   -5    8   16     -2.44      2.27
   -4    8   16     -0.28     -0.17
   -3    8   16     -0.21     -1.72
   -2    8   16      0.04      3.26
   -1    8   16      2.43     -2.88
    0    8   16     -2.33     -0.42
    1    8   16     -0.64     -1.34
    2    8   16      6.10     -1.52
    3    8   16     -1.24     -1.73
    4    8   16     -0.53      3.81
    5    8   16     -0.10     -0.03
    6    8   16     -0.89      0.59
    7    8   16     -0.18      1.21
    8    8   16      2.40      0.69
    9    8   16     -0.81     -0.94
   10    8   16     -0.20      0.14
  -10    9   16      0.24     -1.25
   -9    9   16      0.71      0.11
   -8    9   16     -2.39      0.52
   -7    9   16      1.32      1.17
   -6    9   16      0.27     -2.90
   -5    9   16     -2.36     -0.04
   -4    9   16     -0.21      1.29
   -3    9   16      3.25     -0.19
   -2    9   16     -3.29     -1.79
   -1    9   16      1.23     -2.77
    0    9   16      4.21      0.65
    1    9   16     -1.58      2.13
    2    9   16     -0.26      1.86
    3    9   16     -0.88     -1.38
    4    9   16     -0.37      2.70
    5    9   16      1.20      1.22
    6    9   16      0.56     -2.79
    7    9   16     -1.73     -0.65
    8    9   16      1.80      0.14
    9    9   16      1.14     -0.38
  -11   10   16     -0.43      0.19
  -10   10   16     -0.03      0.12
   -9   10   16     -0.78     -0.78
   -8   10   16     -1.26      0.09
   -7   10   16     -1.63     -1.07
   -6   10   16      1.88     -0.54
   -5   10   16      0.67     -2.00
   -4   10   16     -0.16      1.00
   -3   10   16      1.56      0.04
   -2   10   16      1.60     -1.69
   -1   10   16     -3.21     -0.31
    0   10   16      2.41      4.74
    1   10   16      0.00      1.32
    2   10   16     -0.22     -0.75
    3   10   16     -1.64      2.18
    4   10   16      0.97     -0.56
    5   10   16     -1.53     -0.36
    6   10   16      2.25     -1.21
    7   10   16     -2.02      0.69
    8   10   16     -1.44      0.24
    9   10   16      0.69     -0.19
   10   10   16      0.17      0.52
  -10   11   16     -0.03     -0.52
   -9   11   16      0.71     -0.36
   -8   11   16      0.40     -0.18
   -7   11   16      0.64      0.06
   -6   11   16      0.47      1.72
   -5   11   16      0.03      0.23
   -4   11   16     -0.66     -1.35
   -3   11   16      0.55     -2.43
   -2   11   16      0.13      2.89
   -1   11   16     -2.36      3.07
    0   11   16     -0.25      0.08
    1   11   16     -0.39     -1.02
    2   11   16     -0.95     -1.18
    3   11   16      0.17      1.53
    4   11   16      2.06     -1.80
    5   11   16     -1.17      0.23
    6   11   16     -0.32      0.00
    7   11   16      2.19      0.75
    8   11   16     -0.86      1.10
    9   11   16     -0.15      0.65
   -9   12   16      1.23     -0.29
   -8   12   16      2.22     -0.64
   -7   12   16     -1.57     -0.15
   -6   12   16      0.49      0.57
   -5   12   16      1.29      1.36
   -4   12   16     -1.00      0.61
   -3   12   16     -2.16      0.78
   -2   12   16     -0.26      1.14
   -1   12   16     -0.45      1.16
    0   12   16      2.72     -2.04
    1   12   16     -0.54     -0.54
    2   12   16     -2.68     -0.64
    3   12   16     -0.76      1.74
    4   12   16      0.19     -2.84
    5   12   16      0.28      2.00
    6   12   16     -0.74      0.90
    7   12   16      0.98     -1.44
    8   12   16     -0.38     -1.20
    9   12   16     -0.23      1.49
   -9   13   16      0.38      0.17
   -8   13   16     -0.42      0.09
   -7   13   16     -0.75      0.24
   -6   13   16     -1.87     -0.43
   -5   13   16      1.66      0.20
   -4   13   16      1.13      0.12
   -3   13   16     -2.97      0.35
   -2   13   16      2.23     -1.04
   -1   13   16      1.38     -1.08
    0   13   16     -1.66     -1.97
    1   13   16      0.14      0.96
    2   13   16      1.01     -1.01
    3   13   16     -0.09      0.28
    4   13   16     -2.41      1.21
    5   13   16      0.87      0.68
    6   13   16     -0.21      1.14
    7   13   16      0.61      0.05
    8   13   16     -1.93     -0.71
   -9   14   16     -0.52      0.62
   -8   14   16     -0.53      0.32
   -7   14   16      1.40      1.41
   -6   14   16     -0.58     -0.44
   -5   14   16     -2.52     -0.94
   -4   14   16      0.92     -1.12
   -3   14   16      0.78     -0.17
   -2   14   16     -0.21     -0.95
   -1   14   16     -0.69      1.52
    0   14   16     -1.75     -0.70
    1   14   16     -0.08      1.23
    2   14   16      0.43     -0.38
    3   14   16      1.27     -2.01
    4   14   16     -1.51      1.22
    5   14   16      1.43     -0.33
    6   14   16     -0.69     -0.65
    7   14   16     -0.27      0.37
    8   14   16      0.32      1.11
   -7   15   16      1.30     -0.95
   -6   15   16      0.33     -0.51
   -5   15   16     -0.87     -0.42
   -4   15   16     -0.87     -0.28
   -3   15   16      1.48      2.17
   -2   15   16     -0.13     -0.92
   -1   15   16      0.32      0.07
    0   15   16     -0.96      1.48
    1   15   16      1.33      0.36
    2   15   16     -0.35      0.67
    4   15   16      0.12     -0.18
    5   15   16      0.35     -0.54
    6   15   16     -2.07     -0.34
    7   15   16     -1.06     -1.41
    8   15   16      0.58     -0.02
   -8   16   16     -0.53      0.33
   -7   16   16     -0.53     -0.05
   -6   16   16      0.25     -0.84
   -5   16   16      0.84     -0.19
   -4   16   16      0.20      0.65
   -3   16   16     -0.61      1.14
   -2   16   16     -0.62     -0.41
   -1   16   16      2.00     -0.91
    0   16   16     -1.28     -0.60
    1   16   16     -0.68     -0.39
    2   16   16      0.16      0.51
    4   16   16     -0.24      0.09
    5   16   16     -0.71     -1.66
    6   16   16     -0.58     -0.13
    7   16   16     -0.59      0.53
   -7   17   16     -0.23      0.00
   -6   17   16      0.58      1.02
   -5   17   16      0.57     -0.25
   -4   17   16     -1.03      0.26
   -3   17   16      1.22     -0.07
   -2   17   16     -1.95      0.18
   -1   17   16     -0.14     -0.67
    0   17   16      1.17      0.29
    1   17   16     -1.56     -1.22
    2   17   16     -1.93      0.34
    4   17   16      0.66     -0.36
    5   17   16      0.04     -2.25
    6   17   16      1.02     -0.21
   -6   18   16     -0.85      0.45
   -5   18   16     -0.33      0.85
   -4   18   16     -0.51     -1.37
   -3   18   16      0.65      0.16
   -2   18   16      0.00      0.91
   -1   18   16     -1.05     -0.95
    0   18   16     -0.07      0.06
    1   18   16      1.31     -0.51
    2   18   16     -0.39      0.01
    3   18   16     -0.56     -1.01
    5   18   16     -0.06      0.15
   -5   19   16     -0.37      0.30
   -4   19   16      0.23      0.05
   -3   19   16     -0.51     -1.40
   -2   19   16      0.37      0.82
   -1   19   16      0.81     -0.37
    0   19   16     -0.35     -0.85
    1   19   16      0.59      1.05
    2   19   16      1.46     -0.23
    3   19   16     -0.11     -1.19
    4   19   16     -0.20      0.06
    5   19   16      0.24      0.80
   -4   20   16     -0.74      0.33
   -3   20   16      0.45     -1.74
   -2   20   16     -0.11      0.19
   -1   20   16      0.13      0.18
    0   20   16      0.55      0.55
    1   20   16     -0.53      0.23
    2   20   16      1.05      0.02
    3   20   16      0.73     -0.43
  -11    0   17     -1.35      0.00
  -10    0   17      0.49      0.00
   -9    0   17     -1.33      0.00
   -8    0   17      1.38      0.00
   -7    0   17      1.90      0.00
   -6    0   17      1.41      0.00
   -5    0   17     -0.59      0.00
   -4    0   17     -0.59      0.00
   -3    0   17      6.53     -0.02
   -2    0   17     -8.74     -0.01
   -1    0   17     -0.50      0.02
    0    0   17      3.52      0.01
    1    0   17      7.95      0.01
    2    0   17     -0.40     -0.01
    3    0   17      4.44      0.01
    4    0   17     -0.64     -0.04
    5    0   17     -1.48     -0.02
    6    0   17     -0.47      0.03
    7    0   17     -0.69     -0.02
    8    0   17      1.31      0.03
    9    0   17     -0.50      0.00
   10    0   17     -0.38     -0.01
   11    0   17      1.02      0.01
  -11    1   17     -0.44      0.41
  -10    1   17      0.91     -1.28
   -9    1   17      1.77      0.34
   -8    1   17     -0.30      1.19
   -7    1   17     -1.34     -0.89
   -6    1   17     -2.79     -0.97
   -5    1   17      4.27      1.69
   -4    1   17      1.28     -0.54
   -3    1   17     -5.16     -0.73
   -2    1   17     -4.17      0.91
   -1    1   17      4.11     -3.48
    0    1   17     17.02      3.38
    1    1   17     -3.75     -1.35
    2    1   17     -8.47      0.67
    3    1   17     -5.00     -0.54
    4    1   17      4.60      4.17
    5    1   17     -4.61     -2.35
    6    1   17     -3.00      2.16
    7    1   17      1.04      1.24
    8    1   17      0.91     -0.23
    9    1   17     -0.42     -0.93
   10    1   17     -1.02      0.58
   11    1   17      0.67      0.22
  -12    2   17     -0.14     -0.85
  -11    2   17     -0.22      1.79
  -10    2   17      0.49     -0.98
   -9    2   17      0.97     -1.81
   -8    2   17     -0.39      0.90
   -7    2   17     -1.23      1.87
   -6    2   17     -1.24      0.31
   -5    2   17     -0.15      1.91
   -4    2   17     -0.58      0.88
   -3    2   17     -1.48     -7.64
   -2    2   17      3.92      8.78
   -1    2   17      3.65      3.95
    0    2   17     -4.99     -2.54
    1    2   17     -2.29     -3.31
    2    2   17     -3.82      6.72
    3    2   17      0.90     -0.78
    4    2   17      0.41      2.45
    5    2   17      0.09     -1.64
    6    2   17      0.55     -0.60
    7    2   17      0.71      1.46
    8    2   17     -0.24     -1.06
    9    2   17     -0.18     -0.75
   10    2   17     -0.40      0.82
   11    2   17      0.10      1.03
  -12    3   17      1.03      0.11
  -11    3   17      0.99     -1.46
  -10    3   17     -0.75      2.36
   -9    3   17     -0.46     -0.88
   -8    3   17     -0.61     -1.80
   -7    3   17     -0.83      0.70
   -6    3   17      1.66      2.04
   -5    3   17     -1.14     -1.72
   -4    3   17     -0.16      1.13
   -3    3   17      3.17     -0.65
   -2    3   17      0.90     -0.87
   -1    3   17     -3.67      4.82
    0    3   17     -5.55     -3.53
    1    3   17     -2.16      1.84
    2    3   17      6.07      1.30
    3    3   17     -2.35     -3.06
    4    3   17      2.83     -4.62
    5    3   17     -0.04      2.43
    6    3   17      1.36     -2.15
    7    3   17     -2.18     -2.41
    8    3   17      0.23      1.19
    9    3   17     -0.36      1.44
   10    3   17     -0.41      0.22
   11    3   17      0.14     -0.58
  -11    4   17      0.41     -1.54
  -10    4   17     -2.59     -0.47
   -9    4   17      0.84      2.05
   -8    4   17      0.17     -0.54
   -7    4   17     -0.55      0.32
   -6    4   17      0.29     -0.87
   -5    4   17      1.51     -3.96
   -4    4   17     -0.56      0.84
   -3    4   17     -2.85      3.13
   -2    4   17     -1.66     -4.48
   -1    4   17     -5.36     -5.87
    0    4   17      3.68      6.42
    1    4   17     -1.42     -0.98
    2    4   17      7.01     -1.60
    3    4   17     -4.17     -3.06
    4    4   17     -2.52      0.77
    5    4   17      1.86      2.85
    6    4   17      1.51     -1.51
    7    4   17     -1.19     -1.04
    8    4   17     -2.10      1.73
    9    4   17      1.22     -0.11
   10    4   17      0.16     -0.74
   11    4   17     -0.42     -1.25
  -11    5   17      0.37      0.50
  -10    5   17      1.09     -0.76
   -9    5   17     -0.95     -0.58
   -8    5   17      1.51      0.40
   -7    5   17     -0.02     -0.20
   -6    5   17      0.02     -2.19
   -5    5   17     -0.46     -0.92
   -4    5   17     -1.91      0.09
   -3    5   17     -1.44      0.86
   -2    5   17      3.76     -1.02
   -1    5   17     -1.48     -0.29
    0    5   17      0.70     -0.05
    1    5   17      2.97     -1.14
    2    5   17     -0.25     -3.51
    3    5   17      1.72      5.58
    4    5   17     -3.51     -0.16
    5    5   17     -0.20      1.60
    6    5   17      1.57     -0.66
    7    5   17     -0.03      0.62
    8    5   17     -0.80     -1.11
    9    5   17      0.19     -0.48
   10    5   17      0.68     -0.66
   11    5   17     -0.81     -0.03
  -11    6   17      1.33     -0.96
  -10    6   17      2.56      1.25
   -9    6   17     -1.92     -1.40
   -8    6   17     -1.24      0.02
   -7    6   17      1.99     -0.86
   -6    6   17     -0.56      1.68
   -5    6   17     -0.64     -0.06
   -4    6   17      2.43     -0.64
   -3    6   17      0.38     -0.07
   -2    6   17      5.84     -0.89
   -1    6   17      0.13      0.01
    0    6   17      0.85     -1.87
    1    6   17     -1.86      2.33
    2    6   17     -4.14     -1.97
    3    6   17     -0.65      4.43
    4    6   17      4.55     -2.03
    5    6   17     -1.38     -1.80
    6    6   17     -2.92      2.21
    7    6   17      1.79     -0.62
    8    6   17      1.93     -1.32
    9    6   17     -0.31      0.02
   10    6   17      0.35      1.12
  -11    7   17     -1.38      0.73
  -10    7   17      0.24     -1.07
   -9    7   17      0.63      1.57
   -8    7   17      0.17     -0.44
   -7    7   17      1.71     -0.07
   -6    7   17     -0.18      1.06
   -5    7   17      0.84     -0.02
   -4    7   17      4.44     -1.99
   -3    7   17     -1.11      1.57
   -2    7   17     -3.63      1.03
   -1    7   17      3.60     -0.53
    0    7   17     -1.16     -1.71
    1    7   17     -2.15      3.66
    2    7   17     -3.44      0.03
    3    7   17      1.87     -0.95
    4    7   17      0.42     -0.72
    5    7   17      2.32     -3.74
    6    7   17     -2.15     -0.14
    7    7   17      1.43      2.10
    8    7   17     -0.48     -0.91
    9    7   17     -0.17     -0.59
   10    7   17      0.52      0.19
  -11    8   17     -1.23      1.61
  -10    8   17      0.10     -0.07
   -9    8   17      0.41      0.14
   -8    8   17      1.24      0.69
   -7    8   17     -1.35     -1.53
   -6    8   17      2.27      0.18
   -5    8   17     -2.09      3.03
   -4    8   17      0.01     -0.94
   -3    8   17      0.28      0.51
   -2    8   17     -2.95      1.11
   -1    8   17      0.97      5.45
    0    8   17     -0.20     -4.45
    1    8   17      0.92     -2.39
    2    8   17      0.12     -0.11
    3    8   17      3.60     -0.97
    4    8   17     -2.42      0.01
    5    8   17     -0.34     -0.07
    6    8   17      0.70     -0.57
    7    8   17     -1.18      1.29
    8    8   17      0.38      1.37
    9    8   17     -0.68     -0.37
   10    8   17      0.60     -0.76
  -11    9   17      0.42     -0.06
  -10    9   17     -0.72      0.39
   -9    9   17      0.97      0.33
   -8    9   17     -0.48      0.95
   -7    9   17     -0.01      1.10
   -6    9   17      0.10     -0.48
   -5    9   17     -0.22      2.12
   -4    9   17     -4.20      0.77
   -3    9   17      2.05     -1.29
   -2    9   17      0.94      0.55
   -1    9   17     -0.30     -0.95
    0    9   17     -0.85     -0.59
    1    9   17      3.47     -3.15
    2    9   17      0.63      0.70
    3    9   17      0.30     -2.31
    4    9   17     -0.11      2.80
    5    9   17     -0.02      1.86
    6    9   17      0.63      0.63
    7    9   17     -0.12     -2.18
    8    9   17      1.11      1.09
    9    9   17      0.71      0.52
   10    9   17     -0.42     -0.76
  -10   10   17     -0.56     -0.37
   -9   10   17      0.08      0.42
   -8   10   17     -0.86      0.17
   -7   10   17     -0.83      1.63
   -6   10   17     -0.61     -2.53
   -5   10   17      1.41     -1.73
   -4   10   17     -0.52      1.92
   -3   10   17     -0.06      1.13
   -2   10   17     -0.14     -1.85
   -1   10   17      1.99     -3.39
    0   10   17     -0.66      1.92
    1   10   17      1.00      4.15
    2   10   17      1.26      1.66
    3   10   17     -1.14     -3.08
    4   10   17     -1.03      0.74
    5   10   17      0.21      1.30
    6   10   17      2.18     -0.92
    7   10   17     -0.76     -0.98
    8   10   17     -0.95     -0.64
    9   10   17      0.50      0.28
  -10   11   17     -0.65      0.93
   -9   11   17     -0.53     -1.06
   -8   11   17     -0.96      0.12
   -7   11   17     -1.00      0.10
   -6   11   17      0.03      0.65
   -5   11   17      0.36     -2.55
   -4   11   17      0.79      0.59
   -3   11   17      1.52      0.04
   -2   11   17      1.15     -1.54
   -1   11   17     -1.85      0.59
    0   11   17     -0.75      3.05
    1   11   17      0.24     -0.16
    2   11   17      1.69      2.23
    3   11   17     -0.53     -0.19
    4   11   17      1.94     -0.09
    5   11   17     -2.80     -0.87
    6   11   17      0.66      0.42
    7   11   17      0.62      0.28
    8   11   17     -0.26      0.91
    9   11   17     -0.21     -0.36
   -9   12   17     -0.63     -0.08
   -8   12   17      1.99     -1.05
   -7   12   17      0.43     -0.64
   -6   12   17     -0.66      1.51
   -5   12   17      0.64      1.20
   -4   12   17     -0.56     -0.84
   -3   12   17     -0.45     -1.31
   -2   12   17      0.22      2.30
   -1   12   17     -1.98      1.15
    0   12   17     -1.37      1.26
    1   12   17      0.46     -3.04
    2   12   17     -0.19      0.33
    3   12   17     -1.47      2.06
    4   12   17      3.40     -1.45
    5   12   17      0.06     -1.10
    6   12   17     -2.10      0.75
    7   12   17      1.05      1.00
    8   12   17      1.06     -0.74
   -9   13   17     -0.66     -0.33
   -8   13   17      0.84     -0.62
   -7   13   17      0.33     -1.32
   -6   13   17     -0.95      0.02
   -5   13   17      0.70      1.51
   -4   13   17      1.82      1.77
   -3   13   17     -3.36     -0.31
   -2   13   17     -1.57      0.47
   -1   13   17      3.26      0.02
    0   13   17      2.59     -0.21
    1   13   17     -2.96     -1.20
    2   13   17      0.38     -0.78
    3   13   17     -1.90      2.78
    4   13   17     -0.09     -1.64
    5   13   17      0.84      0.68
    6   13   17     -0.39      0.35
    7   13   17      0.29      0.97
    8   13   17     -0.37     -1.16
   -8   14   17     -1.28     -0.47
   -7   14   17     -0.12      1.49
   -6   14   17     -0.01      0.66
   -5   14   17     -1.29     -1.32
   -4   14   17      1.87     -0.64
   -3   14   17     -0.45     -0.02
   -2   14   17     -0.52     -1.09
   -1   14   17     -0.43     -1.00
    0   14   17      2.45     -0.21
    1   14   17     -1.35      0.10
    2   14   17      0.34     -2.01
    3   14   17      0.74      0.51
    4   14   17     -1.82      1.44
    5   14   17      0.35      1.49
    6   14   17      0.88     -0.76
    7   14   17      0.81      0.54
    8   14   17     -0.92      0.61
   -8   15   17     -0.01     -0.01
   -7   15   17      0.58      0.13
   -6   15   17      0.72      1.12
   -5   15   17     -1.58     -0.12
   -4   15   17     -0.89     -2.23
   -3   15   17      1.44     -0.22
   -2   15   17      0.85      1.13
   -1   15   17     -2.69      0.43
    0   15   17      0.14     -0.43
    1   15   17      1.13      2.72
    2   15   17     -0.08     -1.34
    3   15   17     -0.13     -1.38
    4   15   17     -1.13      0.05
    5   15   17      1.52      1.70
    6   15   17     -0.01      0.42
    7   15   17     -0.88     -1.30
   -7   16   17      0.32     -0.80
   -6   16   17      0.36     -1.34
   -5   16   17     -0.19      1.23
   -4   16   17     -0.01     -0.07
   -3   16   17     -0.07      0.97
   -2   16   17      1.25     -0.67
   -1   16   17      0.56      1.32
    0   16   17     -0.44     -0.40
    1   16   17      0.52      1.25
    2   16   17      0.62      0.52
    3   16   17      0.35      0.19
    4   16   17     -1.11      0.14
    5   16   17      0.05      0.21
    6   16   17     -1.02      0.46
   -6   17   17      0.46     -0.64
   -5   17   17      0.44     -0.74
   -4   17   17      0.03      1.13
   -3   17   17     -0.12      1.01
   -2   17   17     -0.07     -0.59
   -1   17   17      0.05      0.04
    0   17   17     -0.46     -0.49
    1   17   17     -0.01      0.23
    2   17   17     -1.65     -0.01
    3   17   17      1.12      0.72
    4   17   17      0.14      0.87
    5   17   17     -1.41     -1.02
   -6   18   17     -0.22      0.11
   -5   18   17      0.15      0.41
   -4   18   17     -0.99     -0.40
   -3   18   17      0.14      0.26
   -2   18   17      0.09      0.29
   -1   18   17     -0.84      0.53
    0   18   17     -1.35     -0.45
    1   18   17      0.46     -0.57
    2   18   17     -1.39      0.48
    3   18   17     -0.89      0.65
   -5   19   17     -0.65      0.64
   -4   19   17      0.25      0.20
   -3   19   17     -0.65      0.08
   -2   19   17     -0.56     -0.76
   -1   19   17      1.41      0.14
    0   19   17     -1.51     -0.22
    1   19   17      0.02     -0.90
    2   19   17      0.93      0.21
    3   19   17     -0.55     -0.15
    4   19   17     -0.64     -0.76
   -3   20   17      0.22      0.33
   -2   20   17     -0.74     -1.18
   -1   20   17      1.19     -0.80
    0   20   17      1.09     -0.27
    1   20   17     -0.88      0.73
    2   20   17      0.05      0.12
    3   20   17      1.02     -1.13
  -11    0   18     -0.08     -0.01
  -10    0   18     -0.90      0.00
   -9    0   18     -1.60      0.00
   -8    0   18     -0.47      0.00
   -7    0   18      0.47     -0.01
   -6    0   18      3.42     -0.01
   -5    0   18     -3.32      0.00
   -4    0   18     -1.55     -0.01
   -3    0   18      3.36      0.02
   -2    0   18      3.69     -0.01
   -1    0   18     -2.73     -0.05
    0    0   18    -21.12      0.02
    1    0   18     10.67      0.01
    2    0   18      9.29      0.01
    3    0   18      2.36     -0.02
    4    0   18     -2.95     -0.01
    5    0   18      1.49      0.00
    6    0   18      2.89     -0.01
    7    0   18      1.84      0.00
    8    0   18     -1.18     -0.03
    9    0   18     -0.91     -0.01
  -11    1   18     -0.92      0.33
  -10    1   18     -0.15      0.46
   -9    1   18     -0.46     -0.43
   -8    1   18      1.43      1.04
   -7    1   18      0.97     -1.40
   -6    1   18      0.44     -1.65
   -5    1   18     -0.10      1.46
   -4    1   18      0.15     -1.77
   -3    1   18      5.06      2.56
   -2    1   18     -8.99     -3.08
   -1    1   18      4.12     -0.50
    0    1   18      3.03     -3.76
    1    1   18      2.25      6.06
    2    1   18      3.00     -3.34
    3    1   18      0.45     -1.79
    4    1   18     -0.70     -0.73
    5    1   18      0.56      1.14
    6    1   18     -3.09     -0.38
    7    1   18     -0.24     -0.37
    8    1   18      3.13      0.57
    9    1   18     -0.39      0.13
   10    1   18     -1.47     -0.56
  -11    2   18     -0.19      0.70
  -10    2   18      0.28      0.67
   -9    2   18      1.75     -1.65
   -8    2   18      0.80     -0.08
   -7    2   18     -0.74      1.80
   -6    2   18     -2.60     -3.62
   -5    2   18      1.93      1.60
   -4    2   18     -0.21      3.09
   -3    2   18     -1.77     -3.50
   -2    2   18     -2.85     -1.86
   -1    2   18      3.23      1.85
    0    2   18     12.76      1.82
    1    2   18     -4.17     -6.39
    2    2   18     -9.12      6.27
    3    2   18      0.75      0.21
    4    2   18      1.31      1.94
    5    2   18     -0.49     -1.08
    6    2   18     -2.84      1.64
    7    2   18     -0.26      1.52
    8    2   18      1.50      0.48
    9    2   18      1.13     -1.34
   10    2   18     -0.54     -0.23
  -11    3   18     -0.14     -0.13
  -10    3   18      1.01      0.16
   -9    3   18     -0.91      0.94
   -8    3   18      0.85     -2.31
   -7    3   18      0.23      2.08
   -6    3   18     -2.49      1.66
   -5    3   18      1.49     -0.54
   -4    3   18     -1.40      1.91
   -3    3   18      2.07     -1.70
   -2    3   18      1.97      2.70
   -1    3   18      2.83      4.14
    0    3   18     -6.18      1.76
    1    3   18      2.70     -7.59
    2    3   18     -4.66      3.87
    3    3   18      2.02      4.23
    4    3   18      1.82     -0.63
    5    3   18      0.60     -2.50
    6    3   18      0.34      0.92
    7    3   18     -0.22      1.03
    8    3   18     -0.32     -1.08
    9    3   18      0.83      0.40
   10    3   18     -0.96      0.54
  -11    4   18      0.23     -0.60
  -10    4   18     -0.33     -0.15
   -9    4   18     -1.01      1.72
   -8    4   18     -2.03     -0.30
   -7    4   18      1.87     -1.48
   -6    4   18      0.11      4.29
   -5    4   18     -0.88     -1.69
   -4    4   18      2.12     -2.30
   -3    4   18      0.23      1.60
   -2    4   18     -2.09      1.08
   -1    4   18     -1.26     -2.07
    0    4   18     -0.71      1.97
    1    4   18     -3.66      2.11
    2    4   18      5.26     -1.13
    3    4   18     -1.35     -3.64
    4    4   18     -0.38     -0.56
    5    4   18      0.54      0.58
    6    4   18      1.74      0.23
    7    4   18     -0.93     -2.52
    8    4   18     -1.19      1.03
    9    4   18     -0.21      1.84
   10    4   18      0.22      0.64
  -11    5   18     -1.21      0.46
  -10    5   18     -1.98     -1.49
   -9    5   18      1.86      0.91
   -8    5   18     -0.74      0.29
   -7    5   18     -1.03     -0.58
   -6    5   18      1.95      0.99
   -5    5   18      0.06     -2.06
   -4    5   18     -2.45     -0.92
   -3    5   18     -1.30      0.21
   -2    5   18     -3.19      1.11
   -1    5   18     -3.26     -6.13
    0    5   18      2.26      6.57
    1    5   18      1.86     -0.60
    2    5   18      3.32     -0.82
    3    5   18     -0.59     -2.87
    4    5   18     -4.03      1.82
    5    5   18     -1.11      2.43
    6    5   18      3.28     -0.35
    7    5   18     -0.09     -1.26
    8    5   18     -2.82      0.15
    9    5   18     -0.47      0.40
   10    5   18      0.87     -0.59
  -11    6   18      0.31     -0.26
  -10    6   18      0.77     -0.44
   -9    6   18     -0.17     -0.65
   -8    6   18      0.07      0.52
   -7    6   18     -2.00     -2.28
   -6    6   18      0.01     -1.40
   -5    6   18      0.88      1.84
   -4    6   18     -3.13     -0.84
   -3    6   18     -0.50     -1.32
   -2    6   18      5.35      1.91
   -1    6   18     -1.78     -2.45
    0    6   18     -1.74     -1.08
    1    6   18      1.70      2.84
    2    6   18      3.07     -3.06
    3    6   18     -2.31      3.19
    4    6   18     -0.03      1.00
    5    6   18     -2.49      0.26
    6    6   18      0.68      0.76
    7    6   18      0.18      1.01
    8    6   18      0.35     -1.88
    9    6   18     -0.62     -0.36
  -11    7   18      1.90     -0.66
  -10    7   18      0.10     -0.03
   -9    7   18      0.35     -1.45
   -8    7   18     -1.97      2.09
   -7    7   18      1.37     -1.03
   -6    7   18     -0.85     -0.82
   -5    7   18     -0.69      0.51
   -4    7   18      3.94      1.48
   -3    7   18     -0.59     -4.43
   -2    7   18      3.17      1.17
   -1    7   18     -0.79     -0.50
    0    7   18      2.91     -3.33
    1    7   18     -6.12      3.55
    2    7   18     -2.65      1.09
    3    7   18     -0.18      0.37
    4    7   18      3.57      0.15
    5    7   18      0.28     -2.25
    6    7   18     -2.70     -1.18
    7    7   18      1.17      1.89
    8    7   18      1.82     -0.49
    9    7   18     -0.23     -1.27
  -10    8   18     -0.87      0.14
   -9    8   18      0.77     -1.55
   -8    8   18      2.14      0.53
   -7    8   18     -0.31      0.82
   -6    8   18      1.42     -1.93
   -5    8   18     -0.22     -0.88
   -4    8   18      2.56      1.04
   -3    8   18      0.44      0.43
   -2    8   18     -2.82     -1.92
   -1    8   18     -0.62      4.08
    0    8   18      2.06     -1.53
    1    8   18     -0.26      0.24
    2    8   18     -5.96     -0.68
    3    8   18      0.62      0.65
    4    8   18      1.80     -1.85
    5    8   18      1.37     -0.86
    6    8   18     -1.39     -3.03
    7    8   18     -1.39      1.30
    8    8   18      0.01      1.24
    9    8   18      0.12     -0.67
  -10    9   18      0.22      1.48
   -9    9   18     -1.44     -1.26
   -8    9   18      2.58     -0.66
   -7    9   18     -0.60      1.11
   -6    9   18      0.72     -0.60
   -5    9   18     -0.23      1.04
   -4    9   18     -1.08      0.58
   -3    9   18     -1.00      0.59
   -2    9   18      1.82     -0.84
   -1    9   18     -0.94      4.96
    0    9   18     -0.74     -3.85
    1    9   18      2.59     -4.14
    2    9   18      1.20     -0.78
    3    9   18     -0.47      0.30
    4    9   18     -0.53     -0.22
    5    9   18      0.16      1.61
    6    9   18     -0.12      0.74
    7    9   18     -0.98     -1.00
    8    9   18     -0.06      0.66
    9    9   18      1.00      0.36
  -10   10   18      0.94     -0.01
   -9   10   18     -0.40      1.22
   -8   10   18     -0.11     -1.16
   -7   10   18      1.08      2.53
   -6   10   18     -0.41      0.96
   -5   10   18      0.13     -1.37
   -4   10   18     -1.42      0.45
   -3   10   18     -0.62      1.14
   -2   10   18      0.55     -1.38
   -1   10   18      1.95     -0.58
    0   10   18     -1.52     -0.74
    1   10   18      2.07     -2.46
    2   10   18      0.12      0.87
    3   10   18      1.58     -0.85
    4   10   18     -2.10     -0.51
    5   10   18      1.08      1.57
    6   10   18      0.96      0.57
    7   10   18      0.98     -1.65
    8   10   18     -0.82     -0.58
    9   10   18      0.42      0.28
   -9   11   18      0.09      0.88
   -8   11   18     -0.72     -0.40
   -7   11   18     -0.34      0.17
   -6   11   18     -0.59      0.95
   -5   11   18      0.97     -1.88
   -4   11   18     -0.19     -1.86
   -3   11   18      0.47      4.60
   -2   11   18      0.07     -2.01
   -1   11   18      3.56     -4.04
    0   11   18     -1.85      3.13
    1   11   18      0.45      5.23
    2   11   18      1.76     -0.94
    3   11   18     -0.43     -1.27
    4   11   18     -1.42      0.03
    5   11   18     -0.71     -0.09
    6   11   18      1.44      0.50
    7   11   18      0.64     -1.56
    8   11   18     -0.80     -0.26
   -9   12   18     -0.14      0.64
   -8   12   18     -1.11      0.20
   -7   12   18      1.12     -0.62
   -6   12   18     -0.83      0.13
   -5   12   18     -0.16      0.70
   -4   12   18      0.65     -1.42
   -3   12   18      2.05     -0.80
   -2   12   18      0.27      2.12
   -1   12   18     -0.43     -0.84
    0   12   18     -1.93      0.18
    1   12   18     -1.03      0.90
    2   12   18      2.92      2.20
    3   12   18      0.97     -2.16
    4   12   18      0.70      1.69
    5   12   18     -0.84     -1.96
    6   12   18     -0.85      0.73
    7   12   18      0.73      1.05
    8   12   18      0.93     -0.60
   -8   13   18      0.13      0.11
   -7   13   18      0.48     -1.89
   -6   13   18      0.42     -0.18
   -5   13   18     -0.15      1.25
   -4   13   18     -1.05      2.09
   -3   13   18      1.24     -1.89
   -2   13   18     -2.18      1.68
   -1   13   18     -1.39      2.08
    0   13   18      0.61      0.58
    1   13   18     -0.15     -3.14
    2   13   18     -2.38      1.46
    3   13   18      0.57      1.35
    4   13   18      2.19     -1.37
    5   13   18      0.15     -1.71
    6   13   18     -0.79     -0.37
    7   13   18     -0.90      2.05
    8   13   18      1.26      0.05
   -8   14   18     -0.17      0.55
   -7   14   18     -0.58     -0.82
   -6   14   18     -0.37     -0.17
   -5   14   18      0.84      0.87
   -4   14   18      0.48      1.35
   -3   14   18     -1.80      0.13
   -2   14   18     -0.36     -0.14
   -1   14   18      1.04     -1.30
    0   14   18      2.11      1.21
    1   14   18     -0.65     -0.99
    2   14   18     -0.46     -0.78
    3   14   18     -1.41      1.68
    4   14   18      1.31     -0.10
    5   14   18     -0.85      0.25
    6   14   18      0.20     -0.66
    7   14   18      0.92      0.46
   -7   15   18     -0.57      1.55
   -6   15   18      0.69      0.93
   -5   15   18     -1.06     -1.29
   -4   15   18      0.93     -0.09
   -3   15   18     -0.44     -2.65
   -2   15   18     -0.17      1.17
   -1   15   18     -1.07     -1.08
    0   15   18      0.71     -1.05
    1   15   18     -0.23     -0.33
    2   15   18      0.66     -0.28
    3   15   18     -0.14     -0.63
    4   15   18     -0.22      0.11
    5   15   18      0.67      1.68
    6   15   18      0.38     -0.38
    7   15   18      0.84      0.39
   -7   16   18     -0.14     -0.23
   -6   16   18      0.02      0.87
   -5   16   18      0.51     -0.09
   -4   16   18     -1.26     -0.86
   -3   16   18      0.28     -0.41
   -2   16   18      1.25     -0.37
   -1   16   18     -1.46      1.23
    0   16   18      0.41      0.33
    1   16   18      0.68      0.59
    2   16   18      0.64     -0.47
    4   16   18     -0.89     -0.32
    5   16   18      1.67      1.05
    6   16   18      0.65      1.02
   -6   17   18     -0.51     -0.88
   -5   17   18      0.35      0.47
   -4   17   18      1.73     -0.05
   -3   17   18     -1.69      0.89
   -2   17   18      1.71     -0.11
   -1   17   18      0.92     -0.03
    0   17   18      0.13      0.34
    1   17   18      0.05      1.04
    2   17   18      1.40     -0.42
    3   17   18      0.10     -0.22
   -5   18   18     -0.48     -0.97
   -4   18   18      0.66      0.75
   -3   18   18      0.39      0.14
   -2   18   18     -0.68      0.00
   -1   18   18      0.12      1.35
    0   18   18      0.15     -0.45
    1   18   18     -0.70      0.32
    2   18   18     -0.54     -0.02
    3   18   18      0.23      0.15
   -4   19   18     -0.50      0.18
   -3   19   18      0.24      0.55
   -2   19   18     -0.43     -0.49
   -1   19   18     -0.98      0.71
    0   19   18     -0.37      0.75
    1   19   18     -0.17     -0.61
    2   19   18     -0.43     -0.20
    3   19   18     -0.29      1.22
   -2   20   18     -0.45     -0.58
  -11    0   19      1.75      0.00
  -10    0   19      0.75      0.00
   -9    0   19     -1.41      0.00
   -8    0   19     -1.04     -0.01
   -7    0   19     -0.79     -0.01
   -6    0   19     -1.74      0.00
   -5    0   19      1.44     -0.01
   -4    0   19      3.79      0.00
   -3    0   19    -10.27      0.01
   -2    0   19      8.33     -0.01
   -1    0   19     -0.67      0.02
    0    0   19     -7.07     -0.01
    1    0   19     -5.32     -0.02
    2    0   19      7.15      0.01
    3    0   19     -3.86      0.00
    4    0   19     -0.84      0.05
    5    0   19      0.71     -0.01
    6    0   19      1.27     -0.02
    7    0   19      1.68      0.00
    8    0   19     -2.73     -0.03
  -11    1   19     -0.64     -0.60
  -10    1   19      0.56      0.38
   -9    1   19     -1.37     -0.50
   -8    1   19     -1.59     -0.16
   -7    1   19      1.73      0.86
   -6    1   19      2.05      1.34
   -5    1   19     -4.53     -1.21
   -4    1   19      1.34     -0.21
   -3    1   19      4.25      0.96
   -2    1   19     -1.71      0.15
   -1    1   19     -1.88      1.43
    0    1   19    -10.72     -2.51
    1    1   19      2.73      2.51
    2    1   19      9.70     -1.90
    3    1   19      3.95     -0.10
    4    1   19     -5.25     -2.29
    5    1   19      1.03      0.94
    6    1   19      1.86     -0.02
    7    1   19      0.76     -1.07
    8    1   19      0.01     -0.46
    9    1   19     -0.78      0.12
  -11    2   19     -0.47     -0.60
  -10    2   19     -0.22      1.91
   -9    2   19      0.59      0.20
   -8    2   19      0.92     -1.44
   -7    2   19      0.40     -1.10
   -6    2   19      1.99     -0.68
   -5    2   19     -2.50      0.28
   -4    2   19     -0.53     -1.86
   -3    2   19      2.55      5.34
   -2    2   19     -3.61     -8.17
   -1    2   19     -0.40     -0.43
    0    2   19      6.48     -1.59
    1    2   19      0.20      5.95
    2    2   19     -0.84     -4.04
    3    2   19     -0.80     -0.63
    4    2   19      0.25     -0.52
    5    2   19      0.24     -0.53
    6    2   19     -1.75      0.31
    7    2   19     -1.62     -0.49
    8    2   19      2.36      0.87
    9    2   19      0.21     -0.47
  -11    3   19     -0.14      0.33
  -10    3   19      1.04     -1.31
   -9    3   19      1.17      1.50
   -8    3   19      0.81     -0.82
   -7    3   19     -0.49     -0.28
   -6    3   19     -1.32     -2.19
   -5    3   19     -0.07      1.38
   -4    3   19     -1.06      0.94
   -3    3   19      0.06      0.68
   -2    3   19     -0.88     -1.09
   -1    3   19      2.95     -0.31
    0    3   19      5.35      2.08
    1    3   19     -1.95     -5.17
    2    3   19     -5.99      2.40
    3    3   19      1.80      3.11
    4    3   19     -0.25      1.79
    5    3   19      1.71     -1.94
    6    3   19     -1.09     -0.64
    7    3   19     -1.06      2.33
    8    3   19      0.37      0.54
    9    3   19      1.70     -1.15
   10    3   19      0.35     -1.38
  -11    4   19     -0.37      1.12
  -10    4   19      1.48     -1.19
   -9    4   19     -0.54      1.10
   -8    4   19     -0.54      1.12
   -7    4   19      0.11     -0.27
   -6    4   19     -0.34     -0.14
   -5    4   19      0.71      2.60
   -4    4   19     -1.68     -1.46
   -3    4   19      5.20      0.07
   -2    4   19      1.03      2.13
   -1    4   19     -0.53      3.63
    0    4   19     -2.23     -1.44
    1    4   19      2.53     -2.71
    2    4   19     -7.02     -1.16
    3    4   19      5.17      3.84
    4    4   19      1.97     -0.66
    5    4   19     -1.59     -1.75
    6    4   19      1.72      0.40
    7    4   19      0.37      0.23
    8    4   19     -0.01     -0.04
    9    4   19      0.01      0.97
   10    4   19     -0.05      0.16
  -11    5   19      0.10      0.62
  -10    5   19     -1.74      0.41
   -9    5   19      0.12     -0.29
   -8    5   19     -0.33      1.27
   -7    5   19      0.28      0.54
   -6    5   19      0.47      1.02
   -5    5   19      2.03      0.61
   -4    5   19     -0.31     -1.95
   -3    5   19     -2.54     -0.46
   -2    5   19     -0.42      2.01
   -1    5   19     -0.60     -2.54
    0    5   19     -2.33      1.66
    1    5   19      2.82      3.61
    2    5   19      0.37     -0.51
    3    5   19     -0.94     -6.33
    4    5   19      2.54      1.79
    5    5   19     -1.64      0.75
    6    5   19     -0.17      1.07
    7    5   19      2.32     -2.17
    8    5   19     -0.90     -0.12
    9    5   19     -0.77      1.89
  -11    6   19     -1.51      1.04
  -10    6   19     -1.03     -0.58
   -9    6   19      0.80     -0.02
   -8    6   19      0.68     -0.93
   -7    6   19     -0.83      1.35
   -6    6   19     -1.51     -0.28
   -5    6   19      2.53     -1.48
   -4    6   19     -1.56      0.84
   -3    6   19     -2.70     -1.56
   -2    6   19     -4.44      3.25
   -1    6   19      3.80     -1.75
    0    6   19     -3.09      0.46
    1    6   19      2.85     -0.38
    2    6   19      5.59      3.53
    3    6   19     -1.51     -3.81
    4    6   19     -3.72      0.05
    5    6   19      0.32      3.18
    6    6   19      0.30      0.45
    7    6   19     -0.33      0.28
    8    6   19     -0.69     -1.38
    9    6   19     -0.87      0.36
  -10    7   19      0.54      0.86
   -9    7   19      0.07     -0.13
   -8    7   19     -1.21     -0.31
   -7    7   19     -0.85     -1.39
   -6    7   19     -1.64      0.36
   -5    7   19     -0.80      0.52
   -4    7   19     -0.43      0.77
   -3    7   19      1.14     -1.61
   -2    7   19      2.27     -1.00
   -1    7   19     -1.00      0.62
    0    7   19     -0.49     -0.41
    1    7   19     -1.15     -1.58
    2    7   19      3.66      2.17
    3    7   19     -1.86      2.79
    4    7   19     -0.42      0.16
    5    7   19     -0.98     -0.09
    6    7   19      0.58      1.00
    7    7   19     -0.26      0.40
    8    7   19      1.27      0.01
    9    7   19     -0.18     -0.75
  -10    8   19     -0.89      0.04
   -9    8   19     -0.23     -0.21
   -8    8   19     -0.66      1.05
   -7    8   19      1.53     -0.42
   -6    8   19     -0.74     -0.49
   -5    8   19     -1.08     -0.45
   -4    8   19      2.35      1.19
   -3    8   19      0.73     -2.38
   -2    8   19      0.24     -0.08
   -1    8   19     -0.95     -3.04
    0    8   19      1.13      3.39
    1    8   19     -4.19      1.27
    2    8   19     -1.78      0.43
    3    8   19     -1.55      0.13
    4    8   19      2.07      0.57
    5    8   19      1.53     -1.75
    6    8   19     -1.07     -2.16
    7    8   19     -0.08      0.56
    8    8   19      0.66      0.51
   -9    9   19     -0.67     -0.69
   -8    9   19      0.34     -0.74
   -7    9   19      0.87      0.06
   -6    9   19      1.10     -1.07
   -5    9   19     -0.64     -2.03
   -4    9   19      1.20      2.03
   -3    9   19      0.77      0.18
   -2    9   19     -2.87     -1.42
   -1    9   19     -1.64      2.79
    0    9   19      3.77      0.54
    1    9   19     -2.11     -0.29
    2    9   19     -2.30     -2.71
    3    9   19     -0.88      2.22
    4    9   19      0.37     -1.86
    5    9   19      0.65     -0.11
    6    9   19      0.54     -0.52
    7    9   19     -3.10      0.46
    8    9   19     -0.58      0.80
  -10   10   19      0.35      0.27
   -9   10   19      0.08      0.08
   -8   10   19     -0.39     -0.61
   -7   10   19     -0.82     -0.87
   -6   10   19      1.83      2.10
   -5   10   19     -1.08     -0.19
   -4   10   19     -0.58     -0.98
   -3   10   19     -0.79      0.91
   -2   10   19      2.70     -1.12
   -1   10   19     -4.08      1.73
    0   10   19      1.07     -1.86
    1   10   19      1.91     -4.41
    2   10   19      0.27     -2.62
    3   10   19      0.30      2.20
    4   10   19     -0.07      0.62
    5   10   19     -0.77     -0.30
    6   10   19      0.50      1.54
    7   10   19      0.45     -0.45
    8   10   19     -1.12      0.15
   -9   11   19      0.43      0.09
   -8   11   19      0.84      0.42
   -7   11   19     -1.21      0.36
   -6   11   19      1.11      0.65
   -5   11   19      0.26      1.11
   -4   11   19     -1.12     -2.75
   -3   11   19     -1.54      0.51
   -2   11   19      0.61      1.03
   -1   11   19      3.20     -2.48
    0   11   19     -1.64     -2.08
    1   11   19      0.43      2.32
    2   11   19     -1.23     -0.68
    3   11   19      1.74     -1.41
    4   11   19     -1.44      0.08
    5   11   19     -0.21      0.84
    6   11   19      0.01     -0.48
    7   11   19      1.30     -0.74
    8   11   19     -0.31     -1.16
   -8   12   19      0.18      0.06
   -7   12   19     -0.15      0.84
   -6   12   19     -0.54     -1.17
   -5   12   19      1.30      0.26
   -4   12   19     -0.01     -1.40
   -3   12   19      0.30      1.72
   -2   12   19      0.98     -1.04
   -1   12   19      2.97     -0.94
    0   12   19      0.96     -0.95
    1   12   19     -0.84      4.29
    2   12   19      0.67      0.56
    3   12   19      0.56     -1.84
    4   12   19     -1.07      0.47
    5   12   19     -0.29      0.80
    6   12   19      0.18     -0.17
    7   12   19      0.03     -0.63
    8   12   19      0.37     -0.75
   -8   13   19     -0.12      0.24
   -7   13   19      0.91      0.09
   -6   13   19     -0.61     -1.57
   -5   13   19     -0.07      0.37
   -4   13   19      0.66     -0.12
   -3   13   19      1.93     -0.36
   -2   13   19      0.90      1.19
   -1   13   19     -1.95      0.43
    0   13   19     -2.04     -0.35
    1   13   19      1.72     -0.67
    2   13   19      0.80      1.06
    3   13   19      0.68     -1.71
    4   13   19     -0.16      1.10
    5   13   19      0.49     -1.23
    6   13   19     -0.16     -0.47
    7   13   19     -0.31      0.74
   -7   14   19      0.53     -0.79
   -6   14   19     -0.47     -1.21
   -5   14   19      0.35      0.89
   -4   14   19     -1.42      2.21
   -3   14   19      1.39     -0.05
   -2   14   19     -1.63      0.17
   -1   14   19      0.33      2.66
    0   14   19     -0.98      0.38
    1   14   19      0.83     -0.95
    2   14   19     -1.60      1.41
    3   14   19     -0.03     -0.01
    4   14   19      1.52     -0.95
    5   14   19     -0.91     -1.21
    6   14   19     -0.29     -0.27
    7   14   19     -0.64      0.67
   -7   15   19     -0.03      0.87
   -6   15   19      0.07      0.26
   -5   15   19      0.29     -0.19
   -4   15   19     -0.17      1.59
   -3   15   19     -0.72      0.43
   -2   15   19     -0.07     -1.42
   -1   15   19      0.85     -0.51
    0   15   19      0.23      1.16
    1   15   19      0.08     -1.74
    2   15   19      0.21      0.57
    3   15   19     -0.52      1.18
    4   15   19      1.73     -0.46
    5   15   19     -0.94     -0.40
    6   15   19     -0.48     -0.26
   -6   16   19      0.16      1.41
   -5   16   19      0.21     -1.25
   -4   16   19     -0.62     -0.16
   -3   16   19     -0.12     -1.31
   -2   16   19     -0.95      0.74
   -1   16   19      0.10     -2.07
    0   16   19     -0.98      0.26
    1   16   19     -0.60     -0.57
    2   16   19      0.66     -0.38
    3   16   19     -0.19      0.03
    5   16   19      0.86      0.24
   -6   17   19     -0.98      0.09
   -5   17   19      0.45      0.32
   -4   17   19      0.18     -0.89
   -3   17   19     -0.74     -0.35
   -2   17   19      0.20      0.78
   -1   17   19      0.57     -0.62
    0   17   19      0.78     -0.09
    1   17   19     -0.32      0.66
    2   17   19      0.39      0.30
    3   17   19     -0.32     -0.33
   -5   18   19     -0.31     -0.82
   -4   18   19      1.42     -0.14
   -3   18   19     -0.22     -0.13
   -2   18   19      0.50      0.45
   -1   18   19      0.63      0.19
    0   18   19      1.03     -0.07
    1   18   19     -0.01      0.13
    2   18   19      0.74      0.13
    3   18   19      0.21     -0.67
    4   18   19     -0.51      0.45
   -3   19   19      0.97      0.10
   -2   19   19     -0.07      0.28
   -1   19   19     -0.77      0.96
    0   19   19      0.89      0.85
  -10    0   20      0.97      0.00
   -9    0   20     -0.25      0.00
   -8    0   20     -1.00     -0.01
   -7    0   20      0.30      0.01
   -5    0   20      3.31      0.00
   -4    0   20      2.53      0.00
   -3    0   20     -3.19     -0.01
   -2    0   20     -4.53      0.00
   -1    0   20      6.75      0.02
    0    0   20     10.42      0.00
    1    0   20    -10.37     -0.02
    2    0   20     -3.86     -0.01
    3    0   20     -1.53      0.01
    4    0   20      0.97      0.01
    5    0   20      0.37     -0.01
    6    0   20     -0.82      0.02
    7    0   20     -0.09      0.00
    8    0   20     -0.66      0.00
  -11    1   20      0.36     -0.42
  -10    1   20      0.09     -1.12
   -9    1   20      1.13      0.12
   -8    1   20     -2.52      0.17
   -7    1   20     -1.63      0.15
   -6    1   20      0.32      2.03
   -5    1   20      0.47     -1.17
   -4    1   20      1.66      0.78
   -3    1   20     -2.19     -2.96
   -2    1   20      4.05      4.80
   -1    1   20     -5.80     -0.63
    0    1   20     -0.24      1.19
    1    1   20     -4.86     -2.03
    2    1   20      2.48      0.74
    3    1   20      3.79      0.27
    4    1   20     -2.08      0.93
    5    1   20     -1.92     -0.32
    6    1   20      1.45      0.61
    7    1   20      1.75      0.20
    8    1   20     -1.69     -0.29
    9    1   20     -0.60     -0.39
  -11    2   20     -0.06     -0.45
  -10    2   20     -1.08     -0.19
   -9    2   20     -0.80     -0.53
   -8    2   20      0.05      0.42
   -7    2   20      0.49     -0.96
   -6    2   20      1.79      1.99
   -5    2   20     -1.34      0.43
   -4    2   20     -0.40     -0.89
   -3    2   20      1.23     -0.08
   -2    2   20      2.53      0.80
   -1    2   20     -4.71      0.86
    0    2   20     -5.56     -4.25
    1    2   20      4.95      4.64
    2    2   20      3.69      0.07
    3    2   20      0.66     -3.93
    4    2   20     -1.09     -0.82
    5    2   20     -1.05      1.11
    6    2   20      0.50     -0.10
    7    2   20      0.42     -0.91
    8    2   20      0.01     -0.20
  -11    3   20      0.21     -0.39
  -10    3   20     -0.40      1.58
   -9    3   20      0.92     -0.96
   -8    3   20      0.92     -0.36
   -7    3   20      0.04     -0.88
   -6    3   20      2.06     -1.60
   -5    3   20     -3.04     -0.80
   -4    3   20      0.79      1.16
   -3    3   20     -2.39      3.22
   -2    3   20      0.06     -6.23
   -1    3   20     -1.05     -1.06
    0    3   20      5.28      0.88
    1    3   20     -0.08      1.50
    2    3   20     -0.28      0.02
    3    3   20     -3.88     -0.57
    4    3   20      0.42     -0.70
    5    3   20      1.70      0.65
    6    3   20     -1.44     -1.13
    7    3   20     -1.38     -0.86
    8    3   20      0.27      1.38
    9    3   20      0.29     -0.68
  -10    4   20      0.94     -1.19
   -9    4   20      0.75     -0.02
   -8    4   20      1.81      0.52
   -7    4   20     -2.37     -0.02
   -6    4   20      0.04     -1.58
   -5    4   20     -0.86      0.00
   -4    4   20     -1.80      0.52
   -3    4   20      1.64      2.34
   -2    4   20      3.33     -0.29
   -1    4   20      0.03     -0.39
    0    4   20     -0.92      1.59
    1    4   20      1.82     -3.38
    2    4   20     -3.47     -2.26
    3    4   20     -0.53      5.06
    4    4   20      0.12      0.87
    5    4   20      1.46     -2.00
    6    4   20      0.29     -0.93
    7    4   20     -1.03      0.88
    8    4   20      0.11      0.53
  -10    5   20      1.65      0.74
   -9    5   20     -2.92     -0.77
   -8    5   20      1.15      1.12
   -7    5   20      0.39      1.25
   -6    5   20     -0.72     -1.81
   -5    5   20      1.68      3.61
   -4    5   20      0.33     -1.77
   -3    5   20      0.25     -0.49
   -2    5   20      2.44      0.11
   -1    5   20      1.59      3.60
    0    5   20     -3.30     -3.87
    1    5   20     -0.68      1.58
    2    5   20     -1.81     -1.47
    3    5   20      1.27      0.46
    4    5   20      3.44     -0.78
    5    5   20     -1.17     -0.91
    6    5   20     -0.60      1.07
    7    5   20      1.64     -0.51
    8    5   20      1.27     -0.46
    9    5   20     -0.25      1.12
  -10    6   20     -0.09      0.67
   -9    6   20     -0.67      0.32
   -8    6   20      0.07     -1.93
   -7    6   20      2.23      2.84
   -6    6   20     -1.14      0.51
   -5    6   20      1.18     -1.98
   -4    6   20      2.62      0.57
   -3    6   20     -3.48      0.09
   -2    6   20     -4.52     -0.20
   -1    6   20      2.18      0.39
    0    6   20      0.91      0.73
    1    6   20      0.19      0.20
    2    6   20      0.31      0.87
    3    6   20      1.35     -3.14
    4    6   20      0.61     -1.58
    5    6   20      0.88      0.61
    6    6   20     -1.90      1.28
    7    6   20      0.68      0.14
    8    6   20      0.07     -1.15
    9    6   20     -0.11      0.12
  -10    7   20      0.44     -0.79
   -9    7   20      1.46      1.91
   -8    7   20     -0.44     -1.87
   -7    7   20      0.04     -0.42
   -6    7   20     -0.95      2.09
   -5    7   20     -0.80     -0.99
   -4    7   20     -0.64     -1.79
   -3    7   20      0.88      2.59
   -2    7   20     -3.77      1.08
   -1    7   20      3.92      0.27
    0    7   20     -2.75     -1.14
    1    7   20      2.41     -0.51
    2    7   20      4.30      0.79
    3    7   20      0.79      0.36
    4    7   20     -4.31      0.38
    5    7   20     -0.05      0.60
    6    7   20      1.74      1.14
    7    7   20     -1.83      0.81
    8    7   20     -0.13     -0.18
    9    7   20      0.03     -0.62
  -10    8   20      0.37     -0.14
   -9    8   20      0.46      1.12
   -8    8   20     -1.33      0.40
   -7    8   20     -0.11     -1.23
   -6    8   20      0.35      0.12
   -5    8   20     -1.85      3.08
   -4    8   20     -1.57     -0.96
   -3    8   20      2.94     -1.85
   -2    8   20      1.01      0.30
   -1    8   20      0.24     -0.63
    0    8   20      0.39      0.43
    1    8   20     -2.86     -1.45
    2    8   20      2.25      3.65
    3    8   20      1.41      0.11
    4    8   20     -1.25      1.81
    5    8   20     -0.99     -0.01
    6    8   20      0.60     -0.57
    7    8   20      1.41     -0.88
    8    8   20      0.75      0.69
   -9    9   20      0.29      0.38
   -8    9   20     -1.07      1.05
   -7    9   20      1.26     -0.13
   -6    9   20      0.04     -0.97
   -5    9   20      0.70     -1.47
   -4    9   20     -0.87      2.76
   -3    9   20      1.58     -1.21
   -2    9   20     -1.18      0.02
   -1    9   20     -2.37     -3.32
    0    9   20      1.66      6.28
    1    9   20     -0.32      1.96
    2    9   20     -4.19     -0.98
    3    9   20     -0.90     -0.17
    4    9   20      1.38     -0.18
    5    9   20      0.77     -0.05
    6    9   20      0.17     -1.74
    7    9   20     -0.48     -0.40
    8    9   20     -0.41      0.55
   -9   10   20      0.93     -0.48
   -8   10   20     -1.04      1.09
   -7   10   20     -0.41     -1.57
   -6   10   20      0.30     -0.04
   -5   10   20      0.61     -1.09
   -4   10   20      0.24      0.51
   -3   10   20     -0.57      1.34
   -2   10   20     -0.11      0.19
   -1   10   20     -3.13      0.38
    0   10   20      0.73      0.38
    1   10   20      0.35      2.10
    2   10   20      1.08     -3.43
    3   10   20     -2.49      0.55
    4   10   20      0.59      0.70
    5   10   20     -0.12     -1.19
    6   10   20      0.91      1.69
    7   10   20     -0.81      0.25
    8   10   20     -0.88      0.40
   -9   11   20      0.29     -0.58
   -8   11   20      0.55      0.49
   -7   11   20     -2.16     -0.27
   -6   11   20      0.75      1.33
   -5   11   20     -0.46      1.13
   -4   11   20     -0.10     -1.02
   -3   11   20     -1.29     -3.07
   -2   11   20      1.00      1.52
   -1   11   20     -3.20      1.53
    0   11   20      0.55     -3.66
    1   11   20     -0.68     -3.86
    2   11   20     -0.31      1.00
    3   11   20      1.03      0.19
    4   11   20      0.84      0.47
    5   11   20     -0.78     -0.60
    6   11   20     -1.13      0.58
    7   11   20      0.99      0.61
   -8   12   20      1.38     -0.32
   -7   12   20     -1.19      0.35
   -6   12   20     -0.16      0.91
   -5   12   20      1.04      0.04
   -4   12   20     -0.74     -0.67
   -3   12   20     -2.45     -0.79
   -2   12   20      0.76     -1.34
   -1   12   20      2.33      0.16
    0   12   20      0.24     -1.47
    1   12   20      0.15      0.74
    2   12   20     -2.78      0.83
    3   12   20     -0.40      0.49
    4   12   20      0.54     -1.26
    5   12   20      0.09      1.66
    6   12   20     -0.42     -0.34
    7   12   20     -0.64     -0.48
   -8   13   20     -0.06     -0.19
   -7   13   20      0.32      0.97
   -6   13   20     -0.35     -1.54
   -5   13   20     -0.33     -0.35
   -4   13   20      2.80     -1.07
   -3   13   20     -1.54      1.26
   -2   13   20      1.62     -1.24
   -1   13   20      2.43     -0.74
    0   13   20      0.16     -1.02
    1   13   20     -0.45      1.14
    2   13   20      1.96     -0.70
    3   13   20     -0.14     -0.23
    4   13   20     -2.02      0.61
    5   13   20      0.55      0.71
    6   13   20      1.02     -0.02
    7   13   20     -0.16     -0.84
   -7   14   20      0.40      0.22
   -6   14   20      0.41     -1.22
   -5   14   20     -1.46     -0.96
   -4   14   20      1.00      0.09
   -3   14   20      2.77     -0.02
   -2   14   20     -0.93      0.43
   -1   14   20     -1.19      1.12
    0   14   20     -0.75      0.41
    1   14   20      0.67     -0.72
    2   14   20     -0.16     -1.05
    3   14   20      0.68     -1.00
    4   14   20     -1.04      0.55
    5   14   20      0.21     -0.53
    6   14   20      0.10     -0.71
   -6   15   20     -0.28     -0.31
   -5   15   20      0.48      1.25
   -4   15   20     -1.56      0.32
   -3   15   20      1.16      2.27
   -2   15   20      0.19     -1.39
   -1   15   20     -0.01      1.16
    0   15   20     -0.41      1.50
    1   15   20      1.42      0.87
    2   15   20     -0.53      0.10
    3   15   20     -0.54     -0.38
    5   15   20     -0.50     -0.77
   -6   16   20      0.69     -0.18
   -5   16   20      0.06      0.56
   -4   16   20      0.04      0.86
   -3   16   20     -0.25      0.51
   -2   16   20     -0.27     -0.28
   -1   16   20      0.49     -1.02
    0   16   20     -0.62     -0.43
    1   16   20     -0.46     -0.34
    2   16   20      0.88      0.43
    3   16   20      0.78      0.03
   -5   17   20      0.07     -0.54
   -4   17   20     -1.28      0.05
   -3   17   20      0.80     -0.49
   -2   17   20     -1.22      0.52
   -1   17   20     -0.48     -0.76
    0   17   20      0.01     -0.71
    1   17   20     -0.79     -0.30
    2   17   20     -0.74      0.46
    3   17   20      0.17      0.25
   -4   18   20     -0.14     -0.66
   -3   18   20     -0.68     -0.25
   -2   18   20      0.63      0.51
   -1   18   20      0.71     -0.64
    0   18   20     -0.19     -0.70
    1   18   20      0.50      0.15
    2   18   20      0.17      0.70
    3   18   20     -0.37      0.39
  -10    0   21      0.01      0.00
   -9    0   21      0.12      0.00
   -8    0   21      0.00      0.00
   -7    0   21      0.73      0.00
   -6    0   21      0.67     -0.01
   -5    0   21     -0.76      0.00
   -4    0   21     -2.84      0.00
   -3    0   21      4.98      0.01
   -2    0   21     -5.71      0.01
   -1    0   21      3.91     -0.01
    0    0   21      2.45      0.01
    1    0   21      3.14     -0.01
    2    0   21     -3.14      0.00
    3    0   21     -2.98      0.00
    4    0   21      1.24     -0.03
    5    0   21      1.69      0.01
    6    0   21     -0.05      0.01
    7    0   21     -0.68      0.00
    8    0   21      1.04      0.01
  -10    1   21     -0.14     -0.02
   -9    1   21      0.83      0.25
   -8    1   21     -0.33      0.79
   -7    1   21     -1.92     -0.30
   -6    1   21     -1.82     -1.05
   -5    1   21      3.79      1.42
   -4    1   21      0.53     -0.77
   -3    1   21     -1.18     -1.95
   -2    1   21     -1.27      1.38
   -1    1   21      2.99      0.36
    0    1   21      6.06     -0.53
    1    1   21     -7.47      0.25
    2    1   21     -3.99      0.54
    3    1   21      1.75     -0.31
    4    1   21      1.14      1.55
    5    1   21     -0.86      0.05
    6    1   21     -0.96     -0.84
    7    1   21      1.01      0.88
    8    1   21      0.11      0.07
    9    1   21      0.10      0.09
  -10    2   21     -0.74     -1.41
   -9    2   21     -0.07     -0.71
   -8    2   21     -0.44      0.59
   -7    2   21     -1.06      0.88
   -6    2   21     -1.60     -0.17
   -5    2   21      2.92      0.41
   -4    2   21      0.18      2.22
   -3    2   21     -0.15     -5.65
   -2    2   21      2.12      3.27
   -1    2   21     -3.20      3.76
    0    2   21     -1.90     -1.26
    1    2   21     -0.72     -5.44
    2    2   21      0.27      5.32
    3    2   21      3.97     -0.49
    4    2   21      0.22     -1.76
    5    2   21     -2.26      2.07
    6    2   21      0.07      0.27
    7    2   21      1.16      0.51
    8    2   21     -0.73     -0.50
    9    2   21      0.36      0.53
  -10    3   21     -1.28      1.07
   -9    3   21     -1.54     -0.24
   -8    3   21      0.26     -0.74
   -7    3   21      1.74      0.07
   -6    3   21     -0.11      1.44
   -5    3   21      0.86     -2.13
   -4    3   21      0.59      1.02
   -3    3   21     -1.94      1.67
   -2    3   21      1.76     -2.34
   -1    3   21     -3.06     -1.26
    0    3   21     -2.60      1.31
    1    3   21      5.13      0.90
    2    3   21      2.01     -0.26
    3    3   21     -2.61      0.25
    4    3   21     -0.45     -2.87
    5    3   21      0.52      1.39
    6    3   21     -0.31      1.66
    7    3   21      0.30     -2.02
    8    3   21     -0.79      0.02
  -10    4   21     -0.47      0.73
   -9    4   21      1.05     -0.52
   -8    4   21      0.49     -0.44
   -7    4   21      0.89     -0.77
   -6    4   21      0.42      1.07
   -5    4   21     -3.01     -3.20
   -4    4   21      1.70      0.38
   -3    4   21     -3.45      2.54
   -2    4   21      0.66      0.02
   -1    4   21      2.45     -4.27
    0    4   21      0.07      2.65
    1    4   21     -0.11      2.01
    2    4   21      2.68     -2.17
    3    4   21     -4.20     -0.18
    4    4   21     -2.64      2.35
    5    4   21      2.44     -0.96
    6    4   21     -0.18     -0.86
    7    4   21     -0.47     -0.42
    8    4   21     -1.39      0.22
  -10    5   21      1.56     -0.36
   -9    5   21     -0.18     -0.76
   -8    5   21     -0.39      0.37
   -7    5   21     -1.20     -0.38
   -6    5   21      0.99      0.19
   -5    5   21     -2.03      0.59
   -4    5   21     -0.97      0.53
   -3    5   21      3.71      0.01
   -2    5   21      0.66      0.11
   -1    5   21      1.32      1.02
    0    5   21     -0.72      0.34
    1    5   21     -1.79     -1.85
    2    5   21     -0.69     -1.42
    3    5   21     -0.79      2.69
    4    5   21     -0.87      0.93
    5    5   21      0.77     -1.01
    6    5   21      0.68     -1.37
    7    5   21     -0.80      0.89
    8    5   21      0.86      0.10
  -10    6   21      0.81      1.05
   -9    6   21     -1.74     -0.14
   -8    6   21     -0.79      0.24
   -7    6   21      0.60     -0.47
   -6    6   21      1.17     -0.27
   -5    6   21      0.52      2.07
   -4    6   21      1.30     -1.00
   -3    6   21     -0.45      0.12
   -2    6   21      1.58     -1.48
   -1    6   21     -2.63     -0.01
    0    6   21      1.33     -0.76
    1    6   21     -2.52      2.34
    2    6   21     -1.12     -2.37
    3    6   21      1.04     -0.03
    4    6   21      2.37     -0.90
    5    6   21      0.29     -1.79
    6    6   21     -1.38      1.29
    7    6   21      0.93     -0.40
    8    6   21      1.29      0.22
  -10    7   21     -0.41     -1.09
   -9    7   21      0.44      0.05
   -8    7   21      0.70      0.15
   -7    7   21     -0.14      0.22
   -6    7   21      0.29     -0.55
   -5    7   21     -0.28     -0.51
   -4    7   21      1.84     -0.58
   -3    7   21     -1.96     -0.09
   -2    7   21     -3.72      2.20
   -1    7   21      1.43      0.68
    0    7   21      1.77     -2.64
    1    7   21     -0.86      0.87
    2    7   21     -1.27     -0.10
    3    7   21      3.38     -2.50
    4    7   21     -0.07     -0.44
    5    7   21     -0.33     -0.45
    6    7   21     -0.36     -0.20
    7    7   21     -0.79      2.25
    8    7   21     -0.43     -0.31
   -9    8   21      0.77      0.23
   -8    8   21      1.29     -0.58
   -7    8   21     -1.47      0.24
   -6    8   21      0.08     -0.41
   -5    8   21      0.06      1.30
   -4    8   21     -2.91     -0.50
   -3    8   21      2.56      0.91
   -2    8   21      0.25     -1.22
   -1    8   21      1.15      3.52
    0    8   21      0.86     -3.07
    1    8   21      1.82     -2.34
    2    8   21      0.27      1.38
    3    8   21      1.70      0.94
    4    8   21     -0.19      0.63
    5    8   21     -2.10      1.33
    6    8   21      1.32     -0.18
    7    8   21     -0.81     -0.34
    8    8   21      0.01      0.85
   -9    9   21     -0.41      0.52
   -8    9   21      0.33     -0.52
   -7    9   21      0.69      0.87
   -6    9   21     -0.12     -0.58
   -5    9   21      0.23      0.45
   -4    9   21     -1.16      0.33
   -3    9   21     -0.07     -0.12
   -2    9   21      3.55     -0.31
   -1    9   21     -0.09     -2.06
    0    9   21     -2.02      1.04
    1    9   21      1.86      0.01
    2    9   21      0.40      2.80
    3    9   21     -0.43     -0.98
    4    9   21      0.15     -0.05
    5    9   21      0.04      1.44
    6    9   21     -1.00     -0.26
    7    9   21      1.94     -2.52
    8    9   21     -0.05     -0.01
   -9   10   21      0.33     -0.16
   -8   10   21     -0.32      0.30
   -7   10   21      1.12      1.12
   -6   10   21     -0.29     -1.04
   -5   10   21      0.95     -2.30
   -4   10   21      0.03      1.91
   -3   10   21      0.39      1.52
   -2   10   21     -2.59      0.53
   -1   10   21      1.68     -1.07
    0   10   21     -1.77      3.97
    1   10   21      0.80      2.70
    2   10   21     -0.20      0.17
    3   10   21     -1.38     -0.78
    4   10   21     -0.44     -1.11
    5   10   21      1.21      0.09
    6   10   21      0.12      0.02
    7   10   21      0.03      0.17
   -8   11   21     -0.46     -0.34
   -7   11   21      0.70     -0.25
   -6   11   21     -1.44      0.71
   -5   11   21      0.87      0.19
   -4   11   21      0.20     -0.11
   -3   11   21      0.08      0.78
   -2   11   21     -0.15      0.43
   -1   11   21     -2.79      0.15
    0   11   21     -0.21      2.05
    1   11   21      0.04     -0.62
    2   11   21      2.63     -2.09
    3   11   21     -1.07      0.52
    4   11   21      0.12      1.14
    5   11   21      0.42     -1.54
    6   11   21      0.18      0.62
    7   11   21      0.00      0.98
   -7   12   21      0.37     -1.14
   -6   12   21     -0.55      2.36
   -5   12   21     -0.96      1.45
   -4   12   21      0.29     -0.42
   -3   12   21     -1.47     -3.70
   -2   12   21     -0.67      2.15
   -1   12   21     -1.28     -0.23
    0   12   21     -0.28     -1.92
    1   12   21     -1.82     -1.72
    2   12   21     -0.24      1.71
    3   12   21      0.36      0.60
    4   12   21      0.37     -0.53
    5   12   21      0.46     -0.30
    6   12   21     -1.26      0.57
   -7   13   21     -0.79     -0.41
   -6   13   21      0.48      0.91
   -5   13   21      0.05     -0.26
   -4   13   21     -0.30      0.37
   -3   13   21     -1.76     -0.60
   -2   13   21     -0.72     -1.93
   -1   13   21      1.97      0.69
    0   13   21      2.38     -0.68
    1   13   21     -1.59     -0.64
    2   13   21     -2.12      1.27
    3   13   21      0.53      2.11
    4   13   21      0.14     -0.73
    5   13   21     -0.34      0.52
    6   13   21      0.52      0.58
   -6   14   21      0.38     -0.42
   -5   14   21     -0.63     -1.71
   -4   14   21      1.80     -1.02
   -3   14   21     -0.24      0.51
   -2   14   21      1.02     -0.30
   -1   14   21     -0.26     -1.36
    0   14   21      0.61      0.21
    1   14   21     -0.02      0.05
    2   14   21      0.28     -2.55
    3   14   21     -0.20     -0.02
    5   14   21     -0.37      0.37
   -6   15   21      0.31     -0.14
   -5   15   21     -0.89     -0.34
   -4   15   21      0.07     -1.06
   -3   15   21      1.72     -0.49
   -2   15   21     -0.15      1.10
   -1   15   21     -0.93      0.42
    0   15   21      0.08     -0.13
    1   15   21      0.29      1.52
    2   15   21     -0.31     -0.80
    3   15   21     -0.63     -1.57
   -5   16   21      0.50      1.32
   -4   16   21     -0.24      0.60
   -3   16   21      0.09      0.89
   -2   16   21      0.91     -1.05
   -1   16   21     -0.22      1.05
    0   16   21     -0.11      0.23
    1   16   21      1.21      0.28
    2   16   21      0.23      0.29
    3   16   21     -0.06     -0.30
   -4   17   21      0.24      0.79
   -3   17   21      0.15      0.53
   -2   17   21      0.12     -0.41
   -1   17   21     -0.56      0.22
    0   17   21     -0.79     -0.11
    1   17   21     -0.16     -0.78
    2   17   21      0.22     -0.23
    3   17   21      0.73     -0.34
  -10    0   22     -0.51      0.00
   -9    0   22      0.02      0.00
   -8    0   22      1.66      0.00
   -7    0   22      0.03     -0.01
   -6    0   22      0.43      0.00
   -5    0   22     -0.43     -0.01
   -4    0   22     -2.20      0.00
   -3    0   22     -0.11      0.01
   -2    0   22      2.47      0.01
   -1    0   22     -3.48      0.00
    0    0   22     -5.63      0.00
    1    0   22      7.26     -0.01
    2    0   22      6.30      0.00
    3    0   22     -4.21      0.00
    4    0   22     -1.71     -0.01
    5    0   22      1.36      0.00
    6    0   22      1.62      0.00
    7    0   22     -1.34      0.00
    8    0   22     -0.06     -0.01
  -10    1   22      0.23      0.85
   -9    1   22     -0.62     -0.33
   -8    1   22      0.53      0.20
   -7    1   22      0.96      0.64
   -6    1   22     -1.51     -0.79
   -5    1   22     -2.22      0.63
   -4    1   22      0.97      0.22
   -3    1   22      1.03      1.19
   -2    1   22     -2.95     -2.45
   -1    1   22      3.38      1.23
    0    1   22      1.54      0.09
    1    1   22     -0.81      1.17
    2    1   22     -2.21     -0.14
    3    1   22     -0.91     -1.40
    4    1   22      0.37      0.72
    5    1   22      0.84     -0.49
    6    1   22      0.14     -0.59
    7    1   22     -0.34     -0.15
    8    1   22      1.45     -0.03
  -10    2   22      0.54      0.64
   -9    2   22      0.69      0.31
   -8    2   22     -0.30     -1.09
   -7    2   22     -0.89      1.12
   -6    2   22     -0.78     -0.86
   -5    2   22      0.31      0.04
   -4    2   22      0.91      0.98
   -3    2   22      0.47     -0.50
   -2    2   22     -1.05     -2.05
   -1    2   22      2.51      0.12
    0    2   22      2.66      3.29
    1    2   22     -4.88     -3.44
    2    2   22     -3.31      0.78
    3    2   22      2.26      2.36
    4    2   22      3.17     -0.91
    5    2   22     -1.29      0.66
    6    2   22     -1.08     -1.25
    7    2   22      0.19      1.25
    8    2   22      0.53     -0.13
  -10    3   22      0.25     -1.50
   -9    3   22     -1.49      1.20
   -8    3   22     -0.63     -0.21
   -7    3   22      0.26     -0.58
   -6    3   22     -1.34      0.38
   -5    3   22      2.11      1.20
   -4    3   22      0.39     -1.68
   -3    3   22      0.83     -1.58
   -2    3   22     -1.06      3.47
   -1    3   22     -1.22     -0.85
    0    3   22     -1.77     -1.73
    1    3   22     -0.45     -1.99
    2    3   22      1.94      0.79
    3    3   22      2.47      3.00
    4    3   22      0.18     -2.47
    5    3   22     -0.68      0.01
    6    3   22      0.46      1.79
    7    3   22      0.11      0.85
    8    3   22     -0.44     -0.93
  -10    4   22     -0.49      0.30
   -9    4   22     -0.28      0.39
   -8    4   22     -0.79      0.68
   -7    4   22      2.28     -0.45
   -6    4   22      0.75      0.03
   -5    4   22     -0.17      0.05
   -4    4   22      0.38     -0.85
   -3    4   22     -1.47     -0.79
   -2    4   22     -0.86      0.57
   -1    4   22     -1.20      0.43
    0    4   22      2.07     -1.14
    1    4   22      1.37      2.55
    2    4   22      0.28     -1.29
    3    4   22      0.77     -0.73
    4    4   22     -1.62      0.96
    5    4   22     -0.64      0.34
    6    4   22      0.69      0.33
    7    4   22      1.19     -0.35
    8    4   22     -1.33     -0.64
   -9    5   22      2.75     -0.24
   -8    5   22     -0.10     -0.35
   -7    5   22     -0.66      0.15
   -6    5   22      0.31      0.98
   -5    5   22     -0.34     -2.80
   -4    5   22     -1.88      1.35
   -3    5   22     -0.66      0.70
   -2    5   22      1.35      0.09
   -1    5   22      1.47     -2.00
    0    5   22     -0.24      2.72
    1    5   22      2.43      2.25
    2    5   22     -0.04     -1.92
    3    5   22     -3.38     -1.66
    4    5   22     -1.60      3.06
    5    5   22      0.57      2.29
    6    5   22     -0.15     -2.71
    7    5   22      0.70     -0.04
    8    5   22     -1.23      0.35
   -9    6   22      0.42     -0.34
   -8    6   22     -1.15      0.63
   -7    6   22     -1.44     -1.04
   -6    6   22      0.45      1.19
   -5    6   22      0.21      1.20
   -4    6   22     -0.19     -0.10
   -3    6   22      2.54      0.00
   -2    6   22      0.68     -0.13
   -1    6   22      0.15      0.55
    0    6   22     -1.91     -1.96
    1    6   22     -0.66      1.67
    2    6   22      1.06      1.57
    3    6   22     -1.96     -0.38
    4    6   22     -1.16     -0.07
    5    6   22      1.44      0.20
    6    6   22     -0.04      0.15
    7    6   22     -0.45     -1.06
    8    6   22      1.43      0.41
   -9    7   22     -0.99     -0.98
   -8    7   22      0.32      1.09
   -7    7   22     -0.75     -0.17
   -6    7   22      0.88     -1.29
   -5    7   22     -0.18      1.17
   -4    7   22      1.77      0.26
   -3    7   22      0.09     -1.59
   -2    7   22     -0.28     -1.14
   -1    7   22     -3.94      1.09
    0    7   22      1.22      0.34
    1    7   22     -1.61     -1.83
    2    7   22     -2.26      1.09
    3    7   22      1.58     -0.57
    4    7   22      1.15     -1.67
    5    7   22      0.53     -1.69
    6    7   22     -1.25      0.36
    7    7   22      0.02      0.21
    8    7   22      0.75      0.57
   -9    8   22     -0.98     -1.00
   -8    8   22      1.61      0.31
   -7    8   22     -0.24      0.82
   -6    8   22     -1.68     -0.92
   -5    8   22      0.77     -1.30
   -4    8   22     -0.29      1.48
   -3    8   22     -1.81      0.22
   -2    8   22     -0.42      0.21
   -1    8   22      1.06      0.34
    0    8   22      0.13      0.26
    1    8   22      0.30     -1.00
    2    8   22     -1.73     -2.07
    3    8   22      0.29      0.43
    4    8   22      1.47     -0.61
    5    8   22     -0.45      0.35
    6    8   22      0.33     -0.15
    7    8   22     -1.05      1.18
   -8    9   22     -0.20     -1.03
   -7    9   22      0.65     -0.19
   -6    9   22     -0.05      0.63
   -5    9   22     -0.79      0.47
   -4    9   22      0.09     -1.23
   -3    9   22     -0.43      1.14
   -2    9   22      1.96     -1.17
   -1    9   22      2.24      1.73
    0    9   22      1.03     -4.28
    1    9   22     -0.03     -1.99
    2    9   22      1.33      1.43
    3    9   22      0.23      1.43
    4    9   22      0.03     -0.32
    5    9   22     -0.65     -0.08
    6    9   22      0.18      1.32
    7    9   22     -0.07     -0.94
   -8   10   22      0.40     -0.66
   -7   10   22     -0.51      0.41
   -6   10   22      1.51     -0.18
   -5   10   22     -0.87     -0.85
   -4   10   22     -0.34     -1.21
   -3   10   22      1.16      1.14
   -2   10   22      0.56     -0.27
   -1   10   22      0.65     -0.68
    0   10   22     -1.32      1.06
    1   10   22      1.10     -0.92
    2   10   22     -0.19      1.21
    3   10   22      0.29      0.36
    4   10   22     -0.84     -0.25
    5   10   22     -0.22     -0.33
    6   10   22     -0.42     -0.21
    7   10   22      0.61     -0.38
   -8   11   22      0.43     -0.56
   -7   11   22      0.70      0.79
   -6   11   22     -0.39     -1.14
   -5   11   22      1.60     -0.81
   -4   11   22     -0.55      0.51
   -3   11   22      0.48      2.87
   -2   11   22     -1.07     -0.02
   -1   11   22      2.11     -1.07
    0   11   22     -1.75      4.27
    1   11   22      0.20      3.29
    2   11   22      1.49     -2.20
    3   11   22     -0.15     -1.82
    4   11   22     -0.47      0.54
    5   11   22      0.23      0.64
    6   11   22      0.57     -1.13
   -7   12   22      1.30     -0.47
   -6   12   22     -0.36     -0.17
   -5   12   22     -0.34      1.67
   -4   12   22      0.84      0.43
   -3   12   22      0.79     -0.90
   -2   12   22     -1.32      1.84
   -1   12   22     -1.54     -0.67
    0   12   22      0.25      0.03
    1   12   22     -0.27      0.22
    2   12   22      1.55     -0.72
    3   12   22      0.40     -0.62
    4   12   22     -0.02     -0.14
    5   12   22      0.63     -0.38
    6   12   22     -0.42     -0.14
   -6   13   22     -0.02      0.83
   -5   13   22     -0.40      1.37
   -4   13   22     -1.34      0.83
   -3   13   22      0.58     -2.14
   -2   13   22     -1.37      0.90
   -1   13   22     -1.53      0.12
    0   13   22      0.33     -1.15
    1   13   22      0.04     -0.62
    2   13   22     -1.14      1.70
    3   13   22      0.38      1.29
   -6   14   22     -0.34      0.49
   -5   14   22      0.66     -0.64
   -4   14   22     -0.64      0.40
   -3   14   22     -1.65      0.12
   -2   14   22      0.53     -0.80
   -1   14   22      1.14     -0.31
    0   14   22      0.47     -0.18
    1   14   22     -0.59     -0.22
    2   14   22     -0.56      0.81
    3   14   22      0.58      0.96
   -5   15   22     -0.20     -1.34
   -4   15   22      0.25     -1.02
   -3   15   22     -0.09     -0.83
   -2   15   22      0.45      0.69
   -1   15   22     -0.51     -0.16
    0   15   22      0.48     -0.44
    1   15   22     -0.51     -0.24
    2   15   22     -0.42     -0.31
    3   15   22     -0.18     -0.03
   -4   16   22     -0.19     -0.61
   -3   16   22     -0.18     -0.43
   -2   16   22      0.54     -0.10
   -1   16   22     -0.29      0.22
    0   16   22      0.16      0.35
    1   16   22      0.43      0.56
    2   16   22     -0.32      0.01
   -2   17   22      0.18     -0.65
   -9    0   23     -0.16      0.00
   -8    0   23     -0.36     -0.01
   -7    0   23      0.82      0.00
   -6    0   23      0.08      0.00
   -5    0   23      2.83      0.00
   -4    0   23      1.28      0.00
   -3    0   23     -1.39     -0.02
   -2    0   23     -0.49      0.01
   -1    0   23     -0.49      0.01
    0    0   23      0.25     -0.01
    1    0   23     -1.24      0.01
    2    0   23      5.49     -0.01
    3    0   23      1.71      0.00
    4    0   23     -4.83      0.00
    5    0   23      0.80      0.00
    6    0   23      0.72     -0.01
    7    0   23     -0.44     -0.01
    8    0   23     -1.65      0.00
   -9    1   23      0.07      0.10
   -8    1   23      0.23     -0.26
   -7    1   23      0.83      0.10
   -6    1   23     -0.02      0.93
   -5    1   23     -1.92     -0.57
   -4    1   23     -1.66     -0.93
   -3    1   23      2.24      1.68
   -2    1   23      1.46     -0.85
   -1    1   23     -5.08      0.09
    0    1   23     -1.24      0.98
    1    1   23      4.54      0.12
    2    1   23      1.84     -0.53
    3    1   23     -0.40     -1.62
    4    1   23     -2.35      0.77
    5    1   23     -0.80     -0.61
    6    1   23      2.26      0.87
    7    1   23     -0.81     -0.70
    8    1   23     -0.30      0.02
   -9    2   23      0.23      0.50
   -8    2   23      0.38     -0.04
   -7    2   23      0.30     -0.72
   -6    2   23      0.10      0.75
   -5    2   23     -2.57      0.76
   -4    2   23      0.33      0.25
   -3    2   23     -0.52      2.84
   -2    2   23      1.00     -1.53
   -1    2   23      2.53     -3.17
    0    2   23     -0.06      3.69
    1    2   23      0.08      3.36
    2    2   23     -3.61     -1.21
    3    2   23     -1.71     -2.28
    4    2   23      2.58      1.12
    5    2   23     -0.18     -0.84
    6    2   23     -1.10     -0.54
    7    2   23      0.24     -0.74
    8    2   23      0.97      0.22
   -9    3   23      0.52      0.02
   -8    3   23     -0.94      0.15
   -7    3   23     -1.00     -0.59
   -6    3   23      0.72     -1.10
   -5    3   23     -1.45      0.43
   -4    3   23      1.06      1.28
   -3    3   23      2.52     -1.98
   -2    3   23     -2.59      2.28
   -1    3   23      1.51     -1.39
    0    3   23      0.91     -1.46
    1    3   23     -3.43     -1.82
    2    3   23     -0.95      1.07
    3    3   23      1.05      2.20
    4    3   23      3.13     -0.57
    5    3   23     -0.05     -1.69
    6    3   23     -0.88     -0.57
    7    3   23     -0.86      1.50
    8    3   23      0.74      0.07
   -9    4   23     -1.19     -0.20
   -8    4   23     -0.29      0.88
   -7    4   23     -1.10      0.14
   -6    4   23      1.23     -1.33
   -5    4   23      1.28      1.68
   -4    4   23     -2.25     -0.76
   -3    4   23      2.28     -2.66
   -2    4   23     -0.31      2.04
   -1    4   23     -4.07      2.48
    0    4   23     -0.13     -3.24
    1    4   23     -0.01     -2.69
    2    4   23      0.87      0.73
    3    4   23      1.97      1.44
    4    4   23      1.92     -0.61
    5    4   23     -1.50     -0.84
    6    4   23      1.46      0.26
    7    4   23     -0.30      1.24
    8    4   23      0.39     -0.62
   -9    5   23      0.20     -0.42
   -8    5   23      1.39     -0.04
   -7    5   23      1.10      1.16
   -6    5   23     -0.68     -1.30
   -5    5   23      2.35     -0.55
   -4    5   23      0.05      0.40
   -3    5   23     -5.86     -1.29
   -2    5   23      2.02     -0.33
   -1    5   23      1.24      0.76
    0    5   23      1.87     -0.03
    1    5   23      0.59      2.14
    2    5   23      0.96     -0.95
    3    5   23     -0.37     -2.08
    4    5   23     -0.01      0.17
    5    5   23     -0.82      3.05
    6    5   23     -0.51     -0.65
    7    5   23      1.52     -0.52
   -9    6   23      1.65      0.24
   -8    6   23      0.20     -1.30
   -7    6   23     -0.11      0.68
   -6    6   23     -1.38      1.53
   -5    6   23     -0.28     -2.63
   -4    6   23      1.10      1.14
   -3    6   23     -0.65      1.36
   -2    6   23     -0.72     -1.21
   -1    6   23      1.76      0.55
    0    6   23      0.88     -0.24
    1    6   23      1.87      1.56
    2    6   23      0.90      0.84
    3    6   23     -2.60     -0.15
    4    6   23     -2.14      0.11
    5    6   23      1.46      2.85
    6    6   23      0.41     -0.57
    7    6   23     -0.67     -0.15
   -9    7   23      0.02      0.68
   -8    7   23     -0.32     -0.30
   -7    7   23     -0.28     -0.82
   -6    7   23      0.34      1.78
   -5    7   23     -0.01      1.49
   -4    7   23     -0.11     -2.01
   -3    7   23      3.55      1.55
   -2    7   23      1.89     -1.75
   -1    7   23     -2.90      0.48
    0    7   23     -3.27      0.74
    1    7   23      1.01     -0.37
    2    7   23      2.26      1.62
    3    7   23     -0.83      0.94
    4    7   23     -1.70     -0.73
    5    7   23      0.69     -0.53
    6    7   23      1.05      0.14
    7    7   23     -0.53     -1.04
   -8    8   23      0.04      0.44
   -7    8   23      0.74      0.29
   -6    8   23     -0.43     -0.71
   -5    8   23     -0.47      0.28
   -4    8   23      1.37      0.76
   -3    8   23     -1.62     -1.45
   -2    8   23     -0.92      0.00
   -1    8   23     -0.06     -0.79
    0    8   23     -1.09      2.62
    1    8   23     -2.91     -0.46
    2    8   23     -1.10     -1.09
    3    8   23      1.72      0.16
    4    8   23      0.25     -0.92
    5    8   23     -0.22     -0.70
    6    8   23     -1.14      0.22
    7    8   23      0.99      0.16
   -8    9   23     -1.15      0.85
   -7    9   23      0.27     -0.54
   -6    9   23      0.00      0.63
   -5    9   23     -0.53     -0.45
   -4    9   23     -0.06      1.42
   -3    9   23     -0.80      0.86
   -2    9   23     -2.13     -0.79
   -1    9   23      1.27      0.01
    0    9   23      3.52      0.10
    1    9   23     -0.37     -0.43
    2    9   23     -2.92     -2.22
    3    9   23      0.15      1.72
    4    9   23      1.06      0.64
    5    9   23      0.76     -0.75
    6    9   23      0.08      0.72
   -7   10   23     -0.87     -0.80
   -6   10   23      0.69      0.19
   -5   10   23     -0.46      1.18
   -4   10   23     -0.33     -2.88
   -3   10   23      0.25     -0.39
   -2   10   23      2.45      1.38
   -1   10   23     -0.53     -0.52
    0   10   23      0.30     -4.07
    1   10   23      1.26     -0.84
    2   10   23      0.41      0.50
    3   10   23     -0.51      0.89
    4   10   23     -0.27      1.25
    5   10   23     -0.96     -1.07
    6   10   23      0.30      0.05
   -7   11   23     -1.15      0.67
   -6   11   23      0.24     -0.46
   -5   11   23     -0.33     -0.94
   -4   11   23      0.05     -0.90
   -3   11   23      0.28     -0.43
   -2   11   23      0.09      0.35
   -1   11   23      1.47      1.32
    0   11   23     -0.62     -0.30
    1   11   23     -1.34      0.52
    2   11   23     -0.61      1.48
    3   11   23      0.55     -1.48
    5   11   23     -1.12      0.86
   -6   12   23      0.44     -0.97
   -5   12   23      0.88     -0.38
   -4   12   23      0.21      1.15
   -3   12   23      0.35      2.18
   -2   12   23      0.13     -1.79
   -1   12   23      0.08      0.33
    0   12   23      0.26      2.90
    1   12   23      1.26      1.11
    2   12   23     -0.37     -1.56
    3   12   23     -0.58     -1.38
   -6   13   23     -0.21     -1.23
   -5   13   23     -0.05      1.02
   -4   13   23      0.23      0.71
   -3   13   23      1.12     -0.16
   -2   13   23     -0.27      1.12
   -1   13   23     -1.32     -0.36
    0   13   23     -1.73     -0.99
    1   13   23      1.34     -0.10
    2   13   23      2.03     -0.51
    3   13   23     -0.93     -0.48
   -5   14   23     -0.53      0.45
   -4   14   23     -0.82      0.74
   -3   14   23      0.54     -0.13
   -2   14   23     -1.09     -0.24
   -1   14   23      0.46      0.45
    0   14   23     -0.03     -0.16
    1   14   23     -0.88     -0.52
    2   14   23      0.42      0.97
    3   14   23      0.83      0.59
   -4   15   23     -0.80      0.13
   -3   15   23     -0.80      0.40
   -2   15   23      0.42     -0.40
   -1   15   23      0.41     -0.47
    0   15   23      0.14      0.30
    1   15   23     -0.23      0.27
    2   15   23     -0.20      0.00
   -3   16   23     -0.71     -0.52
   -2   16   23      0.23      0.94
   -9    0   24      0.51      0.00
   -8    0   24     -1.68      0.00
   -7    0   24      0.04      0.00
   -6    0   24      1.88      0.00
   -5    0   24     -0.25      0.01
   -4    0   24      2.88      0.00
   -3    0   24     -0.50      0.00
   -2    0   24     -4.02      0.00
   -1    0   24      1.64      0.00
    0    0   24      4.57      0.00
    1    0   24     -3.85      0.02
    2    0   24     -1.98      0.00
    3    0   24      2.94     -0.01
    4    0   24     -1.59      0.01
    5    0   24      1.31      0.01
    6    0   24     -0.55     -0.01
    7    0   24      0.81      0.00
   -9    1   24      0.93      0.44
   -8    1   24     -0.27     -0.01
   -7    1   24     -0.83     -0.43
   -6    1   24      1.32      0.20
   -5    1   24      2.35      0.61
   -4    1   24     -1.34     -2.30
   -3    1   24      0.70     -1.25
   -2    1   24      1.67      1.29
   -1    1   24     -2.56      0.36
    0    1   24     -1.29     -1.87
    1    1   24      2.48     -0.39
    2    1   24      2.68     -0.60
    3    1   24      3.09      0.29
    4    1   24     -3.43     -0.06
    5    1   24     -1.69      1.09
    6    1   24      1.28      0.12
    7    1   24      0.33      0.20
   -9    2   24     -0.31      0.12
   -8    2   24      1.03      1.01
   -7    2   24      0.52      0.33
   -6    2   24     -1.04     -1.00
   -5    2   24     -0.07      1.67
   -4    2   24     -1.64     -0.48
   -3    2   24     -0.53     -0.14
   -2    2   24      1.80     -0.40
   -1    2   24     -0.60      0.68
    0    2   24     -1.60     -0.05
    1    2   24      2.82      2.30
    2    2   24     -0.24      1.05
    3    2   24     -1.48     -3.28
    4    2   24     -1.09     -0.15
    5    2   24     -0.09      0.61
    6    2   24     -0.39      1.38
    7    2   24      0.37     -1.25
   -9    3   24      0.63     -0.32
   -8    3   24      0.15      0.17
   -7    3   24      0.03      0.46
   -6    3   24      0.04     -0.20
   -5    3   24     -1.24     -1.52
   -4    3   24      0.18      2.80
   -3    3   24      0.69      3.01
   -2    3   24      0.93     -2.25
   -1    3   24      1.79     -2.14
    0    3   24      0.03      2.93
    1    3   24      1.94      1.65
    2    3   24     -3.58      0.14
    3    3   24     -2.01     -0.63
    4    3   24      0.63      0.76
    5    3   24      1.64     -1.50
    6    3   24     -1.64     -0.20
    7    3   24     -0.63     -0.73
   -9    4   24     -0.37     -0.20
   -8    4   24     -0.59      0.01
   -7    4   24     -1.21     -0.08
   -6    4   24     -0.42      0.52
   -5    4   24      0.03     -1.06
   -4    4   24     -0.93      0.14
   -3    4   24      3.20     -0.46
   -2    4   24     -0.78      2.23
   -1    4   24      0.56     -0.40
    0    4   24     -4.48     -1.68
    1    4   24     -1.20     -3.31
    2    4   24      1.46      0.79
    3    4   24     -0.76      1.18
    4    4   24      2.33      0.94
    5    4   24      0.07     -2.77
    6    4   24      0.22     -0.55
    7    4   24     -1.14      1.06
   -8    5   24     -0.30     -0.10
   -7    5   24      0.77      0.34
   -6    5   24      0.27     -0.41
   -5    5   24      0.69      0.82
   -4    5   24     -0.58      0.40
   -3    5   24     -0.02     -2.55
   -2    5   24     -2.18      0.05
   -1    5   24     -0.17      2.62
    0    5   24      1.68      0.42
    1    5   24     -3.96     -4.10
    2    5   24      1.52      1.22
    3    5   24      1.90     -0.08
    4    5   24      1.04     -0.91
    5    5   24     -0.48     -1.08
    6    5   24      0.21      0.47
    7    5   24     -0.14      0.15
   -8    6   24      0.50     -0.71
   -7    6   24      0.47     -0.22
   -6    6   24      0.11     -0.24
   -5    6   24      0.11     -1.72
   -4    6   24      0.55      0.34
   -3    6   24     -3.28      0.55
   -2    6   24     -0.53     -0.29
   -1    6   24      0.09     -2.93
    0    6   24      4.80      2.18
    1    6   24      0.69      1.07
    2    6   24     -0.57     -1.97
    3    6   24      0.39     -0.43
    4    6   24     -0.70     -0.14
    5    6   24     -1.02      1.39
    6    6   24      1.10      0.33
    7    6   24     -0.32      0.16
   -8    7   24      0.07     -0.25
   -7    7   24     -0.38     -0.81
   -6    7   24     -0.51      0.86
   -5    7   24      0.15      0.29
   -4    7   24     -0.08     -1.04
   -3    7   24      0.53      0.14
   -2    7   24      1.97      2.35
   -1    7   24     -0.32     -0.84
    0    7   24     -0.84     -2.36
    1    7   24      0.94      2.41
    2    7   24      2.46      0.77
    3    7   24     -0.92     -0.35
    4    7   24     -0.81      0.53
    5    7   24     -0.89      1.14
    6    7   24      2.15     -0.50
   -8    8   24     -0.02     -0.57
   -7    8   24      0.69     -0.20
   -6    8   24      0.36      0.11
   -5    8   24     -0.18      0.88
   -4    8   24      0.76     -0.25
   -3    8   24      1.44     -1.13
   -2    8   24      2.27     -1.20
   -1    8   24     -1.85      1.44
    0    8   24     -1.92      0.66
    1    8   24     -1.01     -0.01
    2    8   24      0.86      0.69
    3    8   24      1.20      0.21
    4    8   24      0.53     -1.29
    5    8   24     -0.82      0.43
    6    8   24     -0.71     -0.89
   -7    9   24     -0.19      0.24
   -6    9   24      0.52     -0.34
   -5    9   24     -0.21     -0.36
   -4    9   24      0.15      1.32
   -3    9   24     -1.31      1.27
   -2    9   24     -1.72     -1.07
   -1    9   24     -0.50     -1.60
    0    9   24      0.66      2.52
    1    9   24      0.14      1.71
    2    9   24     -2.21     -1.98
    3    9   24     -0.13     -0.42
    4    9   24      1.23      0.04
    5    9   24      0.82      0.31
   -7   10   24     -0.09      0.38
   -6   10   24      0.02     -0.07
   -5   10   24      1.00      0.82
   -4   10   24     -0.07      0.64
   -3   10   24     -1.34     -0.31
   -2   10   24     -0.43      1.09
   -1   10   24      0.39      0.31
    0   10   24      1.35     -2.22
    1   10   24      1.77     -0.80
    2   10   24     -0.55      0.32
    3   10   24     -0.72      0.85
    5   10   24      1.28     -0.32
   -6   11   24     -1.00      1.12
   -5   11   24     -0.75     -0.34
   -4   11   24      0.50     -1.66
   -3   11   24      0.40     -2.38
   -2   11   24      0.95      0.76
   -1   11   24     -0.19      1.37
    0   11   24     -0.45     -2.32
    1   11   24     -0.22     -1.75
    2   11   24      0.73      1.17
    3   11   24     -0.45      1.57
   -6   12   24      0.24      0.52
   -5   12   24     -0.67     -0.17
   -4   12   24      0.12     -0.66
   -3   12   24     -0.23      0.38
   -2   12   24      0.25     -1.17
   -1   12   24      1.11      0.49
    0   12   24      0.24      1.20
    1   12   24     -1.41      1.35
    2   12   24     -0.94      0.70
    3   12   24      0.24     -0.93
   -5   13   24      0.77     -0.59
   -4   13   24      0.59      1.33
   -3   13   24     -0.24      1.18
   -2   13   24      0.28     -1.11
   -1   13   24      0.18      0.49
    0   13   24     -0.23      0.82
    1   13   24      0.94     -0.57
    2   13   24     -0.24     -0.55
    3   13   24     -0.49     -0.47
   -4   14   24      0.06     -0.15
   -3   14   24      1.27      0.86
   -2   14   24     -0.29      0.25
   -1   14   24     -0.89     -0.26
    0   14   24     -0.42      0.43
    1   14   24      0.17     -0.95
    2   14   24      1.16     -1.06
   -3   15   24      0.13      0.39
   -8    0   25      0.46      0.01
   -7    0   25     -0.59     -0.01
   -6    0   25     -1.29      0.00
   -5    0   25     -0.52     -0.01
   -4    0   25      0.95      0.00
   -3    0   25     -1.34      0.02
   -2    0   25      0.68      0.00
   -1    0   25     -3.08      0.00
    0    0   25      1.10      0.00
    1    0   25     -0.28     -0.01
    2    0   25     -3.03      0.00
    3    0   25     -2.94      0.00
    4    0   25      2.45      0.01
    5    0   25      1.13      0.00
    6    0   25      0.26      0.00
    7    0   25      0.12      0.01
   -8    1   25      0.22      0.02
   -7    1   25     -0.26     -0.28
   -6    1   25      0.76     -0.63
   -5    1   25     -0.03      0.63
   -4    1   25      3.47      0.98
   -3    1   25     -2.60     -1.92
   -2    1   25     -1.33      0.56
   -1    1   25      1.78      1.36
    0    1   25     -0.39     -0.77
    1    1   25     -1.52     -1.24
    2    1   25      0.46      0.11
    3    1   25      2.58      1.09
    4    1   25     -0.27     -0.35
    5    1   25     -0.51      0.91
    6    1   25     -0.35     -0.95
    7    1   25      1.24      0.44
   -8    2   25      0.32     -0.50
   -7    2   25     -0.08      1.08
   -6    2   25      1.00     -0.31
   -5    2   25      0.25     -0.83
   -4    2   25     -0.43     -0.14
   -3    2   25      0.01     -1.84
   -2    2   25     -0.90     -1.58
   -1    2   25      0.31      1.96
    0    2   25     -0.59     -1.85
    1    2   25     -0.33     -1.50
    2    2   25      2.91     -0.44
    3    2   25      1.35      1.30
    4    2   25     -1.29     -2.26
    5    2   25     -0.72      1.76
    6    2   25      0.10      0.96
    7    2   25      0.11      0.33
   -8    3   25      1.12     -0.16
   -7    3   25      0.75      0.30
   -6    3   25     -0.42      0.62
   -5    3   25      0.34      0.02
   -4    3   25     -0.90     -1.62
   -3    3   25     -1.59      3.33
   -2    3   25      1.11     -1.47
   -1    3   25      0.43     -0.75
    0    3   25      0.89      0.28
    1    3   25      1.64      3.77
    2    3   25     -0.69      0.08
    3    3   25     -0.87     -0.85
    4    3   25     -3.03     -0.14
    5    3   25      1.29      0.09
    6    3   25     -0.03      1.30
    7    3   25     -0.25     -0.48
   -8    4   25     -0.41      0.29
   -7    4   25      0.34      0.37
   -6    4   25     -0.45     -0.19
   -5    4   25     -0.81     -0.01
   -4    4   25      0.83     -0.12
   -3    4   25      0.69      2.02
   -2    4   25      0.75     -0.53
   -1    4   25      2.56     -0.15
    0    4   25     -1.52      0.10
    1    4   25      1.33      0.99
    2    4   25     -1.99     -0.97
    3    4   25     -0.17      0.41
    4    4   25     -0.74      1.86
    5    4   25      0.78     -0.34
    6    4   25     -0.67     -1.54
   -8    5   25     -1.29     -0.12
   -7    5   25     -0.41      0.25
   -6    5   25      0.12      1.29
   -5    5   25     -0.45     -0.18
   -4    5   25     -1.34     -0.33
   -3    5   25      4.04      1.11
   -2    5   25     -1.76     -1.39
   -1    5   25     -0.44      1.09
    0    5   25     -2.90      1.54
    1    5   25     -1.35     -2.58
    2    5   25     -0.65     -0.63
    3    5   25      0.10      0.00
    4    5   25      1.15      1.35
    5    5   25      0.69     -1.52
    6    5   25     -0.36     -0.37
   -8    6   25     -0.43      0.49
   -7    6   25      0.28     -0.97
   -6    6   25      0.36     -0.17
   -5    6   25      0.70      1.58
   -4    6   25     -1.02     -1.54
   -3    6   25      0.37     -0.07
   -2    6   25     -2.55      1.11
   -1    6   25     -0.36     -2.33
    0    6   25      1.77      1.67
    1    6   25     -0.12     -0.78
    2    6   25     -1.29      1.03
    3    6   25      1.72     -1.62
    4    6   25     -0.16     -0.27
    5    6   25     -0.81     -1.17
    6    6   25     -0.09      0.96
   -7    7   25     -0.79      0.16
   -6    7   25     -0.58     -1.90
   -5    7   25      0.52     -0.11
   -4    7   25     -1.11      1.22
   -3    7   25     -0.94     -2.29
   -2    7   25     -1.03      2.53
   -1    7   25     -0.01     -1.29
    0    7   25      2.46     -1.56
    1    7   25      0.83     -0.84
    2    7   25     -0.42      0.90
    3    7   25     -0.39     -0.51
    5    7   25     -1.68      0.19
   -7    8   25      0.28     -0.24
   -6    8   25     -0.71      0.44
   -5    8   25      0.46     -0.93
   -4    8   25     -0.28      0.62
   -3    8   25      0.33     -0.68
   -2    8   25      3.67      0.53
   -1    8   25     -0.14      0.26
    0    8   25     -1.83     -0.29
    1    8   25     -0.48     -0.14
    2    8   25      1.75      0.92
    3    8   25     -0.81      0.00
    5    8   25      0.01      0.12
   -6    9   25      0.28     -0.10
   -5    9   25     -0.75     -0.43
   -4    9   25      0.89     -0.67
   -3    9   25      0.37     -0.40
   -2    9   25      0.61      0.31
   -1    9   25      0.11     -0.61
    0    9   25     -1.20     -0.50
    1    9   25     -1.10      1.97
    2    9   25      0.81     -0.04
    3    9   25      0.17     -0.67
   -6   10   25      0.68     -0.56
   -5   10   25      0.67     -0.17
   -4   10   25     -0.31      2.06
   -3   10   25     -0.95      0.82
   -2   10   25     -1.68     -0.98
   -1   10   25     -0.89      0.75
    0   10   25      1.27      1.10
    1   10   25      0.89     -0.82
    2   10   25     -0.41     -0.98
    3   10   25     -0.78     -0.20
   -5   11   25      0.69     -0.12
   -4   11   25      0.63      0.25
   -3   11   25     -0.98     -0.21
   -2   11   25      0.64     -0.11
   -1   11   25      0.27     -0.13
    0   11   25     -0.57      0.54
    1   11   25      1.29     -1.19
    2   11   25      1.28     -1.47
    3   11   25     -0.03      1.38
   -5   12   25     -1.27      0.63
   -4   12   25      0.35     -1.79
   -3   12   25      0.64     -1.63
   -2   12   25     -0.38      0.76
   -1   12   25      0.36     -0.23
    0   12   25      0.49     -1.57
    1   12   25     -1.46      1.29
    2   12   25     -0.04      1.05
    3   12   25      1.18      0.24
   -4   13   25     -0.09      0.55
   -3   13   25     -0.04      0.38
   -2   13   25     -0.09     -1.08
   -1   13   25      0.16      0.28
    0   13   25      0.69      0.51
    1   13   25     -0.14      0.49
    2   13   25     -1.53      1.19
   -7    0   26     -0.39      0.00
   -6    0   26     -2.27      0.01
   -5    0   26      0.66      0.00
   -4    0   26     -1.04      0.00
   -3    0   26      1.59      0.00
   -2    0   26      1.95      0.00
   -1    0   26     -1.41      0.00
    0    0   26     -1.14      0.00
    1    0   26      1.97     -0.01
    2    0   26      0.41     -0.01
    3    0   26     -2.87      0.01
    4    0   26      0.03      0.00
    5    0   26      0.04     -0.01
    6    0   26      1.19      0.01
   -7    1   26      0.61      0.21
   -6    1   26     -1.51     -0.24
   -5    1   26     -1.57     -0.40
   -4    1   26      2.30      1.99
   -3    1   26     -0.14      0.12
   -2    1   26     -0.33     -0.55
   -1    1   26     -1.80      0.30
    0    1   26     -0.49      2.78
    1    1   26     -1.16     -0.77
    2    1   26     -1.70      0.68
    3    1   26     -1.47     -0.29
    4    1   26      1.89      0.86
    5    1   26     -0.10     -0.49
    6    1   26      0.07     -0.32
   -7    2   26      0.23     -0.70
   -6    2   26      0.79      0.70
   -5    2   26     -0.59     -1.05
   -4    2   26      1.81      1.38
   -3    2   26     -1.07     -0.37
   -2    2   26     -0.88      0.08
   -1    2   26      1.08     -1.62
    0    2   26     -0.01      1.59
    1    2   26     -1.87     -0.68
    2    2   26      1.13     -1.92
    3    2   26      1.68      1.92
    4    2   26      1.52     -1.05
    5    2   26     -0.60      0.45
    6    2   26     -0.57     -0.51
   -7    3   26      0.45     -0.94
   -6    3   26      1.24      0.70
   -5    3   26     -0.67      0.02
   -4    3   26      0.03     -1.76
   -3    3   26     -0.19     -1.43
   -2    3   26     -2.10      1.84
   -1    3   26     -0.90      0.27
    0    3   26      2.32     -4.41
    1    3   26     -2.08      0.89
    2    3   26      2.26      0.62
    3    3   26      0.22      0.07
    4    3   26     -0.59     -1.29
    5    3   26     -0.67     -0.02
    6    3   26      0.84      0.83
   -7    4   26     -0.25     -0.07
   -6    4   26      1.19     -0.47
   -5    4   26      0.60      0.48
   -4    4   26     -1.06     -0.50
   -3    4   26     -1.78      0.60
   -2    4   26      2.54     -0.92
   -1    4   26     -1.27      2.19
    0    4   26      2.84     -0.73
    1    4   26      1.13      0.92
    2    4   26     -1.11      0.93
    3    4   26      0.42      0.07
    4    4   26     -1.92      0.02
    5    4   26      0.40      1.72
   -7    5   26     -0.85      0.69
   -6    5   26     -0.48      0.14
   -5    5   26      0.57     -0.22
   -4    5   26      0.95     -0.31
   -3    5   26     -1.67      2.20
   -2    5   26      2.78     -1.94
   -1    5   26      1.46      0.39
    0    5   26     -2.24      0.38
    1    5   26      1.09      2.25
    2    5   26     -1.21     -3.20
    3    5   26     -0.48      0.68
    4    5   26      0.29      0.44
    5    5   26      0.80      1.61
   -7    6   26      0.26      0.22
   -6    6   26      0.13      0.66
   -5    6   26     -1.08      1.47
   -4    6   26      1.14     -1.39
   -3    6   26      2.42      1.26
   -2    6   26     -2.02     -0.86
   -1    6   26     -0.85      1.09
    0    6   26     -1.84     -0.14
    1    6   26      0.67      0.74
    2    6   26     -1.02      0.78
    3    6   26     -0.39     -0.93
    4    6   26      0.15      0.32
    5    6   26      1.16     -0.76
   -6    7   26     -0.07     -0.84
   -5    7   26      0.21      0.81
   -4    7   26     -1.21      0.02
   -3    7   26      0.84     -0.24
   -2    7   26     -1.78     -0.65
   -1    7   26     -0.51      0.17
    0    7   26     -1.15      0.60
    1    7   26      2.89     -2.15
    2    7   26     -0.43      0.96
    3    7   26      0.46      0.67
    4    7   26     -0.66     -0.46
   -6    8   26     -0.89     -0.54
   -5    8   26      0.41     -0.03
   -4    8   26     -0.56      0.42
   -3    8   26     -1.63      0.35
   -2    8   26     -0.55      0.39
   -1    8   26      2.73     -0.83
    0    8   26     -0.31      0.60
    1    8   26     -2.01     -1.76
    2    8   26      0.46     -0.19
    3    8   26      0.21      0.93
    4    8   26     -0.74      0.60
   -6    9   26      0.28      0.32
   -5    9   26     -0.78     -0.16
   -4    9   26      0.05     -0.82
   -3    9   26      1.68     -0.87
   -2    9   26      0.27      1.61
   -1    9   26      1.02     -1.19
    0    9   26      0.66     -0.12
    1    9   26     -1.49      0.41
    2    9   26     -1.02      1.20
    3    9   26      0.65     -0.21
   -5   10   26      0.14     -0.60
   -4   10   26     -1.16     -0.05
   -3   10   26      1.01     -0.15
   -2   10   26     -0.15      0.36
   -1   10   26     -1.46     -0.24
    0   10   26     -0.10     -0.95
    1   10   26      0.17      0.89
    2   10   26      0.62     -0.07
    3   10   26     -0.92     -1.37
   -4   11   26      0.13      1.57
   -3   11   26     -1.34      0.56
   -2   11   26     -0.44     -0.61
   -1   11   26     -0.15      0.54
    0   11   26      0.63      1.30
    1   11   26     -0.43     -0.73
    2   11   26      0.66     -1.54
    3   11   26     -0.16     -0.66
   -3   12   26      0.53     -0.94
   -2   12   26      0.22     -0.23
   -1   12   26     -0.43     -0.13
    0   12   26      0.25     -0.18
    1   12   26      1.18      0.23
   -6    0   27      1.61      0.00
   -5    0   27     -0.55      0.01
   -3    0   27      1.28     -0.01
   -2    0   27     -1.23      0.00
   -1    0   27      1.98      0.00
    0    0   27      1.11      0.01
    1    0   27      2.27      0.00
    2    0   27      1.02      0.00
    3    0   27      2.31      0.01
    4    0   27     -2.42     -0.01
    5    0   27     -0.07      0.00
   -7    1   27     -1.51     -0.01
   -6    1   27     -0.35      0.66
   -5    1   27     -0.03     -0.06
   -3    1   27      4.01      0.62
   -2    1   27      1.61     -0.33
   -1    1   27     -1.80     -0.48
    0    1   27     -1.79      0.77
    1    1   27      1.39      0.12
    2    1   27     -0.07     -0.02
    3    1   27     -1.88     -0.95
    4    1   27      0.17      0.77
    5    1   27     -0.58     -0.21
   -7    2   27      0.44     -0.89
   -6    2   27     -1.65     -0.36
   -5    2   27      0.38      0.54
   -3    2   27      0.14      0.14
   -2    2   27      0.41      0.11
   -1    2   27      0.31     -1.69
    0    2   27     -0.82      3.20
    1    2   27     -0.86      1.46
    2    2   27     -1.64      0.42
    3    2   27     -0.39     -1.01
    4    2   27      1.46      1.30
    5    2   27      0.57     -0.34
   -7    3   27      0.27      0.20
   -6    3   27      0.42     -0.69
   -5    3   27     -0.91     -0.78
   -3    3   27      1.36     -1.52
   -2    3   27     -1.56      1.46
   -1    3   27     -0.94     -0.98
    0    3   27      0.81     -1.53
    1    3   27      0.04     -0.60
    2    3   27      0.45      0.22
    3    3   27      0.25      0.43
    4    3   27      1.71     -0.87
    5    3   27     -0.60     -0.48
   -5    4   27      1.04     -0.61
   -3    4   27     -0.77     -1.64
   -2    4   27      0.84      1.91
   -1    4   27     -2.21      1.14
    0    4   27      0.92     -1.82
    1    4   27     -0.97     -2.64
    2    4   27      2.26      2.31
    3    4   27     -1.09      0.27
    4    4   27     -0.18     -1.07
   -5    5   27      1.03     -0.36
   -4    5   27      1.19      0.49
   -3    5   27     -4.36     -0.75
   -2    5   27      2.02     -0.19
   -1    5   27      2.13      0.67
    0    5   27      1.82      1.30
    1    5   27     -1.06     -0.35
    2    5   27      0.02     -0.57
    3    5   27      0.83      1.10
    4    5   27     -0.77     -0.67
   -5    6   27     -0.79     -0.57
   -4    6   27      1.47      0.03
   -3    6   27     -0.24      1.44
   -2    6   27      1.20     -1.16
   -1    6   27     -1.04     -0.16
    0    6   27      0.76     -0.26
    1    6   27     -0.10      3.05
    2    6   27     -0.42     -2.41
    3    6   27     -0.79     -0.07
   -6    7   27      0.45      0.53
   -5    7   27     -0.65      0.83
   -4    7   27      0.88     -0.86
   -3    7   27      0.80      0.34
   -2    7   27      1.01     -0.46
   -1    7   27     -1.78      1.00
    0    7   27     -2.57     -0.50
    1    7   27      1.64      1.28
    2    7   27      1.17      0.50
    3    7   27     -0.18     -0.25
   -5    8   27     -0.49      0.31
   -4    8   27      0.44      0.47
   -3    8   27     -0.44      0.57
   -2    8   27     -2.32     -2.11
   -1    8   27      1.93      1.56
    0    8   27     -0.71      0.14
    1    8   27     -0.15     -0.84
    2    8   27     -0.10     -1.37
    3    8   27      1.37      1.25
   -4    9   27     -0.26     -0.26
   -3    9   27      0.17      1.24
   -2    9   27     -0.80      0.04
   -1    9   27      0.90     -0.87
    0    9   27      1.36      0.85
    1    9   27     -0.61     -0.05
    2    9   27     -2.40      0.00
    3    9   27      0.00      0.19
   -4   10   27     -0.48     -1.24
   -3   10   27      1.11     -0.73
   -2   10   27      0.24      2.19
   -1   10   27      0.14     -0.82
    0   10   27     -0.77     -1.33
    1   10   27      0.90      0.02
    2   10   27     -0.23      2.19
   -3   11   27      0.01      0.21
   -3    0   28     -2.75      0.00
   -2    0   28     -1.57      0.00
   -1    0   28     -0.38      0.00
    0    0   28      1.94      0.00
    1    0   28      1.37      0.00
    2    0   28     -0.92      0.01
    3    0   28      1.41      0.00
   -3    1   28      0.28     -0.49
   -2    1   28      0.80      0.62
   -1    1   28      1.13      0.79
    0    1   28     -1.76     -1.85
    1    1   28      2.13     -0.01
    2    1   28      1.94     -1.04
    3    1   28      0.86      0.23
   -3    2   28      1.87      0.50
   -2    2   28      0.77     -1.65
   -1    2   28      0.41      0.49
    0    2   28     -0.94      0.41
    1    2   28     -1.04      0.87
    2    2   28     -0.39      0.46
    3    2   28     -0.89     -1.25
   -3    3   28      0.68      1.73
   -2    3   28      0.40     -1.48
   -1    3   28      0.31     -1.64
    0    3   28     -0.91      2.01
    1    3   28      1.43      0.74
    2    3   28     -1.65      0.91
    3    3   28      0.45     -0.31
   -3    4   28      1.26     -0.86
   -2    4   28     -1.16      1.39
   -1    4   28     -0.26      0.01
    0    4   28     -1.45     -1.27
    1    4   28      0.33     -1.78
    2    4   28      1.31     -0.09
    3    4   28     -0.10      0.68
   -3    5   28      0.03     -1.46
   -2    5   28     -1.28      0.90
   -1    5   28      0.57      0.09
    0    5   28      1.53      1.74
    1    5   28     -1.82     -2.59
    2    5   28      0.27      0.61
    3    5   28      0.16      0.28
   -3    6   28     -1.51     -0.27
   -2    6   28      0.19      1.32
   -1    6   28      1.10     -2.11
    0    6   28      2.08      0.47
    1    6   28     -0.09      1.05
    2    6   28     -0.86     -0.39
    3    6   28      0.17     -0.40
   -3    7   28     -0.55     -0.69
   -2    7   28      1.95      1.19
   -1    7   28     -2.08     -0.03
    0    7   28      0.31     -1.55
    1    7   28     -0.20      1.48
    2    7   28      1.02      0.43
   -3    8   28      0.36     -0.60
   -2    8   28      0.96     -1.06
   -1    8   28     -1.00      0.88
    0    8   28     -1.11      0.28
    1    8   28      0.56      0.57
    2    8   28      1.24     -0.33
   -2    9   28     -0.49     -1.79
   -1    9   28      0.81      1.01
    1    9   28     -0.14      0.49
   -3    0   29     -0.75      0.01
   -2    0   29     -0.27      0.00
   -1    0   29     -1.58      0.00
    0    0   29      1.15     -0.01
    1    0   29     -0.17      0.01
    2    0   29     -1.18      0.00
    3    0   29     -1.49     -0.01
   -3    1   29     -2.34     -0.84
   -2    1   29     -0.98      0.27
   -1    1   29      0.32      0.84
    0    1   29      0.15      0.03
    1    1   29      0.44     -0.71
    2    1   29      1.15     -0.32
    3    1   29      0.83      0.66
   -3    2   29     -0.22      0.67
   -2    2   29      0.51     -0.40
   -1    2   29      0.47      1.02
    0    2   29     -0.20     -1.16
    1    2   29     -0.69      0.55
    2    2   29      1.15     -1.42
    3    2   29      0.40     -0.02
   -3    3   29     -0.37      1.38
   -2    3   29      0.92     -0.84
   -1    3   29      0.58     -0.87
    0    3   29      0.13     -0.03
    1    3   29     -0.78      1.45
    2    3   29     -0.83      0.81
   -3    4   29      0.52      0.53
   -2    4   29     -0.22     -0.98
   -1    4   29      0.23     -0.20
    0    4   29     -1.24      0.20
    1    4   29      1.32      0.03
    2    4   29     -0.56      0.04
   -3    5   29      1.73      0.45
   -2    5   29     -0.86     -0.19
   -1    5   29     -0.62      0.36
    0    5   29     -0.63      0.21
    1    5   29      0.32     -0.42
    2    5   29     -0.32     -1.14
   -2    6   29     -1.33      1.08
   -1    6   29      1.03     -0.36
    0    6   29      0.81      0.35
    1    6   29      0.15     -0.76
   -2    0   30     -0.40      0.01
   -1    0   30      0.53      0.00
    1    0   30     -0.10      0.01
   -2    1   30     -0.81     -0.37
   -2    2   30     -0.24      0.66
    1    0    0    -20.68      0.00
    7    0    0     -2.67      0.02
   13    0    0     -1.27      0.01
    1    1    0     48.21    -13.67
   13    1    0      1.98     -0.39
    0    2    0   -106.90      5.48
   13    2    0      1.30     -0.57
    4    3    0     -4.76     -2.30
   13    3    0      0.63      0.52
   13    4    0      0.36      1.20
   13    5    0     -0.99     -0.39
   13    6    0     -1.82      0.48
   13   10    0     -0.32      0.05
   13   11    0     -0.63      0.29
   12   14    0      0.07      0.05
   11   16    0      0.81      0.56
   10   18    0     -0.95      0.41
    9   20    0     -0.11      0.89
    8   21    0     -0.85     -0.67
    7   22    0      0.56      0.06
    6   23    0     -0.58     -0.16
    5   24    0      0.01     -0.02
  -13    0    1     -0.08      0.00
  -12    0    1      1.03      0.00
  -11    0    1      3.17      0.00
   -7    0    1     -3.56      0.00
   -6    0    1      9.48      0.00
   -1    0    1    -31.22      0.00
    0    0    1     53.12      0.01
    1    0    1     32.81      0.00
    7    0    1     -2.65      0.01
   13    0    1     -1.73      0.01
  -13    1    1     -0.77      0.04
  -12    1    1     -1.22      0.38
   -7    1    1     -4.86      0.01
   -1    1    1    -15.63    -12.01
    0    1    1     96.81      7.77
  -13    2    1      0.01      0.07
  -12    2    1      0.22      1.90
   -7    2    1     -0.37     -2.22
    0    2    1    -37.94     45.39
  -13    3    1      0.33     -0.49
  -13    4    1      0.79      0.61
   -4    4    1     15.00      8.63
  -13    5    1      0.30      0.11
  -13    6    1     -1.08     -0.01
  -13    7    1     -0.50      0.98
  -13    8    1      0.06     -1.38
  -13    9    1     -0.24     -0.24
  -13   10    1     -0.39      1.80
   13   10    1     -0.50     -0.41
  -13   11    1      0.42     -0.35
   13   11    1     -0.13     -0.25
  -12   14    1      0.10      0.51
   12   14    1     -0.98     -0.41
  -11   16    1      0.76      0.90
   11   16    1      0.26     -1.15
  -10   18    1     -0.91     -0.03
   10   18    1      0.17     -0.03
   -9   20    1      0.34      0.21
    9   20    1     -0.03      0.16
   -8   21    1      0.49      0.52
    8   21    1      0.19     -0.27
   -7   22    1      0.61      0.02
    7   22    1      0.08      0.36
   -6   23    1      0.23     -0.47
    6   23    1      0.36     -0.06
   -5   24    1      0.31     -0.02
    5   24    1     -0.59     -0.06
  -13    0    2     -0.43      0.00
  -12    0    2     -0.54      0.00
  -11    0    2      1.53      0.01
   -7    0    2     -3.12      0.01
   -6    0    2      1.81      0.00
   -5    0    2      6.57     -0.01
   -4    0    2     -9.62      0.01
   -2    0    2      7.33     -0.01
    0    0    2    -94.79      0.00
    1    0    2     28.88      0.01
  -13    1    2      0.38      0.11
  -12    1    2     -1.80     -0.53
   -7    1    2      1.53      1.60
   -6    1    2     -4.35      0.78
    0    1    2     -4.40     13.69
  -13    2    2      0.04     -0.44
  -12    2    2     -0.27      1.63
   -7    2    2      1.98     -6.11
  -13    3    2      0.56     -0.16
   -7    3    2      1.42     -5.05
  -13    4    2      0.42      0.04
  -13    5    2      0.00     -0.45
  -13    6    2     -0.62     -0.75
  -13    7    2     -0.59      0.64
    6    7    2     -0.67      2.95
  -13    8    2      0.70     -0.17
  -13    9    2     -0.16     -0.70
  -13   10    2     -0.49      1.36
   13   10    2     -0.72      0.74
  -13   11    2     -0.04      0.22
   13   11    2      0.00      0.03
  -12   13    2     -0.93     -0.94
  -12   14    2      0.38     -0.13
   12   14    2     -0.30      0.59
  -11   16    2      0.83     -0.44
   11   16    2      0.03     -0.09
  -10   18    2      0.12     -0.12
   10   18    2      0.31     -0.36
   -9   20    2      0.47     -0.67
   -8   21    2     -0.58     -0.67
    8   21    2      0.02     -0.38
   -7   22    2      0.51      0.27
    7   22    2     -1.15      0.30
   -6   23    2     -0.34     -0.59
    6   23    2     -0.03     -0.54
   -5   24    2     -0.23     -0.08
    5   24    2      0.13     -0.08
  -13    0    3     -0.34      0.00
  -12    0    3      0.46      0.00
  -11    0    3     -0.82      0.00
   -7    0    3     -2.87      0.00
   -6    0    3      2.19     -0.01
   -5    0    3      3.54      0.00
   -4    0    3      8.12      0.02
   -3    0    3      4.71      0.00
    1    0    3    -18.14      0.01
    2    0    3    -48.66     -0.01
  -13    1    3     -0.58      0.15
  -12    1    3     -0.49      0.69
   -7    1    3     -0.16      1.04
   -6    1    3     -0.82      4.73
   -5    1    3      0.96     -0.99
  -13    2    3      0.13     -0.83
  -12    2    3     -0.61     -0.66
   -7    2    3      0.96     -3.78
   -6    2    3     -0.50     -1.03
  -13    3    3      0.28      0.11
   -7    3    3      2.88      1.47
  -13    4    3     -0.28      0.25
  -13    5    3      0.13      0.64
  -13    6    3      0.27     -0.07
  -13    7    3      0.02     -1.01
    6    7    3      1.08      3.51
  -13    8    3      1.07     -0.18
  -13    9    3     -0.06     -0.51
  -13   10    3     -0.39      0.11
   13   10    3     -1.80      0.71
  -13   11    3     -0.10      0.70
  -12   13    3     -1.20     -0.56
  -12   14    3      0.35     -0.01
   12   14    3      0.19      0.50
  -11   16    3     -0.01     -0.51
   11   16    3      0.36      0.79
  -10   18    3      0.25      0.37
   10   18    3     -0.13     -0.60
   -9   20    3      0.11     -0.20
   -8   21    3     -0.03     -0.16
    8   21    3      0.54     -0.10
   -7   22    3      0.28      0.23
    7   22    3     -0.35      0.92
   -6   23    3      0.49     -0.04
    6   23    3     -0.42     -0.28
   -5   24    3     -0.55     -0.79
    4   24    3     -0.56     -0.79
  -13    0    4     -0.04      0.00
  -12    0    4      0.82      0.00
  -11    0    4      1.33      0.00
   -7    0    4     -3.50      0.00
   -6    0    4      3.39      0.00
   -5    0    4      7.05      0.01
    3    0    4     -6.66      0.01
  -13    1    4     -0.88      0.07
  -12    1    4      0.12      1.12
   -7    1    4     -1.76     -3.12
   -6    1    4     -2.48      3.51
   -5    1    4      7.67      2.64
  -13    2    4     -0.40      0.35
  -12    2    4     -0.08     -1.32
   -7    2    4      0.68      0.71
   -6    2    4      2.22     -3.82
  -13    3    4     -0.08     -0.18
  -12    3    4     -0.19     -1.18
   -7    3    4      0.23      5.29
  -13    4    4      0.28     -0.22
  -13    5    4     -0.33      0.67
  -13    6    4     -0.04      0.53
  -13    7    4      0.58     -0.19
  -13    8    4      0.35     -0.19
  -13    9    4      0.76      0.05
  -13   10    4      0.06      0.06
   13   10    4     -1.58      0.76
  -13   11    4     -0.17     -0.10
  -12   13    4      0.49     -1.12
   12   13    4     -0.42      0.66
  -12   14    4     -0.31      0.08
  -11   15    4      1.59      0.96
  -11   16    4     -0.19      0.51
   11   16    4      0.71      0.44
  -10   17    4     -0.67     -0.05
  -10   18    4      0.13      0.68
   10   18    4     -0.41     -0.93
   -9   19    4     -0.10     -0.06
   -8   21    4      1.06      0.64
    8   21    4      1.34     -0.09
   -7   22    4      0.11     -0.50
    7   22    4      0.42      0.38
   -6   23    4      0.54      0.22
    6   23    4      0.69     -0.20
   -4   24    4     -0.43     -0.55
    4   24    4      0.45     -0.48
  -13    0    5      0.50      0.00
  -12    0    5     -0.37      0.01
  -11    0    5      3.07      0.00
   -7    0    5      0.11      0.01
   -6    0    5     -5.18      0.01
  -13    1    5      0.20      0.10
  -12    1    5     -0.82     -0.02
  -11    1    5      0.34      1.19
   -7    1    5      1.42     -2.06
   -6    1    5     -3.66     -0.49
  -13    2    5     -0.26      0.37
  -12    2    5      0.21      0.43
   -7    2    5      0.69     -1.34
  -13    3    5     -0.26     -0.23
  -12    3    5     -0.50     -0.35
  -13    4    5     -0.05     -0.06
  -12    4    5      0.50     -0.13
   13    4    5     -1.32      0.68
  -13    5    5     -0.06     -0.56
  -13    6    5     -0.38     -0.06
   -6    6    5      1.28     -0.41
  -13    7    5     -0.09      0.45
   -6    7    5     -2.79     -0.12
  -13    8    5     -0.20     -0.19
  -13    9    5      0.35      0.40
   13    9    5     -0.33     -0.88
  -13   10    5      0.41      0.66
   13   10    5     -0.28      0.09
  -13   11    5      0.25      0.14
  -12   12    5     -0.66      1.44
  -12   13    5      0.46     -0.26
   12   13    5     -0.38      0.88
  -12   14    5      0.10     -0.01
  -11   15    5      0.65     -0.34
  -11   16    5      0.60      0.50
  -10   17    5     -0.09     -0.80
  -10   18    5      0.06     -0.27
   -9   19    5     -0.17     -0.13
    9   19    5     -0.80     -0.17
   -8   20    5     -1.00      0.11
   -8   21    5      0.65     -0.41
   -7   22    5      0.31     -0.19
   -6   23    5      0.13     -0.25
   -4   24    5     -0.21      0.44
   -3   24    5      0.36      0.05
    4   24    5      0.70      0.27
  -13    0    6     -0.05      0.00
  -12    0    6     -0.42      0.01
  -11    0    6      1.26      0.00
   -7    0    6      3.71      0.00
  -13    1    6      0.26      0.19
  -12    1    6     -0.04     -0.21
  -11    1    6     -1.10     -0.66
   -7    1    6      2.59      1.07
  -13    2    6      0.73      0.10
  -12    2    6      0.16      0.90
   -7    2    6     -0.79     -1.79
  -13    3    6      0.33     -0.22
  -12    3    6      0.27     -0.03
  -13    4    6     -0.78      0.06
  -12    4    6      0.54     -0.41
  -13    5    6      0.18     -0.48
  -12    5    6     -0.03      0.08
   13    5    6      0.09      0.49
  -13    6    6     -0.30     -0.20
  -12    6    6     -0.40     -0.72
   -6    6    6     -1.46     -0.09
  -13    7    6     -0.61      0.25
  -12    7    6     -0.71      0.90
  -13    8    6      0.34      0.07
  -12    8    6     -0.33      0.09
  -13    9    6     -0.40     -0.14
  -12    9    6      1.09     -0.37
   13    9    6     -0.70      0.31
  -13   10    6     -0.21     -0.31
  -12   10    6      0.73     -0.12
  -12   11    6      0.25     -1.40
  -12   12    6     -0.59      0.40
  -11   12    6      0.77      0.46
  -12   13    6     -0.76      0.57
  -11   13    6      1.27     -0.14
   12   13    6      0.01      0.00
  -11   14    6     -0.79     -0.20
  -11   15    6     -0.85     -0.84
  -10   15    6      0.02      0.19
   11   15    6      0.26     -0.30
  -11   16    6      0.53      0.18
  -10   16    6      0.29     -0.21
  -10   17    6      0.05     -0.02
   10   17    6      0.80     -0.38
  -10   18    6     -0.40     -0.40
   -9   19    6      0.05     -0.43
    9   19    6      0.62      0.79
   -8   20    6     -0.11      0.29
   -7   21    6     -0.45      0.20
   -7   22    6      0.11     -0.03
    5   23    6      0.31     -0.64
   -4   24    6     -0.20      0.12
   -3   24    6      0.63      1.02
   -2   24    6     -0.30     -0.05
    4   24    6     -0.33      0.22
  -13    0    7     -0.02      0.00
  -12    0    7     -0.01      0.00
  -11    0    7     -1.03     -0.01
   -7    0    7      0.39      0.00
  -13    1    7     -0.75     -0.26
  -12    1    7      0.59     -0.04
  -11    1    7     -0.27      0.13
  -13    2    7      0.02      0.10
  -12    2    7      0.18     -0.31
  -11    2    7      0.19      0.40
  -13    3    7      0.39      0.04
  -12    3    7      1.15      0.35
  -11    3    7     -0.09     -0.57
  -13    4    7     -0.06      0.33
  -12    4    7     -0.24     -0.25
  -11    4    7      0.48     -0.70
  -13    5    7      0.22      0.34
  -12    5    7     -0.51     -0.10
  -11    5    7     -0.20      0.46
   -6    5    7     -2.85      0.98
  -13    6    7      0.38     -0.66
  -12    6    7      0.26      0.24
  -11    6    7     -0.88      0.77
   -6    6    7     -4.89      3.53
  -13    7    7     -0.19     -0.15
  -12    7    7     -0.46     -0.12
  -11    7    7     -0.34      0.12
  -13    8    7     -0.07      0.40
  -12    8    7     -0.25      0.12
  -11    8    7      0.07     -0.15
   13    8    7      1.09     -0.26
  -13    9    7     -0.06     -0.02
  -12    9    7      0.17      0.26
  -11    9    7      0.47     -0.36
   13    9    7     -0.02      0.06
  -13   10    7     -0.24     -0.09
  -12   10    7      0.15      0.31
  -11   10    7     -0.36     -0.30
  -11   11    7     -0.16     -0.49
  -12   12    7      0.27     -0.51
  -11   12    7      0.16      0.44
  -10   12    7      0.15     -0.82
   12   12    7     -0.67      0.20
  -12   13    7     -0.24     -0.02
  -11   13    7     -0.01      0.64
  -10   13    7      1.55     -0.63
  -11   14    7      0.83      0.29
  -10   14    7     -0.72      0.40
  -11   15    7     -0.27      0.00
  -10   15    7     -0.65     -0.34
   11   15    7     -0.03      0.07
  -11   16    7     -0.14     -0.19
  -10   16    7      0.43      0.02
  -10   17    7      0.05      0.42
   10   17    7      0.42     -0.04
   -9   19    7      0.26     -0.47
    9   19    7      0.08      0.39
   -8   20    7     -0.05     -0.39
    8   20    7      0.30     -0.78
   -7   21    7      0.42     -0.03
    7   21    7      0.17      0.44
   -6   22    7     -0.07      1.01
    6   22    7      0.02      0.24
   -5   23    7      0.67     -0.66
    5   23    7     -0.01     -0.48
   -4   24    7      0.76      0.08
   -3   24    7     -0.57      0.59
   -2   24    7      0.90     -0.22
    2   24    7      0.00      0.63
    3   24    7      0.31     -0.83
  -13    0    8      0.21      0.01
  -12    0    8      0.49      0.00
  -11    0    8     -1.22      0.00
  -13    1    8     -0.25      0.06
  -12    1    8     -0.32     -0.46
  -11    1    8      0.08      1.34
  -13    2    8     -0.49     -0.01
  -12    2    8     -0.52     -0.91
  -11    2    8      0.30     -0.44
  -13    3    8     -0.28     -0.30
  -12    3    8      0.29      0.73
  -11    3    8      1.42     -1.71
  -13    4    8      0.48      0.24
  -12    4    8     -0.26      0.55
  -11    4    8      0.60     -0.46
   -6    4    8     -0.20     -1.72
   -5    4    8     -1.32     -3.59
  -13    5    8     -0.15      0.50
  -12    5    8     -0.03      0.37
  -11    5    8     -0.49     -1.43
   -6    5    8      4.39      1.20
  -13    6    8      0.30     -0.45
  -12    6    8      0.40      0.10
  -11    6    8     -0.14      1.40
  -13    7    8      0.34     -0.30
  -12    7    8      0.45     -0.61
  -11    7    8     -1.47      1.83
   13    7    8     -0.98      0.55
  -13    8    8     -0.05     -0.15
  -12    8    8     -0.03      0.00
  -11    8    8     -0.28     -1.06
   13    8    8      0.32      0.27
  -13    9    8      0.14     -0.05
  -12    9    8     -0.25     -0.12
  -11    9    8      0.69     -0.11
  -13   10    8     -0.11      0.54
  -12   10    8     -0.29      0.12
  -11   10    8      0.33     -0.34
  -12   11    8     -0.18      0.94
  -11   11    8      0.04     -0.70
  -12   12    8      0.44     -0.09
  -11   12    8     -0.10      0.44
  -10   12    8     -0.05     -0.11
   12   12    8     -0.22     -0.50
  -12   13    8      0.27     -0.19
  -11   13    8     -0.79      0.03
  -10   13    8      0.40      0.57
  -11   14    8      0.27     -0.03
  -10   14    8      0.33     -0.23
  -11   15    8      0.31      0.38
  -10   15    8     -0.61     -0.24
  -10   16    8     -0.07     -0.02
  -10   17    8      0.79     -0.05
   10   17    8     -0.03     -0.24
   -9   19    8      0.31      0.30
   -8   20    8     -0.12     -0.52
    8   20    8      0.00      0.37
   -7   21    8      0.08     -0.14
    7   21    8     -0.30     -0.49
   -6   22    8     -0.19     -0.32
    6   22    8      0.57      0.15
   -5   23    8      0.55     -0.54
    5   23    8     -0.24      0.45
   -3   24    8      0.08      0.26
   -2   24    8     -0.15      0.31
   -1   24    8     -0.54     -0.25
    0   24    8      0.21     -0.14
    1   24    8      0.20      0.34
    2   24    8      0.73      0.17
    3   24    8      0.46     -0.25
  -13    0    9      0.13      0.00
  -12    0    9      0.08      0.01
  -11    0    9      0.51      0.01
  -13    1    9      0.01      0.42
  -12    1    9      0.00     -0.15
  -11    1    9     -1.65     -0.38
  -13    2    9      0.36     -0.16
  -12    2    9     -0.46      0.88
  -11    2    9     -1.19     -1.25
  -13    3    9     -0.28     -0.41
  -12    3    9      0.07      0.06
   -6    3    9      2.37      3.73
   -5    3    9     -3.14      6.08
  -13    4    9      0.01     -0.20
  -12    4    9      0.33      0.01
   -6    4    9     -0.79     -4.05
   -5    4    9      3.55     -1.79
  -13    5    9      0.06      0.14
  -12    5    9     -0.14      0.62
  -11    5    9      0.27     -0.33
  -13    6    9     -0.61      0.31
  -12    6    9     -0.32     -0.71
  -11    6    9      1.36     -0.12
   13    6    9      0.60     -0.51
  -13    7    9     -0.01      0.13
  -12    7    9      0.02     -0.69
  -11    7    9      0.08      0.49
   13    7    9     -0.59      0.16
  -13    8    9      0.41     -0.14
  -12    8    9     -0.05      0.79
  -11    8    9     -0.69     -0.71
  -13    9    9      0.04     -0.03
  -12    9    9      0.23     -0.08
  -11    9    9     -0.76     -0.22
  -12   10    9      0.18     -0.12
  -11   10    9      0.03     -0.11
  -10   10    9     -1.01     -0.18
  -12   11    9     -0.56     -0.07
  -11   11    9      0.42      0.32
   12   11    9      0.27     -0.44
  -12   12    9     -0.06      0.01
  -11   12    9      0.21      0.55
  -10   12    9      0.01     -0.23
  -11   13    9      0.45      0.04
  -10   13    9     -1.15      1.07
  -11   14    9     -0.57     -0.57
  -10   14    9      0.68      0.61
   11   14    9      0.19      0.31
  -11   15    9     -0.14     -0.07
  -10   15    9     -0.19     -0.02
  -10   16    9     -0.76      0.05
   10   16    9      0.56     -0.19
  -10   17    9      0.52     -0.17
   -9   18    9     -0.23     -0.10
    2   18    9      0.93     -2.05
    9   18    9      0.23     -0.25
   -9   19    9     -0.14      0.18
   -8   20    9      0.10     -0.20
   -7   21    9     -0.49     -0.03
    7   21    9      0.30     -0.73
   -6   22    9     -0.20     -0.54
   -5   23    9     -0.84      0.40
    4   23    9     -0.44     -0.09
   -3   24    9      0.67      0.24
   -2   24    9     -0.03      0.55
   -1   24    9     -0.47     -0.71
    0   24    9      0.67     -0.34
    1   24    9     -0.62      0.63
    2   24    9     -0.05     -0.64
  -13    0   10     -0.24      0.00
  -12    0   10      0.26      0.00
  -11    0   10      0.37      0.00
   -6    0   10      2.47      0.00
   -5    0   10     -7.30      0.00
   -4    0   10     -5.39      0.01
   13    0   10     -2.35      0.00
  -13    1   10     -0.26      0.26
  -12    1   10      0.77     -0.16
   -6    1   10      0.95     -1.25
   -5    1   10     -4.05     -2.06
  -13    2   10      0.37     -0.44
  -12    2   10     -0.49      0.81
   -6    2   10     -2.36     -1.34
   -5    2   10      3.34     -0.67
  -13    3   10      0.41     -0.15
  -12    3   10      0.11     -0.49
   -5    3   10     -2.22      3.43
  -13    4   10     -0.14     -0.19
  -12    4   10      0.21     -0.25
  -13    5   10      0.52      0.05
  -12    5   10     -0.47      0.43
   13    5   10     -0.49      0.73
  -13    6   10     -0.39      0.32
  -12    6   10      0.03      0.22
   13    6   10      0.34      0.10
  -13    7   10      0.08      0.09
  -12    7   10     -0.48     -0.28
  -11    7   10      1.21     -1.23
  -13    8   10      0.21     -0.04
  -12    8   10      0.57      0.21
  -11    8   10     -0.82      1.09
  -12    9   10      0.28      0.50
  -11    9   10      0.11      0.35
  -12   10   10     -0.06      0.09
  -11   10   10      0.46      0.14
   12   10   10     -0.76      0.17
  -12   11   10     -0.08     -0.23
  -11   11   10     -0.46     -0.17
  -10   11   10      0.77      0.51
   12   11   10     -0.20      0.85
  -12   12   10     -0.56      0.06
  -11   12   10     -0.11     -0.31
  -11   13   10      0.19      0.53
  -10   13   10      0.26     -0.32
  -11   14   10     -0.33     -0.15
  -10   14   10      0.09      0.25
   11   14   10      0.34      0.70
  -11   15   10     -0.22     -0.38
  -10   15   10      0.10     -0.61
  -10   16   10     -0.33      0.09
   10   16   10      0.71      0.24
  -10   17   10     -0.41      0.34
   -9   18   10      0.73     -0.40
    2   18   10      3.24      0.61
    9   18   10      0.02     -0.43
   -8   19   10     -0.40      0.06
    8   19   10     -0.03     -0.99
   -8   20   10      0.12     -0.05
   -7   20   10      0.06      0.00
   -7   21   10     -0.55      0.16
    6   21   10     -0.51     -0.22
   -6   22   10      0.35      0.47
    5   22   10      0.16     -0.07
   -4   23   10      0.27      0.23
   -3   23   10      0.47     -0.19
    4   23   10     -0.17      0.28
   -2   24   10      0.47     -0.08
   -1   24   10      0.07     -0.61
    0   24   10     -0.94     -0.21
    1   24   10      0.13      0.61
    2   24   10      0.17      0.31
  -13    0   11     -1.13      0.01
  -12    0   11      0.88      0.00
   -5    0   11      2.93      0.01
   -4    0   11     -5.94     -0.01
    4    0   11     -7.16      0.00
   13    0   11     -0.84      0.00
  -13    1   11     -0.83      0.26
  -12    1   11     -0.08      0.00
   -5    1   11      0.29      1.13
  -13    2   11     -0.45     -0.23
  -12    2   11      0.00     -0.86
   -5    2   11      0.44     -4.85
  -13    3   11      0.46      0.29
   -5    3   11      1.97     -3.88
   13    3   11      0.70     -0.25
  -13    4   11      0.64      0.56
   13    4   11     -0.37      0.08
  -13    5   11      0.34     -0.55
  -12    5   11      0.26      0.23
   13    5   11     -0.08      0.66
  -13    6   11      0.01      0.03
  -12    6   11      0.22      0.47
  -13    7   11      0.01     -0.08
  -12    7   11     -0.48      0.28
  -13    8   11      0.02     -0.33
  -12    8   11      0.77     -0.68
  -11    8   11      0.10     -0.44
  -12    9   11      0.14     -0.09
  -11    9   11      0.98      0.63
  -12   10   11     -0.47      0.36
  -11   10   11      0.76      0.50
   12   10   11     -1.39     -0.39
  -12   11   11      0.23      0.35
  -11   11   11     -0.49     -0.13
  -10   11   11     -0.49      0.20
  -12   12   11     -0.40      0.20
  -11   12   11     -0.47     -0.31
  -10   12   11      0.14      0.20
  -11   13   11     -0.29     -0.20
  -10   13   11      0.51      0.46
   11   13   11     -1.00      0.87
  -11   14   11      0.09      0.15
  -10   14   11     -0.53     -0.39
  -10   15   11      0.02     -0.40
   10   15   11      0.14      0.12
  -10   16   11      0.31     -0.30
    9   17   11     -0.74      0.01
   -9   18   11      0.96      0.20
    2   18   11      1.47      0.97
   -8   19   11      0.39     -0.04
    8   19   11      0.28     -0.16
   -7   20   11      0.98     -0.06
    7   20   11     -0.15     -0.22
   -6   21   11     -0.25     -0.09
    6   21   11      0.57     -0.25
   -5   22   11      0.06      0.14
    5   22   11     -0.41     -0.28
   -4   23   11      0.08      0.65
   -3   23   11     -0.20      0.48
   -2   23   11      0.05     -0.77
    2   23   11      0.41     -0.40
    3   23   11     -0.06     -0.25
    0   24   11     -0.78     -0.13
  -13    0   12     -0.09      0.00
  -12    0   12      0.78      0.00
   -5    0   12      3.86      0.01
   -4    0   12      4.83      0.01
    3    0   12      1.30     -0.01
    4    0   12      0.77      0.06
   13    0   12      0.73      0.00
  -13    1   12     -0.37     -0.05
  -12    1   12     -1.62      0.93
   -5    1   12      2.72     -0.66
   13    1   12     -0.03     -0.36
  -13    2   12     -0.40     -0.29
   -5    2   12     -1.49     -3.04
    4    2   12     -3.29     -2.38
   13    2   12     -0.24      0.33
  -13    3   12     -0.44     -0.50
   -5    3   12      2.83      0.75
   13    3   12      1.01      0.40
  -13    4   12      0.27      1.09
  -13    5   12     -0.61     -0.05
  -13    6   12     -0.45      0.23
  -12    6   12     -0.16     -1.27
  -13    7   12      0.17      0.40
  -12    7   12     -1.06      0.13
  -12    8   12     -0.68     -0.02
  -11    8   12      0.79     -1.90
  -12    9   12      0.04     -0.37
  -11    9   12      0.33     -0.76
   12    9   12      0.00     -0.77
  -12   10   12      0.04      0.23
  -11   10   12     -0.23     -0.14
  -12   11   12      0.31     -0.09
  -11   11   12      0.23      0.73
  -11   12   12     -0.47      0.52
  -10   12   12     -0.70     -0.42
   11   12   12      0.57     -0.09
  -11   13   12      0.08     -0.21
  -10   13   12     -0.44      0.88
  -11   14   12      0.69     -0.10
  -10   14   12     -0.35      0.08
  -10   15   12     -0.69      0.43
   10   15   12      0.32      0.15
  -10   16   12     -0.04     -0.12
    2   16   12      1.84     -1.48
   -9   17   12     -0.33     -0.11
    2   17   12      0.23     -0.08
    3   17   12     -0.35      0.07
    9   17   12      0.19     -0.77
    2   18   12     -1.26      0.01
    3   18   12      1.02     -0.19
    8   18   12      0.04     -0.31
   -8   19   12      0.31      0.51
    7   19   12      0.30      0.16
   -7   20   12     -0.52      0.19
   -6   21   12     -0.13      0.02
    4   21   12      0.06      0.57
   -5   22   12     -0.41     -0.41
    4   22   12      0.55      0.67
   -3   23   12     -0.58      0.12
   -1   23   12      0.11      0.62
    0   23   12      0.44     -0.20
    1   23   12     -0.20     -0.41
    2   23   12      0.23     -0.51
  -13    0   13      0.42      0.00
  -12    0   13      0.62      0.00
   -4    0   13      3.70      0.01
    4    0   13      0.53      0.06
  -13    1   13      0.54     -0.69
   -4    1   13      2.13      2.41
    4    1   13      4.49     -0.07
  -13    2   13      0.54     -0.60
    4    2   13     -2.74      4.77
  -13    3   13     -0.17     -0.50
  -13    4   13      0.16     -0.04
  -13    5   13     -0.73      0.57
  -13    6   13     -0.87     -0.09
  -12    7   13      0.22      0.30
   12    7   13     -0.37     -0.65
  -12    8   13     -0.19      0.28
   12    8   13      0.67      1.20
  -12    9   13     -0.14     -0.57
  -11    9   13      0.05     -0.03
  -12   10   13      0.20     -0.13
  -11   10   13     -0.22     -0.33
  -11   11   13      0.49      0.38
  -11   12   13      0.25     -0.14
  -10   12   13     -0.44      0.40
   11   12   13     -0.05      1.13
  -11   13   13     -0.57     -0.21
  -10   13   13      0.02     -0.18
  -10   14   13      0.80      0.08
   10   14   13      0.22     -0.24
  -10   15   13     -0.04     -0.26
    2   16   13      1.20     -1.02
    9   16   13     -0.26      0.06
   -9   17   13      0.78      0.42
    2   17   13     -0.93      0.46
    3   17   13      1.04     -0.22
   -8   18   13      0.01     -0.05
    2   18   13     -2.20      0.73
    3   18   13      0.09      0.12
    8   18   13     -0.27      0.18
   -7   19   13      0.92     -0.31
    7   19   13      0.02      0.03
   -7   20   13     -0.72      0.19
    6   20   13      0.05      0.62
   -6   21   13     -0.10      0.42
   -3   21   13      0.08      0.18
    5   21   13     -0.23     -0.32
   -4   22   13      0.23     -0.10
   -3   22   13      0.18     -1.08
    3   22   13     -0.65      0.31
    4   22   13     -0.30      0.24
   -2   23   13     -0.49     -0.11
   -1   23   13     -0.50      0.30
    0   23   13      0.79      0.96
    1   23   13     -0.40     -0.48
  -13    0   14     -0.64      0.00
  -12    0   14      0.49      0.00
   -4    0   14     -4.68      0.00
  -13    1   14      0.19      0.11
   -4    1   14      0.14      0.81
  -13    2   14      0.54     -0.66
  -13    3   14      0.54      0.64
  -13    4   14      1.03     -0.41
   12    6   14      0.89      0.70
  -12    7   14      0.34      0.61
   12    7   14      0.00      0.86
  -12    8   14      1.03     -0.17
  -12    9   14      0.09     -0.38
  -11    9   14      0.28      0.86
  -11   10   14      0.21     -0.21
  -11   11   14     -0.56     -0.41
   11   11   14     -0.50     -0.04
  -11   12   14      0.58      0.09
  -10   12   14     -0.16      0.84
  -11   13   14     -0.02     -0.02
  -10   13   14      0.01     -0.37
  -10   14   14      0.16     -0.32
  -10   15   14      0.46     -0.70
    3   15   14     -1.51     -1.18
    9   15   14     -0.73      0.61
   -9   16   14     -0.23     -0.17
    2   16   14      0.57      1.35
    3   16   14     -0.63     -1.29
   -9   17   14     -0.21      0.26
    2   17   14      0.62     -1.16
    3   17   14      0.71      0.07
    8   17   14     -0.13      0.06
   -8   18   14      0.25      0.84
    2   18   14     -0.83      0.34
    3   18   14     -0.33     -0.05
    7   18   14      0.14     -0.33
   -7   19   14      1.11     -0.14
   -6   20   14     -0.44     -0.54
    4   20   14     -0.30      0.08
    6   20   14     -0.38     -0.02
   -5   21   14     -0.33     -0.20
    4   21   14      0.48      0.42
   -4   22   14     -1.16     -0.12
   -3   22   14      0.91     -0.51
   -2   22   14     -0.05      0.43
   -1   22   14      0.24      0.76
    0   22   14      0.33     -0.83
    1   22   14      0.31     -0.46
    2   22   14     -0.03      0.33
    3   22   14      0.37     -1.13
  -13    0   15     -0.45      0.00
  -12    0   15     -0.53      0.00
   -3    0   15     -8.52      0.00
  -13    1   15     -0.31      0.73
  -13    2   15     -0.07      0.25
   12    3   15      0.77      0.03
   12    4   15      0.65      0.14
   12    5   15     -1.08     -0.97
  -12    7   15     -0.96      0.61
  -12    8   15     -0.28     -0.49
  -12    9   15     -0.14      0.01
  -11    9   15     -0.04      0.22
  -11   10   15      0.05     -0.17
   11   10   15      0.11     -0.32
  -11   11   15     -0.68     -0.81
  -11   12   15     -0.24      0.32
  -10   12   15     -0.42     -0.18
   10   12   15     -0.14      0.26
  -10   13   15     -0.50      0.49
   10   13   15      0.57     -0.49
  -10   14   15     -0.36     -0.01
    3   14   15     -1.16     -1.46
    9   14   15     -0.06     -0.07
   -9   15   15      0.27     -1.02
    3   15   15     -0.20      0.13
    9   15   15     -0.69      0.47
   -9   16   15      0.09     -0.38
    2   16   15      0.46      1.22
    3   16   15     -0.68      0.75
    8   16   15      0.56      0.76
   -8   17   15      0.51     -0.92
    2   17   15      0.63     -0.62
    3   17   15      0.46     -0.52
    8   17   15     -0.30     -0.27
   -7   18   15     -0.37      0.23
   -3   18   15      0.43      0.18
    2   18   15      0.40     -0.87
    7   18   15      0.37      0.20
   -7   19   15      0.20     -0.15
    6   19   15     -0.23      1.01
   -6   20   15      0.28     -0.49
    5   20   15     -0.11     -0.79
    4   21   15     -0.26      0.64
   -3   22   15     -0.23      0.15
   -2   22   15      0.81     -0.25
   -1   22   15      0.15      0.37
    0   22   15      0.58     -0.56
    1   22   15      0.37     -1.03
    2   22   15     -0.35      0.83
  -12    0   16     -1.73      0.00
   12    0   16      2.29      0.00
   12    1   16     -0.61     -0.06
   12    2   16     -1.24     -0.59
  -12    7   16     -0.46      0.67
   11    8   16     -0.10      0.13
  -11    9   16     -0.47     -0.42
   10    9   16     -0.63     -0.61
   11    9   16      1.01      0.12
  -11   11   16      0.36      0.07
   10   11   16     -0.08      0.00
  -10   12   16     -0.13     -0.77
   10   12   16     -0.69     -0.05
  -10   13   16     -0.52      0.51
    9   13   16     -0.18     -0.14
    9   14   16     -0.51     -0.96
   -9   15   16     -0.40     -0.21
   -8   15   16      0.24      0.42
    3   15   16     -0.19     -0.51
    3   16   16      0.98      1.07
    8   16   16      0.48     -0.50
   -8   17   16     -0.08     -0.11
    3   17   16      0.66      0.38
    7   17   16     -0.05      0.20
   -7   18   16      0.33     -0.70
    4   18   16      0.53     -0.72
    6   18   16      0.40     -0.34
   -6   19   16      0.09     -0.22
   -5   20   16      0.39     -0.11
    4   20   16      0.03      0.54
   -4   21   16      0.40      0.47
   -3   21   16      0.28     -0.09
   -2   21   16      0.14      0.23
   -1   21   16     -0.83      0.75
    0   21   16     -0.77      0.33
    1   21   16      0.16     -0.70
    2   21   16     -0.09      0.21
    3   21   16     -0.02      0.25
   -1   22   16     -0.14      0.31
    0   22   16      0.22     -0.07
  -12    0   17     -0.07      0.00
  -12    1   17     -0.87     -0.32
  -12    4   17      0.12      0.22
  -12    5   17     -0.52      0.90
  -12    6   17      0.07     -0.16
   11    6   17     -0.18      0.20
   11    7   17     -0.19      0.04
  -11   10   17     -0.11     -0.22
   10   10   17     -0.16      0.01
   10   11   17      0.00      0.40
  -10   12   17      0.12     -0.11
    9   12   17      0.11      0.67
  -10   13   17      0.56     -0.04
    9   13   17     -0.10      0.08
   -9   14   17      0.36      0.48
   -9   15   17      0.03      0.62
    8   15   17     -0.23      0.58
   -8   16   17     -0.27      0.13
    7   16   17     -0.70     -0.65
   -7   17   17     -0.70      0.19
    6   17   17     -0.28     -0.88
    7   17   17     -0.41      0.43
   -7   18   17      0.34     -0.16
    4   18   17      0.61     -0.92
    5   18   17      0.32     -1.24
    6   18   17     -0.83     -0.56
   -6   19   17     -0.10     -0.28
    5   19   17      0.34     -0.55
   -4   20   17     -0.42     -0.03
    4   20   17     -0.34     -0.08
   -3   21   17      0.76     -0.23
   -2   21   17     -0.10      0.73
   -1   21   17     -0.14     -0.40
    0   21   17      0.21      0.39
    1   21   17     -0.08     -0.07
    2   21   17      0.00      0.10
  -12    0   18      0.69      0.00
   10    0   18      0.63      0.00
   11    0   18      0.10      0.00
  -12    1   18     -0.04      0.38
   11    1   18      0.78      0.16
  -12    2   18     -0.61     -0.63
   11    2   18      0.42      0.41
  -12    3   18     -0.64      0.03
   11    3   18     -0.08      0.36
  -12    4   18      0.27      0.03
   11    4   18     -0.28     -0.07
   11    5   18      0.54     -0.36
   10    6   18     -0.63      0.30
   10    7   18     -0.55      0.77
  -11    8   18     -0.54      0.84
   10    8   18      0.13     -0.46
  -11    9   18      0.14      0.06
   10    9   18      0.48     -0.28
   10   10   18      0.46     -0.21
  -10   11   18      0.23     -0.06
    9   11   18     -0.56      0.78
  -10   12   18     -0.44      0.00
    9   12   18      0.01     -0.31
   -9   13   18      0.18      0.66
   -9   14   18      0.31     -0.54
    8   14   18      0.00      0.36
   -8   15   18     -0.24      0.30
   -8   16   18      0.28     -0.35
    3   16   18     -0.80     -0.10
    7   16   18     -0.63     -0.45
   -7   17   18     -0.24     -0.12
    4   17   18     -0.60      1.29
    5   17   18     -0.56      0.97
    6   17   18     -0.02     -0.09
   -6   18   18      0.35      0.01
    4   18   18      0.18      0.40
    5   18   18     -0.66      0.37
   -5   19   18     -0.42      0.48
    4   19   18     -0.11     -0.50
   -4   20   18      0.13      0.78
   -3   20   18     -0.57      0.58
   -1   20   18      0.04     -0.92
    0   20   18     -0.20     -0.43
    1   20   18      0.14      0.33
    2   20   18     -0.11     -0.03
    3   20   18     -0.28      0.08
    9    0   19     -0.34      0.00
   10    0   19      1.16      0.02
   11    0   19     -0.69     -0.01
   10    1   19      0.37      0.42
   11    1   19     -0.84     -0.41
   10    2   19     -0.23     -0.71
   11    2   19      0.31      0.57
   10    5   19      0.24      0.17
   10    6   19      0.15     -0.07
  -11    7   19      0.60     -0.65
   10    7   19     -0.78      1.00
  -11    8   19      1.56     -0.70
    9    8   19     -0.05     -0.28
   10    8   19     -0.81      0.17
  -10    9   19      0.14      0.15
    9    9   19      0.66     -0.07
    9   10   19      0.41     -0.44
  -10   11   19      0.02     -0.63
    9   11   19     -0.96      0.81
   -9   12   19     -0.21     -0.68
   -9   13   19      0.06      0.50
    8   13   19      0.14      0.00
   -8   14   19      0.55      0.15
   -8   15   19      0.12     -0.12
    7   15   19      0.74      0.17
   -7   16   19     -0.05      0.44
    4   16   19     -0.01     -0.42
    6   16   19      0.47     -0.24
    4   17   19     -0.44     -0.06
    5   17   19      0.88      0.95
   -4   19   19     -0.41     -0.69
    1   19   19     -0.34     -0.19
    2   19   19     -0.40     -0.27
    3   19   19      0.33     -0.02
   -2   20   19     -0.15      0.34
   -1   20   19     -1.16      0.59
    0   20   19     -0.31      0.26
    1   20   19      0.43     -0.16
  -11    0   20      0.14      0.00
   -6    0   20     -2.01      0.00
    9    0   20      0.35      0.01
   10    0   20     -0.29      0.01
   10    1   20      0.59      0.64
    9    2   20     -0.63     -0.08
   10    2   20     -0.25      0.34
   10    3   20      0.67     -0.63
  -11    4   20      0.07      0.06
    9    4   20      0.42     -0.18
   10    4   20      0.51     -1.14
  -11    5   20      0.78     -0.02
   10    5   20     -0.15      0.18
  -11    6   20     -0.20     -0.06
   10    6   20      0.31      0.04
    9    8   20     -0.01     -0.27
  -10    9   20     -0.27     -0.47
    9    9   20     -0.03      0.35
  -10   10   20     -0.48      0.10
    9   10   20     -0.05      0.34
    8   11   20      0.39     -0.31
   -9   12   20     -0.55     -0.70
    8   12   20      0.29     -0.34
   -8   14   20      0.09     -0.17
    7   14   20     -0.40      0.13
   -7   15   20      0.63     -0.75
    4   15   20      0.92     -0.22
    6   15   20     -0.48      0.29
    4   16   20      0.78      0.09
    5   16   20     -0.61     -1.01
    6   16   20     -0.13     -0.15
   -6   17   20     -0.10      0.43
    4   17   20      0.48     -0.64
    5   17   20      0.24      0.11
   -5   18   20     -0.12      0.20
    4   18   20     -0.10     -0.31
   -3   19   20     -0.29     -0.54
   -2   19   20      0.46      0.27
   -1   19   20      0.89      0.17
    0   19   20      0.26     -0.09
    1   19   20     -0.02     -0.02
    2   19   20      0.28     -0.03
  -11    0   21     -0.87      0.00
    9    0   21      0.02     -0.01
   10    0   21     -0.25     -0.01
  -11    1   21      0.10      0.56
   10    1   21     -0.44     -0.30
  -11    2   21      0.72      0.36
   10    2   21     -0.52      0.06
  -11    3   21      0.24     -0.36
    9    3   21     -0.08      0.14
   10    3   21     -0.34      0.78
    9    4   21      0.01     -0.49
   10    4   21      0.50      0.04
    9    5   21     -0.32     -0.08
    9    6   21     -0.17     -0.12
    9    7   21     -0.04     -0.49
  -10    8   21      0.21     -0.61
    9    8   21      0.60     -0.27
    8   10   21     -0.35     -0.48
   -9   11   21      0.35      0.22
    8   11   21      0.14      0.08
   -8   12   21     -0.54     -0.01
    7   12   21     -0.05      0.50
   -8   13   21     -0.28      0.37
    7   13   21     -0.51     -0.33
   -7   14   21     -0.72      0.64
    4   14   21     -0.89      1.63
    6   14   21      0.75     -0.51
   -7   15   21     -0.17     -0.48
    4   15   21     -1.19      0.00
    5   15   21      0.63      0.32
    6   15   21     -0.27     -0.05
   -6   16   21      0.19     -0.64
    4   16   21     -0.04     -0.03
    5   16   21     -0.14     -0.67
   -5   17   21      0.16     -0.05
    4   17   21      0.38      0.26
   -3   18   21      0.31     -0.05
   -2   18   21     -0.40      0.13
   -1   18   21     -0.02     -0.26
    0   18   21      0.00     -0.14
    1   18   21     -0.35     -0.25
    2   18   21     -0.76      0.21
    0   19   21     -0.23     -0.55
    9    0   22     -0.17      0.00
    9    1   22      0.00     -0.03
    9    2   22      0.55      0.00
    9    3   22      0.65      0.83
    9    4   22     -0.44      0.05
  -10    5   22     -0.89     -0.41
    9    5   22     -0.42     -0.63
  -10    6   22     -0.14      0.46
    9    6   22     -0.10      0.02
  -10    7   22     -0.54      1.01
    9    7   22      0.00     -0.01
    8    8   22     -0.76      0.64
   -9    9   22     -0.63      0.24
    8    9   22     -0.02     -0.38
   -9   10   22     -0.46      0.27
    8   10   22      0.09     -0.63
    7   11   22      0.37      0.46
   -8   12   22     -0.66     -0.56
    7   12   22      0.11      0.49
   -7   13   22      0.03     -0.76
    4   13   22      0.53     -0.53
    5   13   22      0.53     -0.53
    6   13   22     -0.48      0.72
   -7   14   22     -0.02      0.46
    4   14   22      0.62      0.21
    5   14   22     -0.62      0.61
    6   14   22      0.12      0.33
   -6   15   22      0.23      0.40
    4   15   22     -0.38      0.45
    5   15   22     -0.06      0.41
   -5   16   22      0.28      0.09
    3   16   22     -0.63     -0.22
    4   16   22     -1.01     -0.08
   -4   17   22      1.07      0.44
   -3   17   22     -0.59      0.57
   -1   17   22      0.40      0.38
    0   17   22     -0.53      0.22
    1   17   22      0.20     -0.12
    2   17   22      0.54     -0.43
    3   17   22      0.12     -0.27
   -2   18   22     -0.59     -0.13
   -1   18   22     -0.13      0.54
    0   18   22      0.17      0.50
    1   18   22      0.17     -0.41
  -10    0   23      0.49     -0.01
    9    0   23     -0.17      0.01
  -10    1   23     -0.08     -0.16
    9    1   23     -0.05      0.14
  -10    2   23     -0.13      0.61
    9    2   23     -0.13     -0.64
  -10    3   23      0.68     -0.50
    9    3   23      0.16     -0.04
  -10    4   23      0.30     -0.44
    9    4   23     -0.08      0.53
    8    5   23     -0.54     -0.27
    8    6   23      0.14     -0.32
    8    7   23      0.10     -0.08
   -9    8   23     -0.72     -0.12
    8    8   23     -0.58      0.48
    7    9   23     -0.46      0.68
   -8   10   23     -0.48      0.51
    7   10   23     -0.15     -0.01
   -8   11   23      0.70      0.12
    4   11   23      0.07      0.07
    6   11   23     -0.46     -0.74
    7   11   23      0.36     -0.07
   -7   12   23     -0.10     -0.02
    4   12   23      0.22     -0.59
    5   12   23      0.54      0.77
    6   12   23      0.32     -0.68
   -7   13   23      0.27     -0.11
    4   13   23     -0.45     -0.34
    5   13   23      0.42     -0.46
    6   13   23      0.16     -0.17
   -6   14   23     -0.17      0.28
    4   14   23      0.41     -0.75
    5   14   23      0.21     -0.07
   -5   15   23      0.50     -0.45
    3   15   23      0.63      0.70
    4   15   23      0.67     -0.01
   -4   16   23      0.05     -0.74
   -1   16   23      0.02     -0.49
    0   16   23     -0.02     -0.41
    1   16   23     -0.31      0.12
    2   16   23     -0.30      0.66
    3   16   23      0.19      0.39
   -2   17   23     -0.28      0.04
   -1   17   23      0.25     -0.37
    0   17   23      0.09     -0.07
    1   17   23     -0.14      0.19
    8    0   24     -0.37      0.01
    8    1   24     -1.36      0.20
    8    2   24     -0.06     -0.04
    8    3   24      0.66      0.13
    8    4   24      0.52      0.19
   -9    5   24     -1.87     -0.43
    8    5   24      0.66     -0.10
   -9    6   24      0.22      0.02
    8    6   24     -0.06      0.01
    7    7   24     -0.07      0.32
    7    8   24      0.79     -0.60
   -8    9   24      0.10      0.60
    6    9   24     -1.00      0.58
    7    9   24      0.42      0.14
    4   10   24      0.14      0.82
    6   10   24      0.08      0.16
   -7   11   24      0.05      0.08
    4   11   24     -0.31      0.31
    5   11   24     -0.29     -0.04
    6   11   24     -0.67     -0.16
    4   12   24     -0.49      0.16
    5   12   24     -0.08      0.39
   -6   13   24      0.59     -1.00
    4   13   24     -0.30      0.01
    5   13   24     -0.60     -0.10
   -5   14   24     -0.31     -0.10
    3   14   24     -0.77     -0.14
    4   14   24     -0.09      0.01
   -4   15   24     -0.50     -0.20
   -2   15   24     -0.16     -0.08
   -1   15   24      0.37     -0.54
    0   15   24      0.34      0.35
    1   15   24     -0.40      0.75
    2   15   24      0.21      0.05
    3   15   24      0.31     -0.66
   -2   16   24     -0.01      0.31
   -1   16   24      0.03      0.17
    0   16   24      0.02     -0.46
    1   16   24      0.10      0.14
   -9    0   25      0.27      0.00
    8    0   25      0.73      0.00
   -9    1   25      0.01     -0.64
    8    1   25     -0.07     -0.01
   -9    2   25     -0.07     -0.16
    8    2   25     -0.31     -0.12
   -9    3   25     -0.23      0.65
    7    4   25     -0.29      0.13
    7    5   25     -0.58     -0.31
    7    6   25      0.00     -0.52
   -8    7   25      0.34      0.73
    4    7   25      0.47      0.12
    6    7   25      0.61      0.41
    7    7   25      0.42      0.38
   -8    8   25      0.11     -0.24
    4    8   25      0.31     -0.49
    6    8   25      0.47     -0.22
   -7    9   25      0.35     -0.10
    4    9   25      0.64     -1.45
    5    9   25     -0.59     -0.34
    6    9   25     -0.30      0.15
   -7   10   25     -0.60      0.73
    4   10   25      0.96      0.37
    5   10   25      0.66      0.03
    6   10   25      0.13     -0.06
   -6   11   25     -0.33      0.59
    4   11   25     -0.53      0.46
    5   11   25      1.00      0.28
   -6   12   25     -0.58      0.77
    4   12   25     -0.51      0.00
   -5   13   25      0.12      0.03
    3   13   25      0.27     -0.34
    4   13   25      0.23      0.22
   -4   14   25      0.09      0.13
   -3   14   25     -0.07      1.03
   -2   14   25      0.74      0.12
   -1   14   25     -0.38      0.10
    0   14   25     -0.55      0.01
    1   14   25      0.58     -0.73
    2   14   25      0.17     -0.59
    3   14   25     -0.34      0.02
   -2   15   25      0.12      0.56
   -1   15   25     -0.01      0.01
    0   15   25      0.06      0.12
    1   15   25      0.11     -0.52
   -8    0   26      0.39      0.00
    7    0   26     -0.88      0.00
   -8    1   26      0.21     -0.45
    7    1   26      0.55     -0.24
   -8    2   26     -0.30     -0.99
    7    2   26      0.50      0.63
   -8    3   26     -0.15      0.28
    7    3   26     -0.32      0.85
   -8    4   26      0.38      0.15
    6    4   26      0.28     -0.71
    7    4   26      0.20     -0.10
   -8    5   26      0.55      0.12
    6    5   26     -0.38     -0.65
    6    6   26     -0.59      0.53
   -7    7   26      0.12      0.28
    5    7   26     -0.48     -0.23
    6    7   26     -0.66      0.30
   -7    8   26      0.27      0.38
    5    8   26     -0.07     -0.72
    6    8   26     -0.07      1.01
    4    9   26     -0.38      0.19
    5    9   26     -0.05     -1.38
   -6   10   26     -0.16     -0.03
    4   10   26      0.59     -0.05
    5   10   26     -0.84     -0.24
   -5   11   26      0.81     -0.19
    4   11   26      0.23      0.37
   -4   12   26      0.21     -0.05
    2   12   26      0.07     -0.69
    3   12   26      0.11      0.27
   -3   13   26      0.35     -0.43
   -2   13   26      0.30      0.09
   -1   13   26     -0.26     -0.76
    0   13   26     -0.41     -0.71
    1   13   26     -0.16      1.01
    2   13   26      0.34      1.20
   -2   14   26      0.41     -0.03
   -1   14   26      0.29      0.15
    0   14   26     -0.01     -0.02
   -7    0   27      0.03      0.00
   -4    0   27     -0.80      0.01
    6    0   27      0.35      0.00
   -4    1   27     -2.47     -0.92
    6    1   27      0.51      0.22
   -4    2   27      0.30      1.63
    6    2   27     -0.82     -0.21
   -4    3   27      0.55      1.79
    6    3   27     -0.03     -0.40
   -7    4   27     -0.37     -0.35
   -6    4   27      0.55      0.47
   -4    4   27     -1.26     -0.61
    5    4   27     -0.83     -0.18
    6    4   27      0.64      0.65
   -7    5   27      0.04     -0.15
   -6    5   27     -0.49     -0.24
    5    5   27      0.21      0.98
    6    5   27      0.35      0.16
   -7    6   27     -0.29      0.27
   -6    6   27      0.08      0.67
    4    6   27      0.39      0.04
    5    6   27      0.48      0.24
    4    7   27     -0.28     -0.07
    5    7   27      0.37      0.35
   -6    8   27      0.17     -0.64
    4    8   27     -0.03      0.37
    5    8   27     -0.27      0.25
   -5    9   27     -0.06      0.41
    4    9   27      0.06      1.12
   -5   10   27      0.09      0.11
    3   10   27     -0.59     -0.12
    4   10   27     -0.35     -0.53
   -4   11   27     -0.47      0.09
   -2   11   27     -0.79      0.02
   -1   11   27     -0.72      0.59
    0   11   27     -0.01     -0.08
    1   11   27     -0.83     -0.83
    2   11   27      0.44     -0.27
    3   11   27      0.12     -0.45
   -3   12   27     -0.33      0.12
   -2   12   27      0.14     -0.91
   -1   12   27     -0.15      0.27
    0   12   27      0.39      1.10
    1   12   27      0.10     -0.24
    2   12   27     -0.06     -0.85
   -7    0   28      0.52      0.00
   -6    0   28      1.46     -0.01
   -5    0   28      0.17      0.01
   -4    0   28      0.95      0.01
    4    0   28     -0.24      0.00
    5    0   28      0.00      0.00
   -7    1   28     -0.65      0.25
   -6    1   28      0.53     -0.30
   -5    1   28      0.36      0.63
   -4    1   28     -1.16     -1.12
    4    1   28     -1.10     -0.61
    5    1   28     -0.42      0.34
   -6    2   28     -0.54      0.10
   -5    2   28      0.27     -0.03
   -4    2   28     -1.48      0.01
    4    2   28     -0.51      0.54
    5    2   28      0.68      0.21
   -6    3   28     -0.81     -0.08
   -5    3   28      0.61     -0.08
   -4    3   28     -0.81      0.66
    4    3   28      0.31      0.64
    5    3   28      0.81     -0.03
   -6    4   28     -0.53     -0.42
   -5    4   28     -0.30     -0.04
   -4    4   28      0.38      0.23
    4    4   28      0.51     -0.21
    5    4   28     -0.79     -0.73
   -6    5   28      0.30      0.15
   -5    5   28      0.16     -0.49
   -4    5   28     -0.10      0.40
    4    5   28     -0.26      0.33
    5    5   28     -0.53     -0.49
   -6    6   28     -0.39      0.35
   -5    6   28      0.73     -0.43
   -4    6   28     -0.43      0.16
    4    6   28      0.51     -0.13
   -5    7   28     -0.30      0.25
   -4    7   28      0.75      0.19
    3    7   28     -1.00     -0.72
    4    7   28      0.25     -0.64
   -5    8   28     -0.59     -0.55
   -4    8   28      0.50      0.57
    3    8   28      0.57      0.08
   -4    9   28      0.10      0.10
   -3    9   28     -0.51      1.02
    0    9   28      0.23     -0.36
    2    9   28     -0.51     -0.88
    3    9   28      0.09     -0.03
   -3   10   28     -0.02      0.12
   -2   10   28      0.08      0.08
   -1   10   28      0.51      0.76
    0   10   28      0.28      0.28
    1   10   28      0.31     -0.50
    2   10   28     -0.61      0.66
   -2   11   28     -0.24      0.81
   -1   11   28     -0.11     -0.18
    0   11   28     -0.82     -0.19
    1   11   28      0.26     -0.03
   -6    0   29     -0.28      0.00
   -5    0   29      0.74      0.00
   -4    0   29      0.69      0.00
    4    0   29      0.70      0.01
   -6    1   29     -0.29     -0.53
   -5    1   29      0.32      0.01
   -4    1   29      1.24      0.65
    4    1   29     -0.22     -0.29
   -5    2   29     -0.71     -0.68
   -4    2   29      0.08     -0.64
    4    2   29     -0.50     -0.59
   -5    3   29      0.24      0.65
   -4    3   29     -0.64     -1.37
    3    3   29     -0.38     -0.78
    4    3   29     -0.34      0.36
   -5    4   29     -0.10      0.50
   -4    4   29     -0.27      0.00
    3    4   29      0.87      0.35
    4    4   29      0.27      0.32
   -5    5   29     -0.04     -0.13
   -4    5   29      0.20     -0.37
    3    5   29      0.03      0.00
   -4    6   29     -0.13      0.03
   -3    6   29      0.52     -1.06
    2    6   29     -0.83      1.00
    3    6   29     -0.61     -0.27
   -4    7   29     -0.84      0.67
   -3    7   29     -0.12     -0.16
   -2    7   29     -0.48      0.68
   -1    7   29      0.42     -0.19
    0    7   29      0.26     -0.63
    1    7   29      0.08     -0.96
    2    7   29      0.45      0.68
    3    7   29     -0.48      0.26
   -3    8   29     -0.43     -0.26
   -2    8   29      1.23      0.96
   -1    8   29     -0.99     -0.75
    0    8   29     -0.18      0.18
    1    8   29     -0.83      0.20
    2    8   29      1.05      0.08
   -2    9   29      0.33     -0.39
   -1    9   29     -0.15     -0.31
    0    9   29      0.19     -0.05
    1    9   29      0.14      0.44
   -4    0   30      0.00      0.00
   -3    0   30      1.61      0.00
    0    0   30     -0.49      0.00
    2    0   30     -0.19     -0.01
    3    0   30     -0.85      0.00
   -4    1   30      0.04      0.58
   -3    1   30      0.48     -0.15
   -1    1   30     -0.94     -0.44
    0    1   30      1.09      1.07
    1    1   30     -0.33     -0.47
    2    1   30     -0.43     -0.10
    3    1   30     -0.11      0.20
   -4    2   30      0.62     -0.12
   -3    2   30     -0.93     -0.33
   -1    2   30     -0.35     -0.11
    0    2   30      0.32      0.32
    1    2   30      0.10      0.15
    2    2   30      0.29     -0.51
    3    2   30      0.68     -0.06
   -4    3   30      0.38     -0.31
   -3    3   30     -0.37      0.09
   -2    3   30      0.20      1.00
   -1    3   30     -0.14      0.30
    0    3   30      0.88     -1.36
    1    3   30     -0.47      0.54
    2    3   30      0.15      0.47
    3    3   30     -0.28     -0.55
   -4    4   30     -0.77     -0.18
   -3    4   30     -1.00      0.06
   -2    4   30      1.16     -0.36
   -1    4   30      0.09     -0.22
    0    4   30     -0.22     -0.39
    1    4   30     -0.27     -0.02
    2    4   30      0.13      0.77
   -3    5   30     -0.23      0.14
   -2    5   30      0.14     -0.64
   -1    5   30     -0.06      0.29
    0    5   30     -0.99      0.04
    1    5   30      0.37      0.30
    2    5   30      0.22     -0.60
   -2    6   30     -0.24     -0.70
   -1    6   30     -0.38      0.67
    0    6   30      0.12      0.40
    1    6   30      0.46      0.26
   -1    7   30      0.92      0.18
    0    7   30     -0.18      0.26
    0    0    0      0.00      0.00
loop_
  _platon_squeeze_void_nr
  _platon_squeeze_void_average_x
  _platon_squeeze_void_average_y
  _platon_squeeze_void_average_z
  _platon_squeeze_void_volume
  _platon_squeeze_void_count_electrons
  _platon_squeeze_void_content
   1 -0.128  0.242  0.812       547       106 ' '
   2  0.101  0.742  0.188       546       106 ' '
   3  0.306  0.863  0.703        21         9 ' '
   4  0.432  0.343  0.550         6         0 ' '
   5  0.568  0.843  0.450         7         0 ' '
   6  0.694  0.363  0.297        21         9 ' '
_platon_squeeze_details
TITL n2285     P 1 21 1     R = 0.15
CELL   12.0918   21.3853   26.0509     90.00     92.82     90.00
SPGR P21
C101 0.663 0.167 0.079 !       6.02 eA-3
C102 0.259 0.318 0.758 !       5.45 eA-3
C103 0.680 0.363 0.291 !       5.00 eA-3
C104 0.807 0.194 0.000 !       4.44 eA-3
C105 0.880 0.739 0.186 !       4.21 eA-3
C106 0.548 0.379 0.800 !       3.93 eA-3
C107 0.795 0.176 0.748 !       3.48 eA-3
C108 0.306 0.712-0.002 !       3.25 eA-3
C109 0.358 0.777 0.297 !       2.46 eA-3
C110 0.494 0.897 0.313 !       2.19 eA-3
C111 0.195 0.305 0.810 !       2.00 eA-3
C112 0.918 0.700 0.170 !       1.99 eA-3
C113 0.767 0.743 0.242 !       1.57 eA-3
C114 0.246 0.675 0.962 !       1.49 eA-3
C115 0.028 0.135 0.711 !       1.47 eA-3
C116 0.299 0.774 0.265 !       1.40 eA-3
Q117 0.692 0.822 0.495 !       1.32 eA-3
Q118 0.812 0.916 0.252 !       1.30 eA-3
C119 0.717 0.205 0.704 !       1.19 eA-3
C120 0.638 0.379 0.725 !       1.04 eA-3
C121 0.561 0.803 0.297 !       0.96 eA-3
Q122 0.256 0.875 0.671 !       0.92 eA-3
C123 0.469 0.370 0.750 !       0.90 eA-3
Q124 0.428 0.641 0.916 !       0.88 eA-3
C125 0.972 0.126 0.814 !       0.85 eA-3
C126 0.792 0.307 0.744 !       0.78 eA-3
C127 0.244 0.830 0.295 !       0.77 eA-3
Q128 0.734 0.167 0.931 !       0.76 eA-3
C129 0.368 0.697 0.875 !       0.75 eA-3
Q130 0.163 0.596 0.250 !       0.73 eA-3
Q131 0.980 0.073 0.729 !       0.69 eA-3
C132 0.421 0.861 0.283 !       0.68 eA-3
C133 0.012 0.589 0.219 !       0.66 eA-3
C134 0.171 0.135 0.789 !       0.65 eA-3
C135 0.435 0.827 0.250 !       0.64 eA-3
Q136 0.488 0.452 0.732 !       0.62 eA-3
Q137 0.745 0.806 0.512 !       0.61 eA-3
Q138 0.353 0.322 0.550 !       0.61 eA-3
C139 0.218 0.748 0.265 !       0.60 eA-3
Q140 0.617 0.676 0.994 !       0.59 eA-3
C141 0.500 0.343 0.718 !       0.56 eA-3
Q142 0.094 0.590 0.264 !       0.55 eA-3
Q143 0.164 0.318 0.414 !       0.55 eA-3
C144 0.634 0.126 0.139 !       0.55 eA-3
Q145 0.046 0.018 0.306 !       0.55 eA-3
Q146 0.935 0.468 0.087 !       0.54 eA-3
Q147 0.427 0.981 0.185 !       0.54 eA-3
Q148 0.537 0.899 0.367 !       0.54 eA-3
C149 0.905 0.627 0.177 !       0.53 eA-3
Q150 0.852 0.533 0.700 !       0.53 eA-3
C151 0.592 0.380 0.255 !       0.52 eA-3
Q152 0.644 0.383 0.325 !       0.52 eA-3
C153 0.982 0.664 0.224 !       0.51 eA-3
C154 0.643 0.314 0.748 !       0.51 eA-3
Q155 0.612 0.828 0.488 !       0.51 eA-3
C156 0.508 0.434 0.802 !       0.51 eA-3
C157 0.088 0.062 0.671 !       0.51 eA-3
Q158 0.176 0.325 0.483 !       0.51 eA-3
;
#END Tags that were not found in dictionaries
loop_
_space_group_symop_operation_xyz
'x, y, z'
'-x, y+1/2, -z'
loop_
_atom_site_label
_atom_site_type_symbol
_atom_site_fract_x
_atom_site_fract_y
_atom_site_fract_z
_atom_site_U_iso_or_equiv
_atom_site_adp_type
_atom_site_occupancy
_atom_site_site_symmetry_order
_atom_site_calc_flag
_atom_site_refinement_flags_posn
_atom_site_refinement_flags_adp
O1 O 0.4327(9) 0.2410(4) -0.1239(3) 0.0629(19) Uani 1 1 d . U
O2 O 0.3962(6) 0.0888(3) 0.0463(3) 0.0441(13) Uani 1 1 d . U
O3 O 0.6533(8) 0.0562(4) -0.0982(3) 0.0639(18) Uani 1 1 d . U
O4 O 0.7319(9) -0.0464(4) 0.0957(3) 0.072(2) Uani 1 1 d . U
O5 O 1.0559(8) 0.0481(4) -0.0248(4) 0.0714(19) Uani 1 1 d . U
O6 O 0.9849(9) 0.1555(4) 0.1637(4) 0.078(2) Uani 1 1 d . U
O7 O 1.1025(6) 0.2740(4) 0.0014(3) 0.0532(15) Uani 1 1 d . U
O8 O 0.8070(6) 0.3613(4) 0.1401(3) 0.0450(13) Uani 1 1 d . U
O9 O 1.0160(9) 0.3938(7) -0.2079(4) 0.093(3) Uani 1 1 d . U
O10 O 1.1374(15) 0.4920(9) -0.2591(6) 0.141(4) Uani 1 1 d . U
H10 H 1.1876 0.5154 -0.2467 0.212 Uiso 1 1 calc R .
O11 O 0.2029(6) 0.2771(3) 0.2288(3) 0.0427(12) Uani 1 1 d . U
O12 O -0.0104(7) 0.2696(3) 0.2538(3) 0.0559(16) Uani 1 1 d . U
H12 H -0.0016 0.2518 0.2825 0.084 Uiso 1 1 calc GR .
N1 N 0.9079(13) 0.4792(6) -0.2366(4) 0.079(3) Uani 1 1 d . U
N2 N 0.1418(7) 0.3776(4) 0.2219(3) 0.0438(16) Uani 1 1 d . U
C1 C 0.4479(9) 0.1393(5) -0.0840(4) 0.0424(18) Uani 1 1 d . U
H1 H 0.4702 0.1222 -0.1155 0.051 Uiso 1 1 calc R .
C1B C 0.4723(14) 0.2134(6) -0.1680(4) 0.066(2) Uani 1 1 d . U
H1BA H 0.4627 0.2424 -0.1970 0.099 Uiso 1 1 calc GR .
H1BB H 0.4310 0.1748 -0.1757 0.099 Uiso 1 1 calc GR .
H1BC H 0.5511 0.2035 -0.1621 0.099 Uiso 1 1 calc GR .
C2 C 0.3903(9) 0.2292(4) -0.0366(4) 0.0358(17) Uani 1 1 d . U
C3 C 0.3719(8) 0.3001(5) -0.0311(4) 0.0376(17) Uani 1 1 d . U
H3A H 0.3464 0.3179 -0.0647 0.045 Uiso 1 1 calc R .
H3B H 0.3139 0.3079 -0.0063 0.045 Uiso 1 1 calc R .
C4 C 0.7427(13) 0.0786(7) -0.1250(5) 0.0652(19) Uani 1 1 d . U
H4A H 0.7252 0.0755 -0.1621 0.098 Uiso 1 1 calc R .
H4B H 0.8088 0.0537 -0.1160 0.098 Uiso 1 1 calc R .
H4C H 0.7566 0.1225 -0.1158 0.098 Uiso 1 1 calc R .
C5 C 0.4410(9) 0.1001(5) -0.0400(4) 0.0392(17) Uani 1 1 d . U
C6 C 0.4221(9) 0.2025(5) -0.0807(4) 0.0435(19) Uani 1 1 d . U
C7 C 0.3811(8) 0.1925(4) 0.0057(4) 0.0355(16) Uani 1 1 d . U
H7 H 0.3563 0.2107 0.0364 0.043 Uiso 1 1 calc R .
C8 C 0.4074(9) 0.1279(5) 0.0052(4) 0.0390(18) Uani 1 1 d . U
C9 C 0.3716(10) 0.1140(5) 0.0931(4) 0.0453(15) Uani 1 1 d . U
H9A H 0.3028 0.1381 0.0892 0.068 Uiso 1 1 calc GR .
H9B H 0.4320 0.1416 0.1053 0.068 Uiso 1 1 calc GR .
H9C H 0.3626 0.0803 0.1180 0.068 Uiso 1 1 calc GR .
C10 C 0.4678(9) 0.0336(5) -0.0416(4) 0.0427(17) Uani 1 1 d . U
H10A H 0.4589 0.0186 -0.0775 0.051 Uiso 1 1 calc R .
H10B H 0.4150 0.0102 -0.0210 0.051 Uiso 1 1 calc R .
C11 C 0.5851(10) 0.0203(5) -0.0210(4) 0.0459(18) Uani 1 1 d . U
C12 C 0.6806(10) 0.0318(5) -0.0504(4) 0.0487(19) Uani 1 1 d . U
C14 C 0.7883(11) 0.0163(5) -0.0305(5) 0.059(2) Uani 1 1 d . U
H14 H 0.8501 0.0225 -0.0511 0.070 Uiso 1 1 calc R .
C15 C 0.7130(12) -0.0207(5) 0.0475(5) 0.058(2) Uani 1 1 d . U
C16 C 0.6074(11) -0.0086(5) 0.0284(4) 0.0465(18) Uani 1 1 d . U
H16 H 0.5469 -0.0197 0.0484 0.056 Uiso 1 1 calc R .
C17 C 0.8037(11) -0.0069(5) 0.0167(5) 0.058(2) Uani 1 1 d . U
C18 C 0.6484(14) -0.0503(7) 0.1288(5) 0.071(2) Uani 1 1 d . U
H18A H 0.5773 -0.0530 0.1092 0.106 Uiso 1 1 calc R .
H18B H 0.6491 -0.0130 0.1506 0.106 Uiso 1 1 calc R .
H18C H 0.6588 -0.0876 0.1503 0.106 Uiso 1 1 calc R .
C19 C 0.9209(13) -0.0170(6) 0.0383(7) 0.078(3) Uani 1 1 d . U
H19A H 0.9647 -0.0384 0.0124 0.094 Uiso 1 1 calc R .
H19B H 0.9197 -0.0441 0.0691 0.094 Uiso 1 1 calc R .
C20 C 0.9763(11) 0.0462(5) 0.0531(6) 0.063(2) Uani 1 1 d . U
C21 C 1.0430(12) 0.0764(6) 0.0216(6) 0.066(2) Uani 1 1 d . U
C22 C 1.0919(10) 0.1339(6) 0.0355(6) 0.061(2) Uani 1 1 d . U
H22 H 1.1377 0.1557 0.0129 0.073 Uiso 1 1 calc R .
C23 C 1.0699(9) 0.1587(5) 0.0855(5) 0.0555(19) Uani 1 1 d . U
C24 C 0.9986(11) 0.1275(6) 0.1151(6) 0.063(2) Uani 1 1 d . U
C25 C 0.9561(10) 0.0698(6) 0.1014(6) 0.068(2) Uani 1 1 d . U
H25 H 0.9137 0.0465 0.1245 0.081 Uiso 1 1 calc R .
C26 C 1.1260(12) 0.0810(6) -0.0612(6) 0.072(2) Uani 1 1 d . U
H26A H 1.1209 0.0597 -0.0945 0.109 Uiso 1 1 calc GR .
H26B H 1.2032 0.0808 -0.0477 0.109 Uiso 1 1 calc GR .
H26C H 1.1005 0.1242 -0.0654 0.109 Uiso 1 1 calc GR .
C27 C 0.8896(15) 0.1420(7) 0.1875(6) 0.079(2) Uani 1 1 d . U
H27A H 0.8297 0.1344 0.1616 0.119 Uiso 1 1 calc R .
H27B H 0.8700 0.1773 0.2092 0.119 Uiso 1 1 calc R .
H27C H 0.9009 0.1046 0.2089 0.119 Uiso 1 1 calc R .
C28 C 1.1155(10) 0.2226(5) 0.0993(5) 0.055(2) Uani 1 1 d . U
H28A H 1.1334 0.2245 0.1368 0.066 Uiso 1 1 calc R .
H28B H 1.1849 0.2296 0.0815 0.066 Uiso 1 1 calc R .
C29 C 1.0349(8) 0.2730(5) 0.0847(4) 0.0397(15) Uani 1 1 d . U
C30 C 1.0302(8) 0.2970(5) 0.0341(4) 0.0443(18) Uani 1 1 d . U
C31 C 0.9503(8) 0.3448(4) 0.0204(4) 0.0340(16) Uani 1 1 d . U
H31 H 0.9474 0.3619 -0.0133 0.041 Uiso 1 1 calc R .
C32 C 0.8763(8) 0.3665(4) 0.0565(4) 0.0326(15) Uani 1 1 d . U
C33 C 0.8801(8) 0.3408(4) 0.1041(4) 0.0370(16) Uani 1 1 d . U
C34 C 0.9629(8) 0.2962(4) 0.1190(4) 0.0388(16) Uani 1 1 d . U
H34 H 0.9682 0.2820 0.1536 0.047 Uiso 1 1 calc R .
C35 C 1.0885(10) 0.2899(6) -0.0504(5) 0.0543(17) Uani 1 1 d . U
H35A H 1.1394 0.2653 -0.0704 0.081 Uiso 1 1 calc GR .
H35B H 1.1042 0.3345 -0.0547 0.081 Uiso 1 1 calc GR .
H35C H 1.0120 0.2812 -0.0625 0.081 Uiso 1 1 calc GR .
C36 C 0.7527(9) 0.3153(5) 0.1665(4) 0.0464(15) Uani 1 1 d . U
H36A H 0.7164 0.2863 0.1419 0.070 Uiso 1 1 calc R .
H36B H 0.6969 0.3346 0.1875 0.070 Uiso 1 1 calc R .
H36C H 0.8063 0.2924 0.1888 0.070 Uiso 1 1 calc R .
C37 C 0.7908(8) 0.4158(4) 0.0389(4) 0.0365(16) Uani 1 1 d . U
H37A H 0.7771 0.4439 0.0681 0.044 Uiso 1 1 calc R .
H37B H 0.8218 0.4413 0.0113 0.044 Uiso 1 1 calc R .
C38 C 0.6836(8) 0.3887(4) 0.0194(4) 0.0331(16) Uani 1 1 d . U
C39 C 0.6619(8) 0.3742(4) -0.0336(4) 0.0359(16) Uani 1 1 d . U
C40 C 0.5622(8) 0.3462(4) -0.0476(4) 0.0360(17) Uani 1 1 d . U
H40 H 0.5475 0.3360 -0.0827 0.043 Uiso 1 1 calc R .
C41 C 0.4804(8) 0.3318(4) -0.0122(4) 0.0362(16) Uani 1 1 d . U
C42 C 0.4982(8) 0.3512(4) 0.0386(4) 0.0338(16) Uani 1 1 d . U
C43 C 0.6041(8) 0.3757(4) 0.0535(4) 0.0339(16) Uani 1 1 d . U
H43 H 0.6207 0.3834 0.0889 0.041 Uiso 1 1 calc R .
C44 C 0.7361(8) 0.3899(5) -0.0747(4) 0.0368(17) Uani 1 1 d . U
C45 C 0.7609(8) 0.4516(5) -0.0857(4) 0.0359(17) Uani 1 1 d . U
H45 H 0.7341 0.4839 -0.0645 0.043 Uiso 1 1 calc R .
C46 C 0.8254(9) 0.4677(6) -0.1280(4) 0.046(2) Uani 1 1 d . U
H46 H 0.8416 0.5101 -0.1358 0.055 Uiso 1 1 calc R .
C47 C 0.8641(10) 0.4182(7) -0.1576(4) 0.053(2) Uani 1 1 d . U
C48 C 0.8458(11) 0.3573(7) -0.1462(4) 0.060(2) Uani 1 1 d . U
H48 H 0.8771 0.3250 -0.1658 0.072 Uiso 1 1 calc R .
C49 C 0.7788(10) 0.3424(5) -0.1042(4) 0.051(2) Uani 1 1 d . U
H49 H 0.7635 0.3000 -0.0965 0.061 Uiso 1 1 calc R .
C50 C 0.9365(14) 0.4319(11) -0.2025(6) 0.090(3) Uani 1 1 d . U
C51 C 0.805(2) 0.5132(9) -0.2369(7) 0.106(5) Uani 1 1 d . U
H51A H 0.8152 0.5559 -0.2229 0.128 Uiso 1 1 calc R .
H51B H 0.7490 0.4909 -0.2170 0.128 Uiso 1 1 calc R .
C52 C 0.770(2) 0.5146(11) -0.2961(6) 0.121(5) Uani 1 1 d . U
H52A H 0.7355 0.4745 -0.3072 0.145 Uiso 1 1 calc R .
H52B H 0.7167 0.5490 -0.3040 0.145 Uiso 1 1 calc R .
C53 C 0.865(2) 0.5241(12) -0.3188(7) 0.117(5) Uani 1 1 d . U
H53A H 0.8804 0.5694 -0.3205 0.141 Uiso 1 1 calc R .
H53B H 0.8590 0.5075 -0.3543 0.141 Uiso 1 1 calc R .
C54 C 0.9692(19) 0.4868(10) -0.2842(7) 0.104(4) Uani 1 1 d . U
H54 H 0.9880 0.4456 -0.2998 0.125 Uiso 1 1 calc R .
C55 C 1.0550(18) 0.5290(13) -0.2864(9) 0.141(5) Uani 1 1 d . U
H55A H 1.0395 0.5685 -0.2684 0.169 Uiso 1 1 calc R .
H55B H 1.0745 0.5379 -0.3221 0.169 Uiso 1 1 calc R .
C56 C 0.4199(8) 0.3431(4) 0.0800(4) 0.0356(17) Uani 1 1 d . U
C57 C 0.3111(8) 0.3708(4) 0.0762(4) 0.0353(17) Uani 1 1 d . U
H57 H 0.2857 0.3898 0.0448 0.042 Uiso 1 1 calc R .
C58 C 0.2453(8) 0.3702(4) 0.1161(4) 0.0332(16) Uani 1 1 d . U
H58 H 0.1765 0.3917 0.1133 0.040 Uiso 1 1 calc R .
C59 C 0.2762(8) 0.3380(4) 0.1628(4) 0.0351(16) Uani 1 1 d . U
C60 C 0.3801(9) 0.3083(5) 0.1664(4) 0.0394(18) Uani 1 1 d . U
H60 H 0.4028 0.2864 0.1968 0.047 Uiso 1 1 calc R .
C61 C 0.4491(9) 0.3108(5) 0.1259(4) 0.0393(18) Uani 1 1 d . U
H61 H 0.5186 0.2901 0.1290 0.047 Uiso 1 1 calc R .
C62 C 0.2044(9) 0.3289(5) 0.2057(4) 0.0407(13) Uani 1 1 d . U
C63 C 0.1471(11) 0.4430(5) 0.2049(4) 0.050(2) Uani 1 1 d . U
H63A H 0.0870 0.4527 0.1790 0.059 Uiso 1 1 calc R .
H63B H 0.2194 0.4525 0.1904 0.059 Uiso 1 1 calc R .
C64 C 0.1322(11) 0.4795(5) 0.2556(4) 0.054(2) Uani 1 1 d . U
H64A H 0.2043 0.4855 0.2746 0.064 Uiso 1 1 calc R .
H64B H 0.0987 0.5211 0.2484 0.064 Uiso 1 1 calc R .
C65 C 0.0578(10) 0.4406(6) 0.2855(4) 0.052(2) Uani 1 1 d . U
H65A H -0.0206 0.4511 0.2767 0.062 Uiso 1 1 calc R .
H65B H 0.0726 0.4474 0.3228 0.062 Uiso 1 1 calc R .
C66 C 0.0830(9) 0.3702(5) 0.2707(4) 0.0457(18) Uani 1 1 d . U
H66 H 0.1312 0.3493 0.2978 0.055 Uiso 1 1 calc R .
C67 C -0.0253(10) 0.3355(4) 0.2614(5) 0.0553(17) Uani 1 1 d . U
H67A H -0.0716 0.3420 0.2913 0.066 Uiso 1 1 calc R .
H67B H -0.0654 0.3533 0.2308 0.066 Uiso 1 1 calc R .
O1A O -0.0632(9) 0.2800(4) 0.6231(3) 0.065(2) Uani 1 1 d . U
O2A O -0.0954(6) 0.4331(3) 0.4515(3) 0.0395(13) Uani 1 1 d . U
O3A O 0.1770(8) 0.4617(4) 0.6018(3) 0.0623(17) Uani 1 1 d . U
O4A O 0.2393(8) 0.5641(4) 0.4111(3) 0.0640(17) Uani 1 1 d . U
O5A O 0.5737(8) 0.4675(5) 0.5371(4) 0.0685(19) Uani 1 1 d . U
O6A O 0.4719(7) 0.3632(4) 0.3469(3) 0.0530(15) Uani 1 1 d . U
O7A O 0.5894(6) 0.2423(3) 0.5120(3) 0.0455(13) Uani 1 1 d . U
O8A O 0.2774(6) 0.1565(3) 0.3653(3) 0.0452(14) Uani 1 1 d . U
O9A O 0.5090(7) 0.0979(4) 0.7269(3) 0.0556(16) Uani 1 1 d . U
O10A O 0.6077(6) 0.0002(4) 0.7783(3) 0.0581(17) Uani 1 1 d . U
H10C H 0.6025 0.0393 0.7771 0.087 Uiso 1 1 calc R .
O11A O -0.3676(7) 0.2346(4) 0.2706(3) 0.0525(15) Uani 1 1 d . U
O12A O -0.6762(6) 0.1611(4) 0.2071(3) 0.0504(15) Uani 1 1 d . U
H12A H -0.7400 0.1595 0.2184 0.076 Uiso 1 1 calc GR .
N1A N 0.3662(8) 0.0334(4) 0.7461(3) 0.0433(16) Uani 1 1 d . U
N2A N -0.4110(8) 0.1327(4) 0.2787(3) 0.0448(16) Uani 1 1 d . U
C1A C -0.0395(10) 0.3826(5) 0.5832(4) 0.049(2) Uani 1 1 d . U
H1A H -0.0118 0.4003 0.6147 0.059 Uiso 1 1 calc R .
C1AA C 0.2665(12) 0.4304(6) 0.6291(5) 0.0636(18) Uani 1 1 d . U
H1AA H 0.2973 0.3985 0.6070 0.095 Uiso 1 1 calc GR .
H1AB H 0.2393 0.4106 0.6600 0.095 Uiso 1 1 calc GR .
H1AC H 0.3243 0.4609 0.6391 0.095 Uiso 1 1 calc GR .
C1BA C -0.0264(14) 0.3015(6) 0.6701(5) 0.068(2) Uani 1 1 d . U
H1BD H 0.0498 0.3167 0.6682 0.103 Uiso 1 1 calc GR .
H1BE H -0.0282 0.2675 0.6953 0.103 Uiso 1 1 calc GR .
H1BF H -0.0741 0.3358 0.6806 0.103 Uiso 1 1 calc GR .
C2A C -0.1063(9) 0.2927(4) 0.5355(4) 0.0376(17) Uani 1 1 d . U
C3A C -0.1346(9) 0.2241(5) 0.5303(4) 0.0382(17) Uani 1 1 d . U
H3AA H -0.1986 0.2187 0.5056 0.046 Uiso 1 1 calc R .
H3AB H -0.1553 0.2074 0.5640 0.046 Uiso 1 1 calc R .
C5A C -0.0476(9) 0.4198(4) 0.5388(4) 0.0374(17) Uani 1 1 d . U
C6A C -0.0717(10) 0.3198(5) 0.5818(4) 0.044(2) Uani 1 1 d . U
C7A C -0.1167(8) 0.3306(4) 0.4910(4) 0.0347(16) Uani 1 1 d . U
H7A H -0.1441 0.3130 0.4594 0.042 Uiso 1 1 calc R .
C8A C -0.0866(8) 0.3943(4) 0.4932(4) 0.0349(16) Uani 1 1 d . U
C9A C -0.1312(9) 0.4066(5) 0.4019(4) 0.0403(14) Uani 1 1 d . U
H9AA H -0.1349 0.4398 0.3759 0.060 Uiso 1 1 calc GR .
H9AB H -0.2046 0.3877 0.4043 0.060 Uiso 1 1 calc GR .
H9AC H -0.0783 0.3746 0.3920 0.060 Uiso 1 1 calc GR .
C10A C -0.0119(10) 0.4890(5) 0.5418(4) 0.0463(18) Uani 1 1 d . U
H10D H -0.0655 0.5145 0.5208 0.056 Uiso 1 1 calc R .
H10E H -0.0142 0.5034 0.5778 0.056 Uiso 1 1 calc R .
C11A C 0.1003(10) 0.4997(4) 0.5236(4) 0.0439(18) Uani 1 1 d . U
C12A C 0.1918(11) 0.4880(5) 0.5556(5) 0.051(2) Uani 1 1 d . U
C14A C 0.2979(11) 0.4970(5) 0.5365(6) 0.061(2) Uani 1 1 d . U
H14A H 0.3612 0.4839 0.5567 0.073 Uiso 1 1 calc R .
C15A C 0.2237(10) 0.5377(5) 0.4590(5) 0.052(2) Uani 1 1 d . U
C16A C 0.1175(10) 0.5254(5) 0.4747(5) 0.0481(19) Uani 1 1 d . U
H16A H 0.0554 0.5345 0.4521 0.058 Uiso 1 1 calc R .
C17A C 0.3122(9) 0.5246(4) 0.4889(5) 0.0475(17) Uani 1 1 d . U
C18A C 0.1501(12) 0.5749(6) 0.3780(5) 0.0641(18) Uani 1 1 d . U
H18D H 0.1728 0.5714 0.3426 0.096 Uiso 1 1 calc R .
H18E H 0.1214 0.6171 0.3838 0.096 Uiso 1 1 calc R .
H18F H 0.0922 0.5441 0.3840 0.096 Uiso 1 1 calc R .
C19A C 0.4280(11) 0.5356(6) 0.4703(6) 0.065(2) Uani 1 1 d . U
H19C H 0.4238 0.5634 0.4399 0.078 Uiso 1 1 calc R .
H19D H 0.4740 0.5565 0.4977 0.078 Uiso 1 1 calc R .
C20A C 0.4817(9) 0.4739(5) 0.4563(5) 0.0508(18) Uani 1 1 d . U
C21A C 0.5490(9) 0.4414(5) 0.4897(5) 0.0476(19) Uani 1 1 d . U
C22A C 0.5916(9) 0.3829(5) 0.4761(4) 0.0425(18) Uani 1 1 d . U
H22A H 0.6393 0.3607 0.4998 0.051 Uiso 1 1 calc R .
C23A C 0.5634(8) 0.3569(5) 0.4270(4) 0.0399(17) Uani 1 1 d . U
C24A C 0.4958(9) 0.3904(5) 0.3932(4) 0.0442(18) Uani 1 1 d . U
C25A C 0.4556(10) 0.4499(5) 0.4078(5) 0.051(2) Uani 1 1 d . U
H25A H 0.4103 0.4734 0.3841 0.061 Uiso 1 1 calc R .
C26A C 0.6453(12) 0.4336(7) 0.5714(6) 0.069(2) Uani 1 1 d . U
H26D H 0.7214 0.4368 0.5602 0.104 Uiso 1 1 calc GR .
H26E H 0.6227 0.3896 0.5715 0.104 Uiso 1 1 calc GR .
H26F H 0.6416 0.4510 0.6060 0.104 Uiso 1 1 calc GR .
C27A C 0.3859(11) 0.3931(6) 0.3137(4) 0.0545(16) Uani 1 1 d . U
H27D H 0.3655 0.3655 0.2848 0.082 Uiso 1 1 calc GR .
H27E H 0.4140 0.4327 0.3007 0.082 Uiso 1 1 calc GR .
H27F H 0.3206 0.4012 0.3336 0.082 Uiso 1 1 calc GR .
C28A C 0.6004(9) 0.2929(5) 0.4148(4) 0.0381(16) Uani 1 1 d . U
H28C H 0.6706 0.2840 0.4345 0.046 Uiso 1 1 calc R .
H28D H 0.6148 0.2905 0.3777 0.046 Uiso 1 1 calc R .
C29A C 0.5138(8) 0.2430(4) 0.4275(4) 0.0365(16) Uani 1 1 d . U
C30A C 0.5087(8) 0.2189(4) 0.4769(4) 0.0347(16) Uani 1 1 d . U
C31A C 0.4319(8) 0.1739(4) 0.4881(4) 0.0357(17) Uani 1 1 d . U
H31A H 0.4322 0.1572 0.5219 0.043 Uiso 1 1 calc R .
C32A C 0.3534(8) 0.1522(4) 0.4510(4) 0.0332(15) Uani 1 1 d . U
C33A C 0.3569(8) 0.1776(4) 0.4025(3) 0.0343(16) Uani 1 1 d . U
C34A C 0.4347(9) 0.2234(5) 0.3915(4) 0.0392(18) Uani 1 1 d . U
H34A H 0.4328 0.2414 0.3581 0.047 Uiso 1 1 calc R .
C35A C 0.5828(9) 0.2229(5) 0.5644(4) 0.0463(15) Uani 1 1 d . U
H35D H 0.5841 0.1771 0.5662 0.069 Uiso 1 1 calc GR .
H35E H 0.5138 0.2384 0.5780 0.069 Uiso 1 1 calc GR .
H35F H 0.6461 0.2398 0.5849 0.069 Uiso 1 1 calc GR .
C36A C 0.2186(10) 0.2067(5) 0.3386(4) 0.0464(15) Uani 1 1 d . U
H36D H 0.1643 0.1890 0.3135 0.070 Uiso 1 1 calc GR .
H36E H 0.2713 0.2327 0.3208 0.070 Uiso 1 1 calc GR .
H36F H 0.1804 0.2323 0.3634 0.070 Uiso 1 1 calc GR .
C37A C 0.2680(8) 0.1036(4) 0.4638(4) 0.0341(15) Uani 1 1 d . U
H37C H 0.2495 0.0782 0.4329 0.041 Uiso 1 1 calc R .
H37D H 0.3002 0.0754 0.4907 0.041 Uiso 1 1 calc R .
C38A C 0.1652(8) 0.1317(4) 0.4822(3) 0.0293(14) Uani 1 1 d . U
C39A C 0.1478(8) 0.1458(4) 0.5347(4) 0.0321(15) Uani 1 1 d . U
C40A C 0.0502(8) 0.1751(4) 0.5478(4) 0.0355(16) Uani 1 1 d . U
H40A H 0.0416 0.1865 0.5826 0.043 Uiso 1 1 calc R .
C41A C -0.0349(8) 0.1881(4) 0.5117(4) 0.0360(16) Uani 1 1 d . U
C42A C -0.0213(8) 0.1721(4) 0.4607(4) 0.0331(16) Uani 1 1 d . U
C43A C 0.0770(8) 0.1454(4) 0.4473(4) 0.0357(16) Uani 1 1 d . U
H43A H 0.0854 0.1357 0.4121 0.043 Uiso 1 1 calc R .
C44A C 0.2289(8) 0.1276(4) 0.5779(3) 0.0329(16) Uani 1 1 d . U
C45A C 0.2545(8) 0.0651(4) 0.5878(4) 0.0323(17) Uani 1 1 d . U
H45A H 0.2308 0.0340 0.5636 0.039 Uiso 1 1 calc R .
C46A C 0.3130(9) 0.0476(5) 0.6315(4) 0.041(2) Uani 1 1 d . U
H46A H 0.3250 0.0045 0.6386 0.049 Uiso 1 1 calc R .
C47A C 0.3549(9) 0.0921(5) 0.6653(4) 0.043(2) Uani 1 1 d . U
C48A C 0.3365(9) 0.1544(5) 0.6542(4) 0.044(2) Uani 1 1 d . U
H48A H 0.3673 0.1855 0.6766 0.052 Uiso 1 1 calc R .
C49A C 0.2744(9) 0.1722(4) 0.6110(4) 0.041(2) Uani 1 1 d . U
H49A H 0.2626 0.2153 0.6040 0.049 Uiso 1 1 calc R .
C50A C 0.4160(10) 0.0761(6) 0.7153(5) 0.0535(16) Uani 1 1 d . U
C51A C 0.2507(10) 0.0127(6) 0.7435(5) 0.053(2) Uani 1 1 d . U
H51C H 0.2447 -0.0306 0.7303 0.064 Uiso 1 1 calc R .
H51D H 0.2049 0.0404 0.7206 0.064 Uiso 1 1 calc R .
C52A C 0.2134(10) 0.0160(6) 0.7975(5) 0.057(3) Uani 1 1 d . U
H52C H 0.1511 -0.0129 0.8028 0.068 Uiso 1 1 calc R .
H52D H 0.1915 0.0591 0.8067 0.068 Uiso 1 1 calc R .
C53A C 0.3193(10) -0.0047(6) 0.8282(4) 0.052(2) Uani 1 1 d . U
H53C H 0.3202 0.0120 0.8637 0.062 Uiso 1 1 calc R .
H53D H 0.3238 -0.0508 0.8298 0.062 Uiso 1 1 calc R .
C54A C 0.4142(9) 0.0216(6) 0.7997(4) 0.0452(19) Uani 1 1 d . U
H54A H 0.4393 0.0620 0.8158 0.054 Uiso 1 1 calc R .
C55A C 0.5117(9) -0.0252(6) 0.8004(5) 0.0577(17) Uani 1 1 d . U
H55C H 0.5309 -0.0377 0.8363 0.069 Uiso 1 1 calc R .
H55D H 0.4882 -0.0633 0.7811 0.069 Uiso 1 1 calc R .
C56A C -0.1103(8) 0.1785(4) 0.4201(4) 0.0344(17) Uani 1 1 d . U
C57A C -0.2140(8) 0.1493(4) 0.4231(4) 0.0327(16) Uani 1 1 d . U
H57A H -0.2310 0.1283 0.4539 0.039 Uiso 1 1 calc R .
C58A C -0.2905(8) 0.1504(4) 0.3830(3) 0.0333(16) Uani 1 1 d . U
H58A H -0.3589 0.1294 0.3865 0.040 Uiso 1 1 calc R .
C59A C -0.2719(8) 0.1814(4) 0.3368(4) 0.0373(18) Uani 1 1 d . U
C60A C -0.1692(8) 0.2118(5) 0.3346(4) 0.0400(18) Uani 1 1 d . U
H60A H -0.1535 0.2338 0.3041 0.048 Uiso 1 1 calc R .
C61A C -0.0909(9) 0.2113(5) 0.3743(4) 0.0396(19) Uani 1 1 d . U
H61A H -0.0230 0.2330 0.3710 0.048 Uiso 1 1 calc R .
C62A C -0.3517(10) 0.1849(6) 0.2938(4) 0.0505(16) Uani 1 1 d . U
C63A C -0.3764(13) 0.0696(6) 0.2946(5) 0.068(3) Uani 1 1 d . U
H63C H -0.4221 0.0527 0.3219 0.081 Uiso 1 1 calc R .
H63D H -0.2971 0.0678 0.3059 0.081 Uiso 1 1 calc R .
C64A C -0.3997(16) 0.0372(7) 0.2433(6) 0.088(4) Uani 1 1 d . U
H64C H -0.3385 0.0448 0.2202 0.106 Uiso 1 1 calc R .
H64D H -0.4070 -0.0085 0.2484 0.106 Uiso 1 1 calc R .
C65A C -0.5059(15) 0.0637(7) 0.2204(6) 0.082(4) Uani 1 1 d . U
H65C H -0.5712 0.0453 0.2362 0.099 Uiso 1 1 calc R .
H65D H -0.5125 0.0575 0.1827 0.099 Uiso 1 1 calc R .
C66A C -0.4919(10) 0.1319(6) 0.2342(4) 0.052(2) Uani 1 1 d . U
H66A H -0.4603 0.1547 0.2048 0.063 Uiso 1 1 calc R .
C67A C -0.5965(9) 0.1636(5) 0.2488(4) 0.0497(16) Uani 1 1 d . U
H67C H -0.6258 0.1425 0.2791 0.060 Uiso 1 1 calc R .
H67D H -0.5807 0.2077 0.2580 0.060 Uiso 1 1 calc R .
Cl1 Cl 0.1668(3) 0.36042(18) 0.41455(14) 0.0755(9) Uani 1 1 d . U
Cl2 Cl 0.2011(4) 0.30945(19) 0.51548(18) 0.0912(12) Uani 1 1 d . U
C68 C 0.2641(12) 0.3430(9) 0.4646(5) 0.083(5) Uani 1 1 d . U
H68A H 0.3204 0.3139 0.4519 0.099 Uiso 1 1 calc R .
H68B H 0.3023 0.3818 0.4761 0.099 Uiso 1 1 calc R .
loop_
_atom_site_aniso_label
_atom_site_aniso_U_11
_atom_site_aniso_U_22
_atom_site_aniso_U_33
_atom_site_aniso_U_23
_atom_site_aniso_U_13
_atom_site_aniso_U_12
O1 0.096(6) 0.051(3) 0.043(3) 0.003(3) 0.013(3) -0.001(4)
O2 0.048(4) 0.040(3) 0.044(2) 0.006(2) 0.001(3) 0.003(3)
O3 0.067(5) 0.064(4) 0.062(4) -0.006(3) 0.013(3) 0.005(4)
O4 0.085(6) 0.057(4) 0.072(4) -0.009(3) -0.017(3) 0.019(4)
O5 0.063(5) 0.040(4) 0.108(5) -0.027(3) -0.016(4) 0.008(3)
O6 0.086(5) 0.049(4) 0.097(5) -0.010(4) -0.007(4) -0.001(4)
O7 0.038(3) 0.052(4) 0.069(3) -0.025(3) 0.002(3) 0.012(3)
O8 0.035(3) 0.049(3) 0.052(3) 0.010(3) 0.004(2) 0.002(2)
O9 0.058(5) 0.151(7) 0.071(4) 0.000(4) 0.023(3) 0.028(4)
O10 0.125(8) 0.177(12) 0.127(9) 0.025(8) 0.055(7) -0.037(9)
O11 0.040(3) 0.042(2) 0.045(3) 0.003(2) -0.003(2) 0.002(2)
O12 0.045(4) 0.058(3) 0.065(4) 0.002(3) 0.010(3) -0.015(3)
N1 0.104(7) 0.071(6) 0.065(5) -0.001(4) 0.038(5) -0.008(5)
N2 0.033(4) 0.041(3) 0.058(4) -0.002(3) 0.005(3) -0.001(3)
C1 0.045(5) 0.039(3) 0.043(3) -0.011(3) -0.003(4) -0.005(4)
C1B 0.098(6) 0.054(4) 0.046(3) 0.004(3) 0.013(4) 0.000(4)
C2 0.037(5) 0.033(3) 0.037(3) -0.001(3) -0.004(4) -0.002(3)
C3 0.024(4) 0.040(3) 0.048(5) 0.007(3) -0.003(3) 0.003(3)
C4 0.068(5) 0.066(5) 0.063(4) -0.006(3) 0.014(3) 0.004(4)
C5 0.034(5) 0.039(4) 0.045(3) 0.001(3) 0.000(4) -0.009(3)
C6 0.047(6) 0.043(4) 0.039(3) 0.003(3) -0.007(4) -0.005(4)
C7 0.024(4) 0.035(3) 0.047(3) 0.003(3) 0.004(4) -0.013(4)
C8 0.038(5) 0.034(3) 0.045(3) 0.003(3) -0.003(4) 0.000(4)
C9 0.049(4) 0.042(3) 0.045(3) 0.008(3) 0.001(3) 0.003(3)
C10 0.046(4) 0.039(3) 0.044(5) -0.010(3) 0.000(3) -0.015(4)
C11 0.056(4) 0.032(4) 0.050(4) -0.016(4) 0.000(3) 0.004(4)
C12 0.049(4) 0.045(5) 0.053(4) -0.020(4) 0.006(3) -0.001(4)
C14 0.055(4) 0.030(5) 0.090(5) -0.020(4) 0.001(4) 0.007(4)
C15 0.068(5) 0.031(5) 0.074(5) -0.015(4) -0.015(4) 0.011(5)
C16 0.060(4) 0.029(5) 0.049(4) -0.013(3) -0.001(3) 0.001(4)
C17 0.057(4) 0.032(5) 0.085(5) -0.020(4) -0.011(4) 0.004(4)
C18 0.084(6) 0.057(4) 0.070(4) -0.010(4) -0.017(3) 0.019(4)
C19 0.066(5) 0.040(5) 0.126(8) -0.017(4) -0.022(6) 0.010(4)
C20 0.045(5) 0.036(5) 0.106(6) -0.014(4) -0.024(4) 0.018(3)
C21 0.062(6) 0.037(5) 0.097(5) -0.020(4) -0.028(5) 0.013(4)
C22 0.040(6) 0.046(5) 0.094(6) -0.024(4) -0.019(4) 0.012(4)
C23 0.031(5) 0.041(3) 0.092(5) -0.020(4) -0.028(4) 0.010(3)
C24 0.058(6) 0.038(5) 0.091(6) -0.007(4) -0.019(4) 0.010(4)
C25 0.037(6) 0.043(5) 0.121(6) -0.019(4) -0.012(5) 0.009(4)
C26 0.064(5) 0.042(4) 0.109(5) -0.026(4) -0.015(4) 0.008(3)
C27 0.089(6) 0.051(4) 0.097(5) -0.009(4) -0.004(4) -0.002(4)
C28 0.040(5) 0.047(5) 0.076(6) -0.018(3) -0.014(5) 0.007(3)
C29 0.020(4) 0.034(3) 0.064(4) -0.005(4) -0.011(3) -0.008(3)
C30 0.021(4) 0.045(5) 0.066(3) -0.018(4) -0.005(3) 0.001(3)
C31 0.023(4) 0.023(4) 0.057(4) -0.002(3) 0.009(3) -0.005(3)
C32 0.026(3) 0.021(4) 0.051(3) -0.010(3) 0.003(3) -0.006(3)
C33 0.030(4) 0.033(4) 0.047(4) -0.009(3) -0.002(3) -0.007(3)
C34 0.031(4) 0.024(4) 0.060(4) -0.007(3) -0.010(3) -0.007(3)
C35 0.039(4) 0.053(4) 0.070(3) -0.025(4) 0.003(3) 0.012(3)
C36 0.036(3) 0.050(3) 0.053(3) 0.009(3) 0.003(3) 0.002(3)
C37 0.031(3) 0.023(4) 0.056(5) -0.008(3) 0.006(3) 0.000(2)
C38 0.031(3) 0.023(4) 0.046(3) 0.000(4) 0.002(3) -0.004(3)
C39 0.038(4) 0.020(4) 0.050(4) 0.003(3) 0.000(3) 0.002(3)
C40 0.035(4) 0.023(4) 0.050(4) 0.005(4) -0.004(3) -0.006(3)
C41 0.035(4) 0.027(4) 0.046(3) 0.002(3) -0.003(3) 0.001(3)
C42 0.026(3) 0.022(4) 0.053(3) 0.007(3) -0.001(3) 0.002(3)
C43 0.030(3) 0.023(4) 0.048(3) 0.004(3) -0.001(3) 0.000(3)
C44 0.027(4) 0.039(4) 0.044(4) -0.007(3) -0.001(3) 0.000(3)
C45 0.030(5) 0.040(4) 0.038(4) -0.003(3) 0.000(3) -0.006(4)
C46 0.037(5) 0.058(4) 0.043(4) -0.004(4) 0.001(3) -0.010(4)
C47 0.042(5) 0.078(6) 0.038(4) -0.003(4) 0.004(3) 0.005(5)
C48 0.062(7) 0.074(5) 0.042(5) -0.024(4) -0.006(4) 0.031(5)
C49 0.053(6) 0.045(4) 0.055(5) -0.008(4) 0.004(4) 0.011(4)
C50 0.056(5) 0.148(7) 0.069(4) 0.000(4) 0.023(4) 0.027(4)
C51 0.154(11) 0.075(8) 0.094(7) 0.007(7) 0.056(7) 0.046(8)
C52 0.177(9) 0.112(11) 0.077(7) 0.041(8) 0.046(7) 0.064(10)
C53 0.136(9) 0.129(13) 0.090(7) 0.031(9) 0.038(7) 0.042(11)
C54 0.126(7) 0.107(10) 0.084(7) -0.022(6) 0.058(6) -0.031(7)
C55 0.125(8) 0.176(12) 0.126(9) 0.026(8) 0.058(7) -0.038(9)
C56 0.033(3) 0.023(4) 0.050(3) -0.002(3) 0.003(3) -0.003(3)
C57 0.024(4) 0.028(4) 0.053(4) 0.001(4) -0.001(3) -0.001(3)
C58 0.035(4) 0.014(4) 0.051(4) -0.002(3) 0.002(3) -0.001(3)
C59 0.032(4) 0.025(4) 0.048(4) -0.005(3) -0.003(3) -0.001(3)
C60 0.039(4) 0.032(4) 0.047(4) 0.002(4) -0.001(3) 0.002(4)
C61 0.035(4) 0.035(5) 0.047(4) 0.002(4) 0.001(3) 0.005(4)
C62 0.037(3) 0.040(3) 0.044(3) 0.001(2) -0.003(2) 0.002(3)
C63 0.049(6) 0.044(3) 0.056(5) -0.006(4) 0.003(4) 0.011(4)
C64 0.057(7) 0.046(3) 0.057(6) -0.007(4) -0.002(5) 0.004(5)
C65 0.045(6) 0.056(5) 0.054(5) -0.012(4) 0.000(4) -0.003(4)
C66 0.032(5) 0.050(4) 0.055(5) -0.008(3) -0.002(3) 0.002(3)
C67 0.045(4) 0.057(3) 0.064(4) 0.001(3) 0.010(3) -0.014(3)
O1A 0.104(6) 0.038(3) 0.052(3) 0.007(3) -0.009(4) -0.005(4)
O2A 0.037(3) 0.032(3) 0.050(2) 0.004(2) 0.002(3) -0.002(2)
O3A 0.060(4) 0.050(4) 0.076(4) 0.003(3) -0.005(3) 0.009(3)
O4A 0.064(4) 0.053(4) 0.076(4) -0.007(3) 0.018(3) -0.007(3)
O5A 0.052(4) 0.065(5) 0.089(4) -0.028(3) 0.005(3) -0.019(3)
O6A 0.056(4) 0.051(3) 0.053(3) 0.007(3) 0.008(3) -0.002(3)
O7A 0.032(3) 0.052(3) 0.053(3) -0.004(3) 0.000(3) -0.005(2)
O8A 0.050(3) 0.035(3) 0.049(3) 0.000(2) -0.008(3) -0.002(2)
O9A 0.048(3) 0.057(3) 0.060(3) 0.006(3) -0.013(3) -0.019(3)
O10A 0.041(3) 0.058(4) 0.076(4) 0.006(3) 0.007(3) 0.015(3)
O11A 0.055(4) 0.059(3) 0.043(3) 0.015(3) -0.001(3) -0.011(3)
O12A 0.048(3) 0.048(3) 0.054(3) 0.001(3) -0.011(3) 0.011(3)
N1A 0.041(4) 0.042(4) 0.046(3) 0.000(3) -0.003(3) -0.006(3)
N2A 0.041(4) 0.051(3) 0.042(4) 0.003(3) 0.001(3) 0.008(3)
C1A 0.058(6) 0.037(4) 0.052(4) 0.004(3) -0.010(5) -0.003(4)
C1AA 0.061(4) 0.051(4) 0.078(4) 0.003(3) -0.006(3) 0.008(3)
C1BA 0.107(6) 0.043(3) 0.054(3) 0.009(3) -0.010(4) -0.006(4)
C2A 0.037(5) 0.031(3) 0.046(3) 0.003(3) 0.012(4) 0.000(3)
C3A 0.039(4) 0.032(3) 0.044(5) -0.001(3) 0.002(3) 0.008(3)
C5A 0.038(5) 0.024(3) 0.050(3) 0.006(3) 0.003(4) 0.005(3)
C6A 0.053(6) 0.027(3) 0.052(3) 0.007(3) -0.004(4) -0.003(4)
C7A 0.027(5) 0.034(3) 0.044(3) 0.001(3) 0.015(4) 0.001(3)
C8A 0.030(4) 0.030(3) 0.046(3) 0.005(3) 0.010(4) 0.008(3)
C9A 0.037(3) 0.034(3) 0.049(3) 0.005(3) 0.001(3) -0.003(3)
C10A 0.056(4) 0.030(3) 0.053(5) 0.000(3) 0.002(4) 0.010(4)
C11A 0.048(4) 0.018(4) 0.066(4) -0.003(4) 0.006(3) -0.002(3)
C12A 0.055(4) 0.035(5) 0.064(5) -0.001(4) 0.007(4) -0.003(4)
C14A 0.048(4) 0.036(5) 0.098(6) -0.005(5) 0.002(4) 0.000(5)
C15A 0.047(4) 0.035(5) 0.076(5) -0.013(4) 0.020(4) 0.000(4)
C16A 0.044(4) 0.034(5) 0.067(4) -0.005(4) 0.005(3) 0.004(4)
C17A 0.042(4) 0.013(4) 0.088(5) -0.008(4) 0.012(3) -0.013(3)
C18A 0.065(5) 0.053(4) 0.075(4) -0.007(3) 0.017(3) -0.007(4)
C19A 0.049(4) 0.034(5) 0.112(7) -0.012(4) 0.009(5) -0.013(4)
C20A 0.033(4) 0.028(4) 0.093(5) 0.008(4) 0.014(4) -0.010(3)
C21A 0.033(5) 0.033(4) 0.079(4) -0.004(4) 0.019(4) -0.021(3)
C22A 0.035(5) 0.033(4) 0.061(4) 0.005(3) 0.007(4) -0.006(3)
C23A 0.026(4) 0.036(3) 0.058(4) 0.005(3) 0.009(3) -0.009(3)
C24A 0.036(5) 0.034(4) 0.062(4) 0.018(3) 0.006(3) -0.007(3)
C25A 0.041(5) 0.027(4) 0.086(5) 0.006(3) 0.013(4) -0.011(3)
C26A 0.052(4) 0.067(5) 0.088(4) -0.028(4) 0.004(3) -0.018(4)
C27A 0.057(4) 0.053(4) 0.054(3) 0.007(3) 0.007(3) -0.002(3)
C28A 0.034(4) 0.039(4) 0.042(4) 0.008(3) 0.002(4) -0.002(3)
C29A 0.029(4) 0.035(3) 0.047(3) -0.006(3) 0.013(3) -0.006(3)
C30A 0.024(4) 0.032(4) 0.048(3) 0.002(3) 0.006(3) -0.001(3)
C31A 0.034(4) 0.036(5) 0.037(3) 0.001(3) 0.003(3) 0.000(3)
C32A 0.026(3) 0.024(4) 0.049(3) -0.003(3) -0.003(3) 0.006(3)
C33A 0.039(4) 0.027(4) 0.037(3) -0.010(3) 0.001(3) -0.003(3)
C34A 0.036(5) 0.031(4) 0.050(4) 0.001(3) 0.000(3) 0.003(3)
C35A 0.033(3) 0.052(4) 0.053(3) -0.004(3) -0.001(3) -0.006(3)
C36A 0.051(4) 0.037(3) 0.050(3) 0.000(3) -0.008(3) -0.002(3)
C37A 0.043(3) 0.018(4) 0.040(4) -0.002(3) -0.005(3) 0.005(2)
C38A 0.031(3) 0.011(3) 0.046(3) 0.009(3) -0.004(3) 0.004(3)
C39A 0.028(4) 0.020(4) 0.048(3) 0.001(3) 0.002(3) -0.010(3)
C40A 0.033(4) 0.019(4) 0.054(4) 0.000(4) 0.001(3) -0.003(3)
C41A 0.039(4) 0.023(3) 0.046(3) 0.011(3) 0.001(3) 0.001(3)
C42A 0.029(3) 0.014(4) 0.056(3) 0.000(3) 0.003(3) 0.008(3)
C43A 0.037(4) 0.020(4) 0.049(3) 0.005(4) -0.001(3) -0.001(3)
C44A 0.028(4) 0.031(4) 0.040(3) -0.002(3) 0.007(3) -0.003(3)
C45A 0.032(5) 0.026(3) 0.039(4) -0.008(3) 0.003(3) 0.001(3)
C46A 0.048(6) 0.035(3) 0.040(4) 0.002(3) 0.002(4) -0.004(4)
C47A 0.044(5) 0.037(4) 0.047(4) -0.002(3) -0.005(3) -0.014(4)
C48A 0.035(5) 0.038(4) 0.056(5) -0.007(3) -0.006(4) -0.006(4)
C49A 0.045(5) 0.026(3) 0.050(5) -0.005(3) -0.003(4) -0.013(4)
C50A 0.046(3) 0.055(4) 0.058(3) 0.005(3) -0.013(3) -0.018(3)
C51A 0.043(5) 0.051(6) 0.065(5) 0.005(5) -0.016(4) -0.019(4)
C52A 0.032(3) 0.064(6) 0.074(6) -0.002(6) 0.001(4) -0.005(5)
C53A 0.043(4) 0.063(6) 0.050(4) 0.000(4) 0.008(4) -0.001(5)
C54A 0.032(3) 0.055(6) 0.048(4) -0.004(4) -0.005(3) 0.003(4)
C55A 0.042(3) 0.056(4) 0.075(4) 0.006(3) 0.006(3) 0.015(3)
C56A 0.033(3) 0.021(4) 0.049(3) -0.001(3) 0.002(3) 0.000(3)
C57A 0.027(3) 0.026(4) 0.045(4) 0.003(3) 0.012(3) 0.002(3)
C58A 0.028(4) 0.033(4) 0.039(3) 0.002(3) 0.006(3) 0.006(3)
C59A 0.036(4) 0.029(4) 0.048(4) 0.004(3) 0.009(3) 0.003(3)
C60A 0.035(4) 0.036(5) 0.050(4) 0.011(4) 0.010(3) 0.007(3)
C61A 0.033(4) 0.031(4) 0.055(4) 0.010(4) 0.011(3) -0.003(4)
C62A 0.052(4) 0.057(3) 0.041(3) 0.013(3) 0.000(3) -0.010(3)
C63A 0.073(8) 0.049(3) 0.078(7) -0.014(5) -0.029(5) 0.017(5)
C64A 0.106(10) 0.066(6) 0.089(8) -0.023(6) -0.040(8) 0.029(7)
C65A 0.088(9) 0.071(7) 0.084(8) -0.032(6) -0.038(6) 0.034(5)
C66A 0.046(4) 0.065(5) 0.045(5) -0.009(4) -0.004(4) 0.014(4)
C67A 0.048(3) 0.048(3) 0.052(3) 0.002(3) -0.011(3) 0.011(3)
Cl1 0.071(2) 0.076(2) 0.0788(18) -0.0111(16) -0.0017(17) 0.0166(18)
Cl2 0.084(3) 0.073(2) 0.117(3) 0.036(2) 0.016(2) -0.001(2)
C68 0.052(8) 0.123(13) 0.073(8) -0.013(8) 0.002(6) -0.039(9)
loop_
_atom_type_symbol
_atom_type_description
_atom_type_scat_dispersion_real
_atom_type_scat_dispersion_imag
_atom_type_scat_source
C C 0.0181 0.0091 'International Tables Vol C Tables 4.2.6.8 and 6.1.1.4'
H H 0.0000 0.0000 'International Tables Vol C Tables 4.2.6.8 and 6.1.1.4'
Cl Cl 0.3639 0.7018 'International Tables Vol C Tables 4.2.6.8 and 6.1.1.4'
N N 0.0311 0.0180 'International Tables Vol C Tables 4.2.6.8 and 6.1.1.4'
O O 0.0492 0.0322 'International Tables Vol C Tables 4.2.6.8 and 6.1.1.4'
loop_
_geom_angle_atom_site_label_1
_geom_angle_atom_site_label_2
_geom_angle_atom_site_label_3
_geom_angle
C1B O1 C6 117.3(9)
C8 O2 C9 119.0(8)
C12 O3 C4 115.2(10)
C18 O4 C15 120.4(11)
C21 O5 C26 116.7(10)
C27 O6 C24 117.1(11)
C30 O7 C35 118.2(9)
C36 O8 C33 116.3(8)
C55 O10 H10 109.5
C67 O12 H12 109.5
C50 N1 C51 124.1(12)
C50 N1 C54 119.9(15)
C51 N1 C54 114.1(15)
C62 N2 C63 126.9(9)
C62 N2 C66 118.3(9)
C63 N2 C66 112.8(8)
C5 C1 H1 120.0
C6 C1 H1 120.0
C6 C1 C5 120.1(10)
O1 C1B H1BA 109.5
O1 C1B H1BB 109.5
O1 C1B H1BC 109.5
H1BA C1B H1BB 109.5
H1BA C1B H1BC 109.5
H1BB C1B H1BC 109.5
C6 C2 C3 122.8(9)
C6 C2 C7 118.8(9)
C7 C2 C3 118.3(9)
C2 C3 H3A 109.7
C2 C3 H3B 109.7
H3A C3 H3B 108.2
C41 C3 C2 109.8(8)
C41 C3 H3A 109.7
C41 C3 H3B 109.7
O3 C4 H4A 109.5
O3 C4 H4B 109.5
O3 C4 H4C 109.5
H4A C4 H4B 109.5
H4A C4 H4C 109.5
H4B C4 H4C 109.5
C1 C5 C10 121.9(10)
C8 C5 C1 117.2(9)
C8 C5 C10 120.8(9)
C1 C6 O1 119.4(10)
C2 C6 O1 118.3(9)
C2 C6 C1 122.3(10)
C2 C7 H7 119.1
C2 C7 C8 121.7(10)
C8 C7 H7 119.1
O2 C8 C5 116.2(9)
O2 C8 C7 123.9(9)
C5 C8 C7 119.8(9)
O2 C9 H9A 109.5
O2 C9 H9B 109.5
O2 C9 H9C 109.5
H9A C9 H9B 109.5
H9A C9 H9C 109.5
H9B C9 H9C 109.5
C5 C10 H10A 109.2
C5 C10 H10B 109.2
C5 C10 C11 112.2(8)
H10A C10 H10B 107.9
C11 C10 H10A 109.2
C11 C10 H10B 109.2
C12 C11 C10 122.7(10)
C12 C11 C16 115.5(11)
C16 C11 C10 121.8(11)
O3 C12 C11 112.6(10)
O3 C12 C14 126.6(11)
C14 C12 C11 120.8(11)
C12 C14 H14 119.6
C17 C14 C12 120.7(13)
C17 C14 H14 119.6
O4 C15 C17 120.0(12)
C16 C15 O4 121.0(13)
C16 C15 C17 119.0(12)
C11 C16 H16 118.8
C15 C16 C11 122.3(12)
C15 C16 H16 118.8
C14 C17 C15 121.5(12)
C14 C17 C19 118.9(14)
C15 C17 C19 119.6(13)
O4 C18 H18A 109.5
O4 C18 H18B 109.5
O4 C18 H18C 109.5
H18A C18 H18B 109.5
H18A C18 H18C 109.5
H18B C18 H18C 109.5
C17 C19 H19A 109.5
C17 C19 H19B 109.5
C17 C19 C20 110.8(10)
H19A C19 H19B 108.1
C20 C19 H19A 109.5
C20 C19 H19B 109.5
C21 C20 C19 122.1(14)
C21 C20 C25 121.2(12)
C25 C20 C19 116.7(15)
O5 C21 C22 123.5(15)
C20 C21 O5 115.1(11)
C20 C21 C22 121.4(14)
C21 C22 H22 121.3
C21 C22 C23 117.4(14)
C23 C22 H22 121.3
C22 C23 C28 117.8(13)
C24 C23 C22 118.9(11)
C24 C23 C28 122.8(12)
C23 C24 O6 114.0(11)
C23 C24 C25 122.1(14)
C25 C24 O6 123.4(15)
C20 C25 H25 120.7
C24 C25 C20 118.7(15)
C24 C25 H25 120.7
O5 C26 H26A 109.5
O5 C26 H26B 109.5
O5 C26 H26C 109.5
H26A C26 H26B 109.5
H26A C26 H26C 109.5
H26B C26 H26C 109.5
O6 C27 H27A 109.5
O6 C27 H27B 109.5
O6 C27 H27C 109.5
H27A C27 H27B 109.5
H27A C27 H27C 109.5
H27B C27 H27C 109.5
C23 C28 H28A 109.3
C23 C28 H28B 109.3
H28A C28 H28B 108.0
C29 C28 C23 111.5(8)
C29 C28 H28A 109.3
C29 C28 H28B 109.3
C30 C29 C28 119.8(10)
C34 C29 C28 121.6(10)
C34 C29 C30 118.5(9)
O7 C30 C29 117.4(9)
O7 C30 C31 123.6(10)
C29 C30 C31 119.0(9)
C30 C31 H31 119.7
C32 C31 C30 120.6(9)
C32 C31 H31 119.7
C31 C32 C37 117.9(9)
C33 C32 C31 118.9(9)
C33 C32 C37 123.1(9)
O8 C33 C34 119.2(9)
C32 C33 O8 119.7(9)
C32 C33 C34 120.9(10)
C29 C34 C33 121.7(10)
C29 C34 H34 119.1
C33 C34 H34 119.1
O7 C35 H35A 109.5
O7 C35 H35B 109.5
O7 C35 H35C 109.5
H35A C35 H35B 109.5
H35A C35 H35C 109.5
H35B C35 H35C 109.5
O8 C36 H36A 109.5
O8 C36 H36B 109.5
O8 C36 H36C 109.5
H36A C36 H36B 109.5
H36A C36 H36C 109.5
H36B C36 H36C 109.5
C32 C37 H37A 108.9
C32 C37 H37B 108.9
H37A C37 H37B 107.7
C38 C37 C32 113.5(7)
C38 C37 H37A 108.9
C38 C37 H37B 108.9
C39 C38 C37 122.0(9)
C43 C38 C37 119.2(9)
C43 C38 C39 118.8(9)
C38 C39 C44 124.5(9)
C40 C39 C38 117.8(9)
C40 C39 C44 117.6(9)
C39 C40 H40 118.3
C39 C40 C41 123.4(9)
C41 C40 H40 118.3
C40 C41 C3 119.9(8)
C42 C41 C3 121.7(9)
C42 C41 C40 118.2(9)
C41 C42 C43 117.7(9)
C41 C42 C56 125.7(9)
C43 C42 C56 116.3(9)
C38 C43 C42 123.5(9)
C38 C43 H43 118.3
C42 C43 H43 118.3
C45 C44 C39 120.8(9)
C49 C44 C39 119.6(10)
C49 C44 C45 119.5(10)
C44 C45 H45 119.3
C44 C45 C46 121.5(10)
C46 C45 H45 119.3
C45 C46 H46 121.5
C47 C46 C45 117.0(11)
C47 C46 H46 121.5
C46 C47 C50 119.7(13)
C48 C47 C46 122.7(11)
C48 C47 C50 117.4(13)
C47 C48 H48 120.4
C47 C48 C49 119.1(10)
C49 C48 H48 120.4
C44 C49 C48 120.1(11)
C44 C49 H49 120.0
C48 C49 H49 120.0
O9 C50 N1 124.3(14)
O9 C50 C47 115.3(16)
N1 C50 C47 120.0(13)
N1 C51 H51A 111.4
N1 C51 H51B 111.4
N1 C51 C52 101.8(13)
H51A C51 H51B 109.3
C52 C51 H51A 111.4
C52 C51 H51B 111.4
C51 C52 H52A 110.9
C51 C52 H52B 110.9
H52A C52 H52B 109.0
C53 C52 C51 104(2)
C53 C52 H52A 110.9
C53 C52 H52B 110.9
C52 C53 H53A 109.9
C52 C53 H53B 109.9
C52 C53 C54 109.0(15)
H53A C53 H53B 108.3
C54 C53 H53A 109.9
C54 C53 H53B 109.9
N1 C54 C53 96.0(15)
N1 C54 H54 112.0
C53 C54 H54 112.0
C55 C54 N1 120.9(18)
C55 C54 C53 102.3(18)
C55 C54 H54 112.0
O10 C55 H55A 112.3
O10 C55 H55B 112.3
C54 C55 O10 97.2(19)
C54 C55 H55A 112.3
C54 C55 H55B 112.3
H55A C55 H55B 109.9
C57 C56 C42 121.0(8)
C61 C56 C42 122.2(9)
C61 C56 C57 116.8(9)
C56 C57 H57 119.5
C58 C57 C56 121.1(9)
C58 C57 H57 119.5
C57 C58 H58 119.2
C57 C58 C59 121.6(9)
C59 C58 H58 119.2
C58 C59 C62 125.0(9)
C60 C59 C58 118.0(9)
C60 C59 C62 116.8(9)
C59 C60 H60 119.9
C61 C60 C59 120.3(9)
C61 C60 H60 119.9
C56 C61 H61 118.9
C60 C61 C56 122.1(9)
C60 C61 H61 118.9
O11 C62 N2 120.2(9)
O11 C62 C59 120.2(9)
N2 C62 C59 119.6(9)
N2 C63 H63A 111.3
N2 C63 H63B 111.3
N2 C63 C64 102.4(9)
H63A C63 H63B 109.2
C64 C63 H63A 111.3
C64 C63 H63B 111.3
C63 C64 H64A 110.7
C63 C64 H64B 110.7
H64A C64 H64B 108.8
C65 C64 C63 105.4(10)
C65 C64 H64A 110.7
C65 C64 H64B 110.7
C64 C65 H65A 110.5
C64 C65 H65B 110.5
C64 C65 C66 106.1(9)
H65A C65 H65B 108.7
C66 C65 H65A 110.5
C66 C65 H65B 110.5
N2 C66 C65 102.2(9)
N2 C66 H66 111.3
N2 C66 C67 111.2(9)
C65 C66 H66 111.3
C67 C66 C65 109.2(9)
C67 C66 H66 111.3
O12 C67 C66 112.9(10)
O12 C67 H67A 109.0
O12 C67 H67B 109.0
C66 C67 H67A 109.0
C66 C67 H67B 109.0
H67A C67 H67B 107.8
C1BA O1A C6A 120.2(9)
C8A O2A C9A 118.5(7)
C12A O3A C1AA 120.5(11)
C18A O4A C15A 119.8(10)
C21A O5A C26A 117.3(10)
C24A O6A C27A 116.7(9)
C30A O7A C35A 116.8(8)
C33A O8A C36A 113.4(7)
C55A O10A H10C 109.5
C67A O12A H12A 109.5
C50A N1A C51A 128.3(9)
C50A N1A C54A 119.4(9)
C51A N1A C54A 108.3(8)
C62A N2A C63A 121.9(9)
C62A N2A C66A 123.4(9)
C63A N2A C66A 112.2(9)
C5A C1A H1A 119.5
C6A C1A H1A 119.5
C6A C1A C5A 121.0(10)
O3A C1AA H1AA 109.5
O3A C1AA H1AB 109.5
O3A C1AA H1AC 109.5
H1AA C1AA H1AB 109.5
H1AA C1AA H1AC 109.5
H1AB C1AA H1AC 109.5
O1A C1BA H1BD 109.5
O1A C1BA H1BE 109.5
O1A C1BA H1BF 109.5
H1BD C1BA H1BE 109.5
H1BD C1BA H1BF 109.5
H1BE C1BA H1BF 109.5
C6A C2A C3A 122.8(8)
C6A C2A C7A 118.9(9)
C7A C2A C3A 118.3(9)
C2A C3A H3AA 109.7
C2A C3A H3AB 109.7
C2A C3A C41A 109.8(8)
H3AA C3A H3AB 108.2
C41A C3A H3AA 109.7
C41A C3A H3AB 109.7
C1A C5A C10A 119.6(9)
C8A C5A C1A 119.7(9)
C8A C5A C10A 120.7(9)
O1A C6A C1A 124.5(10)
O1A C6A C2A 115.5(9)
C2A C6A C1A 119.8(9)
C2A C7A H7A 119.7
C8A C7A C2A 120.6(9)
C8A C7A H7A 119.7
O2A C8A C5A 117.2(8)
O2A C8A C7A 123.0(9)
C5A C8A C7A 119.8(9)
O2A C9A H9AA 109.5
O2A C9A H9AB 109.5
O2A C9A H9AC 109.5
H9AA C9A H9AB 109.5
H9AA C9A H9AC 109.5
H9AB C9A H9AC 109.5
C5A C10A H10D 109.0
C5A C10A H10E 109.0
H10D C10A H10E 107.8
C11A C10A C5A 113.0(9)
C11A C10A H10D 109.0
C11A C10A H10E 109.0
C12A C11A C10A 120.2(10)
C12A C11A C16A 117.9(11)
C16A C11A C10A 121.8(10)
O3A C12A C11A 118.6(11)
O3A C12A C14A 122.2(12)
C11A C12A C14A 118.8(11)
C12A C14A H14A 119.2
C17A C14A C12A 121.7(12)
C17A C14A H14A 119.2
O4A C15A C16A 120.6(11)
C17A C15A O4A 118.1(11)
C17A C15A C16A 121.3(12)
C11A C16A H16A 119.4
C15A C16A C11A 121.1(11)
C15A C16A H16A 119.4
C14A C17A C19A 120.3(12)
C15A C17A C14A 118.8(11)
C15A C17A C19A 120.8(12)
O4A C18A H18D 109.5
O4A C18A H18E 109.5
O4A C18A H18F 109.5
H18D C18A H18E 109.5
H18D C18A H18F 109.5
H18E C18A H18F 109.5
C17A C19A H19C 109.5
C17A C19A H19D 109.5
H19C C19A H19D 108.1
C20A C19A C17A 110.7(9)
C20A C19A H19C 109.5
C20A C19A H19D 109.5
C21A C20A C19A 122.7(12)
C21A C20A C25A 119.9(11)
C25A C20A C19A 117.4(11)
O5A C21A C22A 121.5(11)
C20A C21A O5A 117.8(11)
C20A C21A C22A 120.7(11)
C21A C22A H22A 120.0
C21A C22A C23A 120.0(10)
C23A C22A H22A 120.0
C22A C23A C28A 119.6(9)
C24A C23A C22A 118.9(10)
C24A C23A C28A 121.4(10)
O6A C24A C23A 116.2(10)
O6A C24A C25A 124.2(10)
C23A C24A C25A 119.7(11)
C20A C25A C24A 120.8(11)
C20A C25A H25A 119.6
C24A C25A H25A 119.6
O5A C26A H26D 109.5
O5A C26A H26E 109.5
O5A C26A H26F 109.5
H26D C26A H26E 109.5
H26D C26A H26F 109.5
H26E C26A H26F 109.5
O6A C27A H27D 109.5
O6A C27A H27E 109.5
O6A C27A H27F 109.5
H27D C27A H27E 109.5
H27D C27A H27F 109.5
H27E C27A H27F 109.5
C23A C28A H28C 109.1
C23A C28A H28D 109.1
C23A C28A C29A 112.3(8)
H28C C28A H28D 107.9
C29A C28A H28C 109.1
C29A C28A H28D 109.1
C30A C29A C28A 121.2(8)
C34A C29A C28A 121.4(9)
C34A C29A C30A 117.3(9)
C29A C30A O7A 114.3(8)
C31A C30A O7A 124.6(9)
C31A C30A C29A 121.1(9)
C30A C31A H31A 119.2
C30A C31A C32A 121.7(9)
C32A C31A H31A 119.2
C31A C32A C37A 121.4(8)
C33A C32A C31A 116.9(9)
C33A C32A C37A 121.7(8)
C32A C33A O8A 117.1(8)
C32A C33A C34A 121.0(9)
C34A C33A O8A 121.9(9)
C29A C34A C33A 121.9(9)
C29A C34A H34A 119.1
C33A C34A H34A 119.1
O7A C35A H35D 109.5
O7A C35A H35E 109.5
O7A C35A H35F 109.5
H35D C35A H35E 109.5
H35D C35A H35F 109.5
H35E C35A H35F 109.5
O8A C36A H36D 109.5
O8A C36A H36E 109.5
O8A C36A H36F 109.5
H36D C36A H36E 109.5
H36D C36A H36F 109.5
H36E C36A H36F 109.5
C32A C37A H37C 109.1
C32A C37A H37D 109.1
H37C C37A H37D 107.8
C38A C37A C32A 112.7(7)
C38A C37A H37C 109.1
C38A C37A H37D 109.1
C39A C38A C37A 124.2(8)
C43A C38A C37A 120.0(8)
C43A C38A C39A 115.8(9)
C38A C39A C44A 122.7(8)
C40A C39A C38A 119.8(8)
C40A C39A C44A 117.4(8)
C39A C40A H40A 118.9
C41A C40A C39A 122.2(9)
C41A C40A H40A 118.9
C40A C41A C3A 117.1(9)
C40A C41A C42A 118.7(9)
C42A C41A C3A 124.0(8)
C41A C42A C56A 123.0(9)
C43A C42A C41A 119.2(9)
C43A C42A C56A 117.7(9)
C38A C43A H43A 117.9
C42A C43A C38A 124.2(9)
C42A C43A H43A 117.9
C45A C44A C39A 121.1(8)
C49A C44A C39A 120.8(9)
C49A C44A C45A 117.9(9)
C44A C45A H45A 119.3
C46A C45A C44A 121.3(8)
C46A C45A H45A 119.3
C45A C46A H46A 119.9
C45A C46A C47A 120.3(9)
C47A C46A H46A 119.9
C46A C47A C48A 118.8(9)
C46A C47A C50A 123.2(9)
C48A C47A C50A 117.9(9)
C47A C48A H48A 119.5
C49A C48A C47A 121.0(9)
C49A C48A H48A 119.5
C44A C49A H49A 119.9
C48A C49A C44A 120.3(9)
C48A C49A H49A 119.9
O9A C50A N1A 121.7(10)
O9A C50A C47A 121.8(10)
N1A C50A C47A 116.4(9)
N1A C51A H51C 110.6
N1A C51A H51D 110.6
N1A C51A C52A 105.9(9)
H51C C51A H51D 108.7
C52A C51A H51C 110.6
C52A C51A H51D 110.6
C51A C52A H52C 111.5
C51A C52A H52D 111.5
C51A C52A C53A 101.1(10)
H52C C52A H52D 109.4
C53A C52A H52C 111.5
C53A C52A H52D 111.5
C52A C53A H53C 110.6
C52A C53A H53D 110.6
H53C C53A H53D 108.7
C54A C53A C52A 105.7(9)
C54A C53A H53C 110.6
C54A C53A H53D 110.6
N1A C54A H54A 109.8
N1A C54A C55A 112.1(9)
C53A C54A N1A 104.6(8)
C53A C54A H54A 109.8
C53A C54A C55A 110.6(9)
C55A C54A H54A 109.8
O10A C55A C54A 112.5(9)
O10A C55A H55C 109.1
O10A C55A H55D 109.1
C54A C55A H55C 109.1
C54A C55A H55D 109.1
H55C C55A H55D 107.8
C57A C56A C42A 122.6(9)
C57A C56A C61A 116.9(9)
C61A C56A C42A 120.3(9)
C56A C57A H57A 119.2
C58A C57A C56A 121.6(9)
C58A C57A H57A 119.2
C57A C58A H58A 118.8
C57A C58A C59A 122.4(9)
C59A C58A H58A 118.8
C58A C59A C60A 115.7(9)
C58A C59A C62A 124.2(9)
C60A C59A C62A 120.2(9)
C59A C60A H60A 118.4
C61A C60A C59A 123.1(9)
C61A C60A H60A 118.4
C56A C61A H61A 119.9
C60A C61A C56A 120.3(9)
C60A C61A H61A 119.9
O11A C62A N2A 119.5(9)
O11A C62A C59A 120.5(10)
N2A C62A C59A 120.0(9)
N2A C63A H63C 112.2
N2A C63A H63D 112.2
N2A C63A C64A 97.7(10)
H63C C63A H63D 109.8
C64A C63A H63C 112.2
C64A C63A H63D 112.2
C63A C64A H64C 110.3
C63A C64A H64D 110.3
H64C C64A H64D 108.5
C65A C64A C63A 107.1(12)
C65A C64A H64C 110.3
C65A C64A H64D 110.3
C64A C65A H65C 111.6
C64A C65A H65D 111.6
C64A C65A C66A 100.8(12)
H65C C65A H65D 109.4
C66A C65A H65C 111.6
C66A C65A H65D 111.6
N2A C66A C65A 105.1(10)
N2A C66A H66A 109.4
N2A C66A C67A 109.2(8)
C65A C66A H66A 109.4
C67A C66A C65A 114.2(12)
C67A C66A H66A 109.4
O12A C67A C66A 109.8(9)
O12A C67A H67C 109.7
O12A C67A H67D 109.7
C66A C67A H67C 109.7
C66A C67A H67D 109.7
H67C C67A H67D 108.2
Cl1 C68 H68A 109.5
Cl1 C68 H68B 109.5
Cl2 C68 Cl1 110.8(8)
Cl2 C68 H68A 109.5
Cl2 C68 H68B 109.5
H68A C68 H68B 108.1
loop_
_geom_bond_atom_site_label_1
_geom_bond_atom_site_label_2
_geom_bond_distance
O1 C1B 1.397(15)
O1 C6 1.405(13)
O2 C8 1.370(12)
O2 C9 1.379(13)
O3 C4 1.400(17)
O3 C12 1.375(15)
O4 C15 1.379(16)
O4 C18 1.361(19)
O5 C21 1.367(17)
O5 C26 1.48(2)
O6 C24 1.418(17)
O6 C27 1.37(2)
O7 C30 1.344(13)
O7 C35 1.395(15)
O8 C33 1.392(13)
O8 C36 1.384(13)
O9 C50 1.27(2)
O10 H10 0.8400
O10 C55 1.433(11)
O11 C62 1.261(12)
O12 H12 0.8400
O12 C67 1.436(10)
N1 C50 1.38(2)
N1 C51 1.45(2)
N1 C54 1.485(19)
N2 C62 1.367(14)
N2 C63 1.468(14)
N2 C66 1.495(14)
C1 H1 0.9500
C1 C5 1.424(15)
C1 C6 1.392(16)
C1B H1BA 0.9800
C1B H1BB 0.9800
C1B H1BC 0.9800
C2 C3 1.541(14)
C2 C6 1.356(15)
C2 C7 1.362(13)
C3 H3A 0.9900
C3 H3B 0.9900
C3 C41 1.536(13)
C4 H4A 0.9800
C4 H4B 0.9800
C4 H4C 0.9800
C5 C8 1.399(15)
C5 C10 1.458(15)
C7 H7 0.9500
C7 C8 1.418(14)
C9 H9A 0.9800
C9 H9B 0.9800
C9 H9C 0.9800
C10 H10A 0.9900
C10 H10B 0.9900
C10 C11 1.520(17)
C11 C12 1.438(18)
C11 C16 1.441(16)
C12 C14 1.417(18)
C14 H14 0.9500
C14 C17 1.330(19)
C15 C16 1.372(18)
C15 C17 1.42(2)
C16 H16 0.9500
C17 C19 1.514(19)
C18 H18A 0.9800
C18 H18B 0.9800
C18 H18C 0.9800
C19 H19A 0.9900
C19 H19B 0.9900
C19 C20 1.549(18)
C20 C21 1.34(2)
C20 C25 1.39(2)
C21 C22 1.404(18)
C22 H22 0.9500
C22 C23 1.442(19)
C23 C24 1.36(2)
C23 C28 1.512(15)
C24 C25 1.379(18)
C25 H25 0.9500
C26 H26A 0.9800
C26 H26B 0.9800
C26 H26C 0.9800
C27 H27A 0.9800
C27 H27B 0.9800
C27 H27C 0.9800
C28 H28A 0.9900
C28 H28B 0.9900
C28 C29 1.489(15)
C29 C30 1.414(16)
C29 C34 1.371(15)
C30 C31 1.439(14)
C31 H31 0.9500
C31 C32 1.408(14)
C32 C33 1.353(14)
C32 C37 1.531(13)
C33 C34 1.423(14)
C34 H34 0.9500
C35 H35A 0.9800
C35 H35B 0.9800
C35 H35C 0.9800
C36 H36A 0.9800
C36 H36B 0.9800
C36 H36C 0.9800
C37 H37A 0.9900
C37 H37B 0.9900
C37 C38 1.485(13)
C38 C39 1.427(14)
C38 C43 1.367(14)
C39 C40 1.380(14)
C39 C44 1.470(14)
C40 H40 0.9500
C40 C41 1.419(15)
C41 C42 1.392(14)
C42 C43 1.420(13)
C42 C56 1.481(14)
C43 H43 0.9500
C44 C45 1.388(14)
C44 C49 1.387(15)
C45 H45 0.9500
C45 C46 1.422(15)
C46 H46 0.9500
C46 C47 1.406(17)
C47 C48 1.36(2)
C47 C50 1.523(19)
C48 H48 0.9500
C48 C49 1.428(18)
C49 H49 0.9500
C51 H51A 0.9900
C51 H51B 0.9900
C51 C52 1.58(3)
C52 H52A 0.9900
C52 H52B 0.9900
C52 C53 1.33(3)
C53 H53A 0.9900
C53 H53B 0.9900
C53 C54 1.71(3)
C54 H54 1.0000
C54 C55 1.38(3)
C55 H55A 0.9900
C55 H55B 0.9900
C56 C57 1.442(14)
C56 C61 1.411(14)
C57 H57 0.9500
C57 C58 1.340(14)
C58 H58 0.9500
C58 C59 1.432(13)
C59 C60 1.407(14)
C59 C62 1.463(15)
C60 H60 0.9500
C60 C61 1.376(15)
C61 H61 0.9500
C63 H63A 0.9900
C63 H63B 0.9900
C63 C64 1.552(16)
C64 H64A 0.9900
C64 H64B 0.9900
C64 C65 1.476(18)
C65 H65A 0.9900
C65 H65B 0.9900
C65 C66 1.588(16)
C66 H66 1.0000
C66 C67 1.513(16)
C67 H67A 0.9900
C67 H67B 0.9900
O1A C1BA 1.361(15)
O1A C6A 1.373(13)
O2A C8A 1.367(12)
O2A C9A 1.458(12)
O3A C1AA 1.432(15)
O3A C12A 1.349(15)
O4A C15A 1.391(15)
O4A C18A 1.367(17)
O5A C21A 1.374(15)
O5A C26A 1.413(18)
O6A C24A 1.358(14)
O6A C27A 1.465(15)
O7A C30A 1.396(12)
O7A C35A 1.434(13)
O8A C33A 1.405(12)
O8A C36A 1.446(13)
O9A C50A 1.241(14)
O10A H10C 0.8400
O10A C55A 1.428(10)
O11A C62A 1.232(14)
O12A H12A 0.8400
O12A C67A 1.418(9)
N1A C50A 1.374(15)
N1A C51A 1.463(15)
N1A C54A 1.508(13)
N2A C62A 1.373(15)
N2A C63A 1.467(15)
N2A C66A 1.480(14)
C1A H1A 0.9500
C1A C5A 1.404(15)
C1A C6A 1.396(15)
C1AA H1AA 0.9800
C1AA H1AB 0.9800
C1AA H1AC 0.9800
C1BA H1BD 0.9800
C1BA H1BE 0.9800
C1BA H1BF 0.9800
C2A C3A 1.510(14)
C2A C6A 1.385(15)
C2A C7A 1.414(14)
C3A H3AA 0.9900
C3A H3AB 0.9900
C3A C41A 1.529(14)
C5A C8A 1.369(14)
C5A C10A 1.544(14)
C7A H7A 0.9500
C7A C8A 1.410(14)
C9A H9AA 0.9800
C9A H9AB 0.9800
C9A H9AC 0.9800
C10A H10D 0.9900
C10A H10E 0.9900
C10A C11A 1.476(17)
C11A C12A 1.374(17)
C11A C16A 1.413(17)
C12A C14A 1.412(19)
C14A H14A 0.9500
C14A C17A 1.394(18)
C15A C16A 1.392(18)
C15A C17A 1.322(17)
C16A H16A 0.9500
C17A C19A 1.522(18)
C18A H18D 0.9800
C18A H18E 0.9800
C18A H18F 0.9800
C19A H19C 0.9900
C19A H19D 0.9900
C19A C20A 1.522(17)
C20A C21A 1.355(17)
C20A C25A 1.385(18)
C21A C22A 1.406(16)
C22A H22A 0.9500
C22A C23A 1.422(15)
C23A C24A 1.373(15)
C23A C28A 1.479(14)
C24A C25A 1.421(16)
C25A H25A 0.9500
C26A H26D 0.9800
C26A H26E 0.9800
C26A H26F 0.9800
C27A H27D 0.9800
C27A H27E 0.9800
C27A H27F 0.9800
C28A H28C 0.9900
C28A H28D 0.9900
C28A C29A 1.543(14)
C29A C30A 1.389(14)
C29A C34A 1.373(14)
C30A C31A 1.379(14)
C31A H31A 0.9500
C31A C32A 1.401(13)
C32A C33A 1.378(14)
C32A C37A 1.514(14)
C33A C34A 1.397(15)
C34A H34A 0.9500
C35A H35D 0.9800
C35A H35E 0.9800
C35A H35F 0.9800
C36A H36D 0.9800
C36A H36E 0.9800
C36A H36F 0.9800
C37A H37C 0.9900
C37A H37D 0.9900
C37A C38A 1.481(14)
C38A C39A 1.425(13)
C38A C43A 1.398(13)
C39A C40A 1.394(14)
C39A C44A 1.507(13)
C40A H40A 0.9500
C40A C41A 1.388(14)
C41A C42A 1.389(14)
C42A C43A 1.379(14)
C42A C56A 1.478(13)
C43A H43A 0.9500
C44A C45A 1.394(13)
C44A C49A 1.382(13)
C45A H45A 0.9500
C45A C46A 1.362(14)
C46A H46A 0.9500
C46A C47A 1.377(14)
C47A C48A 1.381(15)
C47A C50A 1.505(15)
C48A H48A 0.9500
C48A C49A 1.374(15)
C49A H49A 0.9500
C51A H51C 0.9900
C51A H51D 0.9900
C51A C52A 1.499(17)
C52A H52C 0.9900
C52A H52D 0.9900
C52A C53A 1.541(17)
C53A H53C 0.9900
C53A H53D 0.9900
C53A C54A 1.506(17)
C54A H54A 1.0000
C54A C55A 1.547(15)
C55A H55C 0.9900
C55A H55D 0.9900
C56A C57A 1.406(14)
C56A C61A 1.415(14)
C57A H57A 0.9500
C57A C58A 1.361(13)
C58A H58A 0.9500
C58A C59A 1.401(13)
C59A C60A 1.406(15)
C59A C62A 1.444(15)
C60A H60A 0.9500
C60A C61A 1.366(15)
C61A H61A 0.9500
C63A H63C 0.9900
C63A H63D 0.9900
C63A C64A 1.519(18)
C64A H64C 0.9900
C64A H64D 0.9900
C64A C65A 1.50(2)
C65A H65C 0.9900
C65A H65D 0.9900
C65A C66A 1.509(19)
C66A H66A 1.0000
C66A C67A 1.499(16)
C67A H67C 0.9900
C67A H67D 0.9900
Cl1 C68 1.753(16)
Cl2 C68 1.718(15)
C68 H68A 0.9900
C68 H68B 0.9900
loop_
_geom_torsion_atom_site_label_1
_geom_torsion_atom_site_label_2
_geom_torsion_atom_site_label_3
_geom_torsion_atom_site_label_4
_geom_torsion
O3 C12 C14 C17 179.8(11)
O4 C15 C16 C11 177.7(9)
O4 C15 C17 C14 178.1(10)
O4 C15 C17 C19 -3.7(16)
O5 C21 C22 C23 179.2(10)
O6 C24 C25 C20 -178.7(11)
O7 C30 C31 C32 179.5(9)
O8 C33 C34 C29 178.0(8)
N1 C51 C52 C53 -39(2)
N1 C54 C55 O10 78(2)
N2 C63 C64 C65 -33.0(12)
N2 C66 C67 O12 75.0(12)
C1 C5 C8 O2 177.0(8)
C1 C5 C8 C7 0.5(15)
C1 C5 C10 C11 97.6(12)
C1B O1 C6 C1 -1.9(17)
C1B O1 C6 C2 176.0(11)
C2 C3 C41 C40 81.2(11)
C2 C3 C41 C42 -103.5(10)
C2 C7 C8 O2 -177.9(9)
C2 C7 C8 C5 -1.7(15)
C3 C2 C6 O1 -3.6(16)
C3 C2 C6 C1 174.3(10)
C3 C2 C7 C8 -173.7(9)
C3 C41 C42 C43 175.3(8)
C3 C41 C42 C56 1.5(14)
C4 O3 C12 C11 169.2(10)
C4 O3 C12 C14 -13.2(16)
C5 C1 C6 O1 178.0(9)
C5 C1 C6 C2 0.2(17)
C5 C10 C11 C12 -77.3(12)
C5 C10 C11 C16 106.7(11)
C6 C1 C5 C8 0.2(15)
C6 C1 C5 C10 -179.7(10)
C6 C2 C3 C41 -90.1(12)
C6 C2 C7 C8 2.2(15)
C7 C2 C3 C41 85.6(11)
C7 C2 C6 O1 -179.2(9)
C7 C2 C6 C1 -1.4(16)
C8 C5 C10 C11 -82.3(12)
C9 O2 C8 C5 175.1(9)
C9 O2 C8 C7 -8.6(15)
C10 C5 C8 O2 -3.1(14)
C10 C5 C8 C7 -179.6(9)
C10 C11 C12 O3 0.4(14)
C10 C11 C12 C14 -177.4(10)
C10 C11 C16 C15 -179.7(9)
C11 C12 C14 C17 -2.8(16)
C12 C11 C16 C15 4.0(14)
C12 C14 C17 C15 4.1(17)
C12 C14 C17 C19 -174.1(11)
C14 C17 C19 C20 73.9(17)
C15 C17 C19 C20 -104.3(16)
C16 C11 C12 O3 176.6(9)
C16 C11 C12 C14 -1.2(14)
C16 C15 C17 C14 -1.2(16)
C16 C15 C17 C19 176.9(11)
C17 C15 C16 C11 -3.0(15)
C17 C19 C20 C21 -96.8(16)
C17 C19 C20 C25 84.8(16)
C18 O4 C15 C16 -11.5(16)
C18 O4 C15 C17 169.1(11)
C19 C20 C21 O5 1.5(17)
C19 C20 C21 C22 179.5(11)
C19 C20 C25 C24 -176.4(11)
C20 C21 C22 C23 1.4(17)
C21 C20 C25 C24 5.1(17)
C21 C22 C23 C24 -3.9(16)
C21 C22 C23 C28 -175.8(10)
C22 C23 C24 O6 178.9(10)
C22 C23 C24 C25 7.2(17)
C22 C23 C28 C29 90.8(13)
C23 C24 C25 C20 -7.8(18)
C23 C28 C29 C30 -84.8(13)
C23 C28 C29 C34 93.9(12)
C24 C23 C28 C29 -80.8(15)
C25 C20 C21 O5 179.9(11)
C25 C20 C21 C22 -2.1(18)
C26 O5 C21 C20 178.2(11)
C26 O5 C21 C22 0.2(17)
C27 O6 C24 C23 157.0(12)
C27 O6 C24 C25 -31.5(17)
C28 C23 C24 O6 -9.6(16)
C28 C23 C24 C25 178.7(11)
C28 C29 C30 O7 -2.0(13)
C28 C29 C30 C31 178.8(9)
C28 C29 C34 C33 -175.1(9)
C29 C30 C31 C32 -1.3(13)
C30 C29 C34 C33 3.6(13)
C30 C31 C32 C33 -1.2(13)
C30 C31 C32 C37 -177.9(8)
C31 C32 C33 O8 -179.5(8)
C31 C32 C33 C34 4.8(13)
C31 C32 C37 C38 92.1(10)
C32 C33 C34 C29 -6.2(13)
C32 C37 C38 C39 -91.4(11)
C32 C37 C38 C43 86.9(11)
C33 C32 C37 C38 -84.5(11)
C34 C29 C30 O7 179.3(8)
C34 C29 C30 C31 0.1(13)
C35 O7 C30 C29 170.5(9)
C35 O7 C30 C31 -10.4(14)
C36 O8 C33 C32 132.6(9)
C36 O8 C33 C34 -51.6(12)
C37 C32 C33 O8 -2.9(13)
C37 C32 C33 C34 -178.6(8)
C37 C38 C39 C40 176.7(8)
C37 C38 C39 C44 -6.4(14)
C37 C38 C43 C42 178.4(8)
C38 C39 C40 C41 0.7(13)
C38 C39 C44 C45 -62.3(13)
C38 C39 C44 C49 120.0(11)
C39 C38 C43 C42 -3.2(13)
C39 C40 C41 C3 -179.6(8)
C39 C40 C41 C42 5.0(13)
C39 C44 C45 C46 -175.0(9)
C39 C44 C49 C48 176.4(10)
C40 C39 C44 C45 114.6(10)
C40 C39 C44 C49 -63.1(13)
C40 C41 C42 C43 -9.4(12)
C40 C41 C42 C56 176.8(8)
C41 C42 C43 C38 8.8(13)
C41 C42 C56 C57 -60.5(13)
C41 C42 C56 C61 122.4(10)
C42 C56 C57 C58 -171.7(9)
C42 C56 C61 C60 173.9(9)
C43 C38 C39 C40 -1.6(13)
C43 C38 C39 C44 175.2(8)
C43 C42 C56 C57 125.6(9)
C43 C42 C56 C61 -51.5(12)
C44 C39 C40 C41 -176.4(9)
C44 C45 C46 C47 -0.8(15)
C45 C44 C49 C48 -1.3(16)
C45 C46 C47 C48 -2.6(17)
C45 C46 C47 C50 -178.2(11)
C46 C47 C48 C49 3.9(18)
C46 C47 C50 O9 140.4(15)
C46 C47 C50 N1 -46(2)
C47 C48 C49 C44 -1.9(17)
C48 C47 C50 O9 -35(2)
C48 C47 C50 N1 138.6(16)
C49 C44 C45 C46 2.7(15)
C50 N1 C51 C52 -135.3(18)
C50 N1 C54 C53 155.3(17)
C50 N1 C54 C55 -97(2)
C50 C47 C48 C49 179.6(12)
C51 N1 C50 O9 165.5(18)
C51 N1 C50 C47 -8(3)
C51 N1 C54 C53 -10(2)
C51 N1 C54 C55 98(2)
C51 C52 C53 C54 34(2)
C52 C53 C54 N1 -17(2)
C52 C53 C54 C55 -141(2)
C53 C54 C55 O10 -177.1(16)
C54 N1 C50 O9 2(3)
C54 N1 C50 C47 -171.4(16)
C54 N1 C51 C52 29(2)
C56 C42 C43 C38 -176.7(8)
C56 C57 C58 C59 -5.0(13)
C57 C56 C61 C60 -3.3(14)
C57 C58 C59 C60 2.1(13)
C57 C58 C59 C62 -172.6(9)
C58 C59 C60 C61 0.2(13)
C58 C59 C62 O11 138.5(9)
C58 C59 C62 N2 -43.9(14)
C59 C60 C61 C56 0.6(15)
C60 C59 C62 O11 -36.2(13)
C60 C59 C62 N2 141.4(9)
C61 C56 C57 C58 5.5(13)
C62 N2 C63 C64 -141.0(10)
C62 N2 C66 C65 161.1(9)
C62 N2 C66 C67 -82.5(11)
C62 C59 C60 C61 175.3(9)
C63 N2 C62 O11 169.6(10)
C63 N2 C62 C59 -8.0(15)
C63 N2 C66 C65 -3.9(11)
C63 N2 C66 C67 112.5(10)
C63 C64 C65 C66 31.5(12)
C64 C65 C66 N2 -17.6(11)
C64 C65 C66 C67 -135.4(10)
C65 C66 C67 O12 -173.0(9)
C66 N2 C62 O11 7.0(14)
C66 N2 C62 C59 -170.6(8)
C66 N2 C63 C64 22.4(12)
O3A C12A C14A C17A -179.5(10)
O4A C15A C16A C11A -178.7(9)
O4A C15A C17A C14A -178.8(9)
O4A C15A C17A C19A -2.7(14)
O5A C21A C22A C23A 179.3(9)
O6A C24A C25A C20A 178.6(10)
O7A C30A C31A C32A -179.7(9)
O8A C33A C34A C29A -178.6(9)
N1A C51A C52A C53A -36.7(12)
N1A C54A C55A O10A 69.6(13)
N2A C63A C64A C65A -39.9(17)
N2A C66A C67A O12A -177.9(9)
C1A C5A C8A O2A 178.3(9)
C1A C5A C8A C7A -1.1(15)
C1A C5A C10A C11A 99.4(13)
C1AA O3A C12A C11A 159.7(11)
C1AA O3A C12A C14A -12.6(16)
C1BA O1A C6A C1A 3(2)
C1BA O1A C6A C2A 177.7(12)
C2A C3A C41A C40A 77.8(10)
C2A C3A C41A C42A -97.1(11)
C2A C7A C8A O2A -179.7(8)
C2A C7A C8A C5A -0.4(14)
C3A C2A C6A O1A 0.9(16)
C3A C2A C6A C1A 175.6(11)
C3A C2A C7A C8A -177.2(9)
C3A C41A C42A C43A 173.2(9)
C3A C41A C42A C56A -11.0(14)
C5A C1A C6A O1A 177.9(11)
C5A C1A C6A C2A 3.7(18)
C5A C10A C11A C12A -80.9(12)
C5A C10A C11A C16A 102.9(11)
C6A C1A C5A C8A -0.6(17)
C6A C1A C5A C10A 179.6(11)
C6A C2A C3A C41A -97.0(11)
C6A C2A C7A C8A 3.4(15)
C7A C2A C3A C41A 83.7(11)
C7A C2A C6A O1A -179.7(10)
C7A C2A C6A C1A -5.1(16)
C8A C5A C10A C11A -80.4(13)
C9A O2A C8A C5A 176.9(9)
C9A O2A C8A C7A -3.7(13)
C10A C5A C8A O2A -1.9(14)
C10A C5A C8A C7A 178.7(10)
C10A C11A C12A O3A 5.6(14)
C10A C11A C12A C14A 178.2(10)
C10A C11A C16A C15A 177.2(10)
C11A C12A C14A C17A 8.2(16)
C12A C11A C16A C15A 0.9(15)
C12A C14A C17A C15A -6.0(16)
C12A C14A C17A C19A 178.0(10)
C14A C17A C19A C20A 71.3(15)
C15A C17A C19A C20A -104.7(13)
C16A C11A C12A O3A -178.0(9)
C16A C11A C12A C14A -5.4(15)
C16A C15A C17A C14A 1.2(16)
C16A C15A C17A C19A 177.2(10)
C17A C15A C16A C11A 1.3(16)
C17A C19A C20A C21A -94.3(14)
C17A C19A C20A C25A 82.9(14)
C18A O4A C15A C16A -3.7(15)
C18A O4A C15A C17A 176.3(11)
C19A C20A C21A O5A -3.6(15)
C19A C20A C21A C22A 176.2(10)
C19A C20A C25A C24A -175.3(10)
C20A C21A C22A C23A -0.5(15)
C21A C20A C25A C24A 2.0(16)
C21A C22A C23A C24A 1.0(15)
C21A C22A C23A C28A -174.5(9)
C22A C23A C24A O6A 179.9(9)
C22A C23A C24A C25A 0.1(15)
C22A C23A C28A C29A 91.7(11)
C23A C24A C25A C20A -1.6(15)
C23A C28A C29A C30A -84.2(12)
C23A C28A C29A C34A 91.8(11)
C24A C23A C28A C29A -83.6(11)
C25A C20A C21A O5A 179.2(9)
C25A C20A C21A C22A -0.9(16)
C26A O5A C21A C20A -179.0(11)
C26A O5A C21A C22A 1.1(15)
C27A O6A C24A C23A 170.2(9)
C27A O6A C24A C25A -9.9(14)
C28A C23A C24A O6A -4.7(14)
C28A C23A C24A C25A 175.5(9)
C28A C29A C30A O7A -1.9(13)
C28A C29A C30A C31A -179.5(9)
C28A C29A C34A C33A 179.2(9)
C29A C30A C31A C32A -2.4(15)
C30A C29A C34A C33A -4.7(15)
C30A C31A C32A C33A 0.5(14)
C30A C31A C32A C37A -178.9(9)
C31A C32A C33A O8A -179.2(8)
C31A C32A C33A C34A -0.7(14)
C31A C32A C37A C38A 89.5(10)
C32A C33A C34A C29A 2.9(15)
C32A C37A C38A C39A -88.8(10)
C32A C37A C38A C43A 91.9(10)
C33A C32A C37A C38A -89.9(11)
C34A C29A C30A O7A -178.0(8)
C34A C29A C30A C31A 4.4(15)
C35A O7A C30A C29A 175.3(9)
C35A O7A C30A C31A -7.3(14)
C36A O8A C33A C32A 129.2(9)
C36A O8A C33A C34A -49.3(13)
C37A C32A C33A O8A 0.1(13)
C37A C32A C33A C34A 178.6(9)
C37A C38A C39A C40A 176.9(8)
C37A C38A C39A C44A -6.2(13)
C37A C38A C43A C42A -179.3(8)
C38A C39A C40A C41A 3.7(13)
C38A C39A C44A C45A -61.2(13)
C38A C39A C44A C49A 123.2(10)
C39A C38A C43A C42A 1.4(13)
C39A C40A C41A C3A -176.1(8)
C39A C40A C41A C42A -0.9(13)
C39A C44A C45A C46A -169.1(9)
C39A C44A C49A C48A 171.4(10)
C40A C39A C44A C45A 115.8(10)
C40A C39A C44A C49A -59.9(12)
C40A C41A C42A C43A -1.6(13)
C40A C41A C42A C56A 174.2(8)
C41A C42A C43A C38A 1.3(13)
C41A C42A C56A C57A -56.8(12)
C41A C42A C56A C61A 127.8(10)
C42A C56A C57A C58A -173.0(9)
C42A C56A C61A C60A 173.3(9)
C43A C38A C39A C40A -3.8(12)
C43A C38A C39A C44A 173.1(8)
C43A C42A C56A C57A 119.0(10)
C43A C42A C56A C61A -56.3(12)
C44A C39A C40A C41A -173.3(8)
C44A C45A C46A C47A -4.5(16)
C45A C44A C49A C48A -4.4(15)
C45A C46A C47A C48A 0.0(17)
C45A C46A C47A C50A 177.3(11)
C46A C47A C48A C49A 2.2(17)
C46A C47A C50A O9A 126.9(13)
C46A C47A C50A N1A -49.4(17)
C47A C48A C49A C44A 0.0(17)
C48A C47A C50A O9A -55.8(17)
C48A C47A C50A N1A 128.0(12)
C49A C44A C45A C46A 6.7(15)
C50A N1A C51A C52A -132.1(12)
C50A N1A C54A C53A 157.5(11)
C50A N1A C54A C55A -82.7(13)
C50A C47A C48A C49A -175.2(11)
C51A N1A C50A O9A 166.9(12)
C51A N1A C50A C47A -16.8(18)
C51A N1A C54A C53A -1.9(12)
C51A N1A C54A C55A 117.9(10)
C51A C52A C53A C54A 35.6(12)
C52A C53A C54A N1A -21.1(12)
C52A C53A C54A C55A -142.0(10)
C53A C54A C55A O10A -174.1(10)
C54A N1A C50A O9A 12.0(18)
C54A N1A C50A C47A -171.7(10)
C54A N1A C51A C52A 25.0(12)
C56A C42A C43A C38A -174.7(8)
C56A C57A C58A C59A -1.1(14)
C57A C56A C61A C60A -2.2(14)
C57A C58A C59A C60A -0.4(14)
C57A C58A C59A C62A -178.6(10)
C58A C59A C60A C61A 0.6(14)
C58A C59A C62A O11A 136.4(11)
C58A C59A C62A N2A -43.3(16)
C59A C60A C61A C56A 0.7(15)
C60A C59A C62A O11A -41.6(17)
C60A C59A C62A N2A 138.7(11)
C61A C56A C57A C58A 2.5(13)
C62A N2A C63A C64A -137.9(12)
C62A N2A C66A C65A 160.7(13)
C62A N2A C66A C67A -76.3(14)
C62A C59A C60A C61A 178.8(11)
C63A N2A C62A O11A 163.0(13)
C63A N2A C62A C59A -17.3(17)
C63A N2A C66A C65A -1.8(16)
C63A N2A C66A C67A 121.1(12)
C63A C64A C65A C66A 40.0(18)
C64A C65A C66A N2A -22.7(16)
C64A C65A C66A C67A -142.4(13)
C65A C66A C67A O12A -60.5(14)
C66A N2A C62A O11A 2.1(18)
C66A N2A C62A C59A -178.2(10)
C66A N2A C63A C64A 24.9(15)
