#------------------------------------------------------------------------------
#$Date: 2016-03-26 14:41:37 +0200 (Sat, 26 Mar 2016) $
#$Revision: 180273 $
#$URL: svn://www.crystallography.net/cod/cif/7/11/59/7115950.cif $
#------------------------------------------------------------------------------
#
# This file is available in the Crystallography Open Database (COD),
# http://www.crystallography.net/
#
# All data on this site have been placed in the public domain by the
# contributors.
#
data_7115950
loop_
_publ_author_name
'Qi Zhang'
'Jiancan Yu'
'Jianfeng Cai'
'Ruijing Song'
'Yuanjing Cui'
'Yu Yang'
'Banglin Chen'
'Guodong Qian'
_publ_section_title
;
 A porous metal-organic framework with -COOH groups for highly efficient
 pollutant removal
;
_journal_name_full               Chem.Commun.
_journal_page_first              14455
_journal_paper_doi               10.1039/C4cc06648K
_journal_volume                  50
_journal_year                    2014
_chemical_formula_sum            'C24 H8 Cu2 O14'
_chemical_formula_weight         647.38
_chemical_name_systematic
;
 ?
;
_space_group_crystal_system      trigonal
_space_group_IT_number           166
_space_group_name_Hall           '-R 3 2"'
_space_group_name_H-M_alt        'R -3 m :H'
_symmetry_space_group_name_Hall  '-R 3 2"'
_symmetry_space_group_name_H-M   'R -3 m :H'
_atom_sites_solution_hydrogens   geom
_audit_creation_method           SHELXL-2013
_cell_angle_alpha                90
_cell_angle_beta                 90
_cell_angle_gamma                120
_cell_formula_units_Z            9
_cell_length_a                   18.6935(7)
_cell_length_b                   18.6935(7)
_cell_length_c                   38.3901(12)
_cell_measurement_reflns_used    9150
_cell_measurement_temperature    296(2)
_cell_measurement_theta_max      23.37
_cell_measurement_theta_min      2.18
_cell_volume                     11618.0(7)
_computing_cell_refinement       'Bruker SAINT'
_computing_data_collection       'Bruker APEX2'
_computing_data_reduction        'Bruker SAINT'
_computing_structure_refinement  'SHELXL-2013 (Sheldrick, 2013)'
_computing_structure_solution    'SHELXS-2013 (Sheldrick, 2013)'
_diffrn_ambient_temperature      296(2)
_diffrn_measured_fraction_theta_full 1.000
_diffrn_measured_fraction_theta_max 0.999
_diffrn_measurement_device_type  'Bruker APEX-II CCD'
_diffrn_measurement_method       '\f and \w scans'
_diffrn_radiation_type           MoK\a
_diffrn_radiation_wavelength     0.71073
_diffrn_reflns_av_R_equivalents  0.0591
_diffrn_reflns_av_unetI/netI     0.0338
_diffrn_reflns_Laue_measured_fraction_full 1.000
_diffrn_reflns_Laue_measured_fraction_max 0.999
_diffrn_reflns_limit_h_max       23
_diffrn_reflns_limit_h_min       -22
_diffrn_reflns_limit_k_max       22
_diffrn_reflns_limit_k_min       -23
_diffrn_reflns_limit_l_max       47
_diffrn_reflns_limit_l_min       -47
_diffrn_reflns_number            41989
_diffrn_reflns_point_group_measured_fraction_full 1.000
_diffrn_reflns_point_group_measured_fraction_max 0.999
_diffrn_reflns_theta_full        25.242
_diffrn_reflns_theta_max         26.023
_diffrn_reflns_theta_min         1.365
_diffrn_source                   'sealed tube'
_exptl_absorpt_coefficient_mu    0.860
_exptl_absorpt_correction_type   none
_exptl_crystal_colour            blue
_exptl_crystal_density_diffrn    0.833
_exptl_crystal_description       block
_exptl_crystal_F_000             2898
_exptl_crystal_size_max          0.3
_exptl_crystal_size_mid          0.26
_exptl_crystal_size_min          0.2
_refine_diff_density_max         0.600
_refine_diff_density_min         -0.354
_refine_diff_density_rms         0.089
_refine_ls_extinction_method     none
_refine_ls_goodness_of_fit_ref   1.079
_refine_ls_hydrogen_treatment    constr
_refine_ls_matrix_type           full
_refine_ls_number_parameters     121
_refine_ls_number_reflns         2800
_refine_ls_number_restraints     0
_refine_ls_restrained_S_all      1.079
_refine_ls_R_factor_all          0.0717
_refine_ls_R_factor_gt           0.0494
_refine_ls_shift/su_max          0.002
_refine_ls_shift/su_mean         0.000
_refine_ls_structure_factor_coef Fsqd
_refine_ls_weighting_details
'w=1/[\s^2^(Fo^2^)+(0.1288P)^2^] where P=(Fo^2^+2Fc^2^)/3'
_refine_ls_weighting_scheme      calc
_refine_ls_wR_factor_gt          0.1768
_refine_ls_wR_factor_ref         0.1940
_reflns_Friedel_coverage         0.000
_reflns_number_gt                1954
_reflns_number_total             2800
_reflns_threshold_expression     'I > 2\s(I)'
_cod_data_source_file            c4cc06648k2.cif
_cod_data_source_block           ZJU-24
_cod_original_cell_volume        11618.0(9)
_cod_database_code               7115950
#BEGIN Tags that were not found in dictionaries:
_shelx_space_group_comment
;
The symmetry employed for this shelxl refinement is uniquely defined
by the following loop, which should always be used as a source of
symmetry information in preference to the above space-group names.
They are only intended as comments.
;
_shelxl_version_number           2013-4
_shelx_res_file
;
TITL zC in R-3m
CELL 0.71073  18.6935  18.6935  38.3901  90.000  90.000 120.000
ZERR  9   0.0007   0.0007   0.0012   0.000   0.000   0.000
LATT  3
SYMM -Y, X-Y, Z
SYMM -X+Y, -X, Z
SYMM Y, X, -Z
SYMM X-Y, -Y, -Z
SYMM -X, -X+Y, -Z
SFAC C H O CU
UNIT 216 72 126 18
LIST 6 ! automatically inserted. Change 6 to 4 for CHECKCIF!!
TEMP 23.000

L.S. 5 0   52
BOND
FMAP 2
PLAN 8
ACTA
ABIN
WGHT    0.128800
FVAR       0.04303
MOLE   1
CU1   4    0.856640    0.143360    0.138270    10.50000    0.04622    0.04622 =
         0.03458   -0.00174    0.00174    0.03283
O1    3    0.775265    0.076981    0.210543    11.00000    0.07952    0.05134 =
         0.05577    0.01045    0.01417    0.04255
O2    3    0.815339    0.038420    0.163007    11.00000    0.08009    0.04842 =
         0.05217    0.00560    0.01001    0.04063
O3    3    0.890230    0.109770    0.089818    10.50000    0.12066    0.12066 =
         0.09053   -0.03287    0.03287    0.06322
O4    3    0.536622   -0.304415    0.262720    10.50000    0.17141    0.20592 =
         0.27356    0.04042   -0.07802    0.05638
O5    3    0.551210   -0.372100    0.295162    10.50000    0.50663    0.06851 =
         0.18570   -0.05323   -0.03794    0.00773
C1    1    0.786026    0.027135    0.193200    11.00000    0.05384    0.04859 =
         0.04756    0.00062   -0.00154    0.03482
C2    1    0.779820   -0.110090    0.193539    10.50000    0.06441    0.04866 =
         0.04776    0.00228    0.00456    0.03221
AFIX  43
H2    2    0.801379   -0.099311    0.171084    10.50000   -1.20000
AFIX   0
C3    1    0.763906   -0.053463    0.210111    11.00000    0.06534    0.04691 =
         0.04786    0.00735    0.00799    0.03478
C4    1    0.732665   -0.068949    0.244136    11.00000    0.07616    0.05086 =
         0.06264    0.00362    0.01135    0.04293
AFIX  43
H4    2    0.723072   -0.030478    0.255387    11.00000   -1.20000
AFIX   0
C5    1    0.715640   -0.142180    0.261476    10.50000    0.08904    0.05739 =
         0.04905    0.01002    0.02005    0.04452
C6    1    0.686210   -0.156895    0.297578    10.50000    0.08084    0.05440 =
         0.05702    0.00968    0.01936    0.04042
C7    1    0.623945   -0.231829    0.309065    10.50000    0.10938    0.05615 =
         0.05923   -0.00104    0.02170    0.03600
C8    1    0.724193   -0.091740    0.321636    10.50000    0.10011    0.06375 =
         0.06275    0.00848    0.03725    0.03340
AFIX  41
H8    2    0.761154   -0.039300    0.313240    10.50000   -1.20000
AFIX   0
C9    1    0.573565   -0.308148    0.285846    10.50000    0.15501    0.09215 =
         0.11577   -0.00131   -0.00180    0.03401
HKLF 4

REM  zC in R-3m
REM R1 =  0.0494 for    1954 Fo > 4sig(Fo)  and  0.0717 for all    2800 data
REM    121 parameters refined using      0 restraints

END

WGHT      0.1286      0.0000

REM Highest difference peak  0.600,  deepest hole -0.354,  1-sigma level  0.089
Q1    1   0.5960 -0.3680  0.2987  11.00000  0.05    0.60
Q2    1   0.9122  0.0878  0.1005  10.50000  0.05    0.50
Q3    1   0.5344 -0.2681  0.2570  11.00000  0.05    0.49
Q4    1   0.5027 -0.4181  0.3200  11.00000  0.05    0.41
Q5    1   0.4439 -0.4093  0.2652  11.00000  0.05    0.38
Q6    1   0.9090  0.1433  0.0626  11.00000  0.05    0.34
Q7    1   0.4779 -0.3715  0.2791  11.00000  0.05    0.31
Q8    1   0.4902 -0.3346  0.2993  11.00000  0.05    0.30
;
_shelx_res_checksum              8451
_shelx_fab_file
;
   -2    2    2   -407.10      0.00
   -3    3    3    -29.89      0.00
   -4    4    4     97.19      0.00
   -5    5    5     33.44      0.00
   -6    6    6    -38.86      0.00
   -7    7    7     -7.60      0.00
   -8    8    8      8.93      0.00
   -9    9    9     -1.75      0.00
  -10   10   10     -4.46      0.00
  -11   11   11     -2.47      0.00
  -12   12   12      0.96      0.00
  -13   13   13      2.78      0.00
  -14   14   14      3.87      0.00
  -15   15   15      0.48      0.00
  -16   16   16      2.43      0.00
  -17   17   17     -0.14      0.00
  -18   18   18      1.81      0.00
  -18   19   17     -4.60      0.00
  -17   18   16      1.47      0.00
  -16   17   15     -3.72      0.00
  -15   16   14      1.86      0.00
  -14   15   13      0.62      0.00
  -13   14   12     -0.03      0.00
  -12   13   11      0.89      0.00
  -11   12   10      2.04      0.00
  -10   11    9     -0.24      0.00
   -9   10    8     -7.56      0.00
   -8    9    7    -12.36      0.00
   -7    8    6     -4.84      0.00
   -6    7    5     32.16      0.00
   -5    6    4    -11.87      0.00
   -4    5    3    -67.76      0.00
   -3    4    2      3.37      0.00
   -2    3    1      7.93      0.00
   -1    2    0    279.83      0.00
   -1    1    1   -114.39      0.00
    0    1    2    281.02      0.00
   -1    2    3    -13.44      0.00
   -2    3    4   -113.97      0.00
   -3    4    5      9.49      0.00
   -4    5    6    -12.11      0.00
   -5    6    7    -21.39      0.00
   -6    7    8     11.15      0.00
   -7    8    9     10.16      0.00
   -8    9   10      3.03      0.00
   -9   10   11     -5.59      0.00
  -10   11   12     -1.14      0.00
  -11   12   13      0.10      0.00
  -12   13   14      3.93      0.00
  -13   14   15      3.32      0.00
  -14   15   16      6.19      0.00
  -15   16   17     -5.89      0.00
  -16   17   18     -1.12      0.00
  -17   18   19      4.34      0.00
  -17   19   15     -3.08      0.00
  -16   18   14      1.86      0.00
  -15   17   13     -2.86      0.00
  -14   16   12      1.71      0.00
  -13   15   11     -1.93      0.00
  -12   14   10     -0.58      0.00
  -11   13    9     -9.45      0.00
  -10   12    8     -2.79      0.00
   -9   11    7      4.46      0.00
   -8   10    6     -5.86      0.00
   -7    9    5      8.30      0.00
   -6    8    4      5.27      0.00
   -5    7    3    -40.44      0.00
   -4    6    2    -63.22      0.00
   -3    5    1      3.57      0.00
   -2    4    0    295.82      0.00
    0    2    4     41.08      0.00
   -1    3    5      1.74      0.00
   -2    4    6   -126.87      0.00
   -3    5    7    -29.50      0.00
   -4    6    8     68.75      0.00
   -5    7    9     19.85      0.00
   -6    8   10    -11.23      0.00
   -7    9   11    -10.74      0.00
   -8   10   12     -0.64      0.00
   -9   11   13      7.25      0.00
  -10   12   14      8.38      0.00
  -11   13   15     -2.97      0.00
  -12   14   16     -1.75      0.00
  -13   15   17     -1.12      0.00
  -14   16   18      4.89      0.00
  -15   17   19      1.47      0.00
  -16   18   20     -7.53      0.00
  -17   20   14      0.19      0.00
  -16   19   13     -2.40      0.00
  -15   18   12     -0.54      0.00
  -14   17   11     -1.08      0.00
  -13   16   10      1.53      0.00
  -12   15    9     -4.22      0.00
  -11   14    8     -3.93      0.00
  -10   13    7      0.07      0.00
   -9   12    6     -0.29      0.00
   -8   11    5     -1.89      0.00
   -7   10    4      3.90      0.00
   -6    9    3    -10.44      0.00
   -5    8    2      7.03      0.00
   -4    7    1     24.62      0.00
   -3    6    0      9.90      0.00
    0    3    6    -14.77      0.00
   -1    4    7     24.88      0.00
   -2    5    8    -43.54      0.00
   -3    6    9     10.50      0.00
   -4    7   10      3.73      0.00
   -5    8   11     -1.24      0.00
   -6    9   12     -0.38      0.00
   -7   10   13      3.32      0.00
   -8   11   14      0.39      0.00
   -9   12   15     -0.77      0.00
  -10   13   16     -0.08      0.00
  -11   14   17      0.29      0.00
  -12   15   18     -2.22      0.00
  -13   16   19     -0.28      0.00
  -14   17   20      0.34      0.00
  -15   18   21      3.43      0.00
  -16   20   12     -3.28      0.00
  -15   19   11      0.25      0.00
  -14   18   10      2.89      0.00
  -13   17    9     -0.74      0.00
  -12   16    8     -5.68      0.00
  -11   15    7     -0.92      0.00
  -10   14    6      1.73      0.00
   -9   13    5     -1.83      0.00
   -8   12    4      1.85      0.00
   -7   11    3      4.69      0.00
   -6   10    2      8.96      0.00
   -5    9    1      0.42      0.00
   -4    8    0     34.13      0.00
    0    4    8      4.57      0.00
   -1    5    9     19.49      0.00
   -2    6   10      4.72      0.00
   -3    7   11     -2.51      0.00
   -4    8   12    -10.37      0.00
   -5    9   13      1.13      0.00
   -6   10   14     -3.05      0.00
   -7   11   15      4.02      0.00
   -8   12   16     -1.07      0.00
   -9   13   17     -2.25      0.00
  -10   14   18     -1.87      0.00
  -11   15   19     -1.85      0.00
  -12   16   20      0.52      0.00
  -13   17   21      2.79      0.00
  -14   18   22      3.34      0.00
  -15   19   23     -0.96      0.00
  -16   21   11     -1.06      0.00
  -15   20   10     -1.05      0.00
  -14   19    9     -1.40      0.00
  -13   18    8     -0.50      0.00
  -12   17    7     -0.95      0.00
  -11   16    6     -1.48      0.00
  -10   15    5     -0.85      0.00
   -9   14    4      4.42      0.00
   -8   13    3      0.24      0.00
   -7   12    2     -7.62      0.00
   -6   11    1     10.24      0.00
   -5   10    0     31.76      0.00
    0    5   10     -6.01      0.00
   -1    6   11    -23.06      0.00
   -2    7   12      5.33      0.00
   -3    8   13      6.96      0.00
   -4    9   14     10.94      0.00
   -5   10   15      2.70      0.00
   -6   11   16     -9.01      0.00
   -7   12   17     -0.89      0.00
   -8   13   18      1.62      0.00
   -9   14   19      2.40      0.00
  -10   15   20     -0.67      0.00
  -11   16   21      2.03      0.00
  -12   17   22      5.35      0.00
  -13   18   23     -2.75      0.00
  -14   19   24     -3.09      0.00
  -15   21    9     -1.79      0.00
  -14   20    8     -2.54      0.00
  -13   19    7     -2.76      0.00
  -12   18    6     -2.09      0.00
  -11   17    5      1.56      0.00
  -10   16    4      5.16      0.00
   -9   15    3      4.96      0.00
   -8   14    2     -9.08      0.00
   -7   13    1     -3.54      0.00
   -6   12    0     17.97      0.00
    0    6   12     -8.70      0.00
   -1    7   13      4.33      0.00
   -2    8   14     -1.65      0.00
   -3    9   15     -0.56      0.00
   -4   10   16      4.60      0.00
   -5   11   17      0.70      0.00
   -6   12   18     -7.54      0.00
   -7   13   19     -0.18      0.00
   -8   14   20      4.71      0.00
   -9   15   21      5.51      0.00
  -10   16   22     -0.55      0.00
  -11   17   23     -1.29      0.00
  -12   18   24      3.04      0.00
  -13   19   25      3.01      0.00
  -15   22    8      4.82      0.00
  -14   21    7     -1.69      0.00
  -13   20    6     -0.42      0.00
  -12   19    5      2.90      0.00
  -11   18    4      1.96      0.00
  -10   17    3      4.47      0.00
   -9   16    2     -4.46      0.00
   -8   15    1      0.99      0.00
   -7   14    0      8.20      0.00
    0    7   14     14.24      0.00
   -1    8   15     -2.64      0.00
   -2    9   16     -9.38      0.00
   -3   10   17     -4.25      0.00
   -4   11   18      5.41      0.00
   -5   12   19      4.41      0.00
   -6   13   20     -3.78      0.00
   -7   14   21     -2.38      0.00
   -8   15   22      1.01      0.00
   -9   16   23      0.84      0.00
  -10   17   24     -1.07      0.00
  -11   18   25      1.53      0.00
  -12   19   26      0.98      0.00
  -14   22    6      3.10      0.00
  -13   21    5      0.82      0.00
  -12   20    4      2.78      0.00
  -11   19    3      2.88      0.00
  -10   18    2      1.88      0.00
   -9   17    1     -2.04      0.00
   -8   16    0     -1.83      0.00
    0    8   16     11.18      0.00
   -1    9   17      0.04      0.00
   -2   10   18     -2.06      0.00
   -3   11   19      0.69      0.00
   -4   12   20      4.72      0.00
   -5   13   21     -0.25      0.00
   -6   14   22     -1.97      0.00
   -7   15   23      4.40      0.00
   -8   16   24     -1.29      0.00
   -9   17   25     -3.06      0.00
  -10   18   26     -2.47      0.00
  -13   22    4     -0.85      0.00
  -12   21    3      2.45      0.00
  -11   20    2      1.86      0.00
  -10   19    1     -3.43      0.00
   -9   18    0      2.48      0.00
    0    9   18      7.95      0.00
   -1   10   19     -0.98      0.00
   -2   11   20     -2.69      0.00
   -3   12   21      0.13      0.00
   -4   13   22      1.03      0.00
   -5   14   23      0.77      0.00
   -6   15   24      1.35      0.00
   -7   16   25      2.95      0.00
   -8   17   26     -0.18      0.00
   -9   18   27     -7.97      0.00
  -12   22    2      1.12      0.00
  -11   21    1     -0.83      0.00
  -10   20    0      0.50      0.00
    0   10   20      6.36      0.00
   -1   11   21      0.85      0.00
   -2   12   22     -1.58      0.00
   -3   13   23     -3.18      0.00
   -4   14   24      2.23      0.00
   -5   15   25     -1.04      0.00
   -6   16   26      3.81      0.00
   -7   17   27     -0.07      0.00
   -8   18   28     -2.47      0.00
  -12   23    1     -7.29      0.00
  -11   22    0      1.90      0.00
    0   11   22      4.33      0.00
   -1   12   23     -3.53      0.00
   -2   13   24     -0.10      0.00
   -3   14   25      1.67      0.00
   -4   15   26      3.63      0.00
   -5   16   27     -2.36      0.00
   -6   17   28     -2.29      0.00
   -7   18   29      3.81      0.00
    0   12   24      1.95      0.00
   -1   13   25     -7.67      0.00
   -2   14   26     -0.98      0.00
   -3   15   27      3.48      0.00
   -4   16   28      0.90      0.00
   -5   17   29     -4.62      0.00
    0   13   26     -0.70      0.00
   -1   14   27      3.72      0.00
   -2   15   28     -1.83      0.00
   -3   16   29     -7.56      0.00
   -4   17   30      1.82      0.00
    0   14   28     -1.44      0.00
   -1   15   29     -0.25      0.00
   -2   16   30     -3.60      0.00
    0   15   30     -1.35      0.00
   -9   19   26     -0.35      0.00
  -10   19   25      0.26      0.00
  -11   19   24      2.65      0.00
  -12   19   23      1.93      0.00
  -13   19   22      0.41      0.00
  -14   19   21     -0.40      0.00
  -15   19   20     -0.87      0.00
  -16   19   19      3.08      0.00
  -17   19   18     -2.94      0.00
   -6   18   27      2.09      0.00
   -7   18   26      2.64      0.00
   -8   18   25     -2.72      0.00
   -9   18   24     -0.46      0.00
  -10   18   23     -0.68      0.00
  -11   18   22      2.07      0.00
  -12   18   21      2.53      0.00
  -13   18   20     -1.13      0.00
  -14   18   19      0.49      0.00
  -15   18   18      0.44      0.00
  -16   18   17     -1.49      0.00
  -18   18   15     -4.79      0.00
  -18   19   14      1.74      0.00
  -18   20   13      0.69      0.00
   -3   17   28     -0.62      0.00
   -4   17   27     -2.17      0.00
   -5   17   26     -2.41      0.00
   -6   17   25      4.18      0.00
   -7   17   24      4.33      0.00
   -8   17   23     -5.40      0.00
   -9   17   22     -8.38      0.00
  -10   17   21      4.85      0.00
  -11   17   20      5.04      0.00
  -12   17   19     -1.94      0.00
  -13   17   18     -1.40      0.00
  -14   17   17      1.03      0.00
  -15   17   16     -2.02      0.00
  -17   17   14      7.11      0.00
  -17   18   13     -3.80      0.00
  -17   19   12     -6.82      0.00
  -17   20   11      2.21      0.00
  -17   21   10      4.05      0.00
   -1   16   28     -3.65      0.00
   -2   16   27      1.02      0.00
   -3   16   26     -3.08      0.00
   -4   16   25     -0.77      0.00
   -5   16   24     -0.03      0.00
   -6   16   23      1.01      0.00
   -7   16   22      1.30      0.00
   -8   16   21      1.70      0.00
   -9   16   20     -3.35      0.00
  -10   16   19     -0.14      0.00
  -11   16   18     -1.69      0.00
  -12   16   17     -1.33      0.00
  -13   16   16      0.74      0.00
  -14   16   15     -2.72      0.00
  -16   16   13     -2.14      0.00
  -16   17   12     -0.91      0.00
  -16   18   11      0.69      0.00
  -16   19   10      0.78      0.00
  -16   20    9     -1.75      0.00
  -16   21    8      1.01      0.00
  -16   22    7      2.15      0.00
    0   15   27      1.03      0.00
   -1   15   26     -1.56      0.00
   -2   15   25      1.37      0.00
   -3   15   24      4.22      0.00
   -4   15   23     -3.03      0.00
   -5   15   22     -1.83      0.00
   -6   15   21      2.49      0.00
   -7   15   20      1.54      0.00
   -8   15   19      2.08      0.00
   -9   15   18      0.19      0.00
  -10   15   17     -0.02      0.00
  -11   15   16     -0.85      0.00
  -12   15   15     -1.50      0.00
  -13   15   14      7.79      0.00
  -15   15   12     -1.37      0.00
  -15   16   11     -0.47      0.00
  -15   17   10      2.91      0.00
  -15   18    9     -4.00      0.00
  -15   19    8     -1.98      0.00
  -15   20    7      2.31      0.00
  -15   21    6      1.45      0.00
  -15   22    5     -3.57      0.00
    0   14   25     -2.26      0.00
   -1   14   24      0.82      0.00
   -2   14   23     -2.93      0.00
   -3   14   22     -0.29      0.00
   -4   14   21     -1.22      0.00
   -5   14   20     -2.40      0.00
   -6   14   19      3.76      0.00
   -7   14   18      3.55      0.00
   -8   14   17      0.92      0.00
   -9   14   16     -0.72      0.00
  -10   14   15      0.70      0.00
  -11   14   14      5.60      0.00
  -12   14   13      2.55      0.00
  -14   14   11      1.56      0.00
  -14   15   10      0.92      0.00
  -14   16    9     -4.23      0.00
  -14   17    8     -5.00      0.00
  -14   18    7     -2.04      0.00
  -14   19    6      0.16      0.00
  -14   20    5      1.78      0.00
  -14   21    4     -0.38      0.00
  -14   22    3     -2.70      0.00
    0   13   23     -6.76      0.00
   -1   13   22      0.35      0.00
   -2   13   21     -1.09      0.00
   -3   13   20     -1.06      0.00
   -4   13   19      2.92      0.00
   -5   13   18     -1.78      0.00
   -6   13   17      1.86      0.00
   -7   13   16      2.29      0.00
   -8   13   15      0.52      0.00
   -9   13   14     -1.25      0.00
  -10   13   13      2.03      0.00
  -11   13   12     -2.41      0.00
  -13   13   10      3.86      0.00
  -13   14    9     -2.35      0.00
  -13   15    8     -4.38      0.00
  -13   16    7     -5.18      0.00
  -13   17    6      1.31      0.00
  -13   18    5      2.65      0.00
  -13   19    4      0.43      0.00
  -13   20    3      3.28      0.00
  -13   21    2     -1.81      0.00
  -13   22    1     -2.25      0.00
  -10   23    0      4.11      0.00
    0   12   21     -1.78      0.00
   -1   12   20      3.11      0.00
   -2   12   19     -0.99      0.00
   -3   12   18      8.43      0.00
   -4   12   17      2.91      0.00
   -5   12   16     -4.79      0.00
   -6   12   15      1.13      0.00
   -7   12   14     -3.93      0.00
   -8   12   13     -4.57      0.00
   -9   12   12     -3.11      0.00
  -10   12   11      1.03      0.00
  -12   12    9     -4.15      0.00
  -12   13    8     -2.08      0.00
  -12   14    7     -5.33      0.00
  -12   15    6      1.79      0.00
  -12   16    5      3.86      0.00
  -12   17    4      1.39      0.00
  -12   18    3     -0.44      0.00
  -12   19    2      2.14      0.00
  -12   20    1      3.58      0.00
   -9   21    0      1.33      0.00
  -10   22    1     -1.82      0.00
  -11   23    2     -1.88      0.00
    0   11   19      6.80      0.00
   -1   11   18      1.42      0.00
   -2   11   17     -1.73      0.00
   -3   11   16      8.94      0.00
   -4   11   15     -2.79      0.00
   -5   11   14     -9.09      0.00
   -6   11   13     -2.90      0.00
   -7   11   12     -1.19      0.00
   -8   11   11     -7.22      0.00
   -9   11   10     -2.14      0.00
  -11   11    8     -3.81      0.00
  -11   12    7     -4.17      0.00
  -11   13    6      0.37      0.00
  -11   14    5      4.41      0.00
  -11   15    4     -1.32      0.00
  -11   16    3      2.26      0.00
  -11   17    2      4.54      0.00
  -11   18    1      3.83      0.00
   -8   19    0      2.95      0.00
   -9   20    1     -3.16      0.00
  -10   21    2     -0.67      0.00
  -11   22    3     -1.57      0.00
    0   10   17      2.13      0.00
   -1   10   16     -3.97      0.00
   -2   10   15      0.98      0.00
   -3   10   14      4.90      0.00
   -4   10   13      0.96      0.00
   -5   10   12     -5.20      0.00
   -6   10   11     -0.22      0.00
   -7   10   10      1.41      0.00
   -8   10    9     -0.13      0.00
  -10   10    7      0.71      0.00
  -10   11    6      5.46      0.00
  -10   12    5      1.87      0.00
  -10   13    4     -2.48      0.00
  -10   14    3      6.77      0.00
  -10   15    2      3.01      0.00
  -10   16    1      4.70      0.00
   -7   17    0      0.93      0.00
   -8   18    1     -3.20      0.00
   -9   19    2      5.72      0.00
  -10   20    3     -1.97      0.00
  -11   21    4     -1.90      0.00
  -12   22    5     -2.89      0.00
    0    9   15     -3.33      0.00
   -1    9   14      0.96      0.00
   -2    9   13      2.98      0.00
   -3    9   12     -9.49      0.00
   -4    9   11     -1.58      0.00
   -5    9   10      8.24      0.00
   -6    9    9      8.15      0.00
   -7    9    8      3.23      0.00
   -9    9    6     -0.86      0.00
   -9   10    5      0.31      0.00
   -9   11    4      2.82      0.00
   -9   12    3      0.83      0.00
   -9   13    2     -3.07      0.00
   -9   14    1      6.46      0.00
   -6   15    0      0.38      0.00
   -7   16    1     -4.62      0.00
   -8   17    2      0.84      0.00
   -9   18    3      3.33      0.00
  -10   19    4      1.81      0.00
  -11   20    5     -0.93      0.00
  -12   21    6     -0.93      0.00
  -13   22    7      2.33      0.00
    0    8   13     -5.95      0.00
   -1    8   12     -7.87      0.00
   -2    8   11      5.51      0.00
   -3    8   10      1.32      0.00
   -4    8    9      0.86      0.00
   -5    8    8     19.37      0.00
   -6    8    7    -13.87      0.00
   -8    8    5      5.87      0.00
   -8    9    4      1.43      0.00
   -8   10    3     -5.76      0.00
   -8   11    2      0.04      0.00
   -8   12    1     -0.55      0.00
   -5   13    0     -1.91      0.00
   -6   14    1      1.71      0.00
   -7   15    2     -0.43      0.00
   -8   16    3      0.38      0.00
   -9   17    4     -1.95      0.00
  -10   18    5      5.95      0.00
  -11   19    6      0.93      0.00
  -12   20    7     -0.30      0.00
  -13   21    8      1.19      0.00
  -14   22    9      2.65      0.00
    0    7   11    -30.18      0.00
   -1    7   10      3.87      0.00
   -2    7    9     41.49      0.00
   -3    7    8     10.67      0.00
   -4    7    7      1.03      0.00
   -5    7    6    -20.09      0.00
   -7    7    4     -7.45      0.00
   -7    8    3     -3.85      0.00
   -7    9    2     -2.08      0.00
   -7   10    1      7.74      0.00
   -4   11    0     15.95      0.00
   -5   12    1     -1.94      0.00
   -6   13    2     -2.22      0.00
   -7   14    3     -2.95      0.00
   -8   15    4      1.57      0.00
   -9   16    5      3.02      0.00
  -10   17    6     -4.32      0.00
  -11   18    7     -2.77      0.00
  -12   19    8      0.11      0.00
  -13   20    9     -1.91      0.00
  -14   21   10      2.04      0.00
    0    6    9    -11.65      0.00
   -1    6    8    -20.44      0.00
   -2    6    7    -12.39      0.00
   -3    6    6    -14.78      0.00
   -4    6    5     10.40      0.00
   -6    6    3    -33.64      0.00
   -6    7    2    -13.84      0.00
   -6    8    1     22.11      0.00
   -3    9    0     16.59      0.00
   -4   10    1      1.01      0.00
   -5   11    2     11.34      0.00
   -6   12    3     -6.72      0.00
   -7   13    4     -5.19      0.00
   -8   14    5     -4.08      0.00
   -9   15    6      1.54      0.00
  -10   16    7     -4.81      0.00
  -11   17    8     -7.02      0.00
  -12   18    9      0.36      0.00
  -13   19   10     -0.10      0.00
  -14   20   11     -3.20      0.00
  -15   21   12     -1.62      0.00
    0    5    7    -12.78      0.00
   -1    5    6    -44.30      0.00
   -2    5    5    -41.90      0.00
   -3    5    4     22.14      0.00
   -5    5    2     -0.71      0.00
   -5    6    1      4.33      0.00
   -2    7    0     25.52      0.00
   -3    8    1      7.67      0.00
   -4    9    2    -14.77      0.00
   -5   10    3     -5.14      0.00
   -6   11    4      9.53      0.00
   -7   12    5      1.91      0.00
   -8   13    6     -2.97      0.00
   -9   14    7     -4.02      0.00
  -10   15    8     -0.57      0.00
  -11   16    9     -1.01      0.00
  -12   17   10     -1.43      0.00
  -13   18   11      1.00      0.00
  -14   19   12     -0.05      0.00
  -15   20   13     -5.14      0.00
  -16   21   14      1.74      0.00
    0    4    5     72.68      0.00
   -1    4    4    -24.83      0.00
   -2    4    3      8.04      0.00
   -4    4    1     91.06      0.00
   -1    5    0     46.40      0.00
   -2    6    1    -38.07      0.00
   -3    7    2     -7.29      0.00
   -4    8    3      2.44      0.00
   -5    9    4      4.14      0.00
   -6   10    5      8.08      0.00
   -7   11    6     -0.58      0.00
   -8   12    7      0.01      0.00
   -9   13    8      0.03      0.00
  -10   14    9      1.83      0.00
  -11   15   10      3.59      0.00
  -12   16   11     -0.54      0.00
  -13   17   12     -2.16      0.00
  -14   18   13     -2.32      0.00
  -15   19   14      5.44      0.00
  -16   20   15     -3.26      0.00
    0    3    3     66.38      0.00
   -1    3    2    -37.40      0.00
    0    3    0     87.98      0.00
   -1    4    1     21.61      0.00
   -2    5    2    -16.28      0.00
   -3    6    3    -32.48      0.00
   -4    7    4     28.18      0.00
   -5    8    5     10.55      0.00
   -6    9    6     -8.34      0.00
   -7   10    7     -6.97      0.00
   -8   11    8     -3.80      0.00
   -9   12    9      4.77      0.00
  -10   13   10     -1.24      0.00
  -11   14   11     -0.55      0.00
  -12   15   12     -1.40      0.00
  -13   16   13      1.77      0.00
  -14   17   14      8.67      0.00
  -15   18   15     -1.64      0.00
  -16   19   16     -5.84      0.00
    0    2    1   -168.80      0.00
    0    0    3    110.00      0.00
   -1    1    4    122.72      0.00
   -2    2    5    107.23      0.00
   -3    3    6   -147.66      0.00
   -4    4    7   -121.78      0.00
   -5    5    8     54.09      0.00
   -6    6    9     53.58      0.00
   -7    7   10    -11.87      0.00
   -8    8   11    -16.23      0.00
   -9    9   12      2.28      0.00
  -10   10   13      5.07      0.00
  -11   11   14      9.83      0.00
  -12   12   15     -0.02      0.00
  -13   13   16     -1.65      0.00
  -14   14   17     -2.27      0.00
  -15   15   18      0.95      0.00
  -16   16   19      6.02      0.00
  -17   17   20      1.41      0.00
    0    1    5   -218.80      0.00
   -1    2    6   -108.21      0.00
   -2    3    7    118.27      0.00
   -3    4    8     54.73      0.00
   -4    5    9    -35.50      0.00
   -5    6   10    -26.60      0.00
   -6    7   11     13.60      0.00
   -7    8   12      5.59      0.00
   -8    9   13      1.99      0.00
   -9   10   14     -0.10      0.00
  -10   11   15      3.09      0.00
  -11   12   16      3.37      0.00
  -12   13   17     -4.26      0.00
  -13   14   18      0.37      0.00
  -14   15   19      1.35      0.00
  -15   16   20     -2.15      0.00
  -16   17   21      1.09      0.00
  -17   18   22      0.28      0.00
    0    2    7   -203.72      0.00
   -1    3    8     19.11      0.00
   -2    4    9     73.61      0.00
   -3    5   10     17.35      0.00
   -4    6   11    -20.10      0.00
   -5    7   12     -9.56      0.00
   -6    8   13     13.20      0.00
   -7    9   14      2.55      0.00
   -8   10   15     -2.28      0.00
   -9   11   16     -0.88      0.00
  -10   12   17      1.26      0.00
  -11   13   18     -0.66      0.00
  -12   14   19     -4.51      0.00
  -13   15   20      0.30      0.00
  -14   16   21     -0.86      0.00
  -15   17   22      2.09      0.00
  -16   18   23     -2.44      0.00
    0    3    9    -38.44      0.00
   -1    4   10     -9.26      0.00
   -2    5   11      6.75      0.00
   -3    6   12     18.96      0.00
   -4    7   13    -16.89      0.00
   -5    8   14    -12.86      0.00
   -6    9   15     -3.58      0.00
   -7   10   16      5.56      0.00
   -8   11   17      6.62      0.00
   -9   12   18     -4.10      0.00
  -10   13   19     -4.11      0.00
  -11   14   20      0.24      0.00
  -12   15   21      2.34      0.00
  -13   16   22      2.01      0.00
  -14   17   23     -3.09      0.00
  -15   18   24     -0.42      0.00
    0    4   11    -32.82      0.00
   -1    5   12    -18.85      0.00
   -2    6   13     18.43      0.00
   -3    7   14      5.53      0.00
   -4    8   15     -4.68      0.00
   -5    9   16     -3.29      0.00
   -6   10   17      2.59      0.00
   -7   11   18      3.44      0.00
   -8   12   19     -1.62      0.00
   -9   13   20     -0.83      0.00
  -10   14   21      3.53      0.00
  -11   15   22     -0.17      0.00
  -12   16   23     -1.79      0.00
  -13   17   24     -1.54      0.00
  -14   18   25     -1.65      0.00
    0    5   13    -12.74      0.00
   -1    6   14      2.74      0.00
   -2    7   15      7.21      0.00
   -3    8   16     -3.69      0.00
   -4    9   17      9.39      0.00
   -5   10   18      6.90      0.00
   -6   11   19      2.60      0.00
   -7   12   20     -3.47      0.00
   -8   13   21     -5.53      0.00
   -9   14   22      2.38      0.00
  -10   15   23      1.70      0.00
  -11   16   24      0.21      0.00
  -12   17   25     -4.32      0.00
  -13   18   26      1.94      0.00
    0    6   15     -6.94      0.00
   -1    7   16      1.27      0.00
   -2    8   17      0.46      0.00
   -3    9   18     -0.42      0.00
   -4   10   19      1.36      0.00
   -5   11   20     -1.60      0.00
   -6   12   21     -2.92      0.00
   -7   13   22     -4.33      0.00
   -8   14   23      0.04      0.00
   -9   15   24     -0.97      0.00
  -10   16   25      1.80      0.00
  -11   17   26      5.20      0.00
  -12   18   27      0.88      0.00
    0    7   17     -1.29      0.00
   -1    8   18      3.75      0.00
   -2    9   19      3.65      0.00
   -3   10   20     -5.24      0.00
   -4   11   21     -6.15      0.00
   -5   12   22     -1.42      0.00
   -6   13   23      3.82      0.00
   -7   14   24     -2.44      0.00
   -8   15   25      1.28      0.00
   -9   16   26     -1.44      0.00
  -10   17   27      0.68      0.00
  -11   18   28      0.79      0.00
    0    8   19     -1.12      0.00
   -1    9   20      1.97      0.00
   -2   10   21      0.86      0.00
   -3   11   22      0.87      0.00
   -4   12   23     -2.77      0.00
   -5   13   24     -0.06      0.00
   -6   14   25      1.91      0.00
   -7   15   26      2.06      0.00
   -8   16   27     -1.38      0.00
   -9   17   28     -2.40      0.00
  -10   18   29     -2.53      0.00
    0    9   21     -3.94      0.00
   -1   10   22     -0.45      0.00
   -2   11   23     -0.55      0.00
   -3   12   24     -0.93      0.00
   -4   13   25     -3.11      0.00
   -5   14   26      1.20      0.00
   -6   15   27      0.51      0.00
   -7   16   28      2.03      0.00
   -8   17   29     -0.25      0.00
    0   10   23     -2.49      0.00
   -1   11   24      0.20      0.00
   -2   12   25     -0.72      0.00
   -3   13   26     -0.64      0.00
   -4   14   27     -0.67      0.00
   -5   15   28      3.20      0.00
   -6   16   29      1.63      0.00
   -7   17   30      0.40      0.00
    0   11   25     -1.46      0.00
   -1   12   26      1.31      0.00
   -2   13   27     -1.78      0.00
   -3   14   28      5.99      0.00
   -4   15   29     -0.55      0.00
   -5   16   30      1.52      0.00
   -6   17   31     -2.00      0.00
    0   12   27     -1.86      0.00
   -1   13   28     -1.12      0.00
   -2   14   29     -2.38      0.00
   -3   15   30      1.62      0.00
   -4   16   31     -2.33      0.00
    0   13   29     -2.30      0.00
   -1   14   30     -0.25      0.00
   -2   15   31      0.13      0.00
    0   14   31      6.23      0.00
   -1   15   32     -5.34      0.00
  -11   20   23     -1.11      0.00
  -12   20   22      2.37      0.00
  -13   20   21      3.16      0.00
  -14   20   20      0.30      0.00
  -15   20   19     -2.99      0.00
  -16   20   18     -1.09      0.00
   -7   19   25      1.66      0.00
   -8   19   24     -0.23      0.00
   -9   19   23      0.69      0.00
  -10   19   22      2.91      0.00
  -11   19   21      4.54      0.00
  -12   19   20      0.90      0.00
  -13   19   19     -2.86      0.00
  -14   19   18     -3.44      0.00
  -15   19   17     -2.21      0.00
  -19   19   13      1.20      0.00
   -4   18   26     -1.98      0.00
   -5   18   25      5.26      0.00
   -6   18   24      0.35      0.00
   -7   18   23      0.06      0.00
   -8   18   22      0.52      0.00
   -9   18   21      1.89      0.00
  -10   18   20     -1.48      0.00
  -11   18   19      1.54      0.00
  -12   18   18     -1.00      0.00
  -13   18   17     -3.13      0.00
  -14   18   16     -4.72      0.00
  -18   18   12      2.29      0.00
  -18   19   11      0.15      0.00
  -18   20   10     -0.13      0.00
   -2   17   26     -8.20      0.00
   -3   17   25     -1.53      0.00
   -4   17   24      2.12      0.00
   -5   17   23      2.79      0.00
   -6   17   22     -2.90      0.00
   -7   17   21     -1.76      0.00
   -8   17   20     -0.54      0.00
   -9   17   19     -1.02      0.00
  -10   17   18     -1.08      0.00
  -11   17   17      0.50      0.00
  -12   17   16     -7.05      0.00
  -13   17   15     -3.67      0.00
  -17   17   11     -3.01      0.00
  -17   18   10      3.28      0.00
  -17   19    9      0.75      0.00
  -17   20    8      1.60      0.00
  -17   21    7      3.43      0.00
    0   16   26     -4.14      0.00
   -1   16   25     -2.18      0.00
   -2   16   24      1.09      0.00
   -3   16   23     -3.43      0.00
   -4   16   22     -1.05      0.00
   -5   16   21     -0.40      0.00
   -6   16   20     -3.16      0.00
   -7   16   19      0.64      0.00
   -8   16   18     -2.12      0.00
   -9   16   17      0.77      0.00
  -10   16   16     -0.42      0.00
  -11   16   15     -4.41      0.00
  -12   16   14      0.53      0.00
  -16   16   10      0.39      0.00
  -16   17    9      0.61      0.00
  -16   18    8      0.83      0.00
  -16   19    7     -0.91      0.00
  -16   20    6      0.17      0.00
  -16   21    5      1.44      0.00
  -16   22    4     -1.32      0.00
    0   15   24      3.56      0.00
   -1   15   23     -0.71      0.00
   -2   15   22     -0.83      0.00
   -3   15   21     -0.54      0.00
   -4   15   20     -2.10      0.00
   -5   15   19      2.75      0.00
   -6   15   18     -1.71      0.00
   -7   15   17     -1.16      0.00
   -8   15   16     -2.80      0.00
   -9   15   15     -1.05      0.00
  -10   15   14      3.76      0.00
  -11   15   13      5.68      0.00
  -15   15    9      0.12      0.00
  -15   16    8     -4.68      0.00
  -15   17    7     -2.26      0.00
  -15   18    6     -1.53      0.00
  -15   19    5     -0.74      0.00
  -15   20    4      0.51      0.00
  -15   21    3     -0.79      0.00
  -15   22    2      0.10      0.00
    0   14   22      1.82      0.00
   -1   14   21     -1.08      0.00
   -2   14   20      1.03      0.00
   -3   14   19     -2.21      0.00
   -4   14   18     -3.70      0.00
   -5   14   17      1.04      0.00
   -6   14   16      1.27      0.00
   -7   14   15     -2.31      0.00
   -8   14   14     -0.47      0.00
   -9   14   13      1.44      0.00
  -10   14   12      0.77      0.00
  -14   14    8     -4.52      0.00
  -14   15    7      0.07      0.00
  -14   16    6     -0.23      0.00
  -14   17    5     -0.52      0.00
  -14   18    4     -0.43      0.00
  -14   19    3      3.09      0.00
  -14   20    2     -0.09      0.00
  -14   21    1     -0.29      0.00
   -8   22    0     -1.86      0.00
    0   13   20      2.21      0.00
   -1   13   19     -0.62      0.00
   -2   13   18      1.37      0.00
   -3   13   17      0.25      0.00
   -4   13   16     -2.15      0.00
   -5   13   15     -0.21      0.00
   -6   13   14      2.57      0.00
   -7   13   13     -8.82      0.00
   -8   13   12     -0.61      0.00
   -9   13   11      5.64      0.00
  -13   13    7      6.44      0.00
  -13   14    6      4.11      0.00
  -13   15    5      3.23      0.00
  -13   16    4      2.44      0.00
  -13   17    3      2.92      0.00
  -13   18    2      0.61      0.00
  -13   19    1      0.69      0.00
   -7   20    0     -2.22      0.00
   -8   21    1      1.17      0.00
   -9   22    2     -0.30      0.00
    0   12   18      0.76      0.00
   -1   12   17      4.39      0.00
   -2   12   16      0.93      0.00
   -3   12   15      0.64      0.00
   -4   12   14     -2.91      0.00
   -5   12   13      0.08      0.00
   -6   12   12      0.65      0.00
   -7   12   11     -5.96      0.00
   -8   12   10     -5.36      0.00
  -12   12    6      7.39      0.00
  -12   13    5      4.23      0.00
  -12   14    4     -1.43      0.00
  -12   15    3      3.59      0.00
  -12   16    2      6.06      0.00
  -12   17    1      0.67      0.00
   -6   18    0     -2.43      0.00
   -7   19    1     -3.96      0.00
   -8   20    2      0.66      0.00
   -9   21    3     -1.73      0.00
  -10   22    4      2.13      0.00
    0   11   16     -2.84      0.00
   -1   11   15     -2.22      0.00
   -2   11   14      5.80      0.00
   -3   11   13      5.56      0.00
   -4   11   12     -5.15      0.00
   -5   11   11      1.60      0.00
   -6   11   10      2.70      0.00
   -7   11    9     -1.67      0.00
  -11   11    5     -0.19      0.00
  -11   12    4     -2.16      0.00
  -11   13    3      6.98      0.00
  -11   14    2     -2.93      0.00
  -11   15    1      0.31      0.00
   -5   16    0      4.81      0.00
   -6   17    1     -3.09      0.00
   -7   18    2      3.55      0.00
   -8   19    3      1.35      0.00
   -9   20    4      1.35      0.00
  -10   21    5      0.87      0.00
  -11   22    6     -3.26      0.00
    0   10   14    -11.96      0.00
   -1   10   13      1.56      0.00
   -2   10   12      2.90      0.00
   -3   10   11      0.77      0.00
   -4   10   10      9.51      0.00
   -5   10    9      5.04      0.00
   -6   10    8     14.17      0.00
  -10   10    4      7.96      0.00
  -10   11    3      8.19      0.00
  -10   12    2     -4.64      0.00
  -10   13    1      2.52      0.00
   -4   14    0     -0.81      0.00
   -5   15    1     -5.61      0.00
   -6   16    2      4.43      0.00
   -7   17    3      6.81      0.00
   -8   18    4      2.56      0.00
   -9   19    5      2.84      0.00
  -10   20    6     -2.79      0.00
  -11   21    7     -2.81      0.00
  -12   22    8     -4.42      0.00
    0    9   12    -14.05      0.00
   -1    9   11     -0.71      0.00
   -2    9   10      0.52      0.00
   -3    9    9      0.37      0.00
   -4    9    8     -1.77      0.00
   -5    9    7     -1.80      0.00
   -9    9    3    -11.69      0.00
   -9   10    2     -2.07      0.00
   -9   11    1     -0.52      0.00
   -3   12    0      4.27      0.00
   -4   13    1     -2.08      0.00
   -5   14    2     -5.29      0.00
   -6   15    3      2.52      0.00
   -7   16    4      0.15      0.00
   -8   17    5      2.89      0.00
   -9   18    6      0.98      0.00
  -10   19    7      0.16      0.00
  -11   20    8      0.81      0.00
  -12   21    9     -0.72      0.00
  -13   22   10     -1.17      0.00
    0    8   10     -2.15      0.00
   -1    8    9      5.46      0.00
   -2    8    8    -11.57      0.00
   -3    8    7      3.29      0.00
   -4    8    6     -8.59      0.00
   -8    8    2     -5.52      0.00
   -8    9    1     -5.09      0.00
   -2   10    0      5.31      0.00
   -3   11    1      1.28      0.00
   -4   12    2     -9.68      0.00
   -5   13    3     -2.54      0.00
   -6   14    4      8.09      0.00
   -7   15    5     -1.99      0.00
   -8   16    6     -1.57      0.00
   -9   17    7      3.37      0.00
  -10   18    8     -3.04      0.00
  -11   19    9      0.80      0.00
  -12   20   10      2.69      0.00
  -13   21   11     -0.02      0.00
  -14   22   12      4.08      0.00
    0    7    8    -18.98      0.00
   -1    7    7     -7.73      0.00
   -2    7    6     15.85      0.00
   -3    7    5     16.07      0.00
   -7    7    1     22.07      0.00
   -1    8    0      3.64      0.00
   -2    9    1      9.35      0.00
   -3   10    2     -6.40      0.00
   -4   11    3     -2.48      0.00
   -5   12    4      8.33      0.00
   -6   13    5    -10.98      0.00
   -7   14    6     -6.31      0.00
   -8   15    7      2.86      0.00
   -9   16    8      4.67      0.00
  -10   17    9     -2.39      0.00
  -11   18   10     -6.63      0.00
  -12   19   11     -1.48      0.00
  -13   20   12      6.79      0.00
  -14   21   13      0.07      0.00
    0    6    6     11.62      0.00
   -1    6    5    -21.99      0.00
   -2    6    4     -4.94      0.00
    0    6    0     -2.49      0.00
   -1    7    1     24.38      0.00
   -2    8    2     13.34      0.00
   -3    9    3    -11.03      0.00
   -4   10    4     -5.39      0.00
   -5   11    5     -4.53      0.00
   -6   12    6     -8.12      0.00
   -7   13    7      3.69      0.00
   -8   14    8      0.13      0.00
   -9   15    9     -8.79      0.00
  -10   16   10      1.91      0.00
  -11   17   11     -0.51      0.00
  -12   18   12      1.36      0.00
  -13   19   13     -3.02      0.00
  -14   20   14      3.72      0.00
  -15   21   15     -4.79      0.00
    0    5    4     12.39      0.00
   -1    5    3    -22.39      0.00
    0    5    1     13.38      0.00
   -1    6    2      4.03      0.00
   -2    7    3     -7.51      0.00
   -3    8    4      1.64      0.00
   -4    9    5     -4.91      0.00
   -5   10    6    -10.77      0.00
   -6   11    7      4.66      0.00
   -7   12    8      4.86      0.00
   -8   13    9      3.85      0.00
   -9   14   10     -3.25      0.00
  -10   15   11     -0.64      0.00
  -11   16   12      0.81      0.00
  -12   17   13      2.08      0.00
  -13   18   14      0.62      0.00
  -14   19   15     -7.96      0.00
  -15   20   16     -5.78      0.00
    0    4    2     -3.75      0.00
    0    0    6    -84.16      0.00
   -1    1    7     22.46      0.00
   -2    2    8    199.58      0.00
   -3    3    9     36.46      0.00
   -4    4   10    -49.67      0.00
   -5    5   11    -25.88      0.00
   -6    6   12    -15.29      0.00
   -7    7   13      7.50      0.00
   -8    8   14     10.20      0.00
   -9    9   15     -4.94      0.00
  -10   10   16     -5.94      0.00
  -11   11   17      2.22      0.00
  -12   12   18      6.27      0.00
  -13   13   19      3.74      0.00
  -14   14   20     -4.33      0.00
  -15   15   21     -3.63      0.00
  -16   16   22      6.40      0.00
  -17   17   23     -0.11      0.00
    0    1    8      6.21      0.00
   -1    2    9    -64.03      0.00
   -2    3   10     58.01      0.00
   -3    4   11     20.70      0.00
   -4    5   12     15.12      0.00
   -5    6   13    -13.95      0.00
   -6    7   14    -15.35      0.00
   -7    8   15     -5.61      0.00
   -8    9   16      6.29      0.00
   -9   10   17      3.82      0.00
  -10   11   18     -5.86      0.00
  -11   12   19     -1.69      0.00
  -12   13   20      2.45      0.00
  -13   14   21      0.86      0.00
  -14   15   22     -1.29      0.00
  -15   16   23     -1.05      0.00
  -16   17   24     -0.74      0.00
    0    2   10    -55.68      0.00
   -1    3   11     -8.66      0.00
   -2    4   12     -8.00      0.00
   -3    5   13     -3.45      0.00
   -4    6   14      2.84      0.00
   -5    7   15      7.39      0.00
   -6    8   16      1.73      0.00
   -7    9   17     -5.93      0.00
   -8   10   18     -5.18      0.00
   -9   11   19      2.89      0.00
  -10   12   20      0.08      0.00
  -11   13   21     -4.25      0.00
  -12   14   22     -1.37      0.00
  -13   15   23     -1.01      0.00
  -14   16   24     -1.04      0.00
  -15   17   25      3.97      0.00
    0    3   12    -12.22      0.00
   -1    4   13     -5.76      0.00
   -2    5   14    -14.10      0.00
   -3    6   15      3.43      0.00
   -4    7   16     -5.42      0.00
   -5    8   17      1.96      0.00
   -6    9   18     -5.31      0.00
   -7   10   19     -1.93      0.00
   -8   11   20      2.86      0.00
   -9   12   21     -5.02      0.00
  -10   13   22      0.01      0.00
  -11   14   23      3.07      0.00
  -12   15   24      1.73      0.00
  -13   16   25     -2.17      0.00
  -14   17   26      0.57      0.00
    0    4   14      2.29      0.00
   -1    5   15      1.22      0.00
   -2    6   16      4.17      0.00
   -3    7   17     -1.48      0.00
   -4    8   18     -3.68      0.00
   -5    9   19     -1.53      0.00
   -6   10   20      4.27      0.00
   -7   11   21     -0.29      0.00
   -8   12   22     -2.16      0.00
   -9   13   23     -0.42      0.00
  -10   14   24      2.59      0.00
  -11   15   25      4.03      0.00
  -12   16   26     -0.43      0.00
  -13   17   27     -9.15      0.00
    0    5   16      7.97      0.00
   -1    6   17      5.15      0.00
   -2    7   18     -7.00      0.00
   -3    8   19      0.75      0.00
   -4    9   20      3.58      0.00
   -5   10   21     -1.03      0.00
   -6   11   22      1.58      0.00
   -7   12   23      1.24      0.00
   -8   13   24     -2.08      0.00
   -9   14   25      1.48      0.00
  -10   15   26     -1.64      0.00
  -11   16   27     -6.10      0.00
  -12   17   28      2.67      0.00
    0    6   18     -6.13      0.00
   -1    7   19     -2.20      0.00
   -2    8   20     -3.61      0.00
   -3    9   21      3.69      0.00
   -4   10   22     -0.36      0.00
   -5   11   23     -2.68      0.00
   -6   12   24      0.31      0.00
   -7   13   25      1.89      0.00
   -8   14   26     -0.42      0.00
   -9   15   27     -6.69      0.00
  -10   16   28      0.99      0.00
  -11   17   29      4.87      0.00
    0    7   20     -1.73      0.00
   -1    8   21      2.66      0.00
   -2    9   22      2.82      0.00
   -3   10   23     -2.90      0.00
   -4   11   24     -4.27      0.00
   -5   12   25      2.28      0.00
   -6   13   26      5.22      0.00
   -7   14   27     -1.16      0.00
   -8   15   28     -3.00      0.00
   -9   16   29      4.39      0.00
  -10   17   30     -0.27      0.00
    0    8   22      4.58      0.00
   -1    9   23     -1.86      0.00
   -2   10   24     -1.48      0.00
   -3   11   25      0.71      0.00
   -4   12   26     -0.86      0.00
   -5   13   27      0.29      0.00
   -6   14   28      0.05      0.00
   -7   15   29      3.10      0.00
   -8   16   30     -0.07      0.00
   -9   17   31     -2.79      0.00
    0    9   24     -1.46      0.00
   -1   10   25      1.81      0.00
   -2   11   26      1.02      0.00
   -3   12   27     -3.91      0.00
   -4   13   28     -1.61      0.00
   -5   14   29     -1.59      0.00
   -6   15   30      3.80      0.00
   -7   16   31      0.92      0.00
    0   10   26     -2.30      0.00
   -1   11   27      3.86      0.00
   -2   12   28      3.42      0.00
   -3   13   29     -3.67      0.00
   -4   14   30      3.54      0.00
   -5   15   31      0.47      0.00
   -6   16   32      1.84      0.00
    0   11   28      0.95      0.00
   -1   12   29     -2.04      0.00
   -2   13   30      3.64      0.00
   -3   14   31     -1.35      0.00
   -4   15   32      2.32      0.00
   -5   16   33      0.60      0.00
    0   12   30     -3.92      0.00
   -1   13   31     -6.77      0.00
   -2   14   32      2.16      0.00
   -3   15   33     -2.34      0.00
    0   13   32     -4.97      0.00
   -1   14   33      1.22      0.00
   -8   20   23      5.00      0.00
   -9   20   22     -1.99      0.00
  -10   20   21     -2.00      0.00
  -11   20   20      0.50      0.00
  -12   20   19     -2.31      0.00
  -13   20   18      1.43      0.00
  -14   20   17     -3.29      0.00
   -5   19   24      0.96      0.00
   -6   19   23      4.30      0.00
   -7   19   22      0.26      0.00
   -8   19   21      0.67      0.00
   -9   19   20      2.15      0.00
  -10   19   19     -2.65      0.00
  -11   19   18     -4.71      0.00
  -12   19   17      1.79      0.00
  -13   19   16     -4.82      0.00
  -19   19   10      5.72      0.00
  -19   20    9      5.88      0.00
   -3   18   24     -1.77      0.00
   -4   18   23      2.65      0.00
   -5   18   22     -1.65      0.00
   -6   18   21      0.53      0.00
   -7   18   20      0.37      0.00
   -8   18   19     -1.76      0.00
   -9   18   18     -0.19      0.00
  -10   18   17     -0.67      0.00
  -11   18   16     -5.17      0.00
  -12   18   15      1.32      0.00
  -18   18    9     -0.94      0.00
  -18   19    8      3.23      0.00
  -18   20    7      3.82      0.00
  -18   21    6      1.16      0.00
   -1   17   24     -0.84      0.00
   -2   17   23     -0.85      0.00
   -3   17   22     -3.67      0.00
   -4   17   21      2.98      0.00
   -5   17   20     -7.26      0.00
   -6   17   19     -5.46      0.00
   -7   17   18      2.67      0.00
   -8   17   17      2.77      0.00
   -9   17   16     -0.98      0.00
  -10   17   15      2.02      0.00
  -11   17   14     -1.10      0.00
  -17   17    8      4.72      0.00
  -17   18    7     -0.47      0.00
  -17   19    6      1.24      0.00
  -17   20    5     -1.44      0.00
  -17   21    4     -2.36      0.00
    0   16   23     -0.44      0.00
   -1   16   22     -1.31      0.00
   -2   16   21     -1.69      0.00
   -3   16   20      0.30      0.00
   -4   16   19      1.93      0.00
   -5   16   18     -5.05      0.00
   -6   16   17     -1.00      0.00
   -7   16   16      1.15      0.00
   -8   16   15      0.54      0.00
   -9   16   14      0.87      0.00
  -10   16   13      1.23      0.00
  -16   16    7      1.63      0.00
  -16   17    6      1.24      0.00
  -16   18    5      2.07      0.00
  -16   19    4     -0.59      0.00
  -16   20    3     -2.91      0.00
  -16   21    2     -5.40      0.00
  -16   22    1     -1.39      0.00
    0   15   21      1.38      0.00
   -1   15   20      0.09      0.00
   -2   15   19     -4.33      0.00
   -3   15   18      4.14      0.00
   -4   15   17      5.07      0.00
   -5   15   16     -2.08      0.00
   -6   15   15     -1.87      0.00
   -7   15   14     -1.81      0.00
   -8   15   13     -5.57      0.00
   -9   15   12     -1.55      0.00
  -15   15    6     -8.91      0.00
  -15   16    5      3.55      0.00
  -15   17    4      1.91      0.00
  -15   18    3     -0.09      0.00
  -15   19    2      1.26      0.00
  -15   20    1      0.42      0.00
   -6   21    0     -4.46      0.00
   -7   22    1      0.89      0.00
    0   14   19     -0.28      0.00
   -1   14   18      1.11      0.00
   -2   14   17      0.98      0.00
   -3   14   16     -1.47      0.00
   -4   14   15     -1.03      0.00
   -5   14   14     -2.16      0.00
   -6   14   13     -5.40      0.00
   -7   14   12     -1.91      0.00
   -8   14   11     -1.41      0.00
  -14   14    5      9.83      0.00
  -14   15    4     -0.87      0.00
  -14   16    3     -1.97      0.00
  -14   17    2      6.06      0.00
  -14   18    1      3.78      0.00
   -5   19    0     -0.86      0.00
   -6   20    1      1.92      0.00
   -7   21    2     -2.02      0.00
   -8   22    3      1.05      0.00
    0   13   17     -1.89      0.00
   -1   13   16     -4.60      0.00
   -2   13   15      1.27      0.00
   -3   13   14     -1.67      0.00
   -4   13   13     -5.11      0.00
   -5   13   12      3.13      0.00
   -6   13   11     -0.34      0.00
   -7   13   10     -2.32      0.00
  -13   13    4      2.14      0.00
  -13   14    3      8.35      0.00
  -13   15    2      7.81      0.00
  -13   16    1     -1.63      0.00
   -4   17    0     -0.71      0.00
   -5   18    1     -1.61      0.00
   -6   19    2     -3.55      0.00
   -7   20    3      0.27      0.00
   -8   21    4      1.78      0.00
   -9   22    5     -1.21      0.00
    0   12   15      0.22      0.00
   -1   12   14      0.11      0.00
   -2   12   13     -0.07      0.00
   -3   12   12     -1.52      0.00
   -4   12   11     -4.21      0.00
   -5   12   10     10.39      0.00
   -6   12    9      1.39      0.00
  -12   12    3      5.82      0.00
  -12   13    2      0.97      0.00
  -12   14    1     -1.17      0.00
   -3   15    0     -2.67      0.00
   -4   16    1     -3.54      0.00
   -5   17    2      1.19      0.00
   -6   18    3     -0.04      0.00
   -7   19    4     -1.83      0.00
   -8   20    5     -1.53      0.00
   -9   21    6     -3.25      0.00
  -10   22    7      4.36      0.00
    0   11   13     -2.25      0.00
   -1   11   12     -3.63      0.00
   -2   11   11      2.34      0.00
   -3   11   10      8.52      0.00
   -4   11    9      6.44      0.00
   -5   11    8      4.25      0.00
  -11   11    2     -0.69      0.00
  -11   12    1     -2.50      0.00
   -2   13    0     -5.41      0.00
   -3   14    1     -1.20      0.00
   -4   15    2     -1.35      0.00
   -5   16    3      2.01      0.00
   -6   17    4      0.81      0.00
   -7   18    5      2.91      0.00
   -8   19    6      0.92      0.00
   -9   20    7      2.94      0.00
  -10   21    8     -1.49      0.00
  -11   22    9     -2.72      0.00
    0   10   11     -4.13      0.00
   -1   10   10     -0.35      0.00
   -2   10    9      1.23      0.00
   -3   10    8      1.26      0.00
   -4   10    7      9.91      0.00
  -10   10    1      1.15      0.00
   -1   11    0     -2.75      0.00
   -2   12    1      2.28      0.00
   -3   13    2      0.17      0.00
   -4   14    3     -4.52      0.00
   -5   15    4     -3.57      0.00
   -6   16    5      5.65      0.00
   -7   17    6      4.21      0.00
   -8   18    7     -0.83      0.00
   -9   19    8      0.28      0.00
  -10   20    9      3.20      0.00
  -11   21   10     -1.83      0.00
  -12   22   11     -8.35      0.00
    0    9    9      9.06      0.00
   -1    9    8      5.53      0.00
   -2    9    7    -17.49      0.00
   -3    9    6    -15.08      0.00
    0    9    0      3.53      0.00
   -1   10    1     -4.30      0.00
   -2   11    2      1.25      0.00
   -3   12    3     -7.82      0.00
   -4   13    4     -2.79      0.00
   -5   14    5      0.90      0.00
   -6   15    6      3.06      0.00
   -7   16    7     -1.61      0.00
   -8   17    8      1.18      0.00
   -9   18    9      0.26      0.00
  -10   19   10      2.22      0.00
  -11   20   11     -0.76      0.00
  -12   21   12      1.99      0.00
  -13   22   13     -1.66      0.00
    0    8    7      4.81      0.00
   -1    8    6      7.29      0.00
   -2    8    5     -9.05      0.00
    0    8    1      0.04      0.00
   -1    9    2     -3.41      0.00
   -2   10    3      2.09      0.00
   -3   11    4     -4.67      0.00
   -4   12    5     -7.09      0.00
   -5   13    6      4.47      0.00
   -6   14    7      1.31      0.00
   -7   15    8      0.94      0.00
   -8   16    9      3.65      0.00
   -9   17   10      4.48      0.00
  -10   18   11     -4.86      0.00
  -11   19   12      3.64      0.00
  -12   20   13     -1.15      0.00
  -13   21   14      4.65      0.00
    0    7    5      8.05      0.00
   -1    7    4     19.22      0.00
    0    7    2    -20.59      0.00
   -1    8    3      8.99      0.00
   -2    9    4     -6.71      0.00
   -3   10    5      2.14      0.00
   -4   11    6     -0.39      0.00
   -5   12    7     -0.29      0.00
   -6   13    8      2.08      0.00
   -7   14    9      3.98      0.00
   -8   15   10     -2.31      0.00
   -9   16   11     -0.60      0.00
  -10   17   12      2.96      0.00
  -11   18   13      1.78      0.00
  -12   19   14     -0.46      0.00
  -13   20   15      0.11      0.00
  -14   21   16      1.50      0.00
    0    6    3     -5.30      0.00
  -16   19   22      3.86      0.00
    0    0    9    -18.22      0.00
   -1    1   10     68.78      0.00
   -2    2   11     49.42      0.00
   -3    3   12     -4.16      0.00
   -4    4   13     -3.66      0.00
   -5    5   14     -6.09      0.00
   -6    6   15    -14.83      0.00
   -7    7   16     -7.13      0.00
   -8    8   17     -3.82      0.00
   -9    9   18     -3.01      0.00
  -10   10   19      2.72      0.00
  -11   11   20     -2.76      0.00
  -12   12   21      3.45      0.00
  -13   13   22      7.19      0.00
  -14   14   23      4.07      0.00
  -15   15   24     -5.73      0.00
  -16   16   25      3.93      0.00
    0    1   11     26.06      0.00
   -1    2   12     -6.42      0.00
   -2    3   13    -43.35      0.00
   -3    4   14    -28.28      0.00
   -4    5   15     21.42      0.00
   -5    6   16      9.96      0.00
   -6    7   17      3.60      0.00
   -7    8   18     -7.51      0.00
   -8    9   19     -6.29      0.00
   -9   10   20     -0.41      0.00
  -10   11   21     -0.50      0.00
  -11   12   22     -1.23      0.00
  -12   13   23      2.99      0.00
  -13   14   24      2.49      0.00
  -14   15   25      2.19      0.00
  -15   16   26     -2.06      0.00
    0    2   13    -11.01      0.00
   -1    3   14      7.94      0.00
   -2    4   15    -31.24      0.00
   -3    5   16    -11.82      0.00
   -4    6   17      3.46      0.00
   -5    7   18     12.08      0.00
   -6    8   19      6.11      0.00
   -7    9   20     -4.11      0.00
   -8   10   21     -7.41      0.00
   -9   11   22      0.11      0.00
  -10   12   23      0.89      0.00
  -11   13   24     -0.60      0.00
  -12   14   25     -0.77      0.00
  -13   15   26      0.68      0.00
  -14   16   27      0.03      0.00
  -15   17   28      0.06      0.00
    0    3   15     32.05      0.00
   -1    4   16     10.06      0.00
   -2    5   17    -11.85      0.00
   -3    6   18     -9.38      0.00
   -4    7   19      1.99      0.00
   -5    8   20      3.97      0.00
   -6    9   21     -6.89      0.00
   -7   10   22     -3.31      0.00
   -8   11   23     -0.27      0.00
   -9   12   24      2.50      0.00
  -10   13   25      3.63      0.00
  -11   14   26      2.52      0.00
  -12   15   27     -1.98      0.00
  -13   16   28      1.18      0.00
  -14   17   29     -1.33      0.00
    0    4   17     19.83      0.00
   -1    5   18     -0.66      0.00
   -2    6   19      2.57      0.00
   -3    7   20     -2.62      0.00
   -4    8   21      1.06      0.00
   -5    9   22     -5.14      0.00
   -6   10   23     -2.86      0.00
   -7   11   24      5.14      0.00
   -8   12   25      0.66      0.00
   -9   13   26      2.65      0.00
  -10   14   27     -1.38      0.00
  -11   15   28      2.82      0.00
  -12   16   29     -3.58      0.00
  -13   17   30      6.33      0.00
    0    5   19     13.90      0.00
   -1    6   20      2.57      0.00
   -2    7   21     -5.32      0.00
   -3    8   22     -1.33      0.00
   -4    9   23      0.12      0.00
   -5   10   24      0.40      0.00
   -6   11   25      2.72      0.00
   -7   12   26      3.08      0.00
   -8   13   27     -3.41      0.00
   -9   14   28     -0.62      0.00
  -10   15   29     -1.31      0.00
  -11   16   30      2.10      0.00
    0    6   21      1.94      0.00
   -1    7   22     -1.50      0.00
   -2    8   23     -3.55      0.00
   -3    9   24      1.07      0.00
   -4   10   25     -0.86      0.00
   -5   11   26     -3.71      0.00
   -6   12   27      5.66      0.00
   -7   13   28      2.90      0.00
   -8   14   29     -1.46      0.00
   -9   15   30     -3.15      0.00
  -10   16   31      1.33      0.00
    0    7   23      2.45      0.00
   -1    8   24      1.76      0.00
   -2    9   25     -1.48      0.00
   -3   10   26     -1.61      0.00
   -4   11   27     -0.06      0.00
   -5   12   28      1.06      0.00
   -6   13   29      3.17      0.00
   -7   14   30      1.06      0.00
   -8   15   31     -2.33      0.00
   -9   16   32      1.23      0.00
    0    8   25      4.38      0.00
   -1    9   26     -3.26      0.00
   -2   10   27      1.04      0.00
   -3   11   28      6.19      0.00
   -4   12   29     -4.40      0.00
   -5   13   30     -1.39      0.00
   -6   14   31     -1.16      0.00
   -7   15   32      4.70      0.00
   -8   16   33      2.52      0.00
    0    9   27      6.69      0.00
   -1   10   28      1.22      0.00
   -2   11   29     -1.34      0.00
   -3   12   30      2.14      0.00
   -4   13   31     -2.59      0.00
   -5   14   32      1.37      0.00
   -6   15   33      3.03      0.00
    0   10   29      6.26      0.00
   -1   11   30     -5.24      0.00
   -2   12   31     -3.52      0.00
   -3   13   32     10.80      0.00
   -4   14   33      1.63      0.00
   -5   15   34     -0.72      0.00
    0   11   31      0.68      0.00
   -1   12   32      0.77      0.00
   -2   13   33     -6.42      0.00
   -3   14   34      4.82      0.00
    0   12   33    -13.32      0.00
   -1   13   34     -0.58      0.00
   -2   14   35      0.30      0.00
    0   13   35     -1.43      0.00
  -11   21   19     -5.34      0.00
  -12   21   18     -2.79      0.00
  -13   21   17      1.42      0.00
   -7   20   21      0.48      0.00
   -8   20   20     -1.71      0.00
   -9   20   19     -2.87      0.00
  -10   20   18      3.91      0.00
  -11   20   17     -4.65      0.00
  -12   20   16     -5.85      0.00
   -4   19   22     -6.67      0.00
   -5   19   21      1.49      0.00
   -6   19   20      3.77      0.00
   -7   19   19      1.81      0.00
   -8   19   18     -2.19      0.00
   -9   19   17     -1.40      0.00
  -10   19   16     -2.53      0.00
  -11   19   15      0.50      0.00
  -19   19    7      2.72      0.00
  -19   20    6      3.53      0.00
   -2   18   22     -5.04      0.00
   -3   18   21      4.44      0.00
   -4   18   20     -4.18      0.00
   -5   18   19      0.45      0.00
   -6   18   18      1.75      0.00
   -7   18   17     -1.77      0.00
   -8   18   16      0.24      0.00
   -9   18   15      3.48      0.00
  -10   18   14     -4.35      0.00
  -18   18    6      2.53      0.00
  -18   19    5      1.41      0.00
  -18   20    4      0.85      0.00
  -18   21    3     -1.44      0.00
    0   17   22     -1.07      0.00
   -1   17   21      6.86      0.00
   -2   17   20     -0.30      0.00
   -3   17   19     -2.01      0.00
   -4   17   18     -1.79      0.00
   -5   17   17     -4.99      0.00
   -6   17   16     -0.28      0.00
   -7   17   15      2.78      0.00
   -8   17   14      2.07      0.00
   -9   17   13      3.95      0.00
  -17   17    5      1.33      0.00
  -17   18    4      1.45      0.00
  -17   19    3      0.65      0.00
  -17   20    2      0.36      0.00
  -17   21    1      0.02      0.00
   -5   22    0    -10.72      0.00
    0   16   20      2.61      0.00
   -1   16   19     -2.38      0.00
   -2   16   18     -1.43      0.00
   -3   16   17     -1.07      0.00
   -4   16   16      1.44      0.00
   -5   16   15      0.34      0.00
   -6   16   14      0.74      0.00
   -7   16   13      1.04      0.00
   -8   16   12     -0.12      0.00
  -16   16    4     -0.54      0.00
  -16   17    3     -1.64      0.00
  -16   18    2      0.93      0.00
  -16   19    1      1.81      0.00
   -4   20    0      0.05      0.00
   -5   21    1     -2.69      0.00
   -6   22    2     -7.89      0.00
    0   15   18     -1.49      0.00
   -1   15   17     -4.22      0.00
   -2   15   16      1.11      0.00
   -3   15   15      2.25      0.00
   -4   15   14      3.34      0.00
   -5   15   13     -3.20      0.00
   -6   15   12     -3.79      0.00
   -7   15   11      4.34      0.00
  -15   15    3      2.70      0.00
  -15   16    2      0.90      0.00
  -15   17    1     -0.77      0.00
   -3   18    0     -0.03      0.00
   -4   19    1      2.42      0.00
   -5   20    2      0.08      0.00
   -6   21    3     -0.42      0.00
   -7   22    4     -1.27      0.00
    0   14   16     -1.98      0.00
   -1   14   15     -3.81      0.00
   -2   14   14      2.15      0.00
   -3   14   13      1.26      0.00
   -4   14   12      2.14      0.00
   -5   14   11     -6.39      0.00
   -6   14   10     -2.52      0.00
  -14   14    2      1.75      0.00
  -14   15    1     -0.94      0.00
   -2   16    0      0.98      0.00
   -3   17    1     -1.74      0.00
   -4   18    2     -3.07      0.00
   -5   19    3      4.04      0.00
   -6   20    4      5.68      0.00
   -7   21    5      1.14      0.00
   -8   22    6     -4.59      0.00
    0   13   14     -4.81      0.00
   -1   13   13     -2.11      0.00
   -2   13   12      1.85      0.00
   -3   13   11     -3.36      0.00
   -4   13   10      2.99      0.00
   -5   13    9      2.17      0.00
  -13   13    1     -5.75      0.00
   -1   14    0     -1.08      0.00
   -2   15    1     -2.07      0.00
   -3   16    2     -2.38      0.00
   -4   17    3      4.39      0.00
   -5   18    4     -1.76      0.00
   -6   19    5     -0.57      0.00
   -7   20    6     -3.48      0.00
   -8   21    7     -0.10      0.00
   -9   22    8      0.11      0.00
    0   12   12      6.48      0.00
   -1   12   11     -3.01      0.00
   -2   12   10     -5.15      0.00
   -3   12    9      4.94      0.00
   -4   12    8      2.56      0.00
    0   12    0     -3.07      0.00
   -1   13    1      0.42      0.00
   -2   14    2     -4.85      0.00
   -3   15    3      0.09      0.00
   -4   16    4     -1.48      0.00
   -5   17    5      5.79      0.00
   -6   18    6     -1.49      0.00
   -7   19    7     -1.45      0.00
   -8   20    8     -2.45      0.00
   -9   21    9      0.22      0.00
  -10   22   10     -0.09      0.00
    0   11   10      4.10      0.00
   -1   11    9     -3.47      0.00
   -2   11    8     -6.23      0.00
   -3   11    7      6.89      0.00
    0   11    1      2.48      0.00
   -1   12    2     -0.32      0.00
   -2   13    3     -0.79      0.00
   -3   14    4     -0.02      0.00
   -4   15    5     -0.07      0.00
   -5   16    6      6.20      0.00
   -6   17    7      0.66      0.00
   -7   18    8      2.33      0.00
   -8   19    9     -2.90      0.00
   -9   20   10     -2.64      0.00
  -10   21   11      0.08      0.00
  -11   22   12      1.61      0.00
    0   10    8      7.17      0.00
   -1   10    7     -6.37      0.00
   -2   10    6     -2.70      0.00
    0   10    2     -3.44      0.00
   -1   11    3     -8.24      0.00
   -2   12    4      8.31      0.00
   -3   13    5      0.42      0.00
   -4   14    6     -1.05      0.00
   -5   15    7     -3.43      0.00
   -6   16    8      4.39      0.00
   -7   17    9     -3.16      0.00
   -8   18   10      2.53      0.00
   -9   19   11     -2.19      0.00
  -10   20   12      9.29      0.00
  -11   21   13     -2.93      0.00
  -12   22   14     -5.41      0.00
    0    9    6     17.20      0.00
   -1    9    5      6.90      0.00
    0    9    3     -7.10      0.00
   -1   10    4     -1.49      0.00
   -2   11    5      3.92      0.00
   -3   12    6     -6.05      0.00
   -4   13    7      3.37      0.00
   -5   14    8     -0.25      0.00
   -6   15    9      0.07      0.00
   -7   16   10     -2.43      0.00
   -8   17   11      0.93      0.00
   -9   18   12      6.02      0.00
  -10   19   13      1.79      0.00
  -11   20   14     -1.33      0.00
  -12   21   15     -3.47      0.00
    0    8    4     -6.94      0.00
    0    0   12    -63.43      0.00
   -1    1   13    -26.04      0.00
   -2    2   14     27.27      0.00
   -3    3   15     -7.16      0.00
   -4    4   16      3.80      0.00
   -5    5   17     -6.36      0.00
   -6    6   18      2.17      0.00
   -7    7   19      4.97      0.00
   -8    8   20     -1.26      0.00
   -9    9   21     -6.32      0.00
  -10   10   22     -0.82      0.00
  -11   11   23      3.08      0.00
  -12   12   24      1.75      0.00
  -13   13   25      5.65      0.00
  -14   14   26     -0.41      0.00
  -15   15   27      3.04      0.00
  -16   16   28      0.42      0.00
    0    1   14    -25.94      0.00
   -1    2   15     15.70      0.00
   -2    3   16     16.10      0.00
   -3    4   17     -8.43      0.00
   -4    5   18     -3.29      0.00
   -5    6   19     -5.14      0.00
   -6    7   20     12.31      0.00
   -7    8   21      7.41      0.00
   -8    9   22     -1.16      0.00
   -9   10   23     -4.04      0.00
  -10   11   24     -0.75      0.00
  -11   12   25      1.36      0.00
  -12   13   26     -0.55      0.00
  -13   14   27      1.70      0.00
  -14   15   28     -3.04      0.00
  -15   16   29      1.36      0.00
    0    2   16     18.90      0.00
   -1    3   17      6.44      0.00
   -2    4   18     -0.53      0.00
   -3    5   19     10.53      0.00
   -4    6   20     -4.90      0.00
   -5    7   21     -0.77      0.00
   -6    8   22     -0.31      0.00
   -7    9   23      2.14      0.00
   -8   10   24      1.81      0.00
   -9   11   25     -2.69      0.00
  -10   12   26      1.35      0.00
  -11   13   27      0.52      0.00
  -12   14   28      1.25      0.00
  -13   15   29     -4.31      0.00
  -14   16   30     -0.63      0.00
    0    3   18      9.03      0.00
   -1    4   19      6.65      0.00
   -2    5   20      3.06      0.00
   -3    6   21      0.96      0.00
   -4    7   22     -2.06      0.00
   -5    8   23     -1.47      0.00
   -6    9   24     -5.82      0.00
   -7   10   25      0.80      0.00
   -8   11   26      2.34      0.00
   -9   12   27     -0.98      0.00
  -10   13   28      5.71      0.00
  -11   14   29      0.71      0.00
  -12   15   30      3.95      0.00
  -13   16   31     -1.38      0.00
    0    4   20     -0.87      0.00
   -1    5   21     -8.42      0.00
   -2    6   22      4.50      0.00
   -3    7   23      3.66      0.00
   -4    8   24      1.59      0.00
   -5    9   25     -4.15      0.00
   -6   10   26     -3.48      0.00
   -7   11   27      4.41      0.00
   -8   12   28      1.78      0.00
   -9   13   29     -1.40      0.00
  -10   14   30      1.22      0.00
  -11   15   31      2.73      0.00
  -12   16   32      4.22      0.00
    0    5   22      2.51      0.00
   -1    6   23      4.94      0.00
   -2    7   24      2.49      0.00
   -3    8   25     -3.32      0.00
   -4    9   26     -1.20      0.00
   -5   10   27     -0.92      0.00
   -6   11   28     -0.82      0.00
   -7   12   29      0.97      0.00
   -8   13   30     -0.31      0.00
   -9   14   31     -2.31      0.00
  -10   15   32      1.31      0.00
  -11   16   33      2.81      0.00
    0    6   24      0.63      0.00
   -1    7   25     -1.05      0.00
   -2    8   26     -3.48      0.00
   -3    9   27     -4.92      0.00
   -4   10   28      0.60      0.00
   -5   11   29     -1.64      0.00
   -6   12   30      0.11      0.00
   -7   13   31     -1.49      0.00
   -8   14   32      3.27      0.00
   -9   15   33      2.28      0.00
    0    7   26     -5.56      0.00
   -1    8   27     -1.69      0.00
   -2    9   28      0.23      0.00
   -3   10   29     -0.86      0.00
   -4   11   30      1.00      0.00
   -5   12   31     -0.97      0.00
   -6   13   32      2.49      0.00
   -7   14   33     -0.66      0.00
   -8   15   34      0.60      0.00
    0    8   28     -1.32      0.00
   -1    9   29      2.21      0.00
   -2   10   30      1.15      0.00
   -3   11   31     -0.75      0.00
   -4   12   32      2.24      0.00
   -5   13   33     -1.86      0.00
   -6   14   34      0.25      0.00
   -7   15   35      1.85      0.00
    0    9   30     -1.66      0.00
   -1   10   31     -0.10      0.00
   -2   11   32     -0.45      0.00
   -3   12   33      1.43      0.00
   -4   13   34      4.18      0.00
   -5   14   35      0.88      0.00
    0   10   32      1.05      0.00
   -1   11   33     -3.23      0.00
   -2   12   34      1.45      0.00
   -3   13   35      6.01      0.00
   -4   14   36      4.30      0.00
    0   11   34     -1.22      0.00
   -1   12   35     -2.91      0.00
   -2   13   36      8.63      0.00
    0   12   36      1.10      0.00
   -9   21   18     -3.50      0.00
  -10   21   17     -2.99      0.00
  -11   21   16     -1.28      0.00
   -5   20   20     -0.65      0.00
   -6   20   19      0.03      0.00
   -7   20   18     -1.11      0.00
   -8   20   17     -3.40      0.00
   -9   20   16     -0.63      0.00
  -10   20   15      4.94      0.00
   -3   19   20     -4.46      0.00
   -4   19   19     -1.22      0.00
   -5   19   18      1.14      0.00
   -6   19   17      2.09      0.00
   -7   19   16      1.09      0.00
   -8   19   15      0.89      0.00
   -9   19   14     -0.37      0.00
  -19   19    4      1.15      0.00
  -19   20    3     -0.22      0.00
   -1   18   20     -2.75      0.00
   -2   18   19      1.98      0.00
   -3   18   18     -1.01      0.00
   -4   18   17     -4.08      0.00
   -5   18   16      2.40      0.00
   -6   18   15      2.81      0.00
   -7   18   14     -1.18      0.00
   -8   18   13      3.75      0.00
  -18   18    3     -3.38      0.00
  -18   19    2      0.63      0.00
  -18   20    1      2.68      0.00
   -3   21    0      0.38      0.00
    0   17   19      2.32      0.00
   -1   17   18      3.55      0.00
   -2   17   17     -0.02      0.00
   -3   17   16      0.54      0.00
   -4   17   15     -4.06      0.00
   -5   17   14      0.71      0.00
   -6   17   13     -0.33      0.00
   -7   17   12     -2.01      0.00
  -17   17    2     -1.69      0.00
  -17   18    1      3.15      0.00
   -2   19    0      0.56      0.00
   -3   20    1      2.88      0.00
   -4   21    2      1.08      0.00
    0   16   17      0.53      0.00
   -1   16   16     -0.68      0.00
   -2   16   15     -6.77      0.00
   -3   16   14      1.88      0.00
   -4   16   13      0.41      0.00
   -5   16   12     -1.12      0.00
   -6   16   11     -2.41      0.00
  -16   16    1      6.25      0.00
   -1   17    0     -5.03      0.00
   -2   18    1     -2.87      0.00
   -3   19    2      3.43      0.00
   -4   20    3     -1.53      0.00
   -5   21    4     -2.57      0.00
   -6   22    5     -2.24      0.00
    0   15   15     -3.37      0.00
   -1   15   14      0.98      0.00
   -2   15   13     -2.75      0.00
   -3   15   12     -0.85      0.00
   -4   15   11      1.71      0.00
   -5   15   10     -2.96      0.00
    0   15    0     -4.11      0.00
   -1   16    1     -1.01      0.00
   -2   17    2     -0.88      0.00
   -3   18    3     -1.03      0.00
   -4   19    4     -0.18      0.00
   -5   20    5     -1.20      0.00
   -6   21    6     -2.52      0.00
   -7   22    7      3.73      0.00
    0   14   13      0.06      0.00
   -1   14   12     -1.23      0.00
   -2   14   11     -4.47      0.00
   -3   14   10      1.16      0.00
   -4   14    9      8.30      0.00
    0   14    1     -3.61      0.00
   -1   15    2     -3.79      0.00
   -2   16    3     -0.55      0.00
   -3   17    4     -1.90      0.00
   -4   18    5      4.15      0.00
   -5   19    6     -1.19      0.00
   -6   20    7      4.56      0.00
   -7   21    8     -0.16      0.00
   -8   22    9      0.95      0.00
    0   13   11     -1.26      0.00
   -1   13   10     -0.17      0.00
   -2   13    9      1.42      0.00
   -3   13    8     -3.01      0.00
    0   13    2     -5.29      0.00
   -1   14    3     -5.15      0.00
   -2   15    4     -0.62      0.00
   -3   16    5      5.61      0.00
   -4   17    6      3.11      0.00
   -5   18    7      2.35      0.00
   -6   19    8      0.11      0.00
   -7   20    9     -4.31      0.00
   -8   21   10     -0.75      0.00
   -9   22   11      3.83      0.00
    0   12    9     10.54      0.00
   -1   12    8      0.55      0.00
   -2   12    7     -3.66      0.00
    0   12    3     -7.32      0.00
   -1   13    4      6.82      0.00
   -2   14    5      6.81      0.00
   -3   15    6      0.42      0.00
   -4   16    7     -1.98      0.00
   -5   17    8      5.94      0.00
   -6   18    9     -2.92      0.00
   -7   19   10      1.32      0.00
   -8   20   11     -6.84      0.00
   -9   21   12      1.12      0.00
  -10   22   13      1.50      0.00
    0   11    7      0.60      0.00
   -1   11    6     -6.89      0.00
    0   11    4     -1.59      0.00
   -1   12    5     10.50      0.00
   -2   13    6      3.02      0.00
   -3   14    7     -2.00      0.00
   -4   15    8      0.89      0.00
   -5   16    9      2.22      0.00
   -6   17   10      1.95      0.00
   -7   18   11     -1.73      0.00
   -8   19   12     -1.19      0.00
   -9   20   13     -3.19      0.00
  -10   21   14      2.39      0.00
    0   10    5      5.57      0.00
    0    0   15    -29.05      0.00
   -1    1   16    -21.45      0.00
   -2    2   17      6.70      0.00
   -3    3   18     18.54      0.00
   -4    4   19     19.10      0.00
   -5    5   20     -0.63      0.00
   -6    6   21     -4.96      0.00
   -7    7   22     -4.51      0.00
   -8    8   23      3.60      0.00
   -9    9   24      6.33      0.00
  -10   10   25     -2.29      0.00
  -11   11   26     -3.73      0.00
  -12   12   27      2.65      0.00
  -13   13   28      0.44      0.00
  -14   14   29     -0.17      0.00
  -15   15   30      0.29      0.00
    0    1   17     -2.03      0.00
   -1    2   18     14.76      0.00
   -2    3   19      9.24      0.00
   -3    4   20     13.38      0.00
   -4    5   21      4.92      0.00
   -5    6   22     -6.55      0.00
   -6    7   23     -3.70      0.00
   -7    8   24     -1.44      0.00
   -8    9   25      4.36      0.00
   -9   10   26      4.35      0.00
  -10   11   27     -1.75      0.00
  -11   12   28     -5.95      0.00
  -12   13   29     -0.20      0.00
  -13   14   30      1.94      0.00
  -14   15   31      0.33      0.00
    0    2   19     22.97      0.00
   -1    3   20      9.11      0.00
   -2    4   21     -2.71      0.00
   -3    5   22      0.51      0.00
   -4    6   23     -6.01      0.00
   -5    7   24      2.05      0.00
   -6    8   25      2.45      0.00
   -7    9   26     -1.82      0.00
   -8   10   27      1.39      0.00
   -9   11   28     -1.90      0.00
  -10   12   29      2.47      0.00
  -11   13   30     -1.49      0.00
  -12   14   31     -1.18      0.00
  -13   15   32     -4.46      0.00
    0    3   21     -0.51      0.00
   -1    4   22     -3.29      0.00
   -2    5   23     -7.09      0.00
   -3    6   24     -2.37      0.00
   -4    7   25      1.99      0.00
   -5    8   26      1.25      0.00
   -6    9   27      1.89      0.00
   -7   10   28     -1.58      0.00
   -8   11   29      0.92      0.00
   -9   12   30     -0.45      0.00
  -10   13   31      0.01      0.00
  -11   14   32      1.02      0.00
  -12   15   33      0.52      0.00
    0    4   23     -2.08      0.00
   -1    5   24     -4.70      0.00
   -2    6   25     -4.55      0.00
   -3    7   26      1.43      0.00
   -4    8   27      0.60      0.00
   -5    9   28      1.53      0.00
   -6   10   29      0.20      0.00
   -7   11   30      0.63      0.00
   -8   12   31     -2.17      0.00
   -9   13   32      0.81      0.00
  -10   14   33     -0.67      0.00
  -11   15   34      7.69      0.00
    0    5   25      5.28      0.00
   -1    6   26      0.42      0.00
   -2    7   27     -4.04      0.00
   -3    8   28     -0.58      0.00
   -4    9   29     -3.05      0.00
   -5   10   30      0.44      0.00
   -6   11   31     -0.86      0.00
   -7   12   32     -0.27      0.00
   -8   13   33      0.43      0.00
   -9   14   34      2.23      0.00
  -10   15   35     -0.18      0.00
    0    6   27      3.21      0.00
   -1    7   28     -2.68      0.00
   -2    8   29     -5.93      0.00
   -3    9   30     -2.97      0.00
   -4   10   31      3.37      0.00
   -5   11   32     -0.09      0.00
   -6   12   33     -1.61      0.00
   -7   13   34     -1.38      0.00
   -8   14   35     -0.48      0.00
    0    7   29     -5.54      0.00
   -1    8   30      0.51      0.00
   -2    9   31      2.59      0.00
   -3   10   32     -2.53      0.00
   -4   11   33      1.08      0.00
   -5   12   34      1.31      0.00
   -6   13   35     -3.17      0.00
   -7   14   36      2.20      0.00
    0    8   31     -4.52      0.00
   -1    9   32      3.34      0.00
   -2   10   33     -1.15      0.00
   -3   11   34     -3.34      0.00
   -4   12   35      3.00      0.00
   -5   13   36      5.31      0.00
   -6   14   37     -2.49      0.00
    0    9   33     -4.32      0.00
   -1   10   34      0.77      0.00
   -2   11   35      2.52      0.00
   -3   12   36      3.14      0.00
   -4   13   37      2.66      0.00
    0   10   35      8.80      0.00
   -1   11   36      0.91      0.00
   -2   12   37      0.52      0.00
   -3   13   38      4.13      0.00
    0   11   37      0.01      0.00
   -1   12   38      3.70      0.00
   -7   21   17      1.05      0.00
   -8   21   16     -1.05      0.00
   -9   21   15     -0.87      0.00
   -4   20   18      0.50      0.00
   -5   20   17     -4.33      0.00
   -6   20   16     -0.06      0.00
   -7   20   15      5.95      0.00
   -8   20   14     -4.74      0.00
   -2   19   18     -0.96      0.00
   -3   19   17      1.04      0.00
   -4   19   16     -2.12      0.00
   -5   19   15     -1.04      0.00
   -6   19   14      5.36      0.00
   -7   19   13      1.02      0.00
  -19   19    1      0.41      0.00
   -1   20    0      0.82      0.00
    0   18   18     -0.90      0.00
   -1   18   17     -2.34      0.00
   -2   18   16      2.38      0.00
   -3   18   15      1.03      0.00
   -4   18   14     -0.78      0.00
   -5   18   13     -2.05      0.00
   -6   18   12      1.16      0.00
    0   18    0      2.47      0.00
   -1   19    1     -0.64      0.00
   -2   20    2      0.63      0.00
   -3   21    3      1.22      0.00
    0   17   16      2.45      0.00
   -1   17   15     -1.20      0.00
   -2   17   14      0.57      0.00
   -3   17   13      2.28      0.00
   -4   17   12     -3.22      0.00
   -5   17   11     -1.61      0.00
    0   17    1      2.15      0.00
   -1   18    2     -1.36      0.00
   -2   19    3     -4.19      0.00
   -3   20    4      1.51      0.00
   -4   21    5      0.11      0.00
    0   16   14      0.00      0.00
   -1   16   13      6.12      0.00
   -2   16   12     -5.43      0.00
   -3   16   11     -6.24      0.00
   -4   16   10     -0.28      0.00
    0   16    2     -6.74      0.00
   -1   17    3     -0.66      0.00
   -2   18    4      0.23      0.00
   -3   19    5     -1.96      0.00
   -4   20    6     -3.02      0.00
   -5   21    7     -0.60      0.00
    0   15   12     -0.75      0.00
   -1   15   11     -0.72      0.00
   -2   15   10     -4.63      0.00
   -3   15    9      0.91      0.00
    0   15    3     -1.57      0.00
   -1   16    4     -0.81      0.00
   -2   17    5      4.00      0.00
   -3   18    6      2.91      0.00
   -4   19    7      0.66      0.00
   -5   20    8     -3.79      0.00
   -6   21    9      1.03      0.00
   -7   22   10     -1.00      0.00
    0   14   10     -1.71      0.00
   -1   14    9      3.43      0.00
   -2   14    8     -1.22      0.00
    0   14    4      2.09      0.00
   -1   15    5      2.75      0.00
   -2   16    6      3.18      0.00
   -3   17    7      2.93      0.00
   -4   18    8      1.59      0.00
   -5   19    9     -2.35      0.00
   -6   20   10      2.02      0.00
   -7   21   11      1.14      0.00
   -8   22   12      2.68      0.00
    0   13    8     -1.56      0.00
   -1   13    7      4.25      0.00
    0   13    5      2.81      0.00
   -1   14    6     -0.37      0.00
   -2   15    7     -2.21      0.00
   -3   16    8     -0.98      0.00
   -4   17    9     -0.70      0.00
   -5   18   10      3.43      0.00
   -6   19   11     -1.28      0.00
   -7   20   12      6.01      0.00
   -8   21   13     -1.48      0.00
    0   12    6     -4.20      0.00
    0    0   18    -10.68      0.00
   -1    1   19     17.64      0.00
   -2    2   20      0.24      0.00
   -3    3   21    -18.41      0.00
   -4    4   22      5.55      0.00
   -5    5   23      3.08      0.00
   -6    6   24      0.61      0.00
   -7    7   25     -6.06      0.00
   -8    8   26     -1.84      0.00
   -9    9   27      4.68      0.00
  -10   10   28     -2.81      0.00
  -11   11   29      0.76      0.00
  -12   12   30     -4.10      0.00
  -13   13   31      4.57      0.00
  -14   14   32     -1.67      0.00
    0    1   20      6.76      0.00
   -1    2   21     -6.93      0.00
   -2    3   22    -10.68      0.00
   -3    4   23     -3.06      0.00
   -4    5   24      4.80      0.00
   -5    6   25     -2.21      0.00
   -6    7   26     -1.91      0.00
   -7    8   27     -2.31      0.00
   -8    9   28      2.62      0.00
   -9   10   29      6.47      0.00
  -10   11   30     -8.61      0.00
  -11   12   31      0.47      0.00
  -12   13   32     -2.73      0.00
  -13   14   33     -1.05      0.00
    0    2   22     -4.10      0.00
   -1    3   23      8.16      0.00
   -2    4   24      3.12      0.00
   -3    5   25     -6.28      0.00
   -4    6   26     -4.78      0.00
   -5    7   27     -0.77      0.00
   -6    8   28      5.58      0.00
   -7    9   29      0.23      0.00
   -8   10   30     -3.40      0.00
   -9   11   31      3.00      0.00
  -10   12   32     -2.43      0.00
  -11   13   33     -5.53      0.00
  -12   14   34     -0.41      0.00
    0    3   24      5.58      0.00
   -1    4   25      0.04      0.00
   -2    5   26     -8.32      0.00
   -3    6   27     -7.82      0.00
   -4    7   28     -0.86      0.00
   -5    8   29      4.48      0.00
   -6    9   30      3.92      0.00
   -7   10   31     -0.23      0.00
   -8   11   32     -0.74      0.00
   -9   12   33     -3.42      0.00
  -10   13   34      2.32      0.00
  -11   14   35     -0.93      0.00
    0    4   26     -4.31      0.00
   -1    5   27     -5.58      0.00
   -2    6   28     -3.54      0.00
   -3    7   29      2.37      0.00
   -4    8   30     -2.83      0.00
   -5    9   31      3.82      0.00
   -6   10   32      3.98      0.00
   -7   11   33     -1.79      0.00
   -8   12   34     -0.07      0.00
   -9   13   35     -2.72      0.00
  -10   14   36      3.47      0.00
    0    5   28     -5.09      0.00
   -1    6   29      0.30      0.00
   -2    7   30      5.06      0.00
   -3    8   31      1.59      0.00
   -4    9   32     -2.62      0.00
   -5   10   33      2.29      0.00
   -6   11   34     -0.65      0.00
   -7   12   35     -1.76      0.00
   -8   13   36     -0.80      0.00
   -9   14   37     -1.05      0.00
    0    6   30      2.83      0.00
   -1    7   31     -1.54      0.00
   -2    8   32      1.70      0.00
   -3    9   33      1.88      0.00
   -4   10   34     -2.26      0.00
   -5   11   35      3.10      0.00
   -6   12   36      2.50      0.00
   -7   13   37     -3.71      0.00
    0    7   32     -2.13      0.00
   -1    8   33     -0.97      0.00
   -2    9   34      1.00      0.00
   -3   10   35      0.07      0.00
   -4   11   36      1.48      0.00
   -5   12   37      2.10      0.00
   -6   13   38      4.27      0.00
    0    8   34     -1.06      0.00
   -1    9   35     -3.35      0.00
   -2   10   36     -0.32      0.00
   -3   11   37      3.99      0.00
   -4   12   38      2.82      0.00
    0    9   36      7.34      0.00
   -1   10   37      6.06      0.00
   -2   11   38     -3.95      0.00
   -3   12   39     -0.47      0.00
    0   10   38      5.27      0.00
   -1   11   39     -5.73      0.00
   -6   21   15     -1.22      0.00
   -7   21   14      1.68      0.00
   -3   20   16      1.27      0.00
   -4   20   15      2.29      0.00
   -5   20   14     -3.24      0.00
   -6   20   13     -1.77      0.00
   -1   19   16     -0.69      0.00
   -2   19   15      0.66      0.00
   -3   19   14     -0.95      0.00
   -4   19   13     -0.55      0.00
   -5   19   12      0.68      0.00
    0   19    2      2.84      0.00
   -1   20    3     -1.22      0.00
    0   18   15     -0.88      0.00
   -1   18   14     -1.55      0.00
   -2   18   13      7.12      0.00
   -3   18   12     -0.07      0.00
   -4   18   11     -2.91      0.00
    0   18    3      1.32      0.00
   -1   19    4     -2.47      0.00
   -2   20    5     -2.30      0.00
   -3   21    6      0.33      0.00
    0   17   13      4.87      0.00
   -1   17   12     -6.06      0.00
   -2   17   11      2.00      0.00
   -3   17   10      3.29      0.00
    0   17    4     -6.65      0.00
   -1   18    5      1.91      0.00
   -2   19    6      2.00      0.00
   -3   20    7     -6.73      0.00
   -4   21    8     -0.36      0.00
    0   16   11      3.56      0.00
   -1   16   10      1.99      0.00
   -2   16    9      1.12      0.00
    0   16    5      5.97      0.00
   -1   17    6      0.61      0.00
   -2   18    7     -0.40      0.00
   -3   19    8      0.11      0.00
   -4   20    9      0.34      0.00
   -5   21   10     -0.21      0.00
    0   15    9      4.02      0.00
   -1   15    8      3.03      0.00
    0   15    6      4.02      0.00
   -1   16    7     -0.87      0.00
   -2   17    8      3.49      0.00
   -3   18    9      6.96      0.00
   -4   19   10      2.07      0.00
   -5   20   11     -4.48      0.00
   -6   21   12      0.05      0.00
    0   14    7     -4.20      0.00
    0    0   21      7.91      0.00
   -1    1   22     -2.91      0.00
   -2    2   23    -16.95      0.00
   -3    3   24    -12.83      0.00
   -4    4   25     -1.84      0.00
   -5    5   26      3.23      0.00
   -6    6   27     -3.72      0.00
   -7    7   28      1.51      0.00
   -8    8   29      1.13      0.00
   -9    9   30      0.51      0.00
  -10   10   31      0.07      0.00
  -11   11   32     -6.40      0.00
  -12   12   33      1.83      0.00
  -13   13   34      5.91      0.00
    0    1   23      1.85      0.00
   -1    2   24     -6.27      0.00
   -2    3   25     -5.13      0.00
   -3    4   26     -1.78      0.00
   -4    5   27     -2.64      0.00
   -5    6   28      4.06      0.00
   -6    7   29      0.28      0.00
   -7    8   30      0.33      0.00
   -8    9   31     -3.55      0.00
   -9   10   32     -2.01      0.00
  -10   11   33      0.92      0.00
  -11   12   34     -0.33      0.00
  -12   13   35     -0.56      0.00
    0    2   25     -5.26      0.00
   -1    3   26      0.98      0.00
   -2    4   27      4.93      0.00
   -3    5   28      0.36      0.00
   -4    6   29      0.28      0.00
   -5    7   30     -3.42      0.00
   -6    8   31     -0.68      0.00
   -7    9   32     -0.67      0.00
   -8   10   33     -3.18      0.00
   -9   11   34     -1.12      0.00
  -10   12   35      1.00      0.00
  -11   13   36     -2.41      0.00
    0    3   27      1.71      0.00
   -1    4   28      1.52      0.00
   -2    5   29      1.79      0.00
   -3    6   30     -1.36      0.00
   -4    7   31     -0.02      0.00
   -5    8   32     -4.66      0.00
   -6    9   33      0.45      0.00
   -7   10   34      4.11      0.00
   -8   11   35     -2.60      0.00
   -9   12   36     -2.00      0.00
  -10   13   37      0.50      0.00
    0    4   29      0.53      0.00
   -1    5   30     -0.44      0.00
   -2    6   31      2.43      0.00
   -3    7   32      0.98      0.00
   -4    8   33     -0.63      0.00
   -5    9   34      0.57      0.00
   -6   10   35      0.48      0.00
   -7   11   36      3.43      0.00
   -8   12   37     -2.35      0.00
   -9   13   38     -0.34      0.00
    0    5   31      4.00      0.00
   -1    6   32     -1.77      0.00
   -2    7   33      0.80      0.00
   -3    8   34      2.72      0.00
   -4    9   35      2.40      0.00
   -5   10   36      0.83      0.00
   -6   11   37      2.18      0.00
   -7   12   38     -2.05      0.00
    0    6   33      7.31      0.00
   -1    7   34      1.02      0.00
   -2    8   35     -2.65      0.00
   -3    9   36     -0.68      0.00
   -4   10   37      4.71      0.00
   -5   11   38     -0.76      0.00
   -6   12   39      6.05      0.00
    0    7   35     -0.84      0.00
   -1    8   36     -2.58      0.00
   -2    9   37     -2.21      0.00
   -3   10   38      0.63      0.00
   -4   11   39      6.14      0.00
   -5   12   40      1.10      0.00
    0    8   37     -2.04      0.00
   -1    9   38      3.60      0.00
   -2   10   39     -3.31      0.00
   -3   11   40      0.96      0.00
    0    9   39      0.35      0.00
   -1   10   40      3.60      0.00
   -5   21   13     -0.84      0.00
   -3   20   13      1.69      0.00
   -4   20   12      4.16      0.00
    0   19   14     -2.41      0.00
   -1   19   13      3.46      0.00
   -2   19   12     -1.27      0.00
   -3   19   11     -1.80      0.00
    0   19    5      0.44      0.00
   -1   20    6      3.56      0.00
    0   18   12      1.63      0.00
   -1   18   11     -3.28      0.00
   -2   18   10      1.25      0.00
    0   18    6     -3.48      0.00
   -1   19    7     -2.60      0.00
   -2   20    8      0.73      0.00
    0   17   10      1.07      0.00
   -1   17    9      2.45      0.00
    0   17    7      1.18      0.00
   -1   18    8     -0.97      0.00
   -2   19    9     -0.55      0.00
   -3   20   10      0.28      0.00
   -4   21   11      0.36      0.00
    0   16    8      5.66      0.00
    0    0   24     22.29      0.00
   -1    1   25     -5.73      0.00
   -2    2   26    -13.22      0.00
   -3    3   27     -4.23      0.00
   -4    4   28      2.10      0.00
   -5    5   29      3.27      0.00
   -6    6   30     -1.87      0.00
   -7    7   31      1.30      0.00
   -8    8   32      4.27      0.00
   -9    9   33     -6.42      0.00
  -10   10   34     -6.40      0.00
  -11   11   35      2.80      0.00
  -12   12   36      4.56      0.00
    0    1   26     -1.74      0.00
   -1    2   27     -2.16      0.00
   -2    3   28      3.77      0.00
   -3    4   29      0.68      0.00
   -4    5   30     -0.23      0.00
   -5    6   31      1.79      0.00
   -6    7   32     -0.99      0.00
   -7    8   33     -6.07      0.00
   -8    9   34     -2.06      0.00
   -9   10   35      2.45      0.00
  -10   11   36     -4.32      0.00
  -11   12   37     -0.91      0.00
    0    2   28     -5.99      0.00
   -1    3   29      0.63      0.00
   -2    4   30      8.58      0.00
   -3    5   31      3.13      0.00
   -4    6   32     -1.47      0.00
   -5    7   33     -6.07      0.00
   -6    8   34     -0.99      0.00
   -7    9   35     -1.09      0.00
   -8   10   36     -3.51      0.00
   -9   11   37      0.88      0.00
  -10   12   38     -0.02      0.00
    0    3   30      2.57      0.00
   -1    4   31      8.11      0.00
   -2    5   32      3.07      0.00
   -3    6   33      2.78      0.00
   -4    7   34     -3.24      0.00
   -5    8   35     -3.19      0.00
   -6    9   36      1.64      0.00
   -7   10   37      0.02      0.00
   -8   11   38      4.00      0.00
   -9   12   39     -1.37      0.00
    0    4   32      0.47      0.00
   -1    5   33      7.63      0.00
   -2    6   34     -0.44      0.00
   -3    7   35     -1.34      0.00
   -4    8   36      0.65      0.00
   -5    9   37     -0.46      0.00
   -6   10   38      1.29      0.00
   -7   11   39      2.64      0.00
   -8   12   40     -0.27      0.00
    0    5   34     -1.85      0.00
   -1    6   35     -1.41      0.00
   -2    7   36     -4.17      0.00
   -3    8   37     -0.92      0.00
   -4    9   38      4.55      0.00
   -5   10   39      3.67      0.00
   -6   11   40     -7.96      0.00
    0    6   36     -4.32      0.00
   -1    7   37      0.24      0.00
   -2    8   38     -1.62      0.00
   -3    9   39     -0.01      0.00
   -4   10   40     -0.74      0.00
   -5   11   41      0.18      0.00
    0    7   38     -1.47      0.00
   -1    8   39     -5.91      0.00
   -2    9   40      0.90      0.00
   -3   10   41      1.69      0.00
    0    8   40      7.36      0.00
   -1    9   41     -0.86      0.00
    0    9   42      1.62      0.00
   -2   20   11     -6.25      0.00
    0   19   11      1.05      0.00
   -1   19   10      0.93      0.00
    0   19    8     -0.97      0.00
   -1   20    9      5.69      0.00
    0   18    9      2.67      0.00
    0    0   27     16.89      0.00
   -1    1   28      5.81      0.00
   -2    2   29     -1.86      0.00
   -3    3   30      1.79      0.00
   -4    4   31     -3.82      0.00
   -5    5   32     -0.54      0.00
   -6    6   33     -0.16      0.00
   -7    7   34      3.00      0.00
   -8    8   35      0.30      0.00
   -9    9   36     -2.17      0.00
  -10   10   37     -2.27      0.00
  -11   11   38     -2.94      0.00
    0    1   29      0.80      0.00
   -1    2   30      1.68      0.00
   -2    3   31      0.58      0.00
   -3    4   32     -1.80      0.00
   -4    5   33     -1.06      0.00
   -5    6   34      3.35      0.00
   -6    7   35      1.66      0.00
   -7    8   36     -1.42      0.00
   -8    9   37     -2.10      0.00
   -9   10   38     -1.50      0.00
  -10   11   39     -1.73      0.00
    0    2   31     -5.35      0.00
   -1    3   32      1.39      0.00
   -2    4   33      5.19      0.00
   -3    5   34      1.38      0.00
   -4    6   35     -3.43      0.00
   -5    7   36      2.58      0.00
   -6    8   37      4.01      0.00
   -7    9   38     -4.03      0.00
   -8   10   39     -3.20      0.00
   -9   11   40      1.15      0.00
    0    3   33      4.40      0.00
   -1    4   34      4.12      0.00
   -2    5   35      1.50      0.00
   -3    6   36      1.06      0.00
   -4    7   37     -1.43      0.00
   -5    8   38      2.16      0.00
   -6    9   39     -1.13      0.00
   -7   10   40      1.59      0.00
   -8   11   41      3.21      0.00
    0    4   35      2.25      0.00
   -1    5   36     -5.19      0.00
   -2    6   37     -0.48      0.00
   -3    7   38      1.66      0.00
   -4    8   39     -0.91      0.00
   -5    9   40      3.09      0.00
   -6   10   41     -1.47      0.00
    0    5   37      1.30      0.00
   -1    6   38     -2.72      0.00
   -2    7   39     -3.18      0.00
   -3    8   40     -0.45      0.00
   -4    9   41      0.31      0.00
   -5   10   42     -1.79      0.00
    0    6   39     -1.61      0.00
   -1    7   40     -0.91      0.00
   -2    8   41     -0.24      0.00
   -3    9   42     -1.67      0.00
    0    7   41     -0.94      0.00
   -1    8   42     -0.01      0.00
   -2    9   43      0.50      0.00
    0    8   43      0.52      0.00
    0    0   30     16.34      0.00
   -1    1   31      5.76      0.00
   -2    2   32      3.58      0.00
   -3    3   33     -4.94      0.00
   -4    4   34     -1.08      0.00
   -5    5   35     -0.20      0.00
   -6    6   36      3.09      0.00
   -7    7   37      4.28      0.00
   -8    8   38      1.59      0.00
   -9    9   39     -0.54      0.00
  -10   10   40     -1.22      0.00
    0    1   32      3.28      0.00
   -1    2   33     -1.84      0.00
   -2    3   34      0.40      0.00
   -3    4   35     -5.49      0.00
   -4    5   36      6.86      0.00
   -5    6   37     -2.09      0.00
   -6    7   38      1.02      0.00
   -7    8   39      3.20      0.00
   -8    9   40     -3.54      0.00
   -9   10   41      0.47      0.00
    0    2   34     -3.04      0.00
   -1    3   35     -2.02      0.00
   -2    4   36     -0.72      0.00
   -3    5   37     -0.10      0.00
   -4    6   38      3.38      0.00
   -5    7   39     -0.43      0.00
   -6    8   40     -1.12      0.00
   -7    9   41     -0.35      0.00
   -8   10   42      0.63      0.00
    0    3   36      1.94      0.00
   -1    4   37     -0.92      0.00
   -2    5   38     -5.16      0.00
   -3    6   39      6.02      0.00
   -4    7   40      2.60      0.00
   -5    8   41     -1.41      0.00
   -6    9   42      2.62      0.00
    0    4   38      0.85      0.00
   -1    5   39     -2.19      0.00
   -2    6   40     -2.26      0.00
   -3    7   41      2.86      0.00
   -4    8   42      4.46      0.00
   -5    9   43     -0.53      0.00
    0    5   40      4.18      0.00
   -1    6   41     -0.90      0.00
   -2    7   42     -2.45      0.00
   -3    8   43      0.31      0.00
    0    6   42     -1.82      0.00
   -1    7   43      1.42      0.00
   -2    8   44     -2.63      0.00
    0    7   44     -2.65      0.00
    0    0   33      2.37      0.00
   -1    1   34      4.23      0.00
   -2    2   35      0.28      0.00
   -3    3   36      0.94      0.00
   -4    4   37     -1.42      0.00
   -5    5   38      1.58      0.00
   -6    6   39     -4.70      0.00
   -7    7   40     -0.69      0.00
   -8    8   41      4.22      0.00
   -9    9   42      3.83      0.00
    0    1   35     -2.58      0.00
   -1    2   36     -0.10      0.00
   -2    3   37     -2.75      0.00
   -3    4   38     -2.63      0.00
   -4    5   39      2.50      0.00
   -5    6   40     -2.21      0.00
   -6    7   41      0.86      0.00
   -7    8   42     -2.20      0.00
    0    2   37     -4.92      0.00
   -1    3   38     -0.09      0.00
   -2    4   39      0.48      0.00
   -3    5   40     -1.73      0.00
   -4    6   41      0.03      0.00
   -5    7   42     -1.29      0.00
   -6    8   43      3.00      0.00
    0    3   39     -0.19      0.00
   -1    4   40     -1.24      0.00
   -2    5   41     -1.06      0.00
   -3    6   42      2.68      0.00
   -4    7   43      1.65      0.00
   -5    8   44      4.44      0.00
    0    4   41     -2.82      0.00
   -1    5   42     -0.32      0.00
   -2    6   43      1.57      0.00
   -3    7   44      1.72      0.00
    0    5   43      1.87      0.00
   -1    6   44     -4.61      0.00
    0    6   45      3.80      0.00
   -2   20   14     -8.13      0.00
   -5   18   28     -1.86      0.00
   -7   16   34      1.77      0.00
    0    0   36     -1.37      0.00
   -1    1   37     -0.72      0.00
   -2    2   38      4.61      0.00
   -3    3   39     -1.38      0.00
   -4    4   40     -2.52      0.00
   -5    5   41     -2.62      0.00
   -6    6   42     -0.37      0.00
   -7    7   43      2.31      0.00
    0    1   38      0.29      0.00
   -1    2   39      1.11      0.00
   -2    3   40      0.53      0.00
   -3    4   41     -4.21      0.00
   -4    5   42     -0.10      0.00
   -5    6   43     -3.43      0.00
   -6    7   44      3.44      0.00
    0    2   40     -2.14      0.00
   -1    3   41      2.85      0.00
   -2    4   42      0.07      0.00
   -3    5   43     -2.03      0.00
   -4    6   44     -1.48      0.00
    0    3   42     -2.46      0.00
   -1    4   43     -1.09      0.00
   -2    5   44     -1.16      0.00
   -3    6   45      4.24      0.00
    0    4   44     -2.21      0.00
   -1    5   45      3.73      0.00
    0    0   39     -0.86      0.00
   -1    1   40      0.55      0.00
   -2    2   41      0.74      0.00
   -3    3   42      0.11      0.00
   -4    4   43     -3.12      0.00
   -5    5   44      3.66      0.00
   -6    6   45     -1.48      0.00
    0    1   41      6.01      0.00
   -1    2   42     -1.66      0.00
   -2    3   43     -1.59      0.00
   -3    4   44      2.10      0.00
   -4    5   45     -0.27      0.00
    0    2   43      7.37      0.00
   -1    3   44      0.53      0.00
   -2    4   45      0.55      0.00
   -3    5   46      0.18      0.00
    0    3   45      5.31      0.00
   -1    4   46      0.10      0.00
    0    0   42     -1.44      0.00
   -1    1   43      0.67      0.00
   -2    2   44      1.69      0.00
   -3    3   45     -1.19      0.00
   -4    4   46      3.84      0.00
    0    1   44      3.44      0.00
   -1    2   45      5.24      0.00
   -2    3   46      1.57      0.00
    0    2   46      0.88      0.00
    0    0   45     -4.64      0.00
   -1    1   46      1.44      0.00
   -2    2   47     -0.39      0.00
    0    1   47     -6.74      0.00
   -2   10   42     -0.74      0.00
   -3   16   32     -3.16      0.00
    0   10   41     -1.51      0.00
   -4   15   35      1.51      0.00
   -8   17   32      1.81      0.00
   -8   13   39     -4.61      0.00
    0   21    0     -1.02      0.00
   -2   22    0     -0.07      0.00
   -7   23    0     -1.91      0.00
   -4   23    0     -2.35      0.00
    0   20    1     -2.73      0.00
  -20   21    1     -0.04      0.00
   -2   21    1      1.16      0.00
  -19   22    1     -0.59      0.00
   -4   22    1      2.82      0.00
  -18   23    1      1.33      0.00
  -15   23    1     -1.83      0.00
   -9   23    1      2.21      0.00
   -6   23    1      0.33      0.00
  -20   20    2     -3.71      0.00
  -19   21    2     -1.26      0.00
   -1   21    2      0.17      0.00
  -18   22    2     -2.62      0.00
   -3   22    2      1.26      0.00
  -17   23    2     -1.81      0.00
  -14   23    2     -0.04      0.00
   -8   23    2     -1.15      0.00
   -5   23    2     -1.65      0.00
  -21   21    3     -1.21      0.00
    0   21    3      0.65      0.00
  -20   22    3     -1.29      0.00
  -17   22    3     -0.86      0.00
   -5   22    3     -1.61      0.00
   -2   22    3      1.32      0.00
  -19   23    3     -1.70      0.00
  -16   23    3     -2.95      0.00
  -13   23    3     -1.10      0.00
  -10   23    3     -1.26      0.00
   -7   23    3      0.81      0.00
   -4   23    3      0.43      0.00
    0   20    4      0.10      0.00
  -20   21    4     -1.57      0.00
   -2   21    4     -1.34      0.00
  -19   22    4      0.36      0.00
   -4   22    4      2.03      0.00
  -18   23    4     -0.21      0.00
  -15   23    4      0.94      0.00
  -12   23    4     -1.67      0.00
   -9   23    4      1.76      0.00
   -6   23    4     -1.61      0.00
  -20   20    5     -0.45      0.00
  -19   21    5     -0.55      0.00
   -1   21    5      0.13      0.00
  -18   22    5      0.28      0.00
   -3   22    5      1.07      0.00
  -17   23    5      0.83      0.00
  -14   23    5     -1.73      0.00
  -11   23    5     -0.65      0.00
   -8   23    5      1.36      0.00
   -5   23    5      0.48      0.00
  -21   21    6      0.18      0.00
    0   21    6      3.54      0.00
  -20   22    6     -0.10      0.00
  -17   22    6     -2.39      0.00
   -5   22    6      0.14      0.00
   -2   22    6      0.69      0.00
  -16   23    6      0.96      0.00
  -13   23    6      0.64      0.00
  -10   23    6     -1.78      0.00
   -7   23    6     -1.06      0.00
    0   20    7      0.31      0.00
  -20   21    7      0.51      0.00
   -2   21    7     -2.73      0.00
  -19   22    7      1.18      0.00
   -4   22    7     -0.94      0.00
  -18   23    7      1.42      0.00
  -15   23    7      0.61      0.00
  -12   23    7     -1.73      0.00
   -9   23    7      0.41      0.00
   -6   23    7     -1.25      0.00
  -20   20    8      3.63      0.00
  -19   21    8      0.39      0.00
   -1   21    8      0.52      0.00
  -18   22    8      1.34      0.00
   -6   22    8     -0.17      0.00
   -3   22    8     -1.27      0.00
  -17   23    8     -1.12      0.00
  -14   23    8      0.88      0.00
  -11   23    8      0.36      0.00
   -8   23    8     -0.24      0.00
   -5   23    8      1.55      0.00
  -18   21    9      1.99      0.00
   -3   21    9     -0.19      0.00
  -17   22    9     -1.43      0.00
   -5   22    9      2.51      0.00
  -16   23    9      0.60      0.00
  -13   23    9      1.25      0.00
  -10   23    9      1.85      0.00
   -7   23    9      0.12      0.00
    0   20   10     -0.09      0.00
  -20   21   10      0.35      0.00
   -2   21   10     -2.09      0.00
  -19   22   10     -0.33      0.00
  -16   22   10      2.55      0.00
   -4   22   10     -1.32      0.00
  -15   23   10      2.96      0.00
  -12   23   10     -0.94      0.00
   -9   23   10     -0.44      0.00
   -6   23   10      1.35      0.00
  -20   20   11      1.98      0.00
  -19   21   11      0.63      0.00
   -1   21   11     -0.52      0.00
  -18   22   11     -0.40      0.00
  -15   22   11     -0.10      0.00
   -6   22   11      2.27      0.00
   -3   22   11     -0.67      0.00
  -17   23   11     -0.77      0.00
  -14   23   11     -0.61      0.00
  -11   23   11      0.55      0.00
   -8   23   11      1.85      0.00
  -19   20   12     -0.98      0.00
   -1   20   12      0.23      0.00
  -18   21   12     -1.56      0.00
   -3   21   12      0.18      0.00
  -17   22   12     -0.44      0.00
   -5   22   12      2.14      0.00
  -16   23   12      0.58      0.00
  -13   23   12     -1.91      0.00
  -10   23   12     -0.56      0.00
   -7   23   12     -0.51      0.00
    0   20   13      4.70      0.00
  -20   21   13      1.07      0.00
  -17   21   13      1.46      0.00
   -2   21   13     -0.31      0.00
  -16   22   13     -0.58      0.00
   -7   22   13     -1.48      0.00
   -4   22   13      1.26      0.00
  -15   23   13     -0.13      0.00
  -12   23   13     -0.98      0.00
   -9   23   13      1.12      0.00
  -20   20   14     -1.87      0.00
  -19   21   14     -0.01      0.00
   -4   21   14      1.55      0.00
  -18   22   14      0.23      0.00
  -15   22   14      2.75      0.00
   -9   22   14     -0.72      0.00
   -6   22   14      0.43      0.00
  -14   23   14     -1.37      0.00
  -11   23   14      0.99      0.00
   -8   23   14      1.20      0.00
  -19   20   15     -0.81      0.00
   -1   20   15      0.64      0.00
  -18   21   15      1.68      0.00
   -3   21   15     -0.46      0.00
  -17   22   15      0.05      0.00
  -14   22   15      1.30      0.00
  -11   22   15     -0.68      0.00
   -8   22   15      1.97      0.00
   -5   22   15     -0.09      0.00
  -13   23   15     -0.58      0.00
  -10   23   15      0.01      0.00
  -19   19   16      0.23      0.00
  -18   20   16     -1.04      0.00
    0   20   16      2.44      0.00
  -17   21   16     -0.46      0.00
   -5   21   16     -1.39      0.00
   -2   21   16     -0.42      0.00
  -16   22   16     -0.24      0.00
  -13   22   16     -0.95      0.00
  -10   22   16     -0.55      0.00
   -7   22   16      0.40      0.00
  -15   23   16     -0.84      0.00
  -12   23   16     -0.14      0.00
   -9   23   16      0.34      0.00
    0   19   17     -2.84      0.00
  -20   20   17     -2.06      0.00
  -17   20   17     -1.86      0.00
   -2   20   17     -2.51      0.00
  -19   21   17     -2.49      0.00
  -16   21   17     -1.54      0.00
   -4   21   17      1.51      0.00
  -15   22   17     -1.00      0.00
  -12   22   17     -4.15      0.00
   -9   22   17     -0.15      0.00
   -6   22   17      0.12      0.00
  -14   23   17      0.97      0.00
  -11   23   17      0.89      0.00
  -19   20   18     -0.61      0.00
   -1   20   18     -1.18      0.00
  -18   21   18      1.62      0.00
  -15   21   18     -1.75      0.00
   -6   21   18     -2.29      0.00
   -3   21   18     -1.14      0.00
  -14   22   18      1.15      0.00
  -11   22   18     -2.73      0.00
   -8   22   18      0.23      0.00
  -19   19   19     -0.42      0.00
   -1   19   19     -0.81      0.00
  -18   20   19     -0.62      0.00
   -3   20   19      2.81      0.00
  -17   21   19      1.68      0.00
  -14   21   19     -1.87      0.00
   -8   21   19      1.13      0.00
   -5   21   19      0.40      0.00
  -16   22   19     -0.74      0.00
  -13   22   19     -0.01      0.00
  -10   22   19     -0.70      0.00
   -7   22   19      1.65      0.00
  -18   19   20     -2.07      0.00
    0   19   20     -0.98      0.00
  -17   20   20     -1.36      0.00
   -2   20   20      0.77      0.00
  -16   21   20     -0.94      0.00
  -13   21   20      2.37      0.00
  -10   21   20     -0.49      0.00
   -7   21   20      0.60      0.00
   -4   21   20      1.51      0.00
  -15   22   20     -0.48      0.00
  -12   22   20     -2.30      0.00
   -9   22   20      1.95      0.00
  -18   18   21      1.04      0.00
    0   18   21      1.34      0.00
  -17   19   21      0.02      0.00
   -2   19   21      1.80      0.00
  -16   20   21      2.15      0.00
   -4   20   21      1.49      0.00
  -15   21   21      0.35      0.00
  -12   21   21     -1.22      0.00
   -9   21   21     -3.16      0.00
   -6   21   21     -1.56      0.00
  -14   22   21      0.20      0.00
  -11   22   21     -2.00      0.00
   -8   22   21     -0.92      0.00
  -19   19   22      1.27      0.00
   -1   19   22      1.14      0.00
  -18   20   22      2.46      0.00
  -15   20   22      1.52      0.00
   -6   20   22     -0.22      0.00
   -3   20   22     -0.29      0.00
  -14   21   22      2.13      0.00
  -11   21   22      0.86      0.00
   -8   21   22     -1.03      0.00
   -5   21   22      2.01      0.00
  -13   22   22      0.46      0.00
  -10   22   22      0.75      0.00
   -1   18   23     -0.67      0.00
  -18   19   23     -0.95      0.00
   -3   19   23     -0.69      0.00
  -17   20   23      0.31      0.00
  -14   20   23      1.35      0.00
   -5   20   23     -1.60      0.00
  -13   21   23     -0.10      0.00
  -10   21   23     -1.94      0.00
   -7   21   23      0.59      0.00
  -18   18   24     -1.74      0.00
    0   18   24      0.59      0.00
  -17   19   24     -0.69      0.00
   -2   19   24      0.67      0.00
  -16   20   24      0.47      0.00
  -13   20   24      0.07      0.00
  -10   20   24      0.53      0.00
   -7   20   24      0.73      0.00
   -4   20   24     -0.05      0.00
  -15   21   24      0.61      0.00
  -12   21   24      0.05      0.00
   -9   21   24     -1.57      0.00
   -6   21   24      1.99      0.00
    0   17   25      0.58      0.00
  -17   18   25      0.47      0.00
   -2   18   25      1.19      0.00
  -16   19   25      2.28      0.00
   -4   19   25      0.61      0.00
   -1   19   25     -0.13      0.00
  -15   20   25      0.64      0.00
  -12   20   25      1.05      0.00
   -9   20   25      0.94      0.00
   -6   20   25     -1.83      0.00
  -14   21   25      1.82      0.00
  -11   21   25     -0.14      0.00
   -8   21   25      0.39      0.00
  -17   17   26     -1.79      0.00
  -16   18   26     -1.46      0.00
   -1   18   26     -1.22      0.00
  -15   19   26      1.37      0.00
   -6   19   26      1.13      0.00
   -3   19   26     -2.62      0.00
  -14   20   26     -1.17      0.00
  -11   20   26      1.55      0.00
   -8   20   26      2.38      0.00
   -5   20   26      0.35      0.00
  -10   21   26     -0.69      0.00
  -16   17   27      0.32      0.00
   -1   17   27     -0.44      0.00
  -18   18   27     -0.07      0.00
  -15   18   27     -1.00      0.00
   -3   18   27      2.95      0.00
    0   18   27     -2.06      0.00
  -14   19   27      0.15      0.00
  -11   19   27     -3.24      0.00
   -8   19   27     -0.91      0.00
   -5   19   27      1.38      0.00
  -13   20   27      0.03      0.00
  -10   20   27      0.54      0.00
   -7   20   27     -1.84      0.00
    0   17   28      4.28      0.00
  -17   18   28      0.07      0.00
  -14   18   28      1.58      0.00
   -2   18   28     -0.05      0.00
  -16   19   28      0.61      0.00
  -13   19   28     -1.86      0.00
  -10   19   28     -0.42      0.00
   -7   19   28     -0.51      0.00
   -4   19   28      0.87      0.00
  -12   20   28      0.18      0.00
   -9   20   28     -2.42      0.00
    0   16   29     -1.35      0.00
  -17   17   29     -1.05      0.00
   -2   17   29     -1.67      0.00
  -16   18   29     -0.11      0.00
  -13   18   29      2.31      0.00
   -4   18   29     -2.13      0.00
  -15   19   29      0.23      0.00
  -12   19   29      1.18      0.00
   -9   19   29      1.47      0.00
   -6   19   29      0.81      0.00
  -11   20   29      2.63      0.00
   -8   20   29      1.12      0.00
  -16   17   30      0.81      0.00
   -1   17   30      0.03      0.00
  -15   18   30      0.88      0.00
  -12   18   30      2.49      0.00
   -9   18   30     -2.83      0.00
   -6   18   30      0.34      0.00
   -3   18   30      3.13      0.00
  -14   19   30      0.29      0.00
  -11   19   30     -0.85      0.00
   -8   19   30     -0.14      0.00
   -5   19   30      0.11      0.00
  -16   16   31      1.26      0.00
   -1   16   31      1.65      0.00
  -15   17   31      0.86      0.00
  -12   17   31      0.29      0.00
   -3   17   31      0.44      0.00
  -14   18   31      0.43      0.00
  -11   18   31     -2.21      0.00
   -8   18   31     -1.90      0.00
   -5   18   31     -0.12      0.00
  -13   19   31      1.90      0.00
  -10   19   31     -0.85      0.00
   -7   19   31     -0.82      0.00
  -15   16   32     -2.44      0.00
    0   16   32     -1.27      0.00
  -14   17   32      0.26      0.00
  -11   17   32     -2.46      0.00
   -5   17   32     -0.56      0.00
   -2   17   32     -1.68      0.00
  -13   18   32      0.86      0.00
  -10   18   32      0.36      0.00
   -7   18   32     -0.03      0.00
   -4   18   32      0.28      0.00
   -9   19   32      0.87      0.00
  -15   15   33      2.09      0.00
    0   15   33      2.50      0.00
  -14   16   33      1.08      0.00
   -2   16   33     -2.29      0.00
  -13   17   33     -0.32      0.00
  -10   17   33      0.95      0.00
   -7   17   33      1.95      0.00
   -4   17   33     -0.21      0.00
  -12   18   33      0.04      0.00
   -9   18   33     -1.39      0.00
   -6   18   33      1.77      0.00
    0   14   34      1.30      0.00
  -14   15   34     -0.43      0.00
   -2   15   34     -0.77      0.00
  -13   16   34      3.09      0.00
  -10   16   34     -2.60      0.00
   -4   16   34      1.55      0.00
   -1   16   34     -0.77      0.00
  -12   17   34      1.34      0.00
   -9   17   34     -0.38      0.00
   -6   17   34     -0.55      0.00
   -3   17   34      2.11      0.00
  -11   18   34     -1.37      0.00
   -8   18   34     -0.47      0.00
  -14   14   35     -0.69      0.00
  -13   15   35      0.52      0.00
   -1   15   35      0.25      0.00
  -12   16   35      0.81      0.00
   -9   16   35      2.21      0.00
   -6   16   35      0.39      0.00
   -3   16   35     -0.52      0.00
  -11   17   35     -0.58      0.00
   -8   17   35      0.52      0.00
   -5   17   35      0.36      0.00
  -13   14   36     -0.18      0.00
   -1   14   36      2.01      0.00
  -12   15   36      1.13      0.00
   -9   15   36      1.71      0.00
   -6   15   36      0.44      0.00
   -3   15   36     -0.03      0.00
  -11   16   36      0.37      0.00
   -8   16   36      1.76      0.00
   -5   16   36     -0.42      0.00
  -10   17   36     -0.81      0.00
   -7   17   36     -0.46      0.00
  -13   13   37      1.00      0.00
   -1   13   37     -1.33      0.00
  -12   14   37     -1.54      0.00
   -3   14   37      1.09      0.00
    0   14   37      1.50      0.00
  -14   15   37      0.21      0.00
  -11   15   37      0.60      0.00
   -8   15   37      0.85      0.00
   -5   15   37      0.43      0.00
   -2   15   37     -0.22      0.00
  -10   16   37      0.86      0.00
   -7   16   37      0.43      0.00
   -4   16   37      1.12      0.00
  -12   13   38      0.26      0.00
    0   13   38     -2.63      0.00
  -14   14   38     -2.15      0.00
  -11   14   38      1.40      0.00
   -8   14   38     -1.64      0.00
   -5   14   38      1.02      0.00
   -2   14   38      0.20      0.00
  -10   15   38      1.31      0.00
   -7   15   38      0.08      0.00
   -4   15   38     -1.47      0.00
   -9   16   38     -0.17      0.00
   -6   16   38     -0.17      0.00
  -12   12   39      1.03      0.00
    0   12   39     -2.19      0.00
  -11   13   39     -0.17      0.00
   -5   13   39      1.05      0.00
   -2   13   39     -0.69      0.00
  -13   14   39      1.73      0.00
  -10   14   39     -0.82      0.00
   -7   14   39     -0.23      0.00
   -4   14   39      1.53      0.00
   -1   14   39     -0.31      0.00
   -9   15   39      0.04      0.00
   -6   15   39      0.77      0.00
    0   11   40      4.20      0.00
  -11   12   40      1.06      0.00
   -2   12   40     -0.09      0.00
  -13   13   40      2.37      0.00
  -10   13   40      1.02      0.00
   -7   13   40     -1.57      0.00
   -4   13   40     -1.34      0.00
   -1   13   40      0.44      0.00
   -9   14   40      0.43      0.00
   -6   14   40     -1.73      0.00
   -3   14   40      0.30      0.00
   -8   15   40     -1.05      0.00
  -11   11   41     -2.73      0.00
   -2   11   41     -2.60      0.00
  -10   12   41      2.03      0.00
   -7   12   41     -0.39      0.00
   -4   12   41      0.01      0.00
   -1   12   41     -1.03      0.00
   -9   13   41     -1.37      0.00
   -6   13   41      1.62      0.00
   -3   13   41      0.50      0.00
   -8   14   41     -3.14      0.00
   -5   14   41     -0.11      0.00
  -10   11   42      0.37      0.00
   -7   11   42      0.51      0.00
   -4   11   42      4.02      0.00
   -1   11   42     -1.78      0.00
   -9   12   42      0.11      0.00
   -6   12   42      0.30      0.00
   -3   12   42     -1.81      0.00
   -8   13   42      0.67      0.00
   -5   13   42     -0.32      0.00
   -8    9   43      0.13      0.00
  -10   10   43      0.30      0.00
   -7   10   43      0.44      0.00
   -4   10   43     -0.72      0.00
   -1   10   43     -0.08      0.00
   -9   11   43      0.01      0.00
   -6   11   43     -1.96      0.00
   -3   11   43      1.46      0.00
    0   11   43     -1.66      0.00
   -8   12   43     -0.57      0.00
   -5   12   43      0.41      0.00
   -2   12   43      0.32      0.00
   -8    8   44     -0.28      0.00
   -7    9   44      0.90      0.00
   -4    9   44     -0.47      0.00
   -1    9   44      0.83      0.00
   -9   10   44      2.89      0.00
   -6   10   44      0.50      0.00
   -3   10   44     -0.15      0.00
    0   10   44      0.84      0.00
   -8   11   44      1.18      0.00
   -5   11   44     -1.74      0.00
   -2   11   44      1.11      0.00
   -7   12   44     -0.05      0.00
   -5    7   45      0.34      0.00
   -2    7   45      0.86      0.00
   -7    8   45      0.91      0.00
   -4    8   45      0.72      0.00
   -1    8   45      0.14      0.00
   -9    9   45      1.21      0.00
   -6    9   45      0.16      0.00
   -3    9   45     -1.04      0.00
    0    9   45     -1.13      0.00
   -8   10   45     -1.54      0.00
   -5   10   45     -1.07      0.00
   -2   10   45      0.00      0.00
   -7   11   45      0.47      0.00
   -4   11   45      0.36      0.00
    0    5   46      0.32      0.00
   -5    6   46     -1.16      0.00
   -2    6   46      0.65      0.00
   -7    7   46     -0.40      0.00
   -4    7   46      0.73      0.00
   -1    7   46     -0.69      0.00
   -6    8   46      2.43      0.00
   -3    8   46      0.97      0.00
    0    8   46     -1.12      0.00
   -8    9   46     -1.03      0.00
   -5    9   46      1.37      0.00
   -2    9   46     -0.11      0.00
   -4   10   46     -1.05      0.00
   -1    3   47     -0.78      0.00
   -3    4   47     -2.33      0.00
    0    4   47     -0.14      0.00
   -5    5   47      0.88      0.00
   -2    5   47      0.35      0.00
   -4    6   47      0.01      0.00
   -1    6   47      0.14      0.00
   -6    7   47      0.93      0.00
   -3    7   47      0.07      0.00
    0    7   47      1.03      0.00
   -5    8   47     -0.07      0.00
   -2    8   47     -0.89      0.00
   -4    9   47      0.56      0.00
    0    0    0      0.00      0.00
loop_
  _platon_squeeze_void_nr
  _platon_squeeze_void_average_x
  _platon_squeeze_void_average_y
  _platon_squeeze_void_average_z
  _platon_squeeze_void_volume
  _platon_squeeze_void_count_electrons
  _platon_squeeze_void_content
   1 -0.049 -0.033 -0.002      6644      1675 ' '
_platon_squeeze_details
(replace by semicolon in column 1 when used as .sqf)
TITL zC in R-3m
CELL   18.6935   18.6935   38.3901     90.00     90.00    120.00
SPGR R-3m
C101 1.000 1.003 0.242 !       1.82 eA-3
C102 0.329 0.653 0.917 !       1.74 eA-3
C103 1.000 1.001 0.219 !       1.73 eA-3
C104 0.974 0.987 0.890 !       1.44 eA-3
C105 0.340 0.638 0.568 !       1.32 eA-3
C106 0.829 0.660 0.430 !       1.30 eA-3
C107 0.250 0.625 0.399 !       1.29 eA-3
C108 0.500 1.000 0.763 !       1.29 eA-3
C109 0.686 0.850 0.093 !       1.27 eA-3
C110 0.152 0.839 0.705 !       1.22 eA-3
C111 0.671 0.823 0.105 !       1.22 eA-3
C112 0.610 0.216 0.618 !       1.18 eA-3
C113 0.639 0.749 0.127 !       1.16 eA-3
C114 0.769 0.652 0.890 !       1.05 eA-3
C115 1.001 0.998 0.414 !       1.04 eA-3
C116 0.857 0.697 0.453 !       1.04 eA-3
C117 0.823 0.215 0.876 !       0.97 eA-3
C118 0.364 0.733 0.271 !       0.94 eA-3
C119 0.702 0.410 0.934 !       0.94 eA-3
C120 0.384 0.140 0.426 !       0.92 eA-3
C121 0.807 0.070 0.919 !       0.86 eA-3
C122 0.967 0.936 0.414 !       0.83 eA-3
C123 0.742 0.911 0.532 !       0.80 eA-3
C124 0.045 0.949 0.102 !       0.76 eA-3
C125 0.505 0.253 0.047 !       0.75 eA-3
Q126 0.391 0.780 0.554 !       0.75 eA-3
C127 0.437 0.564 0.156 !       0.74 eA-3
C128 0.341 0.649 0.299 !       0.73 eA-3
C129 0.063 0.264 0.971 !       0.73 eA-3
C130 0.672 0.322 0.961 !       0.73 eA-3
C131 0.761 0.221 0.823 !       0.73 eA-3
C132 0.067 0.793 0.966 !       0.71 eA-3
C133 0.713 0.330 0.713 !       0.71 eA-3
C134 0.702 0.140 0.858 !       0.70 eA-3
C135 0.936 0.878 0.508 !       0.69 eA-3
C136 0.213 0.113 0.508 !       0.69 eA-3
C137 0.664 0.387 0.959 !       0.69 eA-3
C138 0.018 0.036 0.060 !       0.67 eA-3
Q139 0.795 0.395 0.729 !       0.67 eA-3
C140 0.706 0.413 0.708 !       0.67 eA-3
C141 1.000 0.999 0.500 !       0.67 eA-3
C142 0.299 0.382 0.711 !       0.66 eA-3
Q143 0.265 0.966 0.630 !       0.66 eA-3
C144 0.550 0.415 0.859 !       0.66 eA-3
C145 0.588 0.485 0.823 !       0.66 eA-3
C146 0.973 0.982 0.937 !       0.65 eA-3
C147 0.189 0.100 0.476 !       0.64 eA-3
C148 0.091 0.540 0.383 !       0.64 eA-3
Q149 0.813 0.511 0.742 !       0.63 eA-3
C150 0.589 0.419 0.862 !       0.63 eA-3
C151 0.470 0.324 0.821 !       0.63 eA-3
C152 0.218 0.441 0.976 !       0.62 eA-3
C153 0.626 0.159 0.837 !       0.61 eA-3
C154 0.596 0.296 0.836 !       0.61 eA-3
Q155 0.688 0.763 0.038 !       0.61 eA-3
C156 0.874 0.941 0.515 !       0.60 eA-3
C157 0.430 0.988 0.629 !       0.60 eA-3
Q158 0.935 0.868 0.415 !       0.60 eA-3
C159 0.185 0.071 0.509 !       0.60 eA-3
C160 0.669 0.527 0.820 !       0.60 eA-3
C161 0.998 0.717 0.002 !       0.60 eA-3
Q162 0.875 0.746 0.029 !       0.60 eA-3
C163 0.545 0.279 0.823 !       0.59 eA-3
C164 0.313 0.688 0.186 !       0.58 eA-3
Q165 0.831 0.521 0.868 !       0.57 eA-3
C166 0.954 0.045 0.532 !       0.57 eA-3
C167 0.974 0.983 0.555 !       0.56 eA-3
Q168 0.421 0.391 0.342 !       0.56 eA-3
C169 0.711 0.360 0.851 !       0.56 eA-3
Q170 0.043 0.747 0.995 !       0.56 eA-3
C171 0.190 0.973 0.055 !       0.55 eA-3
C172 0.648 0.516 0.840 !       0.55 eA-3
Q173 0.279 0.370 0.612 !       0.54 eA-3
C174 0.015 0.984 0.540 !       0.54 eA-3
C175 0.405 0.703 0.601 !       0.54 eA-3
Q176 0.485 0.531 0.968 !       0.52 eA-3
C177 0.081 0.995 0.499 !       0.52 eA-3
C178 0.021 0.235 0.498 !       0.52 eA-3
C179 0.375 0.623 0.007 !       0.50 eA-3
Q180 0.878 0.934 0.405 !       0.50 eA-3
Q181 0.297 0.361 0.649 !       0.50 eA-3
Q182 0.894 0.868 0.390 !       0.50 eA-3
(replace by semicolon in column 1 when used as .sqf)
;
_shelx_fab_checksum              3157
#END Tags that were not found in dictionaries
loop_
_space_group_symop_operation_xyz
'x, y, z'
'-y, x-y, z'
'-x+y, -x, z'
'y, x, -z'
'x-y, -y, -z'
'-x, -x+y, -z'
'x+2/3, y+1/3, z+1/3'
'-y+2/3, x-y+1/3, z+1/3'
'-x+y+2/3, -x+1/3, z+1/3'
'y+2/3, x+1/3, -z+1/3'
'x-y+2/3, -y+1/3, -z+1/3'
'-x+2/3, -x+y+1/3, -z+1/3'
'x+1/3, y+2/3, z+2/3'
'-y+1/3, x-y+2/3, z+2/3'
'-x+y+1/3, -x+2/3, z+2/3'
'y+1/3, x+2/3, -z+2/3'
'x-y+1/3, -y+2/3, -z+2/3'
'-x+1/3, -x+y+2/3, -z+2/3'
'-x, -y, -z'
'y, -x+y, -z'
'x-y, x, -z'
'-y, -x, z'
'-x+y, y, z'
'x, x-y, z'
'-x+2/3, -y+1/3, -z+1/3'
'y+2/3, -x+y+1/3, -z+1/3'
'x-y+2/3, x+1/3, -z+1/3'
'-y+2/3, -x+1/3, z+1/3'
'-x+y+2/3, y+1/3, z+1/3'
'x+2/3, x-y+1/3, z+1/3'
'-x+1/3, -y+2/3, -z+2/3'
'y+1/3, -x+y+2/3, -z+2/3'
'x-y+1/3, x+2/3, -z+2/3'
'-y+1/3, -x+2/3, z+2/3'
'-x+y+1/3, y+2/3, z+2/3'
'x+1/3, x-y+2/3, z+2/3'
loop_
_atom_site_label
_atom_site_type_symbol
_atom_site_fract_x
_atom_site_fract_y
_atom_site_fract_z
_atom_site_U_iso_or_equiv
_atom_site_adp_type
_atom_site_occupancy
_atom_site_site_symmetry_order
_atom_site_calc_flag
_atom_site_refinement_flags_posn
_atom_site_refinement_flags_adp
_atom_site_refinement_flags_occupancy
Cu1 Cu 0.85664(2) 0.14336(2) 0.13827(2) 0.0380(3) Uani 1 2 d S T P
O1 O 0.7753(2) 0.07698(17) 0.21054(7) 0.0578(7) Uani 1 1 d . . .
O2 O 0.81534(18) 0.03842(17) 0.16301(7) 0.0565(8) Uani 1 1 d . . .
O3 O 0.89023(18) 0.10977(18) 0.08982(14) 0.109(2) Uani 1 2 d S T P
O4 O 0.5366(9) -0.3044(11) 0.2627(5) 0.234(8) Uani 0.5 1 d . . P
O5 O 0.5512(15) -0.3721(8) 0.2952(4) 0.314(14) Uani 0.5 1 d . . P
C1 C 0.7860(2) 0.0271(2) 0.19320(10) 0.0459(9) Uani 1 1 d . . .
C2 C 0.7798(4) -0.11009(19) 0.19354(14) 0.0519(14) Uani 1 2 d S T P
H2 H 0.8014 -0.0993 0.1711 0.062 Uiso 1 2 calc R U P
C3 C 0.7639(2) -0.0535(2) 0.21011(10) 0.0504(10) Uani 1 1 d . . .
C4 C 0.7327(3) -0.0689(3) 0.24414(11) 0.0583(11) Uani 1 1 d . . .
H4 H 0.7231 -0.0305 0.2554 0.070 Uiso 1 1 calc R U .
C5 C 0.7156(4) -0.1422(2) 0.26148(16) 0.0616(17) Uani 1 2 d S T P
C6 C 0.6862(5) -0.1569(2) 0.29758(16) 0.0611(16) Uani 1 2 d S T P
C7 C 0.6239(7) -0.2318(6) 0.3091(2) 0.077(3) Uani 0.5 1 d . . P
C8 C 0.7242(7) -0.0917(6) 0.3216(2) 0.079(3) Uani 0.5 1 d . . P
H8 H 0.7612 -0.0393 0.3132 0.095 Uiso 0.5 1 calc . U P
C9 C 0.5736(12) -0.3081(11) 0.2858(5) 0.133(6) Uani 0.5 1 d . . P
loop_
_atom_site_aniso_label
_atom_site_aniso_U_11
_atom_site_aniso_U_22
_atom_site_aniso_U_33
_atom_site_aniso_U_23
_atom_site_aniso_U_13
_atom_site_aniso_U_12
Cu1 0.0462(4) 0.0462(4) 0.0346(4) -0.00174(12) 0.00174(12) 0.0328(3)
O1 0.080(2) 0.0513(16) 0.0558(16) 0.0104(14) 0.0142(15) 0.0425(16)
O2 0.080(2) 0.0484(16) 0.0522(16) 0.0056(13) 0.0100(14) 0.0406(15)
O3 0.121(3) 0.121(3) 0.091(4) -0.0329(17) 0.0329(17) 0.063(4)
O4 0.171(13) 0.206(15) 0.274(18) 0.040(14) -0.078(13) 0.056(12)
O5 0.51(3) 0.069(8) 0.186(14) -0.053(9) -0.038(18) 0.008(13)
C1 0.054(2) 0.049(2) 0.048(2) 0.0006(17) -0.0015(17) 0.0348(19)
C2 0.064(4) 0.049(2) 0.048(3) 0.0023(13) 0.005(3) 0.0322(18)
C3 0.065(3) 0.047(2) 0.048(2) 0.0073(18) 0.0080(18) 0.035(2)
C4 0.076(3) 0.051(2) 0.063(3) 0.004(2) 0.011(2) 0.043(2)
C5 0.089(5) 0.057(3) 0.049(3) 0.0100(16) 0.020(3) 0.045(2)
C6 0.081(5) 0.054(2) 0.057(4) 0.0097(16) 0.019(3) 0.040(2)
C7 0.109(9) 0.056(6) 0.059(6) -0.001(4) 0.022(6) 0.036(6)
C8 0.100(8) 0.064(6) 0.063(6) 0.008(5) 0.037(6) 0.033(6)
C9 0.155(17) 0.092(12) 0.116(12) -0.001(10) -0.002(11) 0.034(11)
loop_
_atom_type_symbol
_atom_type_description
_atom_type_scat_dispersion_real
_atom_type_scat_dispersion_imag
_atom_type_scat_source
C C 0.0033 0.0016 'International Tables Vol C Tables 4.2.6.8 and 6.1.1.4'
H H 0.0000 0.0000 'International Tables Vol C Tables 4.2.6.8 and 6.1.1.4'
O O 0.0106 0.0060 'International Tables Vol C Tables 4.2.6.8 and 6.1.1.4'
Cu Cu 0.3201 1.2651 'International Tables Vol C Tables 4.2.6.8 and 6.1.1.4'
loop_
_geom_angle_atom_site_label_1
_geom_angle_atom_site_label_2
_geom_angle_atom_site_label_3
_geom_angle
_geom_angle_site_symmetry_1
_geom_angle_site_symmetry_3
O2 Cu1 O2 88.58(17) . 22_665
O2 Cu1 O1 89.72(13) . 10_545
O2 Cu1 O1 167.50(11) 22_665 10_545
O2 Cu1 O1 167.50(11) . 25_655
O2 Cu1 O1 89.72(13) 22_665 25_655
O1 Cu1 O1 89.26(19) 10_545 25_655
O2 Cu1 O3 98.81(14) . .
O2 Cu1 O3 98.81(14) 22_665 .
O1 Cu1 O3 93.69(15) 10_545 .
O1 Cu1 O3 93.69(15) 25_655 .
O2 Cu1 Cu1 84.30(8) . 25_655
O2 Cu1 Cu1 84.29(8) 22_665 25_655
O1 Cu1 Cu1 83.21(8) 10_545 25_655
O1 Cu1 Cu1 83.21(8) 25_655 25_655
O3 Cu1 Cu1 175.63(18) . 25_655
C1 O1 Cu1 123.7(3) . 25_655
C1 O2 Cu1 122.5(3) . .
O1 C1 O2 126.2(4) . .
O1 C1 C3 117.2(3) . .
O2 C1 C3 116.6(3) . .
C3 C2 C3 120.8(5) . 24_545
C2 C3 C4 119.7(4) . .
C2 C3 C1 120.8(4) . .
C4 C3 C1 119.3(3) . .
C3 C4 C5 120.7(4) . .
C4 C5 C4 118.4(5) . 24_545
C4 C5 C6 120.7(3) . .
C4 C5 C6 120.7(3) 24_545 .
C7 C6 C7 73.3(10) 24_545 .
C7 C6 C8 75.1(7) 24_545 .
C7 C6 C8 118.5(7) . .
C7 C6 C8 118.5(7) 24_545 24_545
C7 C6 C8 75.1(7) . 24_545
C8 C6 C8 75.7(10) . 24_545
C7 C6 C5 122.9(6) 24_545 .
C7 C6 C5 122.9(6) . .
C8 C6 C5 118.6(6) . .
C8 C6 C5 118.6(6) 24_545 .
C6 C7 C8 117.5(9) . 31_645
C6 C7 C9 125.0(10) . .
C8 C7 C9 117.4(11) 31_645 .
C6 C7 C7 53.3(5) . 24_545
C8 C7 C7 91.8(6) 31_645 24_545
C9 C7 C7 128.3(9) . 24_545
C6 C7 C8 53.3(5) . 24_545
C8 C7 C8 83.2(8) 31_645 24_545
C9 C7 C8 131.0(12) . 24_545
C7 C7 C8 91.5(5) 24_545 24_545
C7 C8 C6 123.6(9) 31_645 .
C7 C8 C7 96.7(8) 31_645 24_545
C6 C8 C7 51.5(6) . 24_545
C7 C8 C8 88.2(6) 31_645 24_545
C6 C8 C8 52.1(5) . 24_545
C7 C8 C8 88.5(5) 24_545 24_545
O5 C9 O4 114(2) . .
O5 C9 C7 122.5(18) . .
O4 C9 C7 120(2) . .
loop_
_geom_bond_atom_site_label_1
_geom_bond_atom_site_label_2
_geom_bond_distance
_geom_bond_site_symmetry_2
Cu1 O2 1.957(3) .
Cu1 O2 1.957(3) 22_665
Cu1 O1 1.966(3) 10_545
Cu1 O1 1.966(3) 25_655
Cu1 O3 2.155(4) .
Cu1 Cu1 2.6518(11) 25_655
O1 C1 1.241(4) .
O1 Cu1 1.966(3) 25_655
O2 C1 1.254(4) .
O4 C9 1.148(19) .
O5 C9 1.11(2) .
C1 C3 1.496(5) .
C2 C3 1.389(5) .
C2 C3 1.389(5) 24_545
C3 C4 1.401(5) .
C4 C5 1.408(5) .
C5 C4 1.408(5) 24_545
C5 C6 1.466(8) .
C6 C7 1.371(11) 24_545
C6 C7 1.372(11) .
C6 C8 1.406(11) .
C6 C8 1.406(11) 24_545
C7 C8 1.402(12) 31_645
C7 C9 1.541(19) .
C7 C7 1.64(2) 24_545
C7 C8 1.694(15) 24_545
C8 C7 1.402(12) 31_645
C8 C7 1.694(15) 24_545
C8 C8 1.73(2) 24_545
