#------------------------------------------------------------------------------
#$Date: 2016-03-26 14:56:23 +0200 (Sat, 26 Mar 2016) $
#$Revision: 180281 $
#$URL: svn://www.crystallography.net/cod/cif/7/11/67/7116745.cif $
#------------------------------------------------------------------------------
#
# This file is available in the Crystallography Open Database (COD),
# http://www.crystallography.net/
#
# All data on this site have been placed in the public domain by the
# contributors.
#
data_7116745
loop_
_publ_author_name
'Valentina Brega'
'Matthias Zeller'
'Yufan He'
'H. Peter Lu'
'Jeremy K. Klosterman'
_publ_section_title
;
 Multi-responsive metal-organic lantern cages in solution
;
_journal_name_full               Chem.Commun.
_journal_page_first              5077
_journal_paper_doi               10.1039/C5cc00698H
_journal_volume                  51
_journal_year                    2015
_chemical_formula_sum            'C56 H38 Cu2 N3 O11'
_chemical_formula_weight         1055.97
_chemical_name_systematic        'Chain 3'
_chemical_properties_physical    Efflorescent
_space_group_crystal_system      triclinic
_space_group_IT_number           2
_space_group_name_Hall           '-P 1'
_space_group_name_H-M_alt        'P -1'
_symmetry_space_group_name_Hall  '-P 1'
_symmetry_space_group_name_H-M   'P -1'
_atom_sites_solution_hydrogens   mixed
_atom_sites_solution_primary     direct
_atom_sites_solution_secondary   difmap
_audit_creation_method           SHELXL-2014
_audit_update_record
;
2014-12-09 deposited with the CCDC.
2015-02-13 downloaded from the CCDC.
;
_cell_angle_alpha                61.699(2)
_cell_angle_beta                 79.187(2)
_cell_angle_gamma                79.168(2)
_cell_formula_units_Z            2
_cell_length_a                   16.1748(7)
_cell_length_b                   17.1245(8)
_cell_length_c                   17.3765(8)
_cell_measurement_reflns_used    9904
_cell_measurement_temperature    100(2)
_cell_measurement_theta_max      66.4225
_cell_measurement_theta_min      2.9080
_cell_volume                     4135.1(3)
_computing_cell_refinement       'SAINT V8.34A (Bruker, 2014)'
_computing_data_collection       'Apex2 v2014.1-0 (Bruker, 2014)'
_computing_data_reduction        'SAINT V8.34A (Bruker, 2014)'
_computing_structure_refinement
;  
SHELXL-2013 (Sheldrick, 2013), 
SHELXLE Rev645 (H\"ubschle et al., 2011)
;
_computing_structure_solution    'SHELXS-97 (Sheldrick, 2008)'
_diffrn_ambient_temperature      100(2)
_diffrn_measured_fraction_theta_full 0.946
_diffrn_measured_fraction_theta_max 0.961
_diffrn_measurement_device_type  'Bruker AXS Prospector CCD diffractometer'
_diffrn_measurement_method       'omega and phi scans'
_diffrn_radiation_monochromator  'laterally graded multilayer (Goebel) mirror'
_diffrn_radiation_type           CuK\a
_diffrn_radiation_wavelength     1.54178
_diffrn_reflns_av_R_equivalents  0.0811
_diffrn_reflns_av_unetI/netI     0.0642
_diffrn_reflns_Laue_measured_fraction_full 0.946
_diffrn_reflns_Laue_measured_fraction_max 0.961
_diffrn_reflns_limit_h_max       19
_diffrn_reflns_limit_h_min       -17
_diffrn_reflns_limit_k_max       20
_diffrn_reflns_limit_k_min       -20
_diffrn_reflns_limit_l_max       20
_diffrn_reflns_limit_l_min       -20
_diffrn_reflns_number            59479
_diffrn_reflns_point_group_measured_fraction_full 0.946
_diffrn_reflns_point_group_measured_fraction_max 0.961
_diffrn_reflns_theta_full        67.679
_diffrn_reflns_theta_max         66.940
_diffrn_reflns_theta_min         2.907
_diffrn_source                   'I-mu-S microsource X-ray tube'
_exptl_absorpt_coefficient_mu    0.961
_exptl_absorpt_correction_T_max  0.7529
_exptl_absorpt_correction_T_min  0.4869
_exptl_absorpt_correction_type   multi-scan
_exptl_absorpt_process_details   'Apex2 v2014.1-0 (Bruker, 2014)'
_exptl_crystal_colour            blue
_exptl_crystal_density_diffrn    0.848
_exptl_crystal_description       rod
_exptl_crystal_F_000             1082
_exptl_crystal_recrystallization_method
'Re-crystallisation from solvent: DMF/diethyl ether'
_exptl_crystal_size_max          0.21
_exptl_crystal_size_mid          0.12
_exptl_crystal_size_min          0.10
_refine_diff_density_max         1.429
_refine_diff_density_min         -1.488
_refine_diff_density_rms         0.129
_refine_ls_extinction_method     none
_refine_ls_goodness_of_fit_ref   1.045
_refine_ls_hydrogen_treatment    constr
_refine_ls_matrix_type           full
_refine_ls_number_parameters     682
_refine_ls_number_reflns         14174
_refine_ls_number_restraints     350
_refine_ls_restrained_S_all      1.044
_refine_ls_R_factor_all          0.1415
_refine_ls_R_factor_gt           0.1081
_refine_ls_shift/su_max          0.000
_refine_ls_shift/su_mean         0.000
_refine_ls_structure_factor_coef Fsqd
_refine_ls_weighting_details
'w=1/[\s^2^(Fo^2^)+(0.1790P)^2^+21.2156P] where P=(Fo^2^+2Fc^2^)/3'
_refine_ls_weighting_scheme      calc
_refine_ls_wR_factor_gt          0.2833
_refine_ls_wR_factor_ref         0.3227
_reflns_Friedel_coverage         0.000
_reflns_number_gt                9805
_reflns_number_total             14174
_reflns_threshold_expression     'I > 2\s(I)'
_cod_data_source_file            c5cc00698h2-6.cif
_cod_data_source_block           prosp14mz020_0m_sq
_cod_database_code               7116745
#BEGIN Tags that were not found in dictionaries:
_shelx_space_group_comment
;
The symmetry employed for this shelxl refinement is uniquely defined
by the following loop, which should always be used as a source of
symmetry information in preference to the above space-group names.
They are only intended as comments.
;
_shelxl_version_number           2014-1
_shelx_res_file
;
REM TRY      5   FINAL CC 67.71   TIME       4 SECS
REM Fragments: 37 11 2 2 2 1
REM
TITL Prosp14mz020_0m in P-1
CELL 1.54178  16.1748  17.1245  17.3765  61.699  79.187  79.168
ZERR    2.00   0.0007   0.0008   0.0008   0.002   0.002   0.002
LATT  1
SFAC C H N O CU
UNIT 112 76 6 22 4
LIST 4 ! automatically inserted. Change 6 to 4 for CHECKCIF!!
TEMP -173.180
L.S. 15 0  358
ACTA
FMAP 2
PLAN 44
EADP Cu2 Cu2B
EADP N3 N3B
EADP C52 C52B
EADP C53 C53B
EADP C54 C54B
EADP C55 C55B
EADP C56 C56B
RIGU Cu2 Cu2B N3 N3B C52 C53 C54 C55 C56 C52B C53B C54B C55B C56B
ISOR 0.003 N3 N3B C52 C53 C54 C55 C56 C52B C53B C54B C55B C56B
ISOR 0.001 Cu2
ISOR 0.01 O11 C51
FLAT 0.001 Cu2 N3 C52 C53 C54 C55 C56
FLAT 0.001 Cu2B N3B C52B C53B C54B C55B C56B

SADI C39 C42 C39 C42B
SADI C50 C48 C50 C48B
EADP C42 C42B
EADP C43 C43B
EADP C44 C44B
EADP C45 C45B
EADP C46 C46B
EADP C47 C47B
EADP C48 C48B
EADP C49 C49B
FLAT C39 C42 > C49 C50
FLAT C39 C42B > C49B C50
RIGU C39 C42 > C49 C50
ISOR 0.01 C42 > C49
OMIT -1 1 1
OMIT 1 0 0
ISOR 0.01 C51 O11

ABIN
WGHT    0.179000   21.215601
FVAR       0.25388   0.36589   0.25041   0.57197   0.59340   0.28973   0.29098
FVAR       0.51730   0.25624   0.36126
C1    1    0.666449    0.649750    0.200111    11.00000    0.01799    0.03180 =
         0.01468   -0.00905   -0.00276   -0.00785
C2    1    0.628791    0.744324    0.179356    11.00000    0.02326    0.02809 =
         0.02167   -0.00885   -0.00282   -0.00866
C3    1    0.671767    0.799390    0.193284    11.00000    0.04812    0.03415 =
         0.04067   -0.01543   -0.00879   -0.01700
AFIX  43
H3    2    0.725053    0.777493    0.215800    11.00000   -1.20000
AFIX   0
C4    1    0.636396    0.886029    0.174143    11.00000    0.04979    0.04246 =
         0.04761   -0.01846   -0.01524   -0.01499
AFIX  43
H4    2    0.666761    0.923966    0.181535    11.00000   -1.20000
AFIX   0
C5    1    0.557558    0.917834    0.144463    11.00000    0.05215    0.03156 =
         0.04489   -0.01845   -0.00969   -0.00297
AFIX  43
H5    2    0.532834    0.976514    0.133569    11.00000   -1.20000
AFIX   0
C6    1    0.514876    0.863299    0.130730    11.00000    0.03382    0.03033 =
         0.03016   -0.01524   -0.00322   -0.00156
C7    1    0.550538    0.777040    0.147644    11.00000    0.02223    0.03641 =
         0.03104   -0.01948   -0.00521   -0.00756
AFIX  43
H7    2    0.521143    0.740337    0.137422    11.00000   -1.20000
AFIX   0
C8    1    0.431969    0.894375    0.099272    11.00000    0.03449    0.03545 =
         0.04210   -0.01854   -0.00919   -0.00193
C9    1    0.363402    0.918003    0.073906    11.00000    0.04028    0.02817 =
         0.03913   -0.01514   -0.00490   -0.00279
C10   1    0.284043    0.942486    0.039587    11.00000    0.02434    0.02870 =
         0.05280   -0.01969   -0.00817    0.00281
C11   1    0.213587    0.981547    0.076633    11.00000    0.04032    0.07046 =
         0.06223   -0.04467   -0.00029   -0.00453
AFIX  43
H11   2    0.218810    0.990144    0.125577    11.00000   -1.20000
AFIX   0
C12   1    0.137646    1.007040    0.041862    11.00000    0.02484    0.09134 =
         0.11369   -0.07682   -0.00731    0.01828
C13   1    0.128307    0.990623   -0.027609    11.00000    0.02129    0.07896 =
         0.11379   -0.07349   -0.02040    0.01559
AFIX  43
H13   2    0.075469    1.007682   -0.050842    11.00000   -1.20000
AFIX   0
C14   1    0.196336    0.949292   -0.062835    11.00000    0.02411    0.03655 =
         0.07467   -0.03395   -0.01592    0.00748
C15   1    0.274464    0.923725   -0.027845    11.00000    0.02527    0.02063 =
         0.05984   -0.02535   -0.01138    0.00769

C16   1    0.071188    1.059856    0.145687    11.00000    0.05961    0.18825 =
         0.12077   -0.12211   -0.01172    0.02802
AFIX 137
H16A  2    0.117238    1.096551    0.129847    11.00000   -1.50000
H16B  2    0.083019    1.002938    0.197543    11.00000   -1.50000
H16C  2    0.017704    1.091380    0.158936    11.00000   -1.50000
AFIX   0
C17   1    0.184528    0.928680   -0.131014    11.00000    0.02428    0.03773 =
         0.07694   -0.03520   -0.02181    0.01352
C18   1    0.174451    0.909197   -0.185979    11.00000    0.02128    0.05965 =
         0.11589   -0.06692   -0.02398    0.01560
C19   1    0.161335    0.879302   -0.246531    11.00000    0.02392    0.04698 =
         0.07941   -0.04224   -0.01840    0.00749
C20   1    0.111184    0.931472   -0.313884    11.00000    0.03335    0.04682 =
         0.08367   -0.03055   -0.02070    0.01494
AFIX  43
H20   2    0.085748    0.989173   -0.321984    11.00000   -1.20000
AFIX   0
C21   1    0.098460    0.898350   -0.369648    11.00000    0.05930    0.05723 =
         0.05849   -0.02736   -0.02856    0.01909
AFIX  43
H21   2    0.065247    0.934293   -0.416849    11.00000   -1.20000
AFIX   0
C22   1    0.133375    0.814594   -0.356969    11.00000    0.02788    0.05146 =
         0.05067   -0.02630   -0.01628    0.00249
AFIX  43
H22   2    0.123245    0.791992   -0.394409    11.00000   -1.20000
AFIX   0
C23   1    0.182921    0.763252   -0.290381    11.00000    0.01142    0.03268 =
         0.03866   -0.02141   -0.00372    0.00090
C24   1    0.198159    0.794495   -0.235016    11.00000    0.01582    0.04863 =
         0.06245   -0.03314   -0.01827    0.00726
AFIX  43
H24   2    0.233333    0.758709   -0.189523    11.00000   -1.20000
AFIX   0
C25   1    0.218929    0.669452   -0.273471    11.00000    0.00938    0.03924 =
         0.02907   -0.02060   -0.00662   -0.00405
C26   1    0.615293    0.438007    0.371231    11.00000    0.01482    0.03094 =
         0.03297   -0.02003   -0.00813    0.00317
C27   1    0.548537    0.406746    0.448367    11.00000    0.02126    0.03487 =
         0.02750   -0.01595   -0.00035   -0.00683
C28   1    0.559493    0.400394    0.529355    11.00000    0.03243    0.06398 =
         0.03415   -0.02940    0.00015   -0.01779
AFIX  43
H28   2    0.610291    0.415422    0.536335    11.00000   -1.20000
AFIX   0
C29   1    0.496011    0.372107    0.599387    11.00000    0.04945    0.06895 =
         0.02588   -0.02221    0.00393   -0.01874
AFIX  43
H29   2    0.502948    0.368989    0.653904    11.00000   -1.20000
AFIX   0
C30   1    0.423399    0.348690    0.590014    11.00000    0.03891    0.06432 =
         0.03392   -0.02128    0.01148   -0.02359
AFIX  43
H30   2    0.380767    0.328242    0.638580    11.00000   -1.20000
AFIX   0
C31   1    0.411309    0.354593    0.509340    11.00000    0.01907    0.04788 =
         0.03701   -0.02539    0.00834   -0.01333
C32   1    0.474167    0.385878    0.438240    11.00000    0.02076    0.04498 =
         0.03313   -0.02314    0.00153   -0.01118
AFIX  43
H32   2    0.465674    0.392830    0.382595    11.00000   -1.20000
AFIX   0
C33   1    0.336407    0.328365    0.498585    11.00000    0.02121    0.05682 =
         0.04675   -0.03186    0.01459   -0.01666
C34   1    0.276035    0.304611    0.489416    11.00000    0.02471    0.04681 =
         0.04762   -0.02726    0.01003   -0.00751
C35   1    0.204405    0.279042    0.474261    11.00000    0.01121    0.03103 =
         0.04573   -0.01837    0.00525   -0.00168
C36   1    0.148285    0.226442    0.546430    11.00000    0.02241    0.02722 =
         0.04205   -0.00464   -0.00370   -0.00173
AFIX  43
H36   2    0.159024    0.207617    0.604950    11.00000   -1.20000
AFIX   0
C37   1    0.078111    0.202696    0.531459    11.00000    0.02453    0.02689 =
         0.04556    0.00248   -0.00454   -0.00423
C38   1    0.062753    0.227050    0.447263    11.00000    0.01614    0.03130 =
         0.04424   -0.00660   -0.00371   -0.00376
AFIX  43
H38   2    0.015456    0.208150    0.438132    11.00000   -1.20000
AFIX   0
C39   1    0.116642    0.279550    0.375180    11.00000    0.01953    0.03681 =
         0.04156   -0.01902    0.00197    0.00394
C40   1    0.189093    0.305752    0.388211    11.00000    0.02400    0.03347 =
         0.04004   -0.02103    0.01282   -0.00629
C41   1   -0.050503    0.138582    0.590042    11.00000    0.05532    0.19600 =
         0.07021    0.03041   -0.02470   -0.07263
AFIX 137
H41A  2   -0.087617    0.195063    0.567302    11.00000   -1.50000
H41B  2   -0.078473    0.095157    0.644988    11.00000   -1.50000
H41C  2   -0.038728    0.115524    0.546665    11.00000   -1.50000
AFIX   0
PART 1
C42   1    0.100496    0.297787    0.288607   101.00000    0.02620    0.03937 =
         0.04074   -0.02129    0.00400    0.00080
C43   1    0.086419    0.311988    0.218006   101.00000    0.03008    0.03888 =
         0.03774   -0.01937    0.00885   -0.00263
C44   1    0.068299    0.336924    0.130666   101.00000    0.02402    0.03784 =
         0.03496   -0.01683    0.00639    0.00458
C45   1   -0.007021    0.315335    0.120090   101.00000    0.02954    0.05748 =
         0.04692   -0.01558    0.00930   -0.01261
AFIX  43
H45   2   -0.043328    0.281622    0.170624   101.00000   -1.20000
AFIX   0
C46   1   -0.028984    0.342127    0.038022   101.00000    0.02479    0.07318 =
         0.05038   -0.01782    0.00731   -0.01068
AFIX  43
H46   2   -0.083059    0.333381    0.031527   101.00000   -1.20000
AFIX   0
C47   1    0.028948    0.382547   -0.036290   101.00000    0.02341    0.05844 =
         0.04457   -0.02136    0.00106   -0.00432
AFIX  43
H47   2    0.016042    0.397188   -0.093056   101.00000   -1.20000
AFIX   0
C48   1    0.104976    0.401021   -0.026623   101.00000    0.02070    0.03614 =
         0.03372   -0.01948    0.00513    0.00111
C49   1    0.123048    0.377364    0.056863   101.00000    0.02284    0.02722 =
         0.03369   -0.01699    0.00273    0.00253
AFIX  43
H49   2    0.175553    0.389679    0.063217   101.00000   -1.20000
AFIX   0
PART 2
SAME C42 > C49
C42B  1    0.097581    0.313083    0.285978  -101.00000    0.02620    0.03937 =
         0.04074   -0.02129    0.00400    0.00080
C43B  1    0.081484    0.339850    0.213170  -101.00000    0.03008    0.03888 =
         0.03774   -0.01937    0.00885   -0.00263
C44B  1    0.062130    0.368017    0.126011  -101.00000    0.02402    0.03784 =
         0.03496   -0.01683    0.00639    0.00458
C45B  1   -0.018501    0.356496    0.116557  -101.00000    0.02954    0.05748 =
         0.04692   -0.01558    0.00930   -0.01261
AFIX  43
H45B  2   -0.057011    0.327765    0.167148  -101.00000   -1.20000
AFIX   0
C46B  1   -0.041373    0.386679    0.034520  -101.00000    0.02479    0.07318 =
         0.05038   -0.01782    0.00731   -0.01068
AFIX  43
H46B  2   -0.097807    0.384989    0.027639  -101.00000   -1.20000
AFIX   0
C47B  1    0.019029    0.420457   -0.040199  -101.00000    0.02341    0.05844 =
         0.04457   -0.02136    0.00106   -0.00432
AFIX  43
H47B  2    0.004619    0.438343   -0.097238  -101.00000   -1.20000
AFIX   0
C48B  1    0.098196    0.426959   -0.029136  -101.00000    0.02070    0.03614 =
         0.03372   -0.01948    0.00513    0.00111
C49B  1    0.119404    0.402533    0.053047  -101.00000    0.02284    0.02722 =
         0.03369   -0.01699    0.00273    0.00253
AFIX  43
H49B  2    0.174279    0.409719    0.059111  -101.00000   -1.20000
AFIX   0
PART 0
C50   1    0.164114    0.456321   -0.108256    11.00000    0.02176    0.04385 =
         0.02884   -0.01849   -0.00337   -0.00261
C51   1    0.495860    0.480548    0.152029    11.00000    0.07677    0.22781 =
         0.08101   -0.04078   -0.04732   -0.06225
AFIX 137
H51A  2    0.467754    0.451144    0.129211    11.00000   -1.50000
H51B  2    0.466780    0.540722    0.137081    11.00000   -1.50000
H51C  2    0.493876    0.445816    0.216107    11.00000   -1.50000
AFIX   0
PART -1
CU2   5    0.777001    0.500926    0.281898    10.50000    0.01002    0.01689 =
         0.01521   -0.00523   -0.00873   -0.00435
AFIX  66
N3    3    0.863054    0.496489    0.364948    10.50000    0.01913    0.01904 =
         0.02369   -0.01310   -0.00691    0.00097
C52   1    0.845240    0.560964    0.394611    10.50000    0.01646    0.02239 =
         0.02050   -0.01169   -0.00696   -0.00060
AFIX  43
H52   2    0.797036    0.604099    0.378056    10.50000   -1.20000
AFIX  65
C53   1    0.897957    0.562327    0.448495    10.50000    0.01863    0.02140 =
         0.02140   -0.01147   -0.00707   -0.00145
AFIX  43
H53   2    0.885783    0.606393    0.468768    10.50000   -1.20000
AFIX  65
C54   1    0.968488    0.499215    0.472718    10.50000    0.02182    0.02869 =
         0.02604   -0.01778   -0.01072    0.00087
C55   1    0.986302    0.434739    0.443055    10.50000    0.01351    0.01756 =
         0.01366   -0.00601   -0.00542   -0.00286
AFIX  43
H55   2    1.034506    0.391604    0.459610    10.50000   -1.20000
AFIX  65
C56   1    0.933586    0.433375    0.389171    10.50000    0.01515    0.01859 =
         0.01791   -0.00839   -0.00660   -0.00226
AFIX  43
H56   2    0.945761    0.389308    0.368898    10.50000   -1.20000
AFIX   0
CU2B  5    1.222813    0.519257    0.705254    10.50000    0.01002    0.01689 =
         0.01521   -0.00523   -0.00873   -0.00435
AFIX  66
N3B   3    1.140708    0.512353    0.626764    10.50000    0.01913    0.01904 =
         0.02369   -0.01310   -0.00691    0.00097
C52B  1    1.170480    0.477060    0.567977    10.50000    0.01646    0.02239 =
         0.02050   -0.01169   -0.00696   -0.00060
AFIX  43
H52B  2    1.228660    0.455340    0.562163    10.50000   -1.20000
AFIX  65
C53B  1    1.115129    0.473547    0.517698    10.50000    0.01863    0.02140 =
         0.02140   -0.01147   -0.00707   -0.00145
AFIX  43
H53B  2    1.135477    0.449425    0.477520    10.50000   -1.20000
AFIX  65
C54B  1    1.030004    0.505327    0.526204    10.50000    0.02182    0.02869 =
         0.02604   -0.01778   -0.01072    0.00087
C55B  1    1.000230    0.540620    0.584991    10.50000    0.01351    0.01756 =
         0.01366   -0.00601   -0.00542   -0.00286
AFIX  43
H55B  2    0.942051    0.562340    0.590804    10.50000   -1.20000
AFIX  65
C56B  1    1.055581    0.544134    0.635271    10.50000    0.01515    0.01859 =
         0.01791   -0.00839   -0.00660   -0.00226
AFIX  43
H56B  2    1.035232    0.568255    0.675449    10.50000   -1.20000
AFIX   0
PART 0
N1    3    0.340687    0.880984   -0.061069    11.00000    0.02254    0.05521 =
         0.09361   -0.06101   -0.02255    0.01760
AFIX  93
H1A   2    0.389747    0.865173   -0.039770    11.00000   -1.20000
H1B   2    0.334013    0.869439   -0.103632    11.00000   -1.20000
AFIX   0
N2    3    0.242147    0.357053    0.317617    11.00000    0.04353    0.08946 =
         0.04950   -0.03611    0.02369   -0.03636
AFIX  93
H2A   2    0.286544    0.373610    0.326148    11.00000   -1.20000
H2B   2    0.231804    0.373425    0.263771    11.00000   -1.20000
AFIX   0
O1    4    0.729519    0.618320    0.241941    11.00000    0.02085    0.04267 =
         0.03450   -0.02144   -0.01341   -0.00508
O2    4    0.628792    0.609237    0.174488    11.00000    0.01369    0.04003 =
         0.03983   -0.02050   -0.01270    0.00217
O3    4    0.064833    1.043518    0.074455    11.00000    0.04275    0.17543 =
         0.16007   -0.13657   -0.01496    0.01982
O4    4    0.270169    0.629334   -0.216283    11.00000    0.02094    0.04562 =
         0.03487   -0.02739   -0.01050   -0.00232
O5    4    0.195061    0.636476   -0.316194    11.00000    0.02116    0.05480 =
         0.04125   -0.03313   -0.01689    0.00586
O6    4    0.681742    0.460006    0.381168    11.00000    0.02372    0.04691 =
         0.03285   -0.02552   -0.00672   -0.01154
O7    4    0.600839    0.440061    0.301311    11.00000    0.01297    0.04625 =
         0.03390   -0.02560   -0.00354   -0.00818
O8    4    0.025763    0.152890    0.606025    11.00000    0.03845    0.06584 =
         0.03894    0.01467   -0.01041   -0.03037
O9    4    0.236500    0.462262   -0.094950    11.00000    0.01959    0.05330 =
         0.02824   -0.02279   -0.00546   -0.00565
O10   4    0.141888    0.478129   -0.183107    11.00000    0.01644    0.06089 =
         0.03467   -0.02544   -0.00242   -0.00763
O11   4    0.586188    0.486600    0.111859    11.00000    0.08314    0.07867 =
         0.09654   -0.03948   -0.06265   -0.00686
AFIX   3
H11A  2    0.600793    0.451958    0.088794    11.00000   -1.50000
AFIX   0
CU1   5    0.673135    0.489423    0.189082    11.00000    0.01001    0.03661 =
         0.02342   -0.01855   -0.00843   -0.00335
HKLF 4

REM  Prosp14mz020_0m in P-1
REM R1 =  0.1081 for    9805 Fo > 4sig(Fo)  and  0.1415 for all   14174 data
REM    682 parameters refined using    350 restraints

END

WGHT      0.1790     21.2136

REM Highest difference peak  1.429,  deepest hole -1.488,  1-sigma level  0.129
Q1    1   1.2996  0.5267  0.7255  11.00000  0.05    1.43
Q2    1   0.7417  0.5277  0.2002  11.00000  0.05    1.37
Q3    1   0.5136  0.5256  0.0695  11.00000  0.05    1.17
Q4    1   0.6984  0.5310  0.2408  11.00000  0.05    1.15
Q5    1   1.2809  0.5380  0.7353  11.00000  0.05    1.08
Q6    1   0.2585  0.5548 -0.1488  11.00000  0.05    1.01
Q7    1   0.9830  0.5277  0.4470  11.00000  0.05    0.96
Q8    1   0.9172  0.5900  0.4065  11.00000  0.05    0.95
Q9    1   1.2544  0.5616  0.7488  11.00000  0.05    0.94
Q10   1   0.4463  0.5945  0.1116  11.00000  0.05    0.92
Q11   1   0.6808  0.4784  0.1081  11.00000  0.05    0.91
Q12   1   0.1587  0.5570 -0.2406  11.00000  0.05    0.88
Q13   1   1.2385  0.5528  0.7669  11.00000  0.05    0.88
Q14   1   0.6013  0.5298  0.2280  11.00000  0.05    0.88
Q15   1   1.0547  0.4813  0.6598  11.00000  0.05    0.85
Q16   1   0.7791  0.5260  0.3458  11.00000  0.05    0.85
Q17   1   0.8368  0.5283  0.2983  11.00000  0.05    0.83
Q18   1   0.4601  0.4381  0.0938  11.00000  0.05    0.82
Q19   1   1.1579  0.5689  0.6529  11.00000  0.05    0.82
Q20   1   0.6957  0.5793  0.1302  11.00000  0.05    0.82
Q21   1   0.6166  0.4450  0.1776  11.00000  0.05    0.80
Q22   1   0.4208  0.4853  0.2347  11.00000  0.05    0.79
Q23   1   0.6036  0.5406  0.1442  11.00000  0.05    0.79
Q24   1   1.1421  0.5586  0.6706  11.00000  0.05    0.79
Q25   1   0.5995  0.4480  0.1984  11.00000  0.05    0.78
Q26   1   0.7134  0.5344  0.3320  11.00000  0.05    0.78
Q27   1   0.6088  0.4338  0.0688  11.00000  0.05    0.76
Q28   1   0.3490  0.6007 -0.2354  11.00000  0.05    0.74
Q29   1   0.0180  0.1536  0.6804  11.00000  0.05    0.73
Q30   1   0.1343  0.4792 -0.2653  11.00000  0.05    0.72
Q31   1   0.6182  0.5471  0.1238  11.00000  0.05    0.72
Q32   1   1.1802  0.5806  0.6336  11.00000  0.05    0.70
Q33   1   0.8073  0.5773  0.2445  11.00000  0.05    0.69
Q34   1   0.4756  0.4069  0.1152  11.00000  0.05    0.68
Q35   1   1.1186  0.4963  0.5046  11.00000  0.05    0.64
Q36   1   0.3173  0.6041 -0.2790  11.00000  0.05    0.64
Q37   1   0.0808  1.1353  0.0748  11.00000  0.05    0.64
Q38   1   0.6998  0.4500  0.3338  11.00000  0.05    0.64
Q39   1   0.8782  0.5800  0.3584  11.00000  0.05    0.61
Q40   1   0.0852  1.1109  0.0112  11.00000  0.05    0.58
Q41   1   0.9173  0.5414  0.3198  11.00000  0.05    0.58
Q42   1   0.9927  0.4893  0.6166  11.00000  0.05    0.56
Q43   1   0.5966  0.8345  0.1603  11.00000  0.05    0.56
Q44   1   0.5814  0.4654  0.2062  11.00000  0.05    0.53
;
_shelx_res_checksum              2363
_shelx_fab_file
;
    2    0    0    -81.33      0.00
    3    0    0     58.87      0.00
    4    0    0     27.34      0.00
    5    0    0      2.43      0.00
    6    0    0    -15.62      0.00
    7    0    0    -10.40      0.00
    8    0    0      1.59      0.00
    9    0    0     13.15      0.00
   11    0    0      5.36      0.00
   12    0    0      6.92      0.00
   13    0    0      2.14      0.00
   14    0    0     -6.80      0.00
   15    0    0      6.06      0.00
   16    0    0     -3.41      0.00
   17    0    0     -5.08      0.00
   18    0    0     -0.72      0.00
  -18    1    0      0.84      0.00
  -17    1    0      0.90      0.00
  -16    1    0      3.58      0.00
  -15    1    0      0.93      0.00
  -14    1    0     -6.09      0.00
  -13    1    0     10.14      0.00
  -12    1    0      2.28      0.00
  -11    1    0     -7.97      0.00
  -10    1    0     -2.05      0.00
   -9    1    0     10.29      0.00
   -8    1    0     -2.12      0.00
   -7    1    0    -12.18      0.00
   -6    1    0    -18.21      0.00
   -5    1    0    -12.05      0.00
   -4    1    0    -15.68      0.00
   -3    1    0      4.24      0.00
   -2    1    0     53.85      0.00
   -1    1    0    -85.46      0.00
    0    1    0     60.91      0.00
    1    1    0     24.72      0.00
    2    1    0      7.62      0.00
    3    1    0    -36.95      0.00
    4    1    0    -11.35      0.00
    5    1    0      8.85      0.00
    6    1    0      2.47      0.00
    7    1    0      3.82      0.00
    8    1    0     -3.39      0.00
    9    1    0      2.06      0.00
   11    1    0      5.40      0.00
   12    1    0     -1.90      0.00
   13    1    0     -2.53      0.00
   14    1    0     -0.83      0.00
   15    1    0      4.24      0.00
   16    1    0     -4.44      0.00
   17    1    0      2.73      0.00
   18    1    0     -4.25      0.00
  -18    2    0     -2.74      0.00
  -17    2    0     -2.73      0.00
  -16    2    0      3.84      0.00
  -15    2    0      2.81      0.00
  -14    2    0    -12.74      0.00
  -13    2    0     12.72      0.00
  -12    2    0     -1.75      0.00
  -11    2    0     -7.12      0.00
  -10    2    0      4.73      0.00
   -9    2    0     -4.03      0.00
   -8    2    0     -3.65      0.00
   -7    2    0    -11.93      0.00
   -6    2    0    -11.75      0.00
   -5    2    0     19.39      0.00
   -4    2    0    -27.87      0.00
   -3    2    0    -31.78      0.00
   -2    2    0    -42.33      0.00
   -1    2    0     97.63      0.00
    0    2    0    -43.02      0.00
    1    2    0   -132.35      0.00
    2    2    0    -80.54      0.00
    3    2    0      2.30      0.00
    4    2    0     -4.34      0.00
    5    2    0    -20.19      0.00
    6    2    0    -10.01      0.00
    7    2    0      1.34      0.00
    8    2    0      0.32      0.00
    9    2    0      5.77      0.00
   10    2    0      4.55      0.00
   11    2    0    -13.76      0.00
   12    2    0      1.24      0.00
   13    2    0      0.15      0.00
   14    2    0      2.29      0.00
   15    2    0     -0.11      0.00
   16    2    0     -5.67      0.00
   17    2    0      3.12      0.00
   18    2    0      0.33      0.00
  -18    3    0      1.21      0.00
  -17    3    0      2.06      0.00
  -16    3    0     -2.73      0.00
  -15    3    0     -2.66      0.00
  -14    3    0     -0.35      0.00
  -13    3    0      0.65      0.00
  -12    3    0     -5.46      0.00
  -11    3    0      7.84      0.00
  -10    3    0     -0.55      0.00
   -9    3    0      8.93      0.00
   -8    3    0     -4.67      0.00
   -7    3    0      0.65      0.00
   -6    3    0     -8.65      0.00
   -5    3    0      9.45      0.00
   -4    3    0    -13.70      0.00
   -3    3    0    -13.67      0.00
   -2    3    0      6.81      0.00
   -1    3    0     23.78      0.00
    0    3    0    -18.56      0.00
    1    3    0     28.85      0.00
    2    3    0     -6.54      0.00
    3    3    0    -16.44      0.00
    4    3    0     39.95      0.00
    5    3    0     -9.16      0.00
    6    3    0      1.60      0.00
    7    3    0     -9.30      0.00
    8    3    0     -4.07      0.00
    9    3    0      4.28      0.00
   10    3    0     10.24      0.00
   11    3    0     -1.57      0.00
   12    3    0     11.29      0.00
   13    3    0      4.91      0.00
   14    3    0      6.86      0.00
   15    3    0     -0.30      0.00
   16    3    0      2.96      0.00
   17    3    0     -1.80      0.00
   18    3    0     -1.25      0.00
  -17    4    0      1.26      0.00
  -16    4    0      0.99      0.00
  -15    4    0     -1.39      0.00
  -14    4    0      1.18      0.00
  -13    4    0     -2.49      0.00
  -12    4    0      6.93      0.00
  -11    4    0      7.16      0.00
  -10    4    0     -4.34      0.00
   -9    4    0      3.46      0.00
   -8    4    0      1.09      0.00
   -7    4    0     -0.16      0.00
   -6    4    0      5.44      0.00
   -5    4    0     -4.69      0.00
   -4    4    0     -4.74      0.00
   -3    4    0     15.56      0.00
   -2    4    0    -11.77      0.00
   -1    4    0     33.35      0.00
    0    4    0     17.85      0.00
    1    4    0    -33.05      0.00
    2    4    0     28.89      0.00
    3    4    0    -17.12      0.00
    4    4    0      2.90      0.00
    5    4    0     -5.53      0.00
    6    4    0     11.33      0.00
    7    4    0     -5.04      0.00
    8    4    0      2.13      0.00
    9    4    0      5.32      0.00
   10    4    0     -5.65      0.00
   11    4    0     -5.37      0.00
   12    4    0      4.90      0.00
   13    4    0     -2.89      0.00
   14    4    0      0.29      0.00
   15    4    0     -2.46      0.00
   16    4    0     -0.23      0.00
   17    4    0      1.52      0.00
   18    4    0     -1.48      0.00
  -17    5    0     -0.18      0.00
  -16    5    0     -0.42      0.00
  -15    5    0      2.55      0.00
  -14    5    0      2.12      0.00
  -13    5    0     -1.54      0.00
  -12    5    0      7.78      0.00
  -11    5    0      5.22      0.00
  -10    5    0      0.75      0.00
   -9    5    0     -8.34      0.00
   -8    5    0     -0.06      0.00
   -7    5    0      0.15      0.00
   -6    5    0      3.65      0.00
   -5    5    0    -19.79      0.00
   -4    5    0      5.71      0.00
   -3    5    0     15.97      0.00
   -2    5    0     14.93      0.00
   -1    5    0     15.69      0.00
    0    5    0      8.97      0.00
    1    5    0    -38.08      0.00
    2    5    0     22.83      0.00
    3    5    0     -0.26      0.00
    4    5    0    -35.63      0.00
    5    5    0    -13.82      0.00
    6    5    0    -13.56      0.00
    7    5    0      7.66      0.00
    8    5    0      1.10      0.00
    9    5    0     -4.23      0.00
   11    5    0      9.10      0.00
   12    5    0    -10.32      0.00
   13    5    0     -2.53      0.00
   14    5    0     -4.30      0.00
   15    5    0     -2.15      0.00
   16    5    0     -4.53      0.00
   17    5    0     -3.86      0.00
   18    5    0      0.13      0.00
  -15    6    0      3.72      0.00
  -14    6    0     -5.99      0.00
  -13    6    0      5.04      0.00
  -12    6    0     -0.13      0.00
  -11    6    0     -4.33      0.00
  -10    6    0      7.22      0.00
   -9    6    0    -10.22      0.00
   -8    6    0      0.51      0.00
   -7    6    0     -1.50      0.00
   -6    6    0      6.05      0.00
   -5    6    0    -13.70      0.00
   -4    6    0      4.92      0.00
   -3    6    0     -8.02      0.00
   -2    6    0     16.56      0.00
   -1    6    0     13.29      0.00
    0    6    0     -4.39      0.00
    2    6    0     -1.32      0.00
    3    6    0     31.70      0.00
    4    6    0    -14.08      0.00
    5    6    0     13.49      0.00
    6    6    0     -2.46      0.00
    7    6    0     -3.21      0.00
    9    6    0      0.38      0.00
   10    6    0    -10.82      0.00
   11    6    0     11.49      0.00
   12    6    0     -3.76      0.00
   13    6    0      3.47      0.00
   14    6    0      4.16      0.00
   15    6    0      3.91      0.00
   16    6    0     -4.75      0.00
   17    6    0      2.61      0.00
   18    6    0     -2.31      0.00
  -16    7    0     -4.47      0.00
  -13    7    0      1.95      0.00
  -12    7    0     -7.22      0.00
  -11    7    0      1.15      0.00
  -10    7    0      1.59      0.00
   -9    7    0     -2.68      0.00
   -8    7    0     -5.38      0.00
   -7    7    0     -0.69      0.00
   -6    7    0     -2.33      0.00
   -5    7    0     -5.71      0.00
   -4    7    0      8.73      0.00
   -2    7    0      9.68      0.00
   -1    7    0     -2.06      0.00
    0    7    0    -12.83      0.00
    1    7    0     -7.51      0.00
    2    7    0      7.95      0.00
    3    7    0     -3.30      0.00
    4    7    0     -1.03      0.00
    5    7    0      2.02      0.00
    6    7    0      2.81      0.00
    7    7    0      6.28      0.00
    9    7    0     -0.47      0.00
   10    7    0     -1.38      0.00
   11    7    0     16.32      0.00
   12    7    0      0.38      0.00
   13    7    0     -0.67      0.00
   14    7    0      1.86      0.00
   15    7    0      7.04      0.00
   16    7    0     -0.40      0.00
   17    7    0     -0.48      0.00
   18    7    0      2.76      0.00
  -15    8    0      6.42      0.00
  -11    8    0      5.44      0.00
  -10    8    0      0.31      0.00
   -9    8    0     -0.51      0.00
   -8    8    0     -2.79      0.00
   -7    8    0      4.00      0.00
   -6    8    0     -2.59      0.00
   -5    8    0      0.79      0.00
   -4    8    0      2.33      0.00
   -3    8    0      7.65      0.00
   -2    8    0     14.02      0.00
   -1    8    0     -5.64      0.00
    0    8    0      4.06      0.00
    1    8    0     -9.75      0.00
    2    8    0     27.63      0.00
    3    8    0    -15.31      0.00
    4    8    0     -2.64      0.00
    5    8    0    -17.56      0.00
    6    8    0     -2.72      0.00
    7    8    0      1.47      0.00
    8    8    0     -9.05      0.00
    9    8    0      8.57      0.00
   10    8    0      8.40      0.00
   11    8    0     -1.16      0.00
   12    8    0      8.59      0.00
   13    8    0     -2.07      0.00
   14    8    0     -3.96      0.00
   15    8    0     -0.46      0.00
   16    8    0     -1.42      0.00
   17    8    0     -0.22      0.00
  -15    9    0      4.75      0.00
  -14    9    0     -2.70      0.00
  -13    9    0     -8.68      0.00
  -12    9    0      4.06      0.00
  -11    9    0      9.76      0.00
  -10    9    0     -7.44      0.00
   -9    9    0     -5.54      0.00
   -8    9    0      3.90      0.00
   -7    9    0     -7.80      0.00
   -6    9    0      2.57      0.00
   -5    9    0      4.74      0.00
   -4    9    0     -7.59      0.00
   -3    9    0      2.14      0.00
   -2    9    0      3.52      0.00
   -1    9    0     -3.04      0.00
    0    9    0      2.48      0.00
    1    9    0     -5.38      0.00
    2    9    0      7.25      0.00
    3    9    0    -14.16      0.00
    4    9    0      5.51      0.00
    5    9    0     -1.31      0.00
    7    9    0      2.97      0.00
    8    9    0      0.08      0.00
    9    9    0     -4.92      0.00
   10    9    0     -0.34      0.00
   11    9    0     -4.24      0.00
   12    9    0      2.01      0.00
   13    9    0     -3.52      0.00
   14    9    0     -2.66      0.00
   15    9    0      1.79      0.00
   16    9    0      0.15      0.00
   17    9    0      0.54      0.00
  -14   10    0      0.64      0.00
  -13   10    0     -3.19      0.00
  -12   10    0     -1.25      0.00
  -11   10    0      2.56      0.00
  -10   10    0     -4.11      0.00
   -9   10    0      0.75      0.00
   -8   10    0      1.16      0.00
   -7   10    0     -8.02      0.00
   -6   10    0     -0.26      0.00
   -5   10    0      3.25      0.00
   -4   10    0     -4.34      0.00
   -3   10    0      4.33      0.00
   -2   10    0     -8.63      0.00
   -1   10    0      0.38      0.00
    0   10    0     -2.85      0.00
    1   10    0     -8.60      0.00
    2   10    0      4.30      0.00
    4   10    0    -13.53      0.00
    5   10    0     -9.79      0.00
    6   10    0     18.67      0.00
    7   10    0      0.32      0.00
    8   10    0    -11.34      0.00
    9   10    0      8.17      0.00
   10   10    0      2.65      0.00
   11   10    0     -4.02      0.00
   12   10    0     -0.23      0.00
   13   10    0      0.61      0.00
   14   10    0     -4.59      0.00
   15   10    0      1.21      0.00
   16   10    0      1.39      0.00
  -13   11    0      1.11      0.00
  -12   11    0     -0.10      0.00
  -11   11    0      2.60      0.00
  -10   11    0     -2.64      0.00
   -9   11    0      4.06      0.00
   -8   11    0      3.40      0.00
   -7   11    0     -0.05      0.00
   -6   11    0      1.58      0.00
   -5   11    0     -1.94      0.00
   -4   11    0      5.96      0.00
   -3   11    0      2.32      0.00
   -2   11    0     -8.05      0.00
   -1   11    0      9.84      0.00
    0   11    0      1.58      0.00
    1   11    0      2.69      0.00
    2   11    0      1.76      0.00
    3   11    0      9.37      0.00
    4   11    0      7.57      0.00
    5   11    0     -6.27      0.00
    6   11    0     -2.62      0.00
    7   11    0      9.75      0.00
    8   11    0     -2.02      0.00
    9   11    0     -1.92      0.00
   10   11    0      4.13      0.00
   11   11    0      8.08      0.00
   12   11    0     -2.28      0.00
   13   11    0      2.18      0.00
   14   11    0      0.29      0.00
   15   11    0     -1.66      0.00
   16   11    0     -2.14      0.00
  -12   12    0     -0.56      0.00
  -11   12    0     -6.22      0.00
  -10   12    0      6.50      0.00
   -8   12    0     -2.19      0.00
   -7   12    0      2.68      0.00
   -5   12    0     -4.02      0.00
   -4   12    0      2.97      0.00
   -3   12    0     -5.13      0.00
   -2   12    0      3.81      0.00
   -1   12    0      7.05      0.00
    0   12    0    -11.51      0.00
    1   12    0     17.32      0.00
    2   12    0      4.93      0.00
    3   12    0     -6.88      0.00
    4   12    0      0.84      0.00
    5   12    0      8.10      0.00
    6   12    0      2.38      0.00
    7   12    0     -3.28      0.00
    8   12    0      1.63      0.00
    9   12    0      4.86      0.00
   10   12    0     -0.17      0.00
   11   12    0      2.55      0.00
   12   12    0     -0.45      0.00
   13   12    0      0.18      0.00
   14   12    0     -0.91      0.00
   15   12    0      0.04      0.00
  -11   13    0     -2.26      0.00
  -10   13    0      0.13      0.00
   -9   13    0     -2.60      0.00
   -8   13    0      0.37      0.00
   -7   13    0     -4.50      0.00
   -6   13    0     -3.23      0.00
   -5   13    0      1.54      0.00
   -4   13    0      3.77      0.00
   -3   13    0     -3.47      0.00
   -2   13    0      1.53      0.00
   -1   13    0     -1.06      0.00
    0   13    0      1.43      0.00
    1   13    0     -3.41      0.00
    2   13    0    -11.05      0.00
    3   13    0     -0.76      0.00
    4   13    0     -4.17      0.00
    5   13    0     -8.51      0.00
    6   13    0     -3.32      0.00
    7   13    0      5.20      0.00
    8   13    0     -3.46      0.00
    9   13    0      4.00      0.00
   10   13    0      2.50      0.00
   11   13    0     -5.64      0.00
   12   13    0     -2.08      0.00
   13   13    0      2.93      0.00
   14   13    0     -2.62      0.00
   -9   14    0     -1.75      0.00
   -8   14    0      2.03      0.00
   -7   14    0      1.42      0.00
   -6   14    0      0.81      0.00
   -5   14    0     -3.75      0.00
   -4   14    0      0.47      0.00
   -3   14    0      3.11      0.00
   -2   14    0      2.94      0.00
   -1   14    0     -9.90      0.00
    0   14    0      9.03      0.00
    1   14    0     -2.05      0.00
    2   14    0     -8.35      0.00
    3   14    0      0.09      0.00
    4   14    0      0.16      0.00
    5   14    0      0.94      0.00
    6   14    0     -5.05      0.00
    7   14    0     -0.04      0.00
    8   14    0      0.04      0.00
    9   14    0     -1.80      0.00
   10   14    0     -2.93      0.00
   11   14    0      2.19      0.00
   12   14    0     -1.31      0.00
   13   14    0     -0.66      0.00
   -8   15    0     -1.10      0.00
   -7   15    0     -1.84      0.00
   -6   15    0      4.51      0.00
   -5   15    0      0.31      0.00
   -4   15    0      1.17      0.00
   -3   15    0      0.98      0.00
   -2   15    0     -1.82      0.00
   -1   15    0      1.56      0.00
    0   15    0      4.79      0.00
    1   15    0     -6.29      0.00
    2   15    0      4.99      0.00
    3   15    0      1.83      0.00
    4   15    0      0.84      0.00
    5   15    0      1.64      0.00
    6   15    0      2.91      0.00
    7   15    0     -0.03      0.00
    8   15    0      3.25      0.00
    9   15    0     -2.66      0.00
   10   15    0     -1.16      0.00
   11   15    0      0.23      0.00
   12   15    0     -0.59      0.00
   -6   16    0     -1.08      0.00
   -5   16    0      0.30      0.00
   -4   16    0     -0.10      0.00
   -3   16    0     -0.39      0.00
   -2   16    0     -0.64      0.00
   -1   16    0      1.28      0.00
    0   16    0     -1.90      0.00
    1   16    0     -0.56      0.00
    2   16    0      1.59      0.00
    3   16    0     -0.95      0.00
    4   16    0      0.61      0.00
    5   16    0     -2.03      0.00
    6   16    0     -0.63      0.00
    7   16    0     -1.09      0.00
    8   16    0      2.91      0.00
    9   16    0      1.88      0.00
   10   16    0      0.48      0.00
   -3   17    0     -0.20      0.00
   -2   17    0      0.90      0.00
   -1   17    0     -2.82      0.00
    0   17    0     -4.17      0.00
    1   17    0      5.39      0.00
    2   17    0     -5.32      0.00
    3   17    0     -3.56      0.00
    4   17    0      5.03      0.00
    5   17    0     -4.52      0.00
    6   17    0      1.54      0.00
    7   17    0      0.79      0.00
   -5  -17    1      1.33      0.00
   -4  -17    1      2.73      0.00
   -3  -17    1     -5.22      0.00
   -2  -17    1     -1.32      0.00
   -1  -17    1      3.03      0.00
    0  -17    1     -1.77      0.00
    1  -17    1     -0.70      0.00
    2  -17    1      1.79      0.00
   -9  -16    1      0.63      0.00
   -8  -16    1     -0.78      0.00
   -7  -16    1     -1.69      0.00
   -6  -16    1     -2.30      0.00
   -5  -16    1      0.88      0.00
   -4  -16    1     -0.99      0.00
   -3  -16    1     -0.27      0.00
   -2  -16    1      2.35      0.00
   -1  -16    1     -4.31      0.00
    0  -16    1      0.96      0.00
    1  -16    1     -0.20      0.00
    2  -16    1     -1.03      0.00
    3  -16    1     -2.28      0.00
    4  -16    1     -0.32      0.00
    5  -16    1      0.90      0.00
  -11  -15    1      1.50      0.00
  -10  -15    1      0.61      0.00
   -9  -15    1     -0.63      0.00
   -8  -15    1      0.04      0.00
   -7  -15    1      0.02      0.00
   -6  -15    1      0.63      0.00
   -5  -15    1      2.21      0.00
   -4  -15    1     -0.75      0.00
   -3  -15    1      1.80      0.00
   -2  -15    1      6.67      0.00
   -1  -15    1     -4.75      0.00
    0  -15    1      5.22      0.00
    1  -15    1      0.94      0.00
    2  -15    1     -1.17      0.00
    3  -15    1     -0.56      0.00
    4  -15    1      1.90      0.00
    5  -15    1     -0.27      0.00
    6  -15    1      0.95      0.00
    7  -15    1     -2.73      0.00
  -12  -14    1      2.69      0.00
  -11  -14    1     -0.60      0.00
  -10  -14    1      0.72      0.00
   -9  -14    1      0.16      0.00
   -8  -14    1     -5.68      0.00
   -7  -14    1     -0.72      0.00
   -6  -14    1      5.07      0.00
   -5  -14    1      7.88      0.00
   -4  -14    1     -0.91      0.00
   -3  -14    1      4.28      0.00
   -2  -14    1     -4.26      0.00
   -1  -14    1      7.73      0.00
    0  -14    1      1.89      0.00
    1  -14    1     -4.55      0.00
    2  -14    1      2.46      0.00
    3  -14    1      0.37      0.00
    4  -14    1     -0.34      0.00
    5  -14    1      3.48      0.00
    6  -14    1     -0.97      0.00
    7  -14    1     -2.51      0.00
    8  -14    1      1.07      0.00
    9  -14    1      0.00      0.00
  -13  -13    1      0.50      0.00
  -12  -13    1     -1.71      0.00
  -11  -13    1     -3.11      0.00
  -10  -13    1     -1.67      0.00
   -9  -13    1     -1.54      0.00
   -8  -13    1      1.98      0.00
   -7  -13    1     -1.00      0.00
   -6  -13    1     -8.88      0.00
   -5  -13    1     -3.27      0.00
   -4  -13    1      0.33      0.00
   -3  -13    1     -2.76      0.00
   -2  -13    1    -13.69      0.00
   -1  -13    1      5.95      0.00
    0  -13    1     -3.67      0.00
    1  -13    1     -3.59      0.00
    2  -13    1      0.03      0.00
    3  -13    1      0.68      0.00
    4  -13    1      0.47      0.00
    5  -13    1      4.71      0.00
    6  -13    1     -4.66      0.00
    7  -13    1      0.36      0.00
    8  -13    1     -2.44      0.00
    9  -13    1     -3.04      0.00
   10  -13    1      0.47      0.00
  -14  -12    1     -0.84      0.00
  -13  -12    1      0.13      0.00
  -12  -12    1     -2.31      0.00
  -11  -12    1      0.80      0.00
  -10  -12    1      1.76      0.00
   -9  -12    1     -2.60      0.00
   -8  -12    1     -4.47      0.00
   -7  -12    1     -4.05      0.00
   -6  -12    1      7.55      0.00
   -5  -12    1     -6.86      0.00
   -4  -12    1    -11.56      0.00
   -3  -12    1      0.39      0.00
   -2  -12    1      1.43      0.00
   -1  -12    1      1.03      0.00
    0  -12    1    -13.00      0.00
    1  -12    1      6.75      0.00
    2  -12    1     -1.22      0.00
    3  -12    1     -1.67      0.00
    4  -12    1     -1.35      0.00
    5  -12    1     -4.07      0.00
    6  -12    1     -0.72      0.00
    7  -12    1      2.76      0.00
    8  -12    1     -2.96      0.00
    9  -12    1      2.55      0.00
   10  -12    1     -2.16      0.00
   11  -12    1     -4.19      0.00
   12  -12    1      3.35      0.00
  -15  -11    1      1.69      0.00
  -14  -11    1      3.49      0.00
  -13  -11    1     -3.93      0.00
  -12  -11    1      3.71      0.00
  -11  -11    1      6.40      0.00
  -10  -11    1     -4.42      0.00
   -9  -11    1     -0.96      0.00
   -8  -11    1     10.76      0.00
   -7  -11    1    -12.92      0.00
   -6  -11    1     -3.39      0.00
   -5  -11    1     12.49      0.00
   -4  -11    1      6.39      0.00
   -3  -11    1      5.94      0.00
   -2  -11    1      6.91      0.00
   -1  -11    1      3.03      0.00
    0  -11    1      6.48      0.00
    1  -11    1      4.50      0.00
    2  -11    1     -9.12      0.00
    3  -11    1      2.14      0.00
    4  -11    1      0.63      0.00
    5  -11    1     -3.02      0.00
    7  -11    1      2.82      0.00
    8  -11    1     -0.24      0.00
    9  -11    1      6.13      0.00
   10  -11    1     -2.71      0.00
   11  -11    1     -1.76      0.00
   12  -11    1     -0.37      0.00
   13  -11    1     -0.02      0.00
  -16  -10    1     -1.26      0.00
  -15  -10    1     -2.71      0.00
  -14  -10    1      0.65      0.00
  -13  -10    1      2.24      0.00
  -12  -10    1      3.43      0.00
  -11  -10    1     -0.78      0.00
  -10  -10    1      6.88      0.00
   -9  -10    1    -10.72      0.00
   -8  -10    1      1.15      0.00
   -7  -10    1      5.46      0.00
   -6  -10    1      1.19      0.00
   -5  -10    1    -15.35      0.00
   -4  -10    1     16.15      0.00
   -3  -10    1     14.56      0.00
   -2  -10    1     -1.65      0.00
   -1  -10    1     -8.02      0.00
    0  -10    1      7.43      0.00
    1  -10    1     -0.36      0.00
    2  -10    1     -6.31      0.00
    3  -10    1      5.04      0.00
    4  -10    1     -4.13      0.00
    5  -10    1      0.49      0.00
    6  -10    1     -0.54      0.00
    7  -10    1      2.64      0.00
    8  -10    1     -1.43      0.00
    9  -10    1      5.31      0.00
   10  -10    1     -2.77      0.00
   11  -10    1     -2.51      0.00
   12  -10    1      1.31      0.00
   13  -10    1     -0.59      0.00
   14  -10    1      3.38      0.00
  -16   -9    1     -0.51      0.00
  -15   -9    1      1.14      0.00
  -14   -9    1     -1.25      0.00
  -13   -9    1     -2.34      0.00
  -12   -9    1      5.15      0.00
  -11   -9    1     -4.80      0.00
  -10   -9    1     -8.26      0.00
   -9   -9    1     -2.31      0.00
   -8   -9    1      5.41      0.00
   -7   -9    1     -1.04      0.00
   -6   -9    1      7.22      0.00
   -5   -9    1      2.05      0.00
   -4   -9    1      5.48      0.00
   -3   -9    1     -2.57      0.00
   -2   -9    1    -10.71      0.00
   -1   -9    1     -0.04      0.00
    0   -9    1     -1.69      0.00
    1   -9    1     -4.44      0.00
    2   -9    1     -6.63      0.00
    3   -9    1     -5.65      0.00
    4   -9    1      0.20      0.00
    5   -9    1     -0.60      0.00
    6   -9    1     -6.46      0.00
    7   -9    1      3.75      0.00
    9   -9    1     -7.64      0.00
   10   -9    1      3.26      0.00
   12   -9    1     -7.82      0.00
   13   -9    1     -1.98      0.00
   14   -9    1      0.74      0.00
  -17   -8    1     -1.76      0.00
  -16   -8    1     -1.31      0.00
  -15   -8    1     -1.20      0.00
  -14   -8    1     -1.76      0.00
  -13   -8    1      8.28      0.00
  -12   -8    1     -4.44      0.00
  -11   -8    1     -3.59      0.00
  -10   -8    1     -2.58      0.00
   -9   -8    1     -3.61      0.00
   -8   -8    1     -3.45      0.00
   -7   -8    1      5.51      0.00
   -6   -8    1     -6.55      0.00
   -5   -8    1     -2.88      0.00
   -4   -8    1      6.36      0.00
   -3   -8    1      8.06      0.00
   -2   -8    1    -10.53      0.00
   -1   -8    1      9.83      0.00
    0   -8    1      5.70      0.00
    1   -8    1     -4.50      0.00
    2   -8    1      9.14      0.00
    3   -8    1    -13.98      0.00
    4   -8    1      1.39      0.00
    5   -8    1      3.21      0.00
    6   -8    1     -1.85      0.00
    7   -8    1      7.52      0.00
    8   -8    1      0.75      0.00
   10   -8    1      3.26      0.00
   11   -8    1      4.83      0.00
   12   -8    1     -3.08      0.00
   13   -8    1      7.80      0.00
   14   -8    1     -0.68      0.00
   15   -8    1     -3.37      0.00
  -17   -7    1     -0.12      0.00
  -16   -7    1      4.72      0.00
  -15   -7    1      0.34      0.00
  -14   -7    1     -5.10      0.00
  -13   -7    1      5.45      0.00
  -12   -7    1      1.29      0.00
  -11   -7    1      3.39      0.00
  -10   -7    1     -5.95      0.00
   -9   -7    1      7.40      0.00
   -8   -7    1      4.76      0.00
   -7   -7    1      0.28      0.00
   -6   -7    1     -7.09      0.00
   -5   -7    1      0.21      0.00
   -4   -7    1    -14.54      0.00
   -3   -7    1      9.41      0.00
   -2   -7    1     -6.93      0.00
   -1   -7    1      4.83      0.00
    0   -7    1     -2.84      0.00
    1   -7    1     -3.07      0.00
    2   -7    1     12.88      0.00
    4   -7    1     -0.43      0.00
    5   -7    1      1.10      0.00
    6   -7    1      5.18      0.00
    7   -7    1     -2.70      0.00
    8   -7    1      1.43      0.00
    9   -7    1     -0.69      0.00
   10   -7    1      9.32      0.00
   11   -7    1     -1.58      0.00
   12   -7    1     -4.20      0.00
   13   -7    1     10.62      0.00
   14   -7    1      3.21      0.00
   15   -7    1     -4.54      0.00
   16   -7    1      0.69      0.00
  -18   -6    1      1.02      0.00
  -17   -6    1     -0.61      0.00
  -16   -6    1      4.86      0.00
  -15   -6    1      4.02      0.00
  -14   -6    1      1.53      0.00
  -13   -6    1      0.78      0.00
  -12   -6    1      1.93      0.00
  -11   -6    1     -4.67      0.00
  -10   -6    1      0.02      0.00
   -8   -6    1     -0.98      0.00
   -7   -6    1     -5.86      0.00
   -6   -6    1      4.65      0.00
   -5   -6    1     21.74      0.00
   -4   -6    1      2.75      0.00
   -3   -6    1     16.51      0.00
   -2   -6    1    -16.98      0.00
   -1   -6    1     -0.24      0.00
    0   -6    1     -1.37      0.00
    1   -6    1     -8.67      0.00
    4   -6    1      8.01      0.00
    5   -6    1     -1.31      0.00
    6   -6    1      3.70      0.00
    7   -6    1     -5.83      0.00
    8   -6    1      0.85      0.00
    9   -6    1      3.21      0.00
   10   -6    1     -0.46      0.00
   11   -6    1     -4.04      0.00
   12   -6    1      2.12      0.00
   13   -6    1     -5.56      0.00
   14   -6    1     -8.34      0.00
   15   -6    1      1.61      0.00
   16   -6    1      1.77      0.00
  -18   -5    1      0.60      0.00
  -17   -5    1     -5.20      0.00
  -16   -5    1      6.52      0.00
  -15   -5    1     -3.12      0.00
  -14   -5    1     -0.04      0.00
  -13   -5    1     -6.07      0.00
  -12   -5    1      4.61      0.00
  -11   -5    1     -0.71      0.00
  -10   -5    1     -7.90      0.00
   -9   -5    1     -8.74      0.00
   -8   -5    1      6.44      0.00
   -7   -5    1     -8.58      0.00
   -6   -5    1     -3.13      0.00
   -5   -5    1     -4.46      0.00
   -4   -5    1      2.89      0.00
   -3   -5    1      4.83      0.00
   -2   -5    1      5.55      0.00
   -1   -5    1      1.38      0.00
    0   -5    1      1.89      0.00
    1   -5    1     30.13      0.00
    2   -5    1    -14.05      0.00
    3   -5    1     -6.19      0.00
    4   -5    1     -3.17      0.00
    5   -5    1      6.31      0.00
    6   -5    1      0.69      0.00
    7   -5    1     -3.58      0.00
    8   -5    1     -6.52      0.00
    9   -5    1     16.93      0.00
   10   -5    1     -5.83      0.00
   11   -5    1     -1.39      0.00
   12   -5    1      3.26      0.00
   13   -5    1     -5.45      0.00
   14   -5    1     -3.77      0.00
   15   -5    1     -3.01      0.00
   17   -5    1      0.41      0.00
  -18   -4    1      0.89      0.00
  -17   -4    1     -1.55      0.00
  -16   -4    1     -0.25      0.00
  -15   -4    1     -2.52      0.00
  -14   -4    1     -0.60      0.00
  -13   -4    1    -12.33      0.00
  -12   -4    1      1.08      0.00
  -11   -4    1     -3.37      0.00
  -10   -4    1     -2.31      0.00
   -8   -4    1      1.69      0.00
   -7   -4    1     -4.32      0.00
   -6   -4    1      7.21      0.00
   -5   -4    1    -16.94      0.00
   -4   -4    1      9.50      0.00
   -3   -4    1    -30.63      0.00
   -2   -4    1    -42.87      0.00
   -1   -4    1     70.02      0.00
    0   -4    1    -10.14      0.00
    1   -4    1     17.05      0.00
    2   -4    1    -16.57      0.00
    3   -4    1     24.74      0.00
    4   -4    1    -14.37      0.00
    5   -4    1      4.12      0.00
    6   -4    1      8.06      0.00
    7   -4    1      5.88      0.00
    8   -4    1     -0.39      0.00
    9   -4    1      2.55      0.00
   10   -4    1     -3.07      0.00
   11   -4    1      5.24      0.00
   12   -4    1      2.61      0.00
   13   -4    1    -12.77      0.00
   14   -4    1      9.10      0.00
   15   -4    1     -2.11      0.00
   16   -4    1      2.78      0.00
   17   -4    1     -2.84      0.00
  -18   -3    1     -2.43      0.00
  -17   -3    1      4.13      0.00
  -16   -3    1      2.35      0.00
  -15   -3    1     -2.15      0.00
  -14   -3    1      9.72      0.00
  -13   -3    1     -3.20      0.00
  -12   -3    1     -0.68      0.00
  -11   -3    1      2.36      0.00
  -10   -3    1      0.66      0.00
   -9   -3    1     -1.74      0.00
   -8   -3    1     -8.35      0.00
   -7   -3    1      9.51      0.00
   -6   -3    1     10.71      0.00
   -5   -3    1      8.49      0.00
   -4   -3    1     18.00      0.00
   -3   -3    1      1.82      0.00
   -2   -3    1     16.01      0.00
   -1   -3    1     89.12      0.00
    0   -3    1    -49.42      0.00
    1   -3    1      3.81      0.00
    2   -3    1    -27.72      0.00
    3   -3    1     -5.88      0.00
    4   -3    1     12.78      0.00
    5   -3    1     -7.27      0.00
    6   -3    1      3.30      0.00
    7   -3    1     20.99      0.00
    8   -3    1     11.67      0.00
    9   -3    1     -0.71      0.00
   10   -3    1      3.82      0.00
   11   -3    1      4.15      0.00
   12   -3    1     -5.63      0.00
   13   -3    1     -7.94      0.00
   14   -3    1      2.67      0.00
   15   -3    1      2.31      0.00
   16   -3    1      5.91      0.00
   17   -3    1     -1.11      0.00
   18   -3    1     -2.78      0.00
  -18   -2    1      0.65      0.00
  -17   -2    1      5.82      0.00
  -16   -2    1     -2.30      0.00
  -15   -2    1     -0.52      0.00
  -14   -2    1      7.42      0.00
  -13   -2    1      1.76      0.00
  -12   -2    1    -10.51      0.00
  -11   -2    1      3.24      0.00
  -10   -2    1      5.94      0.00
   -9   -2    1      1.28      0.00
   -8   -2    1     -2.74      0.00
   -7   -2    1     -4.05      0.00
   -6   -2    1     -2.69      0.00
   -5   -2    1     24.69      0.00
   -4   -2    1     12.24      0.00
   -3   -2    1    -21.07      0.00
   -2   -2    1     32.95      0.00
   -1   -2    1     -6.47      0.00
    0   -2    1     -4.13      0.00
    1   -2    1    -13.25      0.00
    2   -2    1    -75.17      0.00
    3   -2    1    -23.09      0.00
    4   -2    1     20.24      0.00
    5   -2    1     11.67      0.00
    6   -2    1    -10.59      0.00
    7   -2    1     19.07      0.00
    8   -2    1      2.54      0.00
    9   -2    1    -10.81      0.00
   10   -2    1      5.70      0.00
   11   -2    1      1.91      0.00
   12   -2    1     -4.31      0.00
   13   -2    1      1.11      0.00
   14   -2    1     -9.27      0.00
   15   -2    1      0.65      0.00
   16   -2    1      2.41      0.00
   17   -2    1     -2.99      0.00
   18   -2    1      2.81      0.00
  -18   -1    1      0.77      0.00
  -17   -1    1      3.43      0.00
  -16   -1    1      0.90      0.00
  -15   -1    1     -2.43      0.00
  -14   -1    1      0.70      0.00
  -13   -1    1     -6.10      0.00
  -12   -1    1    -10.70      0.00
  -11   -1    1     -2.41      0.00
  -10   -1    1     -8.54      0.00
   -9   -1    1     -9.74      0.00
   -8   -1    1      7.88      0.00
   -7   -1    1     -1.43      0.00
   -6   -1    1      0.21      0.00
   -5   -1    1     18.19      0.00
   -4   -1    1    -38.11      0.00
   -3   -1    1    -68.01      0.00
   -2   -1    1    131.61      0.00
   -1   -1    1   -137.93      0.00
    0   -1    1   -184.63      0.00
    1   -1    1    -11.91      0.00
    2   -1    1    -19.88      0.00
    3   -1    1    -31.89      0.00
    4   -1    1     26.96      0.00
    5   -1    1     -8.11      0.00
    6   -1    1     -9.74      0.00
    7   -1    1      3.46      0.00
    8   -1    1      6.21      0.00
    9   -1    1     -5.49      0.00
   10   -1    1    -14.43      0.00
   11   -1    1      0.75      0.00
   12   -1    1     -9.49      0.00
   13   -1    1      9.11      0.00
   14   -1    1     -4.93      0.00
   15   -1    1      3.90      0.00
   16   -1    1      3.24      0.00
   17   -1    1     -2.28      0.00
   18   -1    1      0.11      0.00
  -18    0    1      4.02      0.00
  -17    0    1     -3.52      0.00
  -16    0    1      3.78      0.00
  -15    0    1      0.52      0.00
  -14    0    1     -5.47      0.00
  -13    0    1      1.30      0.00
  -12    0    1     -2.09      0.00
  -10    0    1      9.44      0.00
   -9    0    1    -11.72      0.00
   -8    0    1      2.09      0.00
   -7    0    1     -6.69      0.00
   -6    0    1      8.32      0.00
   -5    0    1     31.04      0.00
   -4    0    1     18.28      0.00
   -3    0    1    -56.46      0.00
   -2    0    1     23.54      0.00
   -1    0    1    165.47      0.00
    0    0    1     21.65      0.00
    1    0    1   -140.66      0.00
    2    0    1     16.86      0.00
    3    0    1     74.27      0.00
    4    0    1    -19.75      0.00
    5    0    1      0.88      0.00
    6    0    1     -2.54      0.00
    7    0    1     -4.93      0.00
    8    0    1      9.74      0.00
    9    0    1     -1.96      0.00
   10    0    1     -8.22      0.00
   11    0    1      8.84      0.00
   12    0    1     -2.23      0.00
   13    0    1     -5.10      0.00
   14    0    1     -2.54      0.00
   15    0    1      5.70      0.00
   16    0    1     -1.35      0.00
   17    0    1     -1.05      0.00
   18    0    1      0.15      0.00
  -18    1    1      3.38      0.00
  -17    1    1     -0.82      0.00
  -16    1    1     -3.01      0.00
  -15    1    1     -0.20      0.00
  -14    1    1     -0.78      0.00
  -13    1    1      5.31      0.00
  -12    1    1      2.76      0.00
  -10    1    1     13.46      0.00
   -9    1    1      5.79      0.00
   -8    1    1    -12.63      0.00
   -7    1    1      6.94      0.00
   -6    1    1     -3.51      0.00
   -5    1    1     10.43      0.00
   -4    1    1     13.49      0.00
   -3    1    1     29.30      0.00
   -2    1    1     42.58      0.00
    0    1    1    -56.16      0.00
    1    1    1    148.48      0.00
    2    1    1     17.09      0.00
    3    1    1     64.61      0.00
    4    1    1     11.57      0.00
    5    1    1    -15.37      0.00
    6    1    1     17.44      0.00
    7    1    1     10.70      0.00
    8    1    1     10.50      0.00
    9    1    1     -8.95      0.00
   10    1    1      5.05      0.00
   11    1    1      2.74      0.00
   12    1    1      3.07      0.00
   13    1    1     -3.73      0.00
   14    1    1      2.50      0.00
   15    1    1     -2.92      0.00
   16    1    1     -2.49      0.00
   17    1    1     -0.41      0.00
   18    1    1     -4.32      0.00
  -18    2    1      2.43      0.00
  -17    2    1      2.80      0.00
  -16    2    1      2.28      0.00
  -15    2    1     -6.99      0.00
  -14    2    1      4.10      0.00
  -13    2    1      4.75      0.00
  -12    2    1     -1.84      0.00
  -11    2    1     -3.49      0.00
  -10    2    1     -5.70      0.00
   -9    2    1      3.40      0.00
   -8    2    1    -17.24      0.00
   -7    2    1      8.12      0.00
   -6    2    1      3.52      0.00
   -5    2    1      4.32      0.00
   -4    2    1     -8.58      0.00
   -3    2    1      5.71      0.00
   -2    2    1      8.05      0.00
   -1    2    1     50.78      0.00
    0    2    1   -175.54      0.00
    1    2    1    -46.99      0.00
    2    2    1     11.04      0.00
    3    2    1    -14.34      0.00
    4    2    1     30.33      0.00
    5    2    1     -7.55      0.00
    6    2    1     12.22      0.00
    7    2    1     10.52      0.00
    8    2    1      1.80      0.00
    9    2    1     -2.87      0.00
   10    2    1      2.89      0.00
   11    2    1    -19.98      0.00
   12    2    1      3.67      0.00
   13    2    1     -5.83      0.00
   14    2    1      2.97      0.00
   15    2    1     -5.49      0.00
   16    2    1     -1.44      0.00
   17    2    1      2.91      0.00
   18    2    1      1.19      0.00
   19    2    1     -2.96      0.00
  -18    3    1      3.32      0.00
  -17    3    1     -0.12      0.00
  -16    3    1     -3.23      0.00
  -15    3    1     -4.77      0.00
  -14    3    1     13.57      0.00
  -13    3    1    -15.70      0.00
  -12    3    1      1.50      0.00
  -11    3    1      2.84      0.00
  -10    3    1    -11.50      0.00
   -9    3    1      3.27      0.00
   -8    3    1    -10.09      0.00
   -7    3    1      4.47      0.00
   -6    3    1      4.24      0.00
   -5    3    1     -3.56      0.00
   -4    3    1     -9.27      0.00
   -3    3    1     36.09      0.00
   -2    3    1     12.26      0.00
   -1    3    1   -127.64      0.00
    0    3    1     -6.70      0.00
    1    3    1     -5.50      0.00
    2    3    1    -39.79      0.00
    3    3    1     -6.33      0.00
    4    3    1     13.02      0.00
    5    3    1    -16.05      0.00
    6    3    1     14.21      0.00
    7    3    1      5.38      0.00
    8    3    1    -11.36      0.00
    9    3    1      4.98      0.00
   10    3    1     12.80      0.00
   11    3    1     -6.42      0.00
   12    3    1      4.53      0.00
   13    3    1      2.99      0.00
   14    3    1     -1.06      0.00
   15    3    1     -0.84      0.00
   16    3    1      0.86      0.00
   17    3    1     -0.90      0.00
   18    3    1      3.46      0.00
  -17    4    1      3.70      0.00
  -16    4    1     -3.19      0.00
  -15    4    1     -5.55      0.00
  -14    4    1      9.22      0.00
  -13    4    1     -9.10      0.00
  -12    4    1      1.82      0.00
  -11    4    1     -1.32      0.00
  -10    4    1     -2.11      0.00
   -9    4    1      1.30      0.00
   -8    4    1      5.33      0.00
   -7    4    1     -9.06      0.00
   -6    4    1     22.92      0.00
   -5    4    1     -7.25      0.00
   -4    4    1     -3.72      0.00
   -3    4    1     16.50      0.00
   -2    4    1      8.07      0.00
   -1    4    1    -66.94      0.00
    0    4    1      1.70      0.00
    1    4    1     57.31      0.00
    2    4    1    -26.83      0.00
    3    4    1     35.49      0.00
    4    4    1     19.09      0.00
    5    4    1     21.02      0.00
    6    4    1     -4.13      0.00
    7    4    1     -4.56      0.00
    8    4    1      1.08      0.00
    9    4    1     -0.38      0.00
   10    4    1     -5.62      0.00
   11    4    1      9.11      0.00
   12    4    1      3.93      0.00
   13    4    1      5.75      0.00
   14    4    1     -4.45      0.00
   15    4    1      3.08      0.00
   16    4    1      5.42      0.00
   17    4    1      0.10      0.00
   18    4    1      1.20      0.00
  -17    5    1      1.38      0.00
  -16    5    1     -0.38      0.00
  -15    5    1      2.55      0.00
  -14    5    1     -5.29      0.00
  -13    5    1      0.55      0.00
  -12    5    1      9.50      0.00
  -11    5    1    -10.23      0.00
  -10    5    1     -4.44      0.00
   -9    5    1     -2.61      0.00
   -8    5    1     15.99      0.00
   -7    5    1     -9.34      0.00
   -6    5    1      1.30      0.00
   -5    5    1      9.21      0.00
   -4    5    1     22.66      0.00
   -3    5    1     -1.86      0.00
   -2    5    1    -16.64      0.00
   -1    5    1    -39.02      0.00
    0    5    1      4.29      0.00
    1    5    1     49.32      0.00
    2    5    1    -35.85      0.00
    3    5    1     16.43      0.00
    4    5    1    -22.54      0.00
    5    5    1      8.22      0.00
    6    5    1     -0.97      0.00
    7    5    1      1.93      0.00
    8    5    1      4.71      0.00
    9    5    1      3.10      0.00
   10    5    1     -0.49      0.00
   11    5    1     -5.69      0.00
   12    5    1    -14.68      0.00
   13    5    1     -2.56      0.00
   14    5    1    -11.04      0.00
   15    5    1     -2.76      0.00
   16    5    1      2.67      0.00
   17    5    1     -2.28      0.00
   18    5    1      4.65      0.00
  -16    6    1      1.39      0.00
  -15    6    1      0.51      0.00
  -14    6    1     -2.71      0.00
  -13    6    1      2.51      0.00
  -12    6    1      1.06      0.00
  -11    6    1     -5.34      0.00
  -10    6    1      0.26      0.00
   -9    6    1     -5.23      0.00
   -8    6    1      8.19      0.00
   -7    6    1      6.98      0.00
   -6    6    1     -5.31      0.00
   -5    6    1      5.62      0.00
   -4    6    1     14.12      0.00
   -3    6    1    -15.54      0.00
   -2    6    1      4.78      0.00
   -1    6    1    -14.50      0.00
    0    6    1     -9.01      0.00
    1    6    1     28.58      0.00
    2    6    1    -10.25      0.00
    3    6    1     -1.57      0.00
    4    6    1    -13.95      0.00
    5    6    1     11.94      0.00
    6    6    1     -4.85      0.00
    7    6    1    -14.51      0.00
    8    6    1      0.23      0.00
    9    6    1      1.11      0.00
   10    6    1      1.67      0.00
   11    6    1     -7.91      0.00
   12    6    1     -7.45      0.00
   13    6    1     -2.88      0.00
   14    6    1      0.27      0.00
   15    6    1     -4.78      0.00
   16    6    1      0.14      0.00
   17    6    1     -2.13      0.00
   18    6    1     -1.82      0.00
  -16    7    1      0.79      0.00
  -15    7    1     -1.98      0.00
  -14    7    1     -1.14      0.00
  -13    7    1     -7.84      0.00
  -12    7    1     -1.37      0.00
  -11    7    1     -7.65      0.00
  -10    7    1     -0.41      0.00
   -9    7    1      3.57      0.00
   -8    7    1     -2.15      0.00
   -7    7    1     10.07      0.00
   -6    7    1     -3.62      0.00
   -5    7    1      5.62      0.00
   -4    7    1      1.01      0.00
   -3    7    1    -15.10      0.00
   -2    7    1     -5.58      0.00
   -1    7    1     -8.62      0.00
    0    7    1      9.76      0.00
    1    7    1     -8.18      0.00
    2    7    1     15.45      0.00
    3    7    1     -6.89      0.00
    4    7    1     12.21      0.00
    5    7    1     12.19      0.00
    6    7    1     12.89      0.00
    7    7    1      4.97      0.00
    8    7    1     -3.97      0.00
    9    7    1    -17.39      0.00
   10    7    1     12.51      0.00
   11    7    1     -7.61      0.00
   12    7    1     -2.67      0.00
   13    7    1      4.70      0.00
   14    7    1      9.00      0.00
   15    7    1      2.86      0.00
   16    7    1      1.32      0.00
   17    7    1      4.13      0.00
   18    7    1      1.44      0.00
  -15    8    1      0.90      0.00
  -12    8    1      0.27      0.00
  -11    8    1      0.63      0.00
   -9    8    1     -2.17      0.00
   -8    8    1      3.25      0.00
   -7    8    1      4.39      0.00
   -6    8    1     -3.17      0.00
   -5    8    1      4.41      0.00
   -4    8    1     -3.15      0.00
   -3    8    1      6.10      0.00
   -2    8    1     -6.70      0.00
   -1    8    1    -10.88      0.00
    0    8    1     17.49      0.00
    1    8    1     -4.81      0.00
    2    8    1     11.65      0.00
    3    8    1    -22.75      0.00
    4    8    1      9.50      0.00
    5    8    1      7.17      0.00
    6    8    1     -3.90      0.00
    7    8    1     -2.65      0.00
    8    8    1      8.29      0.00
    9    8    1      5.06      0.00
   10    8    1      8.17      0.00
   11    8    1     -2.44      0.00
   12    8    1      1.92      0.00
   13    8    1      1.78      0.00
   14    8    1      3.04      0.00
   15    8    1      0.53      0.00
   16    8    1     -2.40      0.00
   17    8    1      2.25      0.00
  -15    9    1     -0.84      0.00
  -14    9    1      0.06      0.00
  -13    9    1     -1.27      0.00
  -12    9    1      8.78      0.00
   -9    9    1      4.48      0.00
   -8    9    1      1.83      0.00
   -7    9    1      0.45      0.00
   -6    9    1      1.86      0.00
   -5    9    1      8.43      0.00
   -4    9    1    -11.75      0.00
   -3    9    1     14.13      0.00
   -2    9    1     -2.20      0.00
   -1    9    1     -1.23      0.00
    0    9    1      9.65      0.00
    1    9    1      6.24      0.00
    2    9    1     -7.57      0.00
    3    9    1      3.92      0.00
    4    9    1      2.26      0.00
    6    9    1     -6.34      0.00
    8    9    1      1.18      0.00
    9    9    1     -1.00      0.00
   10    9    1      4.28      0.00
   11    9    1     -0.78      0.00
   12    9    1     -1.54      0.00
   13    9    1     -1.30      0.00
   14    9    1     -2.78      0.00
   15    9    1      0.28      0.00
   16    9    1     -1.90      0.00
   17    9    1     -0.32      0.00
  -14   10    1      1.12      0.00
  -13   10    1     -0.81      0.00
  -12   10    1     -1.19      0.00
  -10   10    1     -3.01      0.00
   -9   10    1      0.51      0.00
   -8   10    1     -4.72      0.00
   -7   10    1      2.52      0.00
   -6   10    1      0.13      0.00
   -5   10    1      1.00      0.00
   -4   10    1     -9.25      0.00
   -3   10    1      4.61      0.00
   -1   10    1      6.60      0.00
    0   10    1     -1.12      0.00
    1   10    1     -4.74      0.00
    2   10    1     -7.82      0.00
    4   10    1     -4.47      0.00
    5   10    1      5.87      0.00
    6   10    1      2.34      0.00
    7   10    1    -12.35      0.00
    8   10    1     10.36      0.00
    9   10    1      0.84      0.00
   10   10    1    -15.11      0.00
   11   10    1     -0.94      0.00
   12   10    1     -3.37      0.00
   13   10    1     -5.58      0.00
   14   10    1      4.47      0.00
   15   10    1      0.77      0.00
   16   10    1      0.72      0.00
  -13   11    1      1.42      0.00
  -12   11    1      1.46      0.00
  -11   11    1     -3.09      0.00
  -10   11    1      0.40      0.00
   -9   11    1      5.44      0.00
   -8   11    1     -3.74      0.00
   -7   11    1      1.99      0.00
   -6   11    1      5.04      0.00
   -5   11    1     -1.98      0.00
   -4   11    1     -0.94      0.00
   -3   11    1     -0.27      0.00
   -2   11    1    -10.06      0.00
   -1   11    1     11.47      0.00
    0   11    1     -5.05      0.00
    1   11    1    -10.24      0.00
    2   11    1      2.88      0.00
    3   11    1      5.94      0.00
    4   11    1     -6.87      0.00
    5   11    1     -3.02      0.00
    6   11    1      5.15      0.00
    7   11    1     -3.02      0.00
    8   11    1     -4.28      0.00
    9   11    1      5.18      0.00
   10   11    1      0.19      0.00
   11   11    1     -5.84      0.00
   12   11    1      3.93      0.00
   13   11    1     -4.11      0.00
   14   11    1      4.05      0.00
   15   11    1      0.99      0.00
   16   11    1      0.19      0.00
  -12   12    1     -1.40      0.00
  -11   12    1     -0.31      0.00
  -10   12    1      7.04      0.00
   -9   12    1     -3.75      0.00
   -8   12    1      5.32      0.00
   -7   12    1      4.71      0.00
   -6   12    1      0.09      0.00
   -5   12    1      0.04      0.00
   -4   12    1     -0.92      0.00
   -3   12    1     -3.33      0.00
   -2   12    1      7.20      0.00
   -1   12    1      0.27      0.00
    0   12    1     -2.54      0.00
    1   12    1     13.53      0.00
    2   12    1     -1.01      0.00
    3   12    1      3.78      0.00
    4   12    1      6.65      0.00
    5   12    1      6.04      0.00
    6   12    1     -5.95      0.00
    7   12    1      7.17      0.00
    8   12    1      3.24      0.00
    9   12    1    -11.95      0.00
   10   12    1      4.92      0.00
   11   12    1      4.41      0.00
   12   12    1      1.21      0.00
   13   12    1      2.24      0.00
   14   12    1      0.36      0.00
   15   12    1     -5.23      0.00
  -11   13    1      2.24      0.00
   -9   13    1     -1.91      0.00
   -8   13    1     -4.65      0.00
   -7   13    1     -1.84      0.00
   -6   13    1      2.34      0.00
   -5   13    1      3.36      0.00
   -4   13    1     -4.71      0.00
   -3   13    1     -6.07      0.00
   -2   13    1      8.81      0.00
   -1   13    1     -2.57      0.00
    0   13    1     -0.37      0.00
    1   13    1      0.13      0.00
    2   13    1     -1.01      0.00
    3   13    1      6.48      0.00
    4   13    1     -3.99      0.00
    5   13    1      4.54      0.00
    6   13    1     -0.26      0.00
    7   13    1     -2.07      0.00
    8   13    1      1.61      0.00
    9   13    1      5.86      0.00
   10   13    1     -6.31      0.00
   11   13    1     -4.44      0.00
   12   13    1      4.77      0.00
   13   13    1      1.42      0.00
   14   13    1     -2.24      0.00
  -10   14    1     -2.55      0.00
   -9   14    1     -0.79      0.00
   -8   14    1      0.56      0.00
   -7   14    1     -3.82      0.00
   -6   14    1     -3.34      0.00
   -5   14    1     -1.24      0.00
   -4   14    1     -0.68      0.00
   -3   14    1      1.01      0.00
   -2   14    1     -0.65      0.00
   -1   14    1     -4.88      0.00
    0   14    1      5.69      0.00
    1   14    1     -4.73      0.00
    2   14    1     -5.61      0.00
    3   14    1      2.96      0.00
    4   14    1     -2.60      0.00
    5   14    1     -4.46      0.00
    6   14    1     -1.07      0.00
    7   14    1      0.74      0.00
    8   14    1     -5.29      0.00
    9   14    1     -1.39      0.00
   10   14    1      4.13      0.00
   11   14    1      1.39      0.00
   12   14    1     -2.74      0.00
   13   14    1     -0.37      0.00
   14   14    1      2.28      0.00
   -8   15    1      0.94      0.00
   -7   15    1      1.62      0.00
   -6   15    1      4.88      0.00
   -5   15    1     -4.61      0.00
   -4   15    1      0.13      0.00
   -3   15    1     -0.17      0.00
   -2   15    1     -4.75      0.00
   -1   15    1      4.15      0.00
    0   15    1      0.39      0.00
    1   15    1     -5.73      0.00
    2   15    1      8.18      0.00
    3   15    1      2.04      0.00
    4   15    1     -0.85      0.00
    5   15    1      2.03      0.00
    6   15    1     -0.93      0.00
    7   15    1      1.52      0.00
    8   15    1     -1.62      0.00
    9   15    1     -4.87      0.00
   10   15    1     -1.69      0.00
   11   15    1     -1.26      0.00
   12   15    1      3.02      0.00
   -7   16    1     -1.03      0.00
   -6   16    1     -1.28      0.00
   -5   16    1      0.11      0.00
   -4   16    1      2.34      0.00
   -3   16    1     -2.07      0.00
   -2   16    1      2.62      0.00
   -1   16    1      2.08      0.00
    0   16    1     -0.61      0.00
    1   16    1     -2.25      0.00
    2   16    1      4.86      0.00
    3   16    1     -2.04      0.00
    4   16    1     -0.37      0.00
    5   16    1      0.86      0.00
    6   16    1     -1.00      0.00
    7   16    1      2.78      0.00
    8   16    1     -1.31      0.00
    9   16    1     -1.07      0.00
   10   16    1      1.21      0.00
   11   16    1     -1.06      0.00
   -4   17    1     -1.03      0.00
   -3   17    1     -0.59      0.00
   -2   17    1      0.34      0.00
   -1   17    1     -1.26      0.00
    0   17    1      0.06      0.00
    1   17    1     -3.10      0.00
    2   17    1      1.10      0.00
    3   17    1     -0.05      0.00
    4   17    1     -0.85      0.00
    5   17    1     -2.98      0.00
    6   17    1      1.15      0.00
    7   17    1      0.93      0.00
    8   17    1      0.88      0.00
    9   17    1      1.66      0.00
   -1   18    1     -0.18      0.00
    0   18    1      1.77      0.00
    1   18    1     -2.84      0.00
    2   18    1     -0.98      0.00
    3   18    1      0.15      0.00
    4   18    1     -0.13      0.00
    5   18    1      1.29      0.00
   -7  -16    2      1.11      0.00
   -6  -16    2      1.04      0.00
   -5  -16    2     -0.70      0.00
   -4  -16    2     -2.48      0.00
   -3  -16    2     -1.12      0.00
   -2  -16    2      2.99      0.00
   -1  -16    2     -4.02      0.00
    0  -16    2     -0.48      0.00
    1  -16    2     -0.81      0.00
    2  -16    2     -0.28      0.00
    3  -16    2     -0.41      0.00
  -10  -15    2     -1.66      0.00
   -9  -15    2      0.69      0.00
   -8  -15    2      2.12      0.00
   -7  -15    2     -0.78      0.00
   -6  -15    2     -2.11      0.00
   -5  -15    2     -1.17      0.00
   -4  -15    2     -3.81      0.00
   -3  -15    2      3.94      0.00
   -2  -15    2      3.01      0.00
   -1  -15    2     -4.01      0.00
    0  -15    2      4.35      0.00
    1  -15    2     -1.74      0.00
    2  -15    2     -1.00      0.00
    3  -15    2      1.23      0.00
    4  -15    2     -0.86      0.00
    5  -15    2     -2.60      0.00
    6  -15    2      1.50      0.00
  -11  -14    2      1.27      0.00
  -10  -14    2      0.66      0.00
   -9  -14    2     -1.67      0.00
   -8  -14    2      0.17      0.00
   -7  -14    2      6.44      0.00
   -6  -14    2      3.28      0.00
   -5  -14    2     -0.61      0.00
   -4  -14    2      2.16      0.00
   -3  -14    2      7.73      0.00
   -2  -14    2     -3.39      0.00
   -1  -14    2      5.10      0.00
    0  -14    2      0.55      0.00
    1  -14    2      0.98      0.00
    2  -14    2      1.09      0.00
    3  -14    2      0.10      0.00
    4  -14    2     -0.81      0.00
    5  -14    2      0.34      0.00
    6  -14    2     -1.26      0.00
    7  -14    2      1.60      0.00
    8  -14    2      3.43      0.00
  -12  -13    2     -0.83      0.00
  -11  -13    2     -2.06      0.00
  -10  -13    2     -0.53      0.00
   -9  -13    2      4.72      0.00
   -8  -13    2      3.04      0.00
   -7  -13    2     -0.96      0.00
   -6  -13    2      0.06      0.00
   -5  -13    2      6.34      0.00
   -4  -13    2      2.93      0.00
   -3  -13    2     -4.88      0.00
   -2  -13    2     -0.11      0.00
   -1  -13    2      6.81      0.00
    0  -13    2    -10.52      0.00
    1  -13    2     -0.70      0.00
    2  -13    2      3.85      0.00
    3  -13    2     -0.83      0.00
    4  -13    2      2.19      0.00
    5  -13    2      3.02      0.00
    6  -13    2     -4.65      0.00
    7  -13    2      1.34      0.00
    8  -13    2      0.17      0.00
    9  -13    2      0.23      0.00
   10  -13    2      1.16      0.00
  -14  -12    2     -1.41      0.00
  -13  -12    2     -0.93      0.00
  -12  -12    2     -3.92      0.00
  -11  -12    2      0.84      0.00
  -10  -12    2     -3.32      0.00
   -9  -12    2     -4.00      0.00
   -8  -12    2      3.18      0.00
   -7  -12    2      4.39      0.00
   -6  -12    2     -6.73      0.00
   -5  -12    2     -8.18      0.00
   -4  -12    2     -0.25      0.00
   -3  -12    2    -10.53      0.00
   -2  -12    2     -5.86      0.00
   -1  -12    2     -4.73      0.00
    0  -12    2     -9.41      0.00
    1  -12    2      4.01      0.00
    2  -12    2      0.07      0.00
    3  -12    2      1.13      0.00
    4  -12    2     -0.30      0.00
    5  -12    2     -0.63      0.00
    6  -12    2      1.97      0.00
    7  -12    2      0.72      0.00
    8  -12    2     -0.16      0.00
    9  -12    2     -2.09      0.00
   10  -12    2     -0.29      0.00
   11  -12    2      0.95      0.00
  -14  -11    2     -0.28      0.00
  -13  -11    2     -4.09      0.00
  -12  -11    2      3.82      0.00
  -11  -11    2     -3.76      0.00
  -10  -11    2     -0.94      0.00
   -9  -11    2      5.37      0.00
   -8  -11    2     -3.15      0.00
   -7  -11    2     -6.62      0.00
   -6  -11    2      5.64      0.00
   -5  -11    2      3.37      0.00
   -4  -11    2    -11.11      0.00
   -3  -11    2     -4.12      0.00
   -2  -11    2      6.53      0.00
   -1  -11    2    -11.25      0.00
    0  -11    2      3.86      0.00
    1  -11    2      2.26      0.00
    2  -11    2     -6.06      0.00
    3  -11    2      5.70      0.00
    4  -11    2     -1.69      0.00
    5  -11    2     -1.71      0.00
    6  -11    2      0.80      0.00
    7  -11    2     -1.08      0.00
    8  -11    2      1.42      0.00
    9  -11    2      3.97      0.00
   10  -11    2     -5.10      0.00
   11  -11    2      1.76      0.00
   12  -11    2      0.27      0.00
  -15  -10    2     -0.42      0.00
  -14  -10    2      1.99      0.00
  -13  -10    2      0.23      0.00
  -12  -10    2     -0.68      0.00
  -11  -10    2      1.78      0.00
  -10  -10    2     -0.38      0.00
   -9  -10    2     -0.20      0.00
   -8  -10    2      4.80      0.00
   -7  -10    2      0.67      0.00
   -6  -10    2     -8.13      0.00
   -5  -10    2      8.35      0.00
   -4  -10    2     17.03      0.00
   -3  -10    2    -10.27      0.00
   -2  -10    2      7.07      0.00
   -1  -10    2      1.85      0.00
    0  -10    2     10.95      0.00
    1  -10    2     -4.52      0.00
    2  -10    2      0.78      0.00
    3  -10    2      5.63      0.00
    4  -10    2     -6.95      0.00
    5  -10    2      7.35      0.00
    6  -10    2      3.98      0.00
    7  -10    2     -5.15      0.00
    8  -10    2     -0.41      0.00
    9  -10    2      5.28      0.00
   10  -10    2     -6.21      0.00
   11  -10    2      2.61      0.00
   12  -10    2      2.14      0.00
   13  -10    2     -1.20      0.00
  -16   -9    2     -1.72      0.00
  -15   -9    2      2.02      0.00
  -14   -9    2     -3.71      0.00
  -13   -9    2      0.39      0.00
  -12   -9    2      0.06      0.00
  -11   -9    2     -4.73      0.00
  -10   -9    2     -1.18      0.00
   -9   -9    2     12.07      0.00
   -8   -9    2     -3.67      0.00
   -7   -9    2      3.87      0.00
   -6   -9    2     -1.45      0.00
   -5   -9    2      3.67      0.00
   -4   -9    2      3.98      0.00
   -3   -9    2     -6.24      0.00
   -2   -9    2     -4.52      0.00
   -1   -9    2     -2.96      0.00
    0   -9    2      5.21      0.00
    1   -9    2     -7.83      0.00
    2   -9    2     -0.15      0.00
    3   -9    2      8.01      0.00
    4   -9    2     -1.75      0.00
    5   -9    2     -1.13      0.00
    6   -9    2      0.71      0.00
    7   -9    2     -2.80      0.00
    8   -9    2     -5.90      0.00
    9   -9    2     -5.27      0.00
   10   -9    2      6.20      0.00
   11   -9    2     -2.71      0.00
   12   -9    2     -5.02      0.00
   13   -9    2      1.42      0.00
   14   -9    2     -3.18      0.00
  -16   -8    2     -0.24      0.00
  -15   -8    2     -0.94      0.00
  -14   -8    2      2.27      0.00
  -13   -8    2      0.83      0.00
  -12   -8    2     -8.45      0.00
  -11   -8    2      2.75      0.00
  -10   -8    2     -0.53      0.00
   -9   -8    2      2.50      0.00
   -8   -8    2      0.46      0.00
   -7   -8    2      2.24      0.00
   -5   -8    2     18.99      0.00
   -4   -8    2     -7.06      0.00
   -3   -8    2    -12.74      0.00
   -2   -8    2      4.79      0.00
   -1   -8    2     -5.36      0.00
    0   -8    2      4.62      0.00
    1   -8    2    -12.32      0.00
    2   -8    2      8.58      0.00
    3   -8    2     -6.79      0.00
    4   -8    2      4.52      0.00
    5   -8    2     -1.75      0.00
    6   -8    2     -2.16      0.00
    7   -8    2      0.44      0.00
    9   -8    2     -4.93      0.00
   12   -8    2     -7.43      0.00
   14   -8    2     -2.11      0.00
   15   -8    2      0.75      0.00
  -17   -7    2      2.93      0.00
  -16   -7    2     -3.51      0.00
  -15   -7    2     -4.48      0.00
  -14   -7    2      2.76      0.00
  -13   -7    2      1.98      0.00
  -12   -7    2     -2.83      0.00
  -11   -7    2     -0.10      0.00
  -10   -7    2      5.47      0.00
   -9   -7    2     -1.10      0.00
   -8   -7    2      5.34      0.00
   -6   -7    2     -8.89      0.00
   -5   -7    2      2.57      0.00
   -4   -7    2     -8.21      0.00
   -3   -7    2     -7.32      0.00
   -2   -7    2      9.41      0.00
   -1   -7    2      0.40      0.00
    0   -7    2     16.64      0.00
    1   -7    2     -3.78      0.00
    2   -7    2      8.50      0.00
    3   -7    2     -5.60      0.00
    4   -7    2      1.72      0.00
    5   -7    2      7.59      0.00
    6   -7    2      2.41      0.00
    7   -7    2     -2.87      0.00
    8   -7    2      0.11      0.00
    9   -7    2      6.83      0.00
   10   -7    2      4.86      0.00
   11   -7    2     -5.75      0.00
   12   -7    2      4.95      0.00
   13   -7    2      6.31      0.00
   15   -7    2     -1.98      0.00
   16   -7    2      2.08      0.00
  -17   -6    2      0.65      0.00
  -16   -6    2      2.05      0.00
  -15   -6    2     -0.77      0.00
  -14   -6    2      1.86      0.00
  -13   -6    2      1.61      0.00
  -12   -6    2     -4.43      0.00
  -11   -6    2      2.09      0.00
  -10   -6    2     15.52      0.00
   -9   -6    2     -4.98      0.00
   -8   -6    2      1.66      0.00
   -7   -6    2      2.20      0.00
   -6   -6    2      8.49      0.00
   -5   -6    2     -3.94      0.00
   -4   -6    2     -7.50      0.00
   -3   -6    2      3.12      0.00
   -2   -6    2    -14.64      0.00
   -1   -6    2      2.94      0.00
    0   -6    2     -8.29      0.00
    1   -6    2      3.43      0.00
    3   -6    2      2.02      0.00
    4   -6    2      7.94      0.00
    5   -6    2     -4.10      0.00
    6   -6    2      3.66      0.00
    7   -6    2     -3.17      0.00
    8   -6    2     -4.63      0.00
    9   -6    2     -1.29      0.00
   10   -6    2     -1.38      0.00
   11   -6    2     -5.57      0.00
   12   -6    2      1.98      0.00
   13   -6    2      0.77      0.00
   14   -6    2      6.79      0.00
   15   -6    2     -1.32      0.00
   16   -6    2     -3.66      0.00
  -17   -5    2     -0.59      0.00
  -16   -5    2      2.19      0.00
  -15   -5    2     -1.04      0.00
  -14   -5    2     -1.25      0.00
  -13   -5    2      3.28      0.00
  -12   -5    2      0.43      0.00
  -11   -5    2     -1.95      0.00
  -10   -5    2      3.19      0.00
   -9   -5    2     -1.11      0.00
   -6   -5    2      6.88      0.00
   -5   -5    2    -15.79      0.00
   -4   -5    2      2.53      0.00
   -3   -5    2     34.73      0.00
   -2   -5    2    -17.71      0.00
   -1   -5    2    -12.38      0.00
    0   -5    2     -0.35      0.00
    2   -5    2    -30.75      0.00
    3   -5    2     16.41      0.00
    4   -5    2     11.64      0.00
    5   -5    2     -6.16      0.00
    6   -5    2     -8.37      0.00
    7   -5    2     -5.37      0.00
    8   -5    2      2.45      0.00
    9   -5    2      0.24      0.00
   10   -5    2     -8.55      0.00
   11   -5    2     -8.47      0.00
   12   -5    2      3.46      0.00
   13   -5    2     -3.36      0.00
   14   -5    2      7.25      0.00
   15   -5    2      0.19      0.00
   16   -5    2     -2.99      0.00
   17   -5    2      1.39      0.00
  -18   -4    2     -0.57      0.00
  -17   -4    2     -1.04      0.00
  -16   -4    2     -1.69      0.00
  -15   -4    2     -1.62      0.00
  -14   -4    2     -9.85      0.00
  -13   -4    2      0.74      0.00
  -12   -4    2      9.37      0.00
  -11   -4    2     -2.42      0.00
  -10   -4    2      0.01      0.00
   -7   -4    2     -2.20      0.00
   -6   -4    2      4.76      0.00
   -5   -4    2    -19.84      0.00
   -4   -4    2    -14.35      0.00
   -3   -4    2    -15.35      0.00
   -2   -4    2     -8.71      0.00
   -1   -4    2     33.21      0.00
    0   -4    2     -7.32      0.00
    1   -4    2     -2.64      0.00
    2   -4    2     28.02      0.00
    3   -4    2     16.06      0.00
    4   -4    2      0.63      0.00
    5   -4    2      4.80      0.00
    6   -4    2    -10.42      0.00
    7   -4    2    -11.31      0.00
    8   -4    2      2.68      0.00
    9   -4    2    -13.05      0.00
   10   -4    2      5.32      0.00
   11   -4    2     -0.99      0.00
   12   -4    2      0.02      0.00
   13   -4    2      0.25      0.00
   14   -4    2     10.01      0.00
   15   -4    2     -5.47      0.00
   16   -4    2     -0.28      0.00
   17   -4    2      0.61      0.00
  -18   -3    2     -2.82      0.00
  -17   -3    2     -1.33      0.00
  -16   -3    2     -2.12      0.00
  -15   -3    2     -0.69      0.00
  -14   -3    2     -4.35      0.00
  -13   -3    2     -1.34      0.00
  -12   -3    2      9.50      0.00
  -11   -3    2     -2.40      0.00
  -10   -3    2      2.06      0.00
   -8   -3    2      4.45      0.00
   -7   -3    2      6.67      0.00
   -6   -3    2    -10.83      0.00
   -5   -3    2    -15.05      0.00
   -4   -3    2     -1.12      0.00
   -3   -3    2     -7.86      0.00
   -2   -3    2     -4.96      0.00
   -1   -3    2    -24.67      0.00
    0   -3    2     29.60      0.00
    1   -3    2    -21.35      0.00
    2   -3    2     69.38      0.00
    3   -3    2      3.16      0.00
    4   -3    2     -6.37      0.00
    5   -3    2      7.64      0.00
    6   -3    2      2.14      0.00
    7   -3    2      2.94      0.00
    8   -3    2     -0.83      0.00
    9   -3    2     -3.18      0.00
   10   -3    2     -0.50      0.00
   11   -3    2      3.94      0.00
   12   -3    2     -4.89      0.00
   13   -3    2      9.99      0.00
   14   -3    2      4.86      0.00
   15   -3    2      1.62      0.00
   16   -3    2     -3.70      0.00
   17   -3    2     -3.58      0.00
   18   -3    2     -1.26      0.00
  -18   -2    2      1.90      0.00
  -17   -2    2     -0.88      0.00
  -16   -2    2     -1.37      0.00
  -15   -2    2      4.42      0.00
  -14   -2    2      0.90      0.00
  -13   -2    2      5.75      0.00
  -12   -2    2      5.85      0.00
  -11   -2    2     11.09      0.00
   -9   -2    2     -6.34      0.00
   -8   -2    2      4.29      0.00
   -7   -2    2      8.52      0.00
   -6   -2    2      7.65      0.00
   -5   -2    2      1.80      0.00
   -4   -2    2      5.63      0.00
   -3   -2    2      9.40      0.00
   -2   -2    2     63.79      0.00
   -1   -2    2    -26.24      0.00
    0   -2    2     32.52      0.00
    1   -2    2    -33.52      0.00
    2   -2    2     53.63      0.00
    3   -2    2     -2.44      0.00
    4   -2    2    -44.21      0.00
    5   -2    2     20.87      0.00
    6   -2    2      7.05      0.00
    7   -2    2      7.29      0.00
    8   -2    2    -15.84      0.00
    9   -2    2     12.67      0.00
   10   -2    2      8.07      0.00
   11   -2    2      6.06      0.00
   12   -2    2     -9.84      0.00
   13   -2    2     10.85      0.00
   14   -2    2     -2.66      0.00
   15   -2    2      0.30      0.00
   16   -2    2      1.23      0.00
   17   -2    2      2.07      0.00
   18   -2    2      1.23      0.00
  -18   -1    2     -0.73      0.00
  -17   -1    2     -1.26      0.00
  -16   -1    2     -3.45      0.00
  -15   -1    2      8.21      0.00
  -14   -1    2     -5.61      0.00
  -13   -1    2     -1.71      0.00
  -12   -1    2     -3.52      0.00
  -11   -1    2      1.61      0.00
  -10   -1    2     -0.71      0.00
   -9   -1    2     -6.25      0.00
   -8   -1    2      7.55      0.00
   -7   -1    2      3.27      0.00
   -6   -1    2      2.46      0.00
   -5   -1    2    -13.04      0.00
   -4   -1    2    -25.69      0.00
   -3   -1    2     43.63      0.00
   -2   -1    2    -16.29      0.00
   -1   -1    2   -111.26      0.00
    0   -1    2     19.82      0.00
    1   -1    2    -13.86      0.00
    2   -1    2    -27.65      0.00
    3   -1    2     59.22      0.00
    4   -1    2    -29.21      0.00
    5   -1    2    -25.74      0.00
    6   -1    2     16.48      0.00
    7   -1    2     -4.80      0.00
    8   -1    2     -9.56      0.00
    9   -1    2      0.25      0.00
   10   -1    2     -3.98      0.00
   11   -1    2      0.72      0.00
   12   -1    2      3.89      0.00
   13   -1    2      1.61      0.00
   14   -1    2      3.53      0.00
   15   -1    2     -3.28      0.00
   16   -1    2     -3.25      0.00
   17   -1    2      2.15      0.00
   18   -1    2      0.72      0.00
  -18    0    2      3.10      0.00
  -17    0    2     -0.60      0.00
  -16    0    2     -3.40      0.00
  -15    0    2      5.08      0.00
  -14    0    2     -6.06      0.00
  -13    0    2      0.18      0.00
  -12    0    2     -3.13      0.00
  -11    0    2      3.06      0.00
  -10    0    2    -12.64      0.00
   -9    0    2     -2.13      0.00
   -8    0    2     -0.56      0.00
   -7    0    2      6.18      0.00
   -6    0    2     -2.96      0.00
   -5    0    2    -14.31      0.00
   -4    0    2    -20.87      0.00
   -3    0    2      7.47      0.00
   -2    0    2    -93.46      0.00
   -1    0    2    -15.81      0.00
    0    0    2    -64.60      0.00
    1    0    2    -30.52      0.00
    2    0    2      9.29      0.00
    3    0    2    -35.64      0.00
    4    0    2     19.29      0.00
    5    0    2     13.82      0.00
    6    0    2    -18.81      0.00
    7    0    2    -22.78      0.00
    8    0    2     -1.32      0.00
    9    0    2     -4.35      0.00
   10    0    2     -2.41      0.00
   11    0    2     -4.76      0.00
   12    0    2      7.08      0.00
   13    0    2    -13.75      0.00
   14    0    2     10.95      0.00
   15    0    2      3.27      0.00
   16    0    2     -2.79      0.00
   17    0    2      3.40      0.00
   18    0    2     -0.22      0.00
  -18    1    2     -4.96      0.00
  -17    1    2      1.11      0.00
  -16    1    2     -0.29      0.00
  -15    1    2      1.81      0.00
  -14    1    2     -5.22      0.00
  -13    1    2      4.87      0.00
  -12    1    2      1.63      0.00
  -11    1    2      8.65      0.00
  -10    1    2      1.24      0.00
   -9    1    2      5.80      0.00
   -8    1    2     -3.81      0.00
   -7    1    2      7.97      0.00
   -6    1    2     -6.51      0.00
   -5    1    2     -8.86      0.00
   -4    1    2      1.02      0.00
   -3    1    2     42.24      0.00
   -2    1    2    -50.35      0.00
   -1    1    2     45.35      0.00
    0    1    2      5.48      0.00
    1    1    2     93.53      0.00
    2    1    2    145.12      0.00
    3    1    2    -55.44      0.00
    4    1    2    -34.01      0.00
    5    1    2     -8.29      0.00
    6    1    2     15.84      0.00
    7    1    2     -1.40      0.00
    8    1    2     -7.83      0.00
    9    1    2    -10.30      0.00
   11    1    2      1.41      0.00
   12    1    2     10.48      0.00
   13    1    2     -8.00      0.00
   14    1    2      3.48      0.00
   15    1    2     -0.10      0.00
   16    1    2     -2.90      0.00
   17    1    2      0.29      0.00
   18    1    2     -0.41      0.00
   19    1    2      1.13      0.00
  -18    2    2     -2.55      0.00
  -17    2    2     -1.89      0.00
  -16    2    2      2.89      0.00
  -15    2    2     -9.09      0.00
  -14    2    2     11.19      0.00
  -13    2    2      0.67      0.00
  -12    2    2     -4.99      0.00
  -11    2    2      9.69      0.00
  -10    2    2     -2.22      0.00
   -9    2    2      0.25      0.00
   -8    2    2      4.04      0.00
   -7    2    2     -0.02      0.00
   -6    2    2      7.81      0.00
   -5    2    2      1.67      0.00
   -4    2    2    -10.90      0.00
   -3    2    2     -9.26      0.00
   -2    2    2      5.89      0.00
   -1    2    2     67.99      0.00
    0    2    2    -22.27      0.00
    1    2    2     46.86      0.00
    2    2    2     90.34      0.00
    3    2    2    -24.69      0.00
    4    2    2     56.32      0.00
    5    2    2    -32.00      0.00
    6    2    2    -28.57      0.00
    7    2    2     18.22      0.00
    8    2    2      8.71      0.00
    9    2    2     -9.90      0.00
   10    2    2     -3.67      0.00
   11    2    2      1.17      0.00
   12    2    2      2.78      0.00
   13    2    2      4.46      0.00
   14    2    2     -2.02      0.00
   15    2    2     -0.27      0.00
   16    2    2      0.18      0.00
   17    2    2     -0.62      0.00
   18    2    2     -3.99      0.00
   19    2    2      0.72      0.00
  -17    3    2     -3.16      0.00
  -16    3    2      1.60      0.00
  -15    3    2     -5.15      0.00
  -14    3    2      7.25      0.00
  -13    3    2      0.04      0.00
  -12    3    2     -6.81      0.00
  -11    3    2     -1.64      0.00
  -10    3    2      0.33      0.00
   -9    3    2     -7.73      0.00
   -8    3    2     16.88      0.00
   -7    3    2    -17.56      0.00
   -6    3    2      7.11      0.00
   -5    3    2      0.44      0.00
   -4    3    2      0.81      0.00
   -3    3    2    -25.76      0.00
   -2    3    2    -51.78      0.00
   -1    3    2     32.07      0.00
    0    3    2      5.01      0.00
    1    3    2      8.08      0.00
    2    3    2    -11.29      0.00
    3    3    2    -50.54      0.00
    4    3    2    -40.36      0.00
    5    3    2     36.92      0.00
    6    3    2     -1.67      0.00
    7    3    2    -17.22      0.00
    8    3    2      1.98      0.00
    9    3    2      9.10      0.00
   10    3    2     -8.85      0.00
   11    3    2      2.76      0.00
   12    3    2     -9.88      0.00
   13    3    2      6.06      0.00
   14    3    2     -2.67      0.00
   15    3    2     -0.61      0.00
   16    3    2      5.06      0.00
   17    3    2     -2.00      0.00
   18    3    2     -2.44      0.00
   19    3    2     -0.61      0.00
  -17    4    2     -1.52      0.00
  -16    4    2     -1.84      0.00
  -15    4    2      2.70      0.00
  -14    4    2     -1.19      0.00
  -13    4    2     -1.87      0.00
  -12    4    2      2.74      0.00
  -11    4    2     -1.49      0.00
  -10    4    2      6.85      0.00
   -9    4    2     -8.17      0.00
   -8    4    2     10.50      0.00
   -7    4    2     -3.74      0.00
   -6    4    2     -2.70      0.00
   -5    4    2    -27.34      0.00
   -4    4    2     12.26      0.00
   -3    4    2    -11.05      0.00
   -2    4    2    -38.67      0.00
   -1    4    2     45.12      0.00
    0    4    2     27.40      0.00
    1    4    2      9.99      0.00
    2    4    2    -35.35      0.00
    3    4    2     52.97      0.00
    4    4    2    -31.61      0.00
    5    4    2     -8.89      0.00
    6    4    2     -1.41      0.00
    7    4    2     -4.54      0.00
    8    4    2      1.75      0.00
    9    4    2     -3.07      0.00
   11    4    2     23.93      0.00
   12    4    2      0.98      0.00
   13    4    2      7.19      0.00
   14    4    2      6.27      0.00
   15    4    2     -2.58      0.00
   16    4    2      6.02      0.00
   17    4    2     -2.27      0.00
   18    4    2     -0.42      0.00
   19    4    2     -1.56      0.00
  -17    5    2     -4.53      0.00
  -16    5    2      2.16      0.00
  -15    5    2      3.99      0.00
  -14    5    2     -7.74      0.00
  -13    5    2      5.59      0.00
  -12    5    2      0.08      0.00
  -11    5    2     -7.09      0.00
  -10    5    2     12.32      0.00
   -9    5    2      8.83      0.00
   -8    5    2     -4.50      0.00
   -7    5    2     -3.48      0.00
   -6    5    2     -3.82      0.00
   -5    5    2     -9.53      0.00
   -4    5    2      4.35      0.00
   -3    5    2    -18.62      0.00
   -2    5    2     -8.66      0.00
   -1    5    2     37.43      0.00
    0    5    2     38.55      0.00
    1    5    2    -18.13      0.00
    2    5    2     -9.96      0.00
    3    5    2     24.85      0.00
    4    5    2      3.52      0.00
    5    5    2    -13.99      0.00
    6    5    2      1.03      0.00
    7    5    2     -0.10      0.00
    8    5    2      1.86      0.00
    9    5    2      1.43      0.00
   10    5    2     -7.52      0.00
   11    5    2      4.88      0.00
   12    5    2      5.04      0.00
   13    5    2     -4.03      0.00
   14    5    2      5.13      0.00
   15    5    2     -0.16      0.00
   16    5    2      1.59      0.00
   17    5    2     -0.44      0.00
   18    5    2      0.80      0.00
  -16    6    2     -5.65      0.00
  -15    6    2      1.39      0.00
  -14    6    2      2.59      0.00
  -13    6    2      4.21      0.00
  -12    6    2      1.54      0.00
  -11    6    2     -0.93      0.00
  -10    6    2     -0.54      0.00
   -9    6    2      9.88      0.00
   -7    6    2     -4.43      0.00
   -6    6    2     -3.78      0.00
   -5    6    2      7.54      0.00
   -4    6    2      0.96      0.00
   -3    6    2    -21.82      0.00
   -2    6    2     25.23      0.00
   -1    6    2      2.74      0.00
    0    6    2     17.81      0.00
    1    6    2    -24.08      0.00
    2    6    2    -16.16      0.00
    3    6    2     -2.73      0.00
    5    6    2    -24.49      0.00
    6    6    2    -19.84      0.00
    7    6    2      7.02      0.00
    8    6    2      4.82      0.00
    9    6    2      7.64      0.00
   11    6    2     -9.56      0.00
   12    6    2     -1.38      0.00
   13    6    2     -8.62      0.00
   14    6    2     -4.86      0.00
   15    6    2     -3.92      0.00
   16    6    2     -6.50      0.00
   17    6    2     -0.80      0.00
   18    6    2     -2.74      0.00
  -15    7    2     -5.51      0.00
  -14    7    2      1.51      0.00
  -13    7    2      6.31      0.00
  -12    7    2     -7.61      0.00
  -11    7    2      1.37      0.00
  -10    7    2      2.07      0.00
   -9    7    2      5.32      0.00
   -8    7    2     -3.49      0.00
   -7    7    2     -1.63      0.00
   -6    7    2      2.03      0.00
   -5    7    2      4.16      0.00
   -4    7    2     -8.39      0.00
   -3    7    2    -15.62      0.00
   -2    7    2     18.74      0.00
   -1    7    2      6.54      0.00
    0    7    2      1.88      0.00
    1    7    2    -12.29      0.00
    2    7    2     11.01      0.00
    3    7    2    -11.97      0.00
    4    7    2      2.46      0.00
    5    7    2      2.74      0.00
    6    7    2     -1.60      0.00
    7    7    2      1.81      0.00
    8    7    2    -10.63      0.00
    9    7    2     -7.81      0.00
   10    7    2      5.41      0.00
   11    7    2     -9.70      0.00
   12    7    2     -1.67      0.00
   13    7    2      6.74      0.00
   14    7    2     -4.68      0.00
   15    7    2      6.09      0.00
   16    7    2     -4.68      0.00
   17    7    2     -0.18      0.00
   18    7    2     -3.60      0.00
  -14    8    2     -4.18      0.00
  -13    8    2      3.61      0.00
  -10    8    2     -6.00      0.00
   -9    8    2     -0.23      0.00
   -8    8    2      5.43      0.00
   -7    8    2     -5.16      0.00
   -6    8    2     -4.32      0.00
   -4    8    2     -6.85      0.00
   -3    8    2     -1.54      0.00
   -2    8    2      3.16      0.00
   -1    8    2      0.17      0.00
    0    8    2     -2.85      0.00
    1    8    2      3.43      0.00
    2    8    2     -8.15      0.00
    3    8    2     -4.70      0.00
    4    8    2     19.18      0.00
    5    8    2      0.34      0.00
    6    8    2     -0.14      0.00
    7    8    2      9.64      0.00
    9    8    2     -2.77      0.00
   10    8    2     -6.36      0.00
   11    8    2      1.34      0.00
   12    8    2      2.47      0.00
   13    8    2     13.98      0.00
   14    8    2     -3.66      0.00
   15    8    2      4.30      0.00
   16    8    2      3.62      0.00
   17    8    2      1.76      0.00
   18    8    2      3.80      0.00
  -15    9    2      1.25      0.00
  -14    9    2     -0.58      0.00
  -13    9    2      4.17      0.00
   -9    9    2      2.24      0.00
   -7    9    2     -0.75      0.00
   -6    9    2     -2.64      0.00
   -5    9    2     -1.60      0.00
   -4    9    2     -8.21      0.00
   -3    9    2     16.39      0.00
   -2    9    2      8.20      0.00
   -1    9    2      3.20      0.00
    0    9    2     -3.90      0.00
    1    9    2     10.71      0.00
    2    9    2    -11.21      0.00
    3    9    2      8.32      0.00
    4    9    2     -2.55      0.00
    6    9    2      0.58      0.00
    7    9    2     -1.65      0.00
    8    9    2     -3.78      0.00
    9    9    2     14.76      0.00
   10    9    2      0.31      0.00
   11    9    2      1.98      0.00
   12    9    2      6.25      0.00
   13    9    2      1.38      0.00
   14    9    2     -1.68      0.00
   15    9    2     -2.98      0.00
   16    9    2     -0.77      0.00
   17    9    2     -3.10      0.00
  -14   10    2      2.06      0.00
  -13   10    2     -0.50      0.00
  -11   10    2      1.22      0.00
  -10   10    2     -1.54      0.00
   -7   10    2     -3.29      0.00
   -6   10    2     -2.62      0.00
   -5   10    2     -0.79      0.00
   -4   10    2      5.36      0.00
   -1   10    2      7.87      0.00
    0   10    2     -7.69      0.00
    1   10    2      1.61      0.00
    2   10    2     -5.23      0.00
    3   10    2      2.65      0.00
    4   10    2      2.23      0.00
    5   10    2     -5.19      0.00
    6   10    2      0.93      0.00
    7   10    2      2.54      0.00
    8   10    2     -0.82      0.00
    9   10    2     -8.80      0.00
   10   10    2      6.89      0.00
   11   10    2      3.13      0.00
   12   10    2     -3.07      0.00
   13   10    2     -3.38      0.00
   14   10    2      3.93      0.00
   15   10    2     -5.67      0.00
   16   10    2      0.42      0.00
   17   10    2      1.15      0.00
  -13   11    2     -0.33      0.00
  -12   11    2      2.37      0.00
  -11   11    2     -4.67      0.00
  -10   11    2      1.19      0.00
   -9   11    2     -4.68      0.00
   -8   11    2     -1.90      0.00
   -7   11    2      1.29      0.00
   -6   11    2     -0.64      0.00
   -5   11    2    -11.82      0.00
   -4   11    2     12.77      0.00
   -3   11    2     -4.40      0.00
   -2   11    2      0.18      0.00
   -1   11    2      3.62      0.00
    0   11    2    -20.14      0.00
    1   11    2     -1.75      0.00
    2   11    2      5.60      0.00
    3   11    2     -7.67      0.00
    4   11    2     -9.43      0.00
    5   11    2      5.58      0.00
    6   11    2     -6.39      0.00
    7   11    2     -8.12      0.00
    8   11    2      8.23      0.00
    9   11    2     -0.53      0.00
   10   11    2     -7.35      0.00
   11   11    2     -0.42      0.00
   12   11    2     -1.28      0.00
   13   11    2     -6.02      0.00
   14   11    2      6.95      0.00
   15   11    2      2.03      0.00
   16   11    2     -3.61      0.00
  -12   12    2      0.46      0.00
  -11   12    2     -1.30      0.00
  -10   12    2      0.44      0.00
   -9   12    2     -1.19      0.00
   -8   12    2      3.81      0.00
   -7   12    2     -1.34      0.00
   -6   12    2     -1.42      0.00
   -5   12    2     -1.33      0.00
   -4   12    2      7.49      0.00
   -3   12    2     -2.98      0.00
   -2   12    2      7.52      0.00
   -1   12    2     -5.75      0.00
    0   12    2     -6.22      0.00
    1   12    2      7.95      0.00
    2   12    2     -1.37      0.00
    3   12    2      0.23      0.00
    4   12    2     -4.94      0.00
    5   12    2     -0.17      0.00
    6   12    2      1.54      0.00
    7   12    2      3.25      0.00
    8   12    2     -9.35      0.00
    9   12    2      1.16      0.00
   10   12    2     12.88      0.00
   11   12    2      0.14      0.00
   12   12    2     -6.89      0.00
   13   12    2      6.67      0.00
   14   12    2     -1.10      0.00
   15   12    2      1.02      0.00
   16   12    2     -0.86      0.00
  -11   13    2     -0.62      0.00
   -7   13    2      3.61      0.00
   -6   13    2     -2.14      0.00
   -5   13    2     -0.93      0.00
   -4   13    2      0.57      0.00
   -3   13    2      3.48      0.00
   -2   13    2      6.18      0.00
   -1   13    2     -8.08      0.00
    0   13    2      6.42      0.00
    1   13    2      4.21      0.00
    2   13    2      4.60      0.00
    3   13    2      0.39      0.00
    4   13    2     -1.12      0.00
    5   13    2      4.79      0.00
    6   13    2     -1.05      0.00
    7   13    2      0.79      0.00
    8   13    2      7.39      0.00
    9   13    2     -1.66      0.00
   10   13    2    -10.27      0.00
   11   13    2      9.00      0.00
   12   13    2      3.00      0.00
   13   13    2     -2.69      0.00
   14   13    2     -0.37      0.00
   15   13    2     -0.29      0.00
  -10   14    2     -5.58      0.00
   -9   14    2      1.57      0.00
   -8   14    2     -1.01      0.00
   -7   14    2     -5.09      0.00
   -6   14    2     -0.07      0.00
   -5   14    2      2.18      0.00
   -4   14    2     -3.61      0.00
   -3   14    2      6.42      0.00
   -2   14    2     -0.90      0.00
   -1   14    2     -4.22      0.00
    0   14    2      7.56      0.00
    1   14    2     -4.52      0.00
    2   14    2     -1.40      0.00
    3   14    2     -1.49      0.00
    4   14    2     -3.83      0.00
    5   14    2      2.63      0.00
    6   14    2      4.90      0.00
    7   14    2     -7.60      0.00
    8   14    2     -3.15      0.00
    9   14    2      8.67      0.00
   10   14    2      3.46      0.00
   11   14    2     -6.58      0.00
   12   14    2      0.40      0.00
   13   14    2      1.22      0.00
   14   14    2      0.56      0.00
   -9   15    2     -2.58      0.00
   -8   15    2      2.49      0.00
   -7   15    2      1.36      0.00
   -6   15    2     -1.11      0.00
   -5   15    2     -0.93      0.00
   -4   15    2      1.12      0.00
   -3   15    2     -3.44      0.00
   -2   15    2     -3.82      0.00
   -1   15    2      3.83      0.00
    0   15    2      1.24      0.00
    1   15    2     -4.10      0.00
    2   15    2      8.19      0.00
    3   15    2     -3.71      0.00
    4   15    2      0.17      0.00
    5   15    2      0.68      0.00
    6   15    2     -0.86      0.00
    7   15    2      1.32      0.00
    8   15    2     -2.25      0.00
    9   15    2     -2.73      0.00
   10   15    2      2.93      0.00
   11   15    2      2.31      0.00
   12   15    2      0.53      0.00
   13   15    2      0.91      0.00
   -7   16    2      2.16      0.00
   -6   16    2     -2.00      0.00
   -5   16    2      4.23      0.00
   -4   16    2     -0.55      0.00
   -3   16    2     -1.22      0.00
   -2   16    2      3.69      0.00
   -1   16    2     -1.95      0.00
    0   16    2     -0.42      0.00
    1   16    2      3.84      0.00
    2   16    2      0.89      0.00
    3   16    2     -2.49      0.00
    4   16    2      6.67      0.00
    5   16    2      0.05      0.00
    6   16    2     -0.51      0.00
    7   16    2     -2.05      0.00
    8   16    2      0.50      0.00
    9   16    2      0.99      0.00
   10   16    2     -0.67      0.00
   11   16    2      0.45      0.00
   12   16    2     -3.50      0.00
   -5   17    2     -0.18      0.00
   -4   17    2     -1.32      0.00
   -3   17    2      1.72      0.00
   -2   17    2      1.92      0.00
   -1   17    2      1.60      0.00
    0   17    2     -4.62      0.00
    1   17    2      5.36      0.00
    2   17    2     -0.85      0.00
    3   17    2     -3.46      0.00
    4   17    2     -0.91      0.00
    5   17    2     -4.25      0.00
    6   17    2      2.21      0.00
    7   17    2     -1.74      0.00
    8   17    2      1.00      0.00
    9   17    2      0.15      0.00
   10   17    2     -0.85      0.00
   -3   18    2      1.27      0.00
   -2   18    2     -4.19      0.00
   -1   18    2      0.96      0.00
    0   18    2      0.50      0.00
    1   18    2      0.54      0.00
    2   18    2     -3.96      0.00
    3   18    2      3.59      0.00
    4   18    2     -3.02      0.00
    5   18    2     -1.24      0.00
    6   18    2      0.68      0.00
    7   18    2      2.05      0.00
   -5  -16    3     -0.77      0.00
   -4  -16    3      0.65      0.00
   -3  -16    3      0.07      0.00
   -2  -16    3     -0.60      0.00
   -1  -16    3     -3.04      0.00
    0  -16    3     -1.68      0.00
    1  -16    3      3.14      0.00
    2  -16    3      0.56      0.00
   -8  -15    3     -1.83      0.00
   -7  -15    3     -1.37      0.00
   -6  -15    3      0.38      0.00
   -5  -15    3     -2.82      0.00
   -4  -15    3     -4.46      0.00
   -3  -15    3      5.67      0.00
   -2  -15    3     -2.77      0.00
   -1  -15    3     -0.33      0.00
    0  -15    3     -0.63      0.00
    1  -15    3     -0.85      0.00
    2  -15    3      1.59      0.00
    3  -15    3     -0.34      0.00
    4  -15    3     -3.10      0.00
    5  -15    3      0.55      0.00
  -10  -14    3      0.06      0.00
   -9  -14    3     -0.07      0.00
   -8  -14    3     -1.67      0.00
   -7  -14    3     -1.30      0.00
   -6  -14    3     -2.33      0.00
   -5  -14    3      0.40      0.00
   -4  -14    3      2.07      0.00
   -3  -14    3      1.54      0.00
   -2  -14    3     -6.30      0.00
   -1  -14    3      9.48      0.00
    0  -14    3      4.51      0.00
    1  -14    3     -1.11      0.00
    2  -14    3     -0.99      0.00
    3  -14    3      0.69      0.00
    4  -14    3      0.12      0.00
    5  -14    3      1.27      0.00
    6  -14    3      0.29      0.00
    7  -14    3      0.67      0.00
  -12  -13    3     -0.80      0.00
  -11  -13    3      1.42      0.00
  -10  -13    3      3.14      0.00
   -9  -13    3      2.07      0.00
   -8  -13    3     -0.76      0.00
   -7  -13    3     -0.71      0.00
   -6  -13    3      2.95      0.00
   -5  -13    3      3.61      0.00
   -4  -13    3      3.87      0.00
   -3  -13    3      1.58      0.00
   -2  -13    3      3.01      0.00
   -1  -13    3      3.84      0.00
    0  -13    3     -2.06      0.00
    1  -13    3      4.09      0.00
    2  -13    3     -0.09      0.00
    3  -13    3     -3.06      0.00
    4  -13    3      3.29      0.00
    5  -13    3     -0.33      0.00
    6  -13    3      1.25      0.00
    7  -13    3      4.98      0.00
    8  -13    3     -2.65      0.00
    9  -13    3     -1.36      0.00
  -13  -12    3     -0.28      0.00
  -12  -12    3     -1.25      0.00
  -11  -12    3      2.83      0.00
  -10  -12    3     -0.84      0.00
   -9  -12    3     -0.05      0.00
   -8  -12    3      3.82      0.00
   -7  -12    3     -2.75      0.00
   -6  -12    3     -0.04      0.00
   -5  -12    3      2.89      0.00
   -4  -12    3     -1.14      0.00
   -3  -12    3     -8.28      0.00
   -2  -12    3      8.06      0.00
   -1  -12    3      1.28      0.00
    0  -12    3    -11.57      0.00
    1  -12    3      5.46      0.00
    2  -12    3     -1.37      0.00
    3  -12    3      1.45      0.00
    4  -12    3      1.47      0.00
    5  -12    3     -4.11      0.00
    6  -12    3      3.69      0.00
    7  -12    3      5.23      0.00
    8  -12    3     -7.88      0.00
    9  -12    3     -2.28      0.00
   10  -12    3      4.28      0.00
  -14  -11    3     -1.06      0.00
  -13  -11    3     -1.19      0.00
  -12  -11    3     -1.06      0.00
  -11  -11    3      0.04      0.00
  -10  -11    3      3.74      0.00
   -9  -11    3     -3.92      0.00
   -8  -11    3     -6.70      0.00
   -7  -11    3     -1.03      0.00
   -6  -11    3      3.44      0.00
   -5  -11    3    -13.26      0.00
   -4  -11    3     -6.64      0.00
   -3  -11    3      0.26      0.00
   -2  -11    3     -2.57      0.00
   -1  -11    3     -5.40      0.00
    0  -11    3      0.77      0.00
    1  -11    3      3.20      0.00
    2  -11    3     -4.02      0.00
    3  -11    3      3.82      0.00
    4  -11    3      0.44      0.00
    5  -11    3     -4.90      0.00
    6  -11    3     -0.73      0.00
    7  -11    3      1.02      0.00
    8  -11    3     -0.60      0.00
    9  -11    3      1.57      0.00
   10  -11    3      0.46      0.00
   11  -11    3      3.30      0.00
   12  -11    3     -0.53      0.00
  -15  -10    3     -0.16      0.00
  -14  -10    3      1.03      0.00
  -13  -10    3      0.28      0.00
  -12  -10    3      1.24      0.00
  -11  -10    3      3.49      0.00
  -10  -10    3     -2.43      0.00
   -9  -10    3     -0.83      0.00
   -8  -10    3     -4.61      0.00
   -7  -10    3     -1.20      0.00
   -6  -10    3      4.02      0.00
   -5  -10    3     -2.44      0.00
   -4  -10    3     -4.34      0.00
   -3  -10    3     -0.05      0.00
   -2  -10    3     11.17      0.00
   -1  -10    3      3.12      0.00
    0  -10    3     -2.05      0.00
    1  -10    3      0.73      0.00
    2  -10    3      3.41      0.00
    3  -10    3     -6.38      0.00
    4  -10    3     -3.10      0.00
    5  -10    3      3.83      0.00
    6  -10    3     -1.60      0.00
    7  -10    3     -3.23      0.00
    8  -10    3      6.83      0.00
    9  -10    3     -1.55      0.00
   10  -10    3     -2.92      0.00
   11  -10    3      4.53      0.00
   12  -10    3     -1.57      0.00
   13  -10    3      0.55      0.00
  -15   -9    3      1.60      0.00
  -14   -9    3     -3.11      0.00
  -13   -9    3      2.60      0.00
  -12   -9    3      1.02      0.00
  -11   -9    3     -1.80      0.00
  -10   -9    3      3.57      0.00
   -9   -9    3     -2.07      0.00
   -8   -9    3     -4.24      0.00
   -7   -9    3      4.16      0.00
   -6   -9    3     -4.93      0.00
   -5   -9    3     -1.61      0.00
   -4   -9    3      8.08      0.00
   -3   -9    3      4.96      0.00
   -2   -9    3      2.44      0.00
   -1   -9    3     11.74      0.00
    0   -9    3      1.75      0.00
    1   -9    3     -9.20      0.00
    3   -9    3      1.27      0.00
    4   -9    3     -2.32      0.00
    5   -9    3     -0.56      0.00
    6   -9    3     -2.56      0.00
    7   -9    3     -3.22      0.00
    8   -9    3      4.93      0.00
    9   -9    3     -3.07      0.00
   10   -9    3      0.84      0.00
   11   -9    3     -3.74      0.00
   12   -9    3     -0.09      0.00
   13   -9    3      0.66      0.00
   14   -9    3     -0.67      0.00
  -16   -8    3      3.16      0.00
  -15   -8    3     -1.48      0.00
  -14   -8    3      1.65      0.00
  -13   -8    3     -3.54      0.00
  -12   -8    3     -0.35      0.00
  -11   -8    3      2.14      0.00
  -10   -8    3      4.83      0.00
   -9   -8    3     -2.64      0.00
   -8   -8    3     -3.93      0.00
   -7   -8    3      1.94      0.00
   -6   -8    3      7.53      0.00
   -5   -8    3     -4.55      0.00
   -4   -8    3     -7.40      0.00
   -3   -8    3     10.68      0.00
   -2   -8    3      3.92      0.00
   -1   -8    3    -12.19      0.00
    0   -8    3     -3.70      0.00
    2   -8    3      6.21      0.00
    3   -8    3     -7.20      0.00
    4   -8    3      2.00      0.00
    5   -8    3     -5.03      0.00
    6   -8    3     -3.11      0.00
    7   -8    3     -0.24      0.00
   12   -8    3     -7.04      0.00
   13   -8    3     -1.68      0.00
   14   -8    3      1.59      0.00
   15   -8    3     -1.94      0.00
  -16   -7    3     -2.07      0.00
  -15   -7    3      0.17      0.00
  -14   -7    3      1.47      0.00
  -13   -7    3      0.15      0.00
  -12   -7    3      2.33      0.00
  -11   -7    3      1.21      0.00
  -10   -7    3      0.77      0.00
   -9   -7    3     -2.22      0.00
   -8   -7    3     -0.23      0.00
   -7   -7    3     -6.86      0.00
   -5   -7    3      2.88      0.00
   -4   -7    3     -2.36      0.00
   -3   -7    3      1.85      0.00
   -2   -7    3     12.43      0.00
   -1   -7    3      4.48      0.00
    0   -7    3    -12.28      0.00
    1   -7    3      6.62      0.00
    2   -7    3     -0.94      0.00
    3   -7    3     -2.78      0.00
    4   -7    3     -0.75      0.00
    5   -7    3     -0.62      0.00
    6   -7    3     -2.31      0.00
    7   -7    3      3.75      0.00
    8   -7    3      4.33      0.00
    9   -7    3      9.43      0.00
   11   -7    3     -3.13      0.00
   12   -7    3      7.17      0.00
   15   -7    3      3.60      0.00
  -17   -6    3      1.45      0.00
  -16   -6    3     -2.11      0.00
  -15   -6    3     -0.29      0.00
  -14   -6    3      4.51      0.00
  -13   -6    3     -2.11      0.00
  -12   -6    3      1.50      0.00
  -11   -6    3      4.37      0.00
  -10   -6    3     -5.66      0.00
   -9   -6    3     -2.55      0.00
   -8   -6    3     -4.10      0.00
   -7   -6    3      0.16      0.00
   -6   -6    3     -0.08      0.00
   -5   -6    3     -0.78      0.00
   -4   -6    3     -2.86      0.00
   -3   -6    3      5.12      0.00
   -2   -6    3      0.13      0.00
   -1   -6    3     17.82      0.00
    0   -6    3    -12.93      0.00
    1   -6    3     31.88      0.00
    2   -6    3    -20.36      0.00
    3   -6    3     -1.22      0.00
    4   -6    3      3.95      0.00
    5   -6    3     -4.45      0.00
    6   -6    3      3.16      0.00
    7   -6    3      1.02      0.00
    8   -6    3      2.65      0.00
    9   -6    3      5.07      0.00
   10   -6    3      2.35      0.00
   11   -6    3     -1.79      0.00
   12   -6    3     15.37      0.00
   13   -6    3     -3.47      0.00
   14   -6    3     -4.49      0.00
   15   -6    3      3.09      0.00
   16   -6    3      0.29      0.00
  -17   -5    3      1.91      0.00
  -16   -5    3      1.96      0.00
  -15   -5    3     -0.24      0.00
  -14   -5    3      7.30      0.00
  -13   -5    3     -3.45      0.00
  -12   -5    3      0.52      0.00
  -11   -5    3      1.97      0.00
  -10   -5    3    -12.91      0.00
   -9   -5    3      2.92      0.00
   -8   -5    3      5.43      0.00
   -7   -5    3      2.95      0.00
   -6   -5    3    -10.91      0.00
   -5   -5    3      6.30      0.00
   -4   -5    3     25.11      0.00
   -3   -5    3      4.57      0.00
   -2   -5    3    -16.78      0.00
   -1   -5    3     -0.31      0.00
    0   -5    3     -1.06      0.00
    1   -5    3     -8.81      0.00
    2   -5    3    -17.27      0.00
    3   -5    3      5.66      0.00
    4   -5    3     -8.97      0.00
    5   -5    3     -7.37      0.00
    6   -5    3      3.60      0.00
    7   -5    3      0.12      0.00
    8   -5    3      3.12      0.00
    9   -5    3     -2.10      0.00
   10   -5    3     -8.17      0.00
   11   -5    3     -1.52      0.00
   12   -5    3     11.38      0.00
   13   -5    3     -5.25      0.00
   14   -5    3     -3.84      0.00
   15   -5    3     -5.44      0.00
   16   -5    3     -1.92      0.00
   17   -5    3      3.86      0.00
  -17   -4    3      3.57      0.00
  -16   -4    3      0.22      0.00
  -15   -4    3     -2.48      0.00
  -14   -4    3      6.37      0.00
  -13   -4    3      0.84      0.00
  -12   -4    3     -2.36      0.00
  -11   -4    3     -5.87      0.00
  -10   -4    3     -2.35      0.00
   -9   -4    3     -0.11      0.00
   -8   -4    3     -4.10      0.00
   -6   -4    3      1.09      0.00
   -5   -4    3     -5.95      0.00
   -4   -4    3     21.36      0.00
   -3   -4    3    -15.50      0.00
   -2   -4    3     20.97      0.00
   -1   -4    3     -3.97      0.00
    0   -4    3     -3.26      0.00
    1   -4    3    -14.77      0.00
    2   -4    3    -11.53      0.00
    3   -4    3      5.24      0.00
    4   -4    3    -14.01      0.00
    5   -4    3     -8.17      0.00
    6   -4    3     -5.89      0.00
    7   -4    3      7.46      0.00
    8   -4    3     -3.93      0.00
    9   -4    3     -3.92      0.00
   10   -4    3      2.88      0.00
   11   -4    3      2.38      0.00
   12   -4    3     -6.66      0.00
   13   -4    3      3.66      0.00
   14   -4    3     -3.95      0.00
   15   -4    3     -0.75      0.00
   16   -4    3      3.60      0.00
   17   -4    3     -4.01      0.00
  -17   -3    3      0.26      0.00
  -16   -3    3     -1.54      0.00
  -15   -3    3     -5.51      0.00
  -14   -3    3     -1.32      0.00
  -13   -3    3      6.39      0.00
  -12   -3    3     -6.88      0.00
  -11   -3    3     -9.86      0.00
  -10   -3    3     10.69      0.00
   -9   -3    3      4.45      0.00
   -7   -3    3    -16.48      0.00
   -6   -3    3    -13.78      0.00
   -5   -3    3      0.83      0.00
   -4   -3    3     16.65      0.00
   -3   -3    3    -29.76      0.00
   -2   -3    3     -1.96      0.00
   -1   -3    3     -6.98      0.00
    0   -3    3     18.97      0.00
    1   -3    3     19.51      0.00
    2   -3    3      2.56      0.00
    3   -3    3      6.45      0.00
    4   -3    3      2.44      0.00
    5   -3    3      0.05      0.00
    6   -3    3     -7.12      0.00
    7   -3    3      3.14      0.00
    8   -3    3     -3.20      0.00
    9   -3    3     -0.22      0.00
   10   -3    3     -4.01      0.00
   11   -3    3     16.43      0.00
   12   -3    3    -13.49      0.00
   13   -3    3      7.11      0.00
   14   -3    3     -7.99      0.00
   15   -3    3      0.44      0.00
   16   -3    3      1.51      0.00
   17   -3    3     -4.35      0.00
  -17   -2    3      1.07      0.00
  -16   -2    3     -3.06      0.00
  -15   -2    3      2.17      0.00
  -14   -2    3      0.05      0.00
  -13   -2    3      9.04      0.00
  -12   -2    3     -2.61      0.00
  -11   -2    3     -7.35      0.00
  -10   -2    3      2.64      0.00
   -9   -2    3      4.00      0.00
   -8   -2    3     -1.15      0.00
   -7   -2    3     -3.12      0.00
   -6   -2    3     -7.43      0.00
   -5   -2    3     15.67      0.00
   -4   -2    3     -6.30      0.00
   -3   -2    3      1.68      0.00
   -2   -2    3     30.60      0.00
   -1   -2    3    -32.04      0.00
    0   -2    3     11.99      0.00
    1   -2    3     85.54      0.00
    2   -2    3    -48.35      0.00
    3   -2    3    -20.74      0.00
    4   -2    3     11.55      0.00
    5   -2    3     19.54      0.00
    6   -2    3      0.88      0.00
    7   -2    3     -1.17      0.00
    8   -2    3      7.31      0.00
   10   -2    3      4.33      0.00
   11   -2    3     -2.02      0.00
   12   -2    3     -3.34      0.00
   13   -2    3      7.33      0.00
   14   -2    3     -9.17      0.00
   15   -2    3     -0.19      0.00
   16   -2    3      2.49      0.00
   17   -2    3      0.84      0.00
   18   -2    3      1.15      0.00
  -18   -1    3     -1.25      0.00
  -17   -1    3     -0.20      0.00
  -16   -1    3      2.30      0.00
  -15   -1    3      6.21      0.00
  -14   -1    3     -3.53      0.00
  -13   -1    3      4.80      0.00
  -12   -1    3      3.14      0.00
  -11   -1    3     -0.56      0.00
  -10   -1    3      0.71      0.00
   -8   -1    3     -3.35      0.00
   -7   -1    3      9.21      0.00
   -6   -1    3     -0.22      0.00
   -5   -1    3     14.25      0.00
   -4   -1    3      2.91      0.00
   -3   -1    3     50.00      0.00
   -2   -1    3      4.21      0.00
   -1   -1    3      9.53      0.00
    0   -1    3     36.13      0.00
    1   -1    3     26.46      0.00
    2   -1    3    -13.20      0.00
    3   -1    3    -17.08      0.00
    4   -1    3    -40.85      0.00
    5   -1    3     -1.57      0.00
    6   -1    3     35.80      0.00
    7   -1    3    -13.68      0.00
    8   -1    3     12.22      0.00
    9   -1    3      9.86      0.00
   10   -1    3      6.88      0.00
   11   -1    3    -10.42      0.00
   12   -1    3     11.95      0.00
   13   -1    3     -5.62      0.00
   14   -1    3     -0.87      0.00
   15   -1    3     -2.34      0.00
   16   -1    3     -2.89      0.00
   17   -1    3      3.30      0.00
   18   -1    3      5.50      0.00
  -18    0    3      2.71      0.00
  -17    0    3     -6.02      0.00
  -16    0    3      2.77      0.00
  -15    0    3      4.54      0.00
  -14    0    3     -0.23      0.00
  -13    0    3    -10.84      0.00
  -12    0    3      0.84      0.00
  -11    0    3     -9.27      0.00
  -10    0    3     -8.23      0.00
   -9    0    3      3.58      0.00
   -7    0    3     10.00      0.00
   -6    0    3     -6.17      0.00
   -5    0    3      3.99      0.00
   -4    0    3    -11.34      0.00
   -3    0    3      2.27      0.00
   -2    0    3    -32.84      0.00
   -1    0    3     -1.78      0.00
    1    0    3   -101.13      0.00
    2    0    3    -44.92      0.00
    3    0    3     -9.27      0.00
    4    0    3     55.85      0.00
    5    0    3    -31.65      0.00
    6    0    3     -8.66      0.00
    7    0    3      5.31      0.00
    8    0    3      7.69      0.00
    9    0    3     -0.45      0.00
   10    0    3      3.90      0.00
   11    0    3    -11.30      0.00
   12    0    3      4.24      0.00
   13    0    3     -7.19      0.00
   14    0    3      1.78      0.00
   15    0    3      5.67      0.00
   16    0    3     -5.86      0.00
   17    0    3      1.31      0.00
   18    0    3      2.07      0.00
  -18    1    3     -0.45      0.00
  -17    1    3      1.84      0.00
  -16    1    3      7.92      0.00
  -15    1    3     -6.22      0.00
  -14    1    3      0.70      0.00
  -13    1    3     -0.96      0.00
  -12    1    3     -0.52      0.00
  -11    1    3     -5.13      0.00
  -10    1    3     -2.15      0.00
   -9    1    3      7.06      0.00
   -8    1    3     -1.62      0.00
   -7    1    3     -7.86      0.00
   -6    1    3    -11.60      0.00
   -5    1    3     -3.28      0.00
   -4    1    3     14.30      0.00
   -3    1    3     -6.01      0.00
   -2    1    3    -35.52      0.00
   -1    1    3     -4.90      0.00
    0    1    3      2.87      0.00
    1    1    3    -24.85      0.00
    2    1    3      0.92      0.00
    3    1    3   -101.17      0.00
    4    1    3      3.55      0.00
    5    1    3     45.96      0.00
    6    1    3      6.17      0.00
    7    1    3    -10.59      0.00
    8    1    3     -4.92      0.00
    9    1    3      1.14      0.00
   10    1    3      4.61      0.00
   12    1    3     -9.55      0.00
   13    1    3     -1.08      0.00
   14    1    3     -1.78      0.00
   15    1    3      2.11      0.00
   16    1    3     -2.14      0.00
   17    1    3      2.71      0.00
   18    1    3      2.05      0.00
   19    1    3     -1.83      0.00
  -17    2    3     -1.52      0.00
  -16    2    3      5.84      0.00
  -15    2    3     -3.66      0.00
  -14    2    3      4.35      0.00
  -13    2    3     -4.76      0.00
  -12    2    3      6.03      0.00
  -11    2    3      4.24      0.00
   -9    2    3     -1.92      0.00
   -8    2    3     10.43      0.00
   -7    2    3     -7.41      0.00
   -6    2    3      1.02      0.00
   -5    2    3      1.69      0.00
   -4    2    3     -5.04      0.00
   -3    2    3     35.22      0.00
   -2    2    3     31.66      0.00
   -1    2    3     10.48      0.00
    0    2    3     18.04      0.00
    1    2    3    -15.16      0.00
    2    2    3    -21.87      0.00
    3    2    3     96.89      0.00
    4    2    3    -35.48      0.00
    5    2    3    -42.04      0.00
    6    2    3     27.72      0.00
    7    2    3     27.47      0.00
    8    2    3    -13.89      0.00
    9    2    3      0.70      0.00
   10    2    3      5.91      0.00
   11    2    3      6.70      0.00
   12    2    3     -3.85      0.00
   13    2    3      0.91      0.00
   14    2    3     -0.23      0.00
   15    2    3     -5.93      0.00
   16    2    3      1.37      0.00
   17    2    3     -1.24      0.00
   18    2    3      1.60      0.00
   19    2    3     -0.41      0.00
  -17    3    3      3.07      0.00
  -16    3    3     -4.11      0.00
  -15    3    3      2.07      0.00
  -14    3    3      4.17      0.00
  -13    3    3     -5.18      0.00
  -12    3    3     -7.63      0.00
  -11    3    3     10.52      0.00
  -10    3    3      1.39      0.00
   -9    3    3     -9.53      0.00
   -8    3    3     -2.58      0.00
   -7    3    3     -2.61      0.00
   -6    3    3     23.73      0.00
   -5    3    3      6.86      0.00
   -4    3    3    -22.95      0.00
   -3    3    3     20.42      0.00
   -2    3    3     61.00      0.00
   -1    3    3    -40.35      0.00
    0    3    3    -12.95      0.00
    1    3    3     48.93      0.00
    2    3    3    -93.69      0.00
    3    3    3     -0.35      0.00
    4    3    3     13.02      0.00
    5    3    3     33.67      0.00
    6    3    3    -11.96      0.00
    7    3    3     -3.74      0.00
    8    3    3      7.03      0.00
    9    3    3      8.14      0.00
   10    3    3    -11.75      0.00
   11    3    3     -5.10      0.00
   12    3    3     -4.09      0.00
   13    3    3     -6.33      0.00
   14    3    3      8.42      0.00
   15    3    3     -5.89      0.00
   16    3    3      3.23      0.00
   17    3    3     -3.53      0.00
   18    3    3      1.34      0.00
   19    3    3     -2.98      0.00
  -17    4    3      2.24      0.00
  -16    4    3     -3.50      0.00
  -15    4    3      9.35      0.00
  -14    4    3     -4.57      0.00
  -13    4    3     -0.55      0.00
  -12    4    3      1.51      0.00
  -11    4    3     -5.45      0.00
  -10    4    3      3.21      0.00
   -9    4    3    -10.00      0.00
   -8    4    3     -5.41      0.00
   -7    4    3      8.47      0.00
   -6    4    3     -3.61      0.00
   -5    4    3      8.46      0.00
   -4    4    3     -0.99      0.00
   -3    4    3    -15.17      0.00
   -2    4    3     43.24      0.00
   -1    4    3    -16.97      0.00
    0    4    3    -15.17      0.00
    1    4    3    -31.52      0.00
    2    4    3     10.78      0.00
    3    4    3      1.54      0.00
    4    4    3    -35.67      0.00
    5    4    3      8.55      0.00
    6    4    3     27.86      0.00
    7    4    3     -3.64      0.00
    8    4    3      0.07      0.00
    9    4    3      5.48      0.00
   10    4    3      3.19      0.00
   11    4    3     -7.06      0.00
   12    4    3      3.78      0.00
   13    4    3     -8.53      0.00
   14    4    3      4.57      0.00
   15    4    3     -0.96      0.00
   16    4    3      3.04      0.00
   17    4    3     -2.63      0.00
   18    4    3      1.66      0.00
   19    4    3     -2.15      0.00
  -17    5    3      2.11      0.00
  -16    5    3      6.79      0.00
  -15    5    3      1.38      0.00
  -14    5    3     -3.63      0.00
  -13    5    3      0.51      0.00
  -12    5    3      3.46      0.00
  -11    5    3      0.33      0.00
  -10    5    3      7.27      0.00
   -8    5    3     -8.94      0.00
   -7    5    3     12.73      0.00
   -6    5    3    -14.36      0.00
   -5    5    3    -11.55      0.00
   -4    5    3     19.14      0.00
   -3    5    3     -8.15      0.00
   -2    5    3     23.58      0.00
   -1    5    3      4.16      0.00
    1    5    3    -21.83      0.00
    2    5    3     37.60      0.00
    3    5    3    -19.42      0.00
    4    5    3     19.37      0.00
    5    5    3     11.81      0.00
    6    5    3      4.26      0.00
    7    5    3      4.47      0.00
    8    5    3      1.79      0.00
    9    5    3     -6.10      0.00
   10    5    3      1.89      0.00
   11    5    3      9.46      0.00
   12    5    3      9.18      0.00
   13    5    3      3.78      0.00
   14    5    3      1.34      0.00
   15    5    3      6.14      0.00
   16    5    3     -5.15      0.00
   17    5    3      3.09      0.00
   18    5    3      0.16      0.00
   19    5    3      1.30      0.00
  -16    6    3      3.10      0.00
  -15    6    3      5.89      0.00
  -14    6    3     -4.80      0.00
  -13    6    3      0.21      0.00
  -12    6    3      2.00      0.00
  -11    6    3     -2.98      0.00
  -10    6    3      1.87      0.00
   -9    6    3     -4.21      0.00
   -8    6    3    -11.35      0.00
   -7    6    3      6.28      0.00
   -6    6    3      0.76      0.00
   -5    6    3     -5.73      0.00
   -4    6    3      2.44      0.00
   -3    6    3     14.08      0.00
   -2    6    3      6.56      0.00
   -1    6    3     -1.53      0.00
    0    6    3    -28.31      0.00
    1    6    3    -35.76      0.00
    2    6    3     38.81      0.00
    3    6    3      0.00      0.00
    4    6    3    -16.18      0.00
    5    6    3     10.45      0.00
    6    6    3     -0.79      0.00
    7    6    3      6.34      0.00
    8    6    3      3.07      0.00
    9    6    3     -2.72      0.00
   10    6    3     -4.62      0.00
   11    6    3      6.09      0.00
   12    6    3     -2.81      0.00
   13    6    3      2.16      0.00
   14    6    3     -9.34      0.00
   15    6    3      3.12      0.00
   16    6    3     -3.96      0.00
   17    6    3      2.74      0.00
   18    6    3      0.59      0.00
   19    6    3      4.43      0.00
  -16    7    3      1.25      0.00
  -14    7    3      2.22      0.00
  -13    7    3     -2.95      0.00
  -12    7    3     -6.02      0.00
  -11    7    3      8.05      0.00
  -10    7    3     -0.27      0.00
   -9    7    3     -5.63      0.00
   -8    7    3     -7.13      0.00
   -7    7    3      3.01      0.00
   -6    7    3      5.52      0.00
   -5    7    3      4.58      0.00
   -4    7    3     -4.14      0.00
   -3    7    3     20.30      0.00
   -2    7    3     -3.98      0.00
   -1    7    3     -6.20      0.00
    0    7    3    -19.51      0.00
    1    7    3    -19.45      0.00
    2    7    3     25.97      0.00
    3    7    3    -17.06      0.00
    4    7    3     -4.80      0.00
    5    7    3      9.10      0.00
    6    7    3     -8.68      0.00
    7    7    3     -2.67      0.00
    8    7    3      1.06      0.00
    9    7    3     -3.76      0.00
   10    7    3      5.19      0.00
   11    7    3     -3.11      0.00
   12    7    3     -8.91      0.00
   13    7    3     -3.42      0.00
   14    7    3     -5.88      0.00
   15    7    3     -6.07      0.00
   16    7    3     -1.74      0.00
   17    7    3     -1.13      0.00
   18    7    3     -0.58      0.00
  -15    8    3     -1.89      0.00
  -14    8    3     -0.17      0.00
  -13    8    3     -1.08      0.00
  -12    8    3    -10.88      0.00
  -11    8    3     -0.45      0.00
  -10    8    3     -3.90      0.00
   -9    8    3      1.19      0.00
   -8    8    3     -1.97      0.00
   -7    8    3      6.08      0.00
   -6    8    3     -0.99      0.00
   -5    8    3     12.11      0.00
   -4    8    3     -4.50      0.00
   -3    8    3      6.93      0.00
   -2    8    3    -19.27      0.00
   -1    8    3    -10.59      0.00
    0    8    3      1.12      0.00
    1    8    3     -1.09      0.00
    2    8    3      8.74      0.00
    3    8    3      0.84      0.00
    4    8    3     13.99      0.00
    5    8    3     -7.56      0.00
    6    8    3      7.20      0.00
    7    8    3      0.68      0.00
    8    8    3     -3.29      0.00
   10    8    3     -6.34      0.00
   11    8    3     -0.97      0.00
   12    8    3      2.63      0.00
   13    8    3     -5.15      0.00
   14    8    3      2.54      0.00
   15    8    3     -0.25      0.00
   16    8    3      6.09      0.00
   17    8    3      0.16      0.00
   18    8    3      2.31      0.00
  -15    9    3     -2.98      0.00
  -14    9    3     -0.37      0.00
  -13    9    3      4.88      0.00
  -12    9    3     -4.89      0.00
   -8    9    3      2.41      0.00
   -7    9    3      2.60      0.00
   -6    9    3     -3.68      0.00
   -5    9    3     -0.08      0.00
   -4    9    3      2.16      0.00
   -3    9    3     15.37      0.00
   -2    9    3    -22.99      0.00
   -1    9    3    -10.17      0.00
    0    9    3      5.53      0.00
    1    9    3      4.90      0.00
    2    9    3     -1.15      0.00
    3    9    3      6.24      0.00
    4    9    3      6.76      0.00
    5    9    3     -6.34      0.00
    6    9    3      0.37      0.00
    8    9    3     10.62      0.00
   10    9    3    -11.53      0.00
   11    9    3      3.24      0.00
   12    9    3     12.05      0.00
   13    9    3     -9.47      0.00
   14    9    3      6.90      0.00
   15    9    3      0.27      0.00
   16    9    3      3.99      0.00
   17    9    3      1.62      0.00
   18    9    3     -0.33      0.00
  -14   10    3      1.00      0.00
  -13   10    3      3.15      0.00
  -12   10    3      1.07      0.00
  -10   10    3      1.71      0.00
   -6   10    3      8.35      0.00
   -5   10    3      0.20      0.00
   -4   10    3      3.68      0.00
   -3   10    3      3.96      0.00
   -2   10    3     -8.97      0.00
   -1   10    3      5.85      0.00
    0   10    3      7.13      0.00
    1   10    3      4.49      0.00
    2   10    3     -4.46      0.00
    3   10    3     10.91      0.00
    4   10    3     -0.69      0.00
    5   10    3     -4.65      0.00
    6   10    3     13.40      0.00
    7   10    3     -3.92      0.00
    8   10    3      3.60      0.00
    9   10    3      5.61      0.00
   10   10    3      4.97      0.00
   11   10    3     -4.48      0.00
   12   10    3      8.71      0.00
   13   10    3     -2.06      0.00
   14   10    3     -3.02      0.00
   15   10    3     -2.07      0.00
   16   10    3     -0.57      0.00
   17   10    3     -1.80      0.00
  -13   11    3      0.21      0.00
  -12   11    3      0.08      0.00
  -11   11    3     -2.73      0.00
  -10   11    3      0.51      0.00
   -9   11    3      0.80      0.00
   -8   11    3      0.85      0.00
   -7   11    3     -1.58      0.00
   -6   11    3      4.48      0.00
   -5   11    3     -0.71      0.00
   -4   11    3     10.78      0.00
   -3   11    3     -9.94      0.00
   -2   11    3     -9.62      0.00
   -1   11    3      4.01      0.00
    0   11    3     -6.96      0.00
    1   11    3     10.70      0.00
    2   11    3     -6.82      0.00
    3   11    3     -2.62      0.00
    4   11    3      3.04      0.00
    5   11    3      2.87      0.00
    6   11    3     -5.63      0.00
    7   11    3      9.40      0.00
    8   11    3      2.51      0.00
    9   11    3    -11.21      0.00
   10   11    3     -1.38      0.00
   11   11    3      7.53      0.00
   12   11    3     -7.32      0.00
   13   11    3      1.90      0.00
   14   11    3     -2.16      0.00
   15   11    3     -1.78      0.00
   16   11    3      3.39      0.00
   17   11    3      0.76      0.00
  -13   12    3     -1.11      0.00
  -12   12    3     -3.32      0.00
  -11   12    3     -2.35      0.00
  -10   12    3     -0.81      0.00
   -9   12    3      2.51      0.00
   -8   12    3     -1.93      0.00
   -7   12    3      0.86      0.00
   -6   12    3      3.51      0.00
   -5   12    3      3.72      0.00
   -4   12    3      0.40      0.00
   -3   12    3    -11.14      0.00
   -2   12    3     -0.07      0.00
   -1   12    3     -7.81      0.00
    0   12    3     -2.90      0.00
    1   12    3      4.75      0.00
    2   12    3    -12.00      0.00
    3   12    3      0.98      0.00
    4   12    3      0.11      0.00
    5   12    3      1.26      0.00
    6   12    3     -4.29      0.00
    7   12    3     -5.94      0.00
    8   12    3     -5.30      0.00
    9   12    3     11.88      0.00
   10   12    3     -4.14      0.00
   11   12    3     -6.45      0.00
   12   12    3     -2.05      0.00
   13   12    3      5.44      0.00
   14   12    3     -5.21      0.00
   15   12    3      0.29      0.00
   16   12    3      4.50      0.00
  -12   13    3     -3.07      0.00
   -8   13    3      4.39      0.00
   -7   13    3     -1.24      0.00
   -6   13    3     -2.69      0.00
   -5   13    3      4.88      0.00
   -4   13    3     -0.66      0.00
   -3   13    3     -4.78      0.00
   -2   13    3      4.03      0.00
   -1   13    3     -6.41      0.00
    0   13    3      9.34      0.00
    1   13    3      0.57      0.00
    2   13    3     -0.82      0.00
    3   13    3     -0.35      0.00
    4   13    3      3.13      0.00
    5   13    3     -2.11      0.00
    6   13    3     -3.30      0.00
    7   13    3      7.38      0.00
    8   13    3     -1.52      0.00
    9   13    3     -4.99      0.00
   10   13    3      2.43      0.00
   11   13    3      4.61      0.00
   12   13    3     -3.22      0.00
   13   13    3     -0.91      0.00
   14   13    3      2.11      0.00
   15   13    3     -0.85      0.00
  -11   14    3     -1.67      0.00
  -10   14    3      4.93      0.00
   -9   14    3      1.64      0.00
   -8   14    3     -0.85      0.00
   -7   14    3      1.44      0.00
   -6   14    3      0.08      0.00
   -5   14    3     -2.79      0.00
   -4   14    3      0.89      0.00
   -3   14    3      3.42      0.00
   -2   14    3     -1.11      0.00
   -1   14    3     -0.89      0.00
    0   14    3      9.60      0.00
    1   14    3     -6.34      0.00
    2   14    3     -0.26      0.00
    3   14    3      1.89      0.00
    4   14    3      2.66      0.00
    5   14    3      3.94      0.00
    6   14    3     -5.41      0.00
    7   14    3     -2.95      0.00
    8   14    3      7.75      0.00
    9   14    3      1.25      0.00
   10   14    3     -7.63      0.00
   11   14    3     -2.55      0.00
   12   14    3      1.13      0.00
   13   14    3     -2.97      0.00
   14   14    3     -1.88      0.00
   15   14    3      4.58      0.00
   -9   15    3      0.42      0.00
   -8   15    3     -0.22      0.00
   -7   15    3     -0.17      0.00
   -6   15    3      0.14      0.00
   -5   15    3     -0.45      0.00
   -4   15    3      1.31      0.00
   -3   15    3     -5.52      0.00
   -2   15    3     -0.25      0.00
   -1   15    3      6.93      0.00
    0   15    3     -4.00      0.00
    1   15    3     -4.51      0.00
    2   15    3      6.10      0.00
    3   15    3     -7.24      0.00
    4   15    3      3.14      0.00
    5   15    3     -0.53      0.00
    6   15    3     -0.24      0.00
    7   15    3     -0.91      0.00
    8   15    3     -1.47      0.00
    9   15    3     -1.70      0.00
   10   15    3      0.10      0.00
   11   15    3      1.88      0.00
   12   15    3     -1.46      0.00
   13   15    3      0.55      0.00
   14   15    3     -0.09      0.00
   -8   16    3     -0.84      0.00
   -7   16    3      1.76      0.00
   -6   16    3      1.00      0.00
   -5   16    3      0.66      0.00
   -4   16    3     -0.05      0.00
   -3   16    3     -1.24      0.00
   -2   16    3     -3.63      0.00
   -1   16    3      2.74      0.00
    0   16    3     -2.08      0.00
    1   16    3      0.25      0.00
    2   16    3      3.79      0.00
    3   16    3      2.66      0.00
    4   16    3      5.43      0.00
    5   16    3     -1.77      0.00
    6   16    3      0.25      0.00
    7   16    3     -0.18      0.00
    8   16    3      2.55      0.00
    9   16    3     -1.82      0.00
   10   16    3     -1.00      0.00
   11   16    3      1.22      0.00
   12   16    3      0.80      0.00
   -6   17    3      0.75      0.00
   -5   17    3     -0.96      0.00
   -4   17    3     -4.99      0.00
   -3   17    3      5.22      0.00
   -2   17    3      2.19      0.00
   -1   17    3      0.71      0.00
    0   17    3     -3.74      0.00
    1   17    3      4.88      0.00
    2   17    3     -1.06      0.00
    3   17    3      0.16      0.00
    4   17    3      1.06      0.00
    5   17    3     -0.57      0.00
    6   17    3     -0.72      0.00
    7   17    3     -2.04      0.00
    8   17    3     -0.24      0.00
    9   17    3      0.67      0.00
   10   17    3      1.09      0.00
   11   17    3     -1.60      0.00
   -3   18    3     -0.70      0.00
   -2   18    3     -0.82      0.00
   -1   18    3      1.71      0.00
    0   18    3      0.93      0.00
    1   18    3     -2.29      0.00
    2   18    3     -1.37      0.00
    3   18    3      1.66      0.00
    4   18    3     -5.26      0.00
    5   18    3      0.38      0.00
    6   18    3     -0.97      0.00
    7   18    3     -0.47      0.00
    8   18    3     -1.75      0.00
    9   18    3      2.43      0.00
    1   19    3      2.05      0.00
    2   19    3     -1.96      0.00
    3   19    3     -1.71      0.00
    4   19    3      2.32      0.00
   -6  -15    4     -0.40      0.00
   -5  -15    4     -3.24      0.00
   -4  -15    4      2.01      0.00
   -3  -15    4      2.48      0.00
   -2  -15    4     -3.53      0.00
   -1  -15    4     -3.10      0.00
    0  -15    4      1.77      0.00
    1  -15    4     -1.00      0.00
    2  -15    4     -0.46      0.00
    3  -15    4     -0.21      0.00
   -9  -14    4     -1.71      0.00
   -8  -14    4     -0.70      0.00
   -7  -14    4      1.12      0.00
   -6  -14    4      0.83      0.00
   -5  -14    4     -3.85      0.00
   -4  -14    4      0.97      0.00
   -3  -14    4     -1.54      0.00
   -2  -14    4     -1.33      0.00
   -1  -14    4      4.45      0.00
    0  -14    4     -2.08      0.00
    1  -14    4     -1.58      0.00
    2  -14    4      1.92      0.00
    3  -14    4     -1.52      0.00
    4  -14    4     -1.15      0.00
    5  -14    4      1.54      0.00
    6  -14    4     -2.48      0.00
  -10  -13    4      0.54      0.00
   -9  -13    4     -1.08      0.00
   -8  -13    4      0.23      0.00
   -7  -13    4      1.13      0.00
   -6  -13    4     -0.26      0.00
   -5  -13    4      1.89      0.00
   -4  -13    4      4.99      0.00
   -3  -13    4     -2.15      0.00
   -2  -13    4      0.41      0.00
   -1  -13    4      5.49      0.00
    0  -13    4     -0.32      0.00
    1  -13    4      0.18      0.00
    2  -13    4      0.38      0.00
    3  -13    4      0.74      0.00
    4  -13    4      1.50      0.00
    5  -13    4      1.49      0.00
    6  -13    4     -0.47      0.00
    7  -13    4      0.73      0.00
    8  -13    4      0.49      0.00
  -12  -12    4      1.84      0.00
  -11  -12    4     -1.76      0.00
  -10  -12    4      0.11      0.00
   -9  -12    4      1.12      0.00
   -8  -12    4      3.58      0.00
   -7  -12    4      3.43      0.00
   -6  -12    4      3.52      0.00
   -5  -12    4      1.84      0.00
   -4  -12    4     -0.17      0.00
   -3  -12    4      4.38      0.00
   -2  -12    4      5.93      0.00
   -1  -12    4    -11.18      0.00
    0  -12    4     -0.03      0.00
    1  -12    4      5.17      0.00
    2  -12    4     -5.05      0.00
    3  -12    4      2.60      0.00
    4  -12    4     -1.96      0.00
    5  -12    4      1.95      0.00
    6  -12    4      4.06      0.00
    7  -12    4     -3.10      0.00
    8  -12    4     -3.63      0.00
    9  -12    4      4.31      0.00
   10  -12    4     -1.78      0.00
  -13  -11    4     -1.43      0.00
  -12  -11    4      0.41      0.00
  -11  -11    4     -2.05      0.00
  -10  -11    4      0.68      0.00
   -9  -11    4     -1.21      0.00
   -8  -11    4      0.56      0.00
   -7  -11    4      3.04      0.00
   -6  -11    4     -0.33      0.00
   -5  -11    4     -2.37      0.00
   -4  -11    4      0.57      0.00
   -3  -11    4      1.18      0.00
   -2  -11    4     -1.28      0.00
   -1  -11    4    -12.75      0.00
    0  -11    4      6.96      0.00
    1  -11    4     -4.78      0.00
    2  -11    4      0.23      0.00
    3  -11    4      4.70      0.00
    4  -11    4     -2.92      0.00
    5  -11    4     -0.89      0.00
    6  -11    4      1.84      0.00
    7  -11    4     -6.00      0.00
    8  -11    4      1.45      0.00
    9  -11    4      4.01      0.00
   10  -11    4     -0.03      0.00
   11  -11    4      1.50      0.00
  -14  -10    4     -0.78      0.00
  -13  -10    4     -0.85      0.00
  -12  -10    4      3.14      0.00
  -11  -10    4     -3.04      0.00
  -10  -10    4     -2.16      0.00
   -9  -10    4     -0.39      0.00
   -8  -10    4     -1.32      0.00
   -7  -10    4      1.98      0.00
   -6  -10    4      1.45      0.00
   -5  -10    4     -7.33      0.00
   -4  -10    4     -1.65      0.00
   -3  -10    4      3.62      0.00
   -2  -10    4     -5.52      0.00
   -1  -10    4    -12.59      0.00
    0  -10    4     14.97      0.00
    1  -10    4     -3.54      0.00
    2  -10    4      0.53      0.00
    3  -10    4     -3.99      0.00
    4  -10    4      0.65      0.00
    5  -10    4      3.57      0.00
    6  -10    4     -1.45      0.00
    7  -10    4     -3.51      0.00
    8  -10    4      3.45      0.00
    9  -10    4     -0.77      0.00
   10  -10    4      1.30      0.00
   11  -10    4      5.05      0.00
   12  -10    4     -0.30      0.00
  -15   -9    4     -1.11      0.00
  -14   -9    4     -0.93      0.00
  -13   -9    4      6.42      0.00
  -12   -9    4     -0.74      0.00
  -11   -9    4     -4.62      0.00
  -10   -9    4     -1.86      0.00
   -9   -9    4     -1.66      0.00
   -8   -9    4      7.12      0.00
   -7   -9    4     -4.34      0.00
   -6   -9    4      0.00      0.00
   -5   -9    4      9.22      0.00
   -4   -9    4      0.28      0.00
   -3   -9    4      0.13      0.00
   -2   -9    4      2.30      0.00
   -1   -9    4      2.64      0.00
    0   -9    4     -0.81      0.00
    1   -9    4     -7.83      0.00
    2   -9    4      9.18      0.00
    3   -9    4     -3.31      0.00
    4   -9    4     -1.83      0.00
    5   -9    4     -0.05      0.00
    6   -9    4     -1.87      0.00
    7   -9    4      8.54      0.00
    8   -9    4      0.81      0.00
    9   -9    4     -8.24      0.00
   10   -9    4      0.60      0.00
   11   -9    4      2.36      0.00
   12   -9    4      3.51      0.00
   13   -9    4      0.36      0.00
  -15   -8    4      0.40      0.00
  -14   -8    4     -0.20      0.00
  -13   -8    4      0.04      0.00
  -12   -8    4     -3.47      0.00
  -11   -8    4     -0.22      0.00
  -10   -8    4     -2.30      0.00
   -9   -8    4     -3.32      0.00
   -8   -8    4      7.56      0.00
   -7   -8    4      2.56      0.00
   -6   -8    4     -4.74      0.00
   -5   -8    4      1.99      0.00
   -4   -8    4      3.43      0.00
   -3   -8    4      5.65      0.00
   -2   -8    4    -15.44      0.00
   -1   -8    4      7.26      0.00
    0   -8    4     -0.17      0.00
    1   -8    4     -6.81      0.00
    2   -8    4      7.49      0.00
    3   -8    4     -3.60      0.00
    4   -8    4      4.41      0.00
    5   -8    4     -1.56      0.00
    6   -8    4      0.79      0.00
    7   -8    4     -0.16      0.00
    8   -8    4     -2.16      0.00
    9   -8    4     -7.33      0.00
   10   -8    4      0.38      0.00
   11   -8    4     -2.76      0.00
   12   -8    4     -0.75      0.00
   13   -8    4      2.36      0.00
   14   -8    4     -1.95      0.00
  -16   -7    4      0.27      0.00
  -15   -7    4      1.54      0.00
  -14   -7    4     -1.92      0.00
  -13   -7    4      2.26      0.00
  -12   -7    4     -3.18      0.00
  -11   -7    4      2.09      0.00
  -10   -7    4      0.34      0.00
   -9   -7    4      4.60      0.00
   -8   -7    4      3.92      0.00
   -7   -7    4     -1.22      0.00
   -6   -7    4     -3.69      0.00
   -5   -7    4      4.10      0.00
   -4   -7    4     -4.36      0.00
   -3   -7    4      2.81      0.00
   -2   -7    4    -14.32      0.00
   -1   -7    4     -1.53      0.00
    0   -7    4    -12.82      0.00
    1   -7    4      4.21      0.00
    2   -7    4      9.71      0.00
    3   -7    4     -5.21      0.00
    4   -7    4      2.76      0.00
    5   -7    4      0.64      0.00
    6   -7    4      3.64      0.00
    7   -7    4      0.51      0.00
    8   -7    4     -2.75      0.00
    9   -7    4     -3.34      0.00
   10   -7    4      1.69      0.00
   11   -7    4     -3.13      0.00
   13   -7    4     -3.05      0.00
   14   -7    4     -2.24      0.00
   15   -7    4     -0.19      0.00
  -16   -6    4     -0.03      0.00
  -15   -6    4      2.53      0.00
  -14   -6    4     -3.04      0.00
  -13   -6    4     -1.72      0.00
  -12   -6    4      1.46      0.00
  -11   -6    4      1.69      0.00
  -10   -6    4      2.62      0.00
   -9   -6    4     -1.54      0.00
   -8   -6    4     -5.06      0.00
   -7   -6    4      3.89      0.00
   -6   -6    4      5.14      0.00
   -5   -6    4     -8.63      0.00
   -4   -6    4     -6.61      0.00
   -3   -6    4      8.58      0.00
   -2   -6    4     -6.82      0.00
   -1   -6    4      4.13      0.00
    0   -6    4     -1.55      0.00
    1   -6    4      8.16      0.00
    2   -6    4     -2.78      0.00
    3   -6    4      3.08      0.00
    4   -6    4      7.74      0.00
    5   -6    4     -2.60      0.00
    6   -6    4      8.93      0.00
    7   -6    4      1.76      0.00
    8   -6    4      1.71      0.00
    9   -6    4      3.17      0.00
   10   -6    4      3.55      0.00
   11   -6    4      2.58      0.00
   12   -6    4      3.16      0.00
   13   -6    4     -0.72      0.00
   14   -6    4      0.54      0.00
   16   -6    4      0.70      0.00
  -17   -5    4     -1.53      0.00
  -16   -5    4      2.76      0.00
  -15   -5    4     -0.81      0.00
  -14   -5    4     -0.68      0.00
  -13   -5    4     -2.24      0.00
  -12   -5    4      4.06      0.00
  -11   -5    4     -6.14      0.00
  -10   -5    4     -4.37      0.00
   -9   -5    4     10.61      0.00
   -8   -5    4     -3.17      0.00
   -7   -5    4    -15.18      0.00
   -6   -5    4     14.49      0.00
   -5   -5    4      5.74      0.00
   -4   -5    4      4.29      0.00
   -3   -5    4    -11.28      0.00
   -2   -5    4     -3.19      0.00
   -1   -5    4      5.96      0.00
    0   -5    4      6.44      0.00
    1   -5    4     -3.80      0.00
    2   -5    4     11.32      0.00
    3   -5    4     -2.22      0.00
    4   -5    4      0.19      0.00
    5   -5    4      4.37      0.00
    6   -5    4     -0.78      0.00
    7   -5    4      2.25      0.00
    8   -5    4      4.40      0.00
    9   -5    4     -3.25      0.00
   10   -5    4     -4.60      0.00
   11   -5    4     12.36      0.00
   12   -5    4     -7.63      0.00
   13   -5    4     -2.81      0.00
   14   -5    4      3.58      0.00
   16   -5    4      5.37      0.00
  -17   -4    4      0.66      0.00
  -16   -4    4      1.49      0.00
  -15   -4    4      5.16      0.00
  -14   -4    4     -2.69      0.00
  -13   -4    4     -3.25      0.00
  -12   -4    4      1.16      0.00
  -11   -4    4      0.51      0.00
  -10   -4    4     -2.21      0.00
   -9   -4    4     -0.54      0.00
   -7   -4    4      2.78      0.00
   -6   -4    4     16.79      0.00
   -5   -4    4     -4.84      0.00
   -4   -4    4      5.34      0.00
   -3   -4    4    -14.97      0.00
   -2   -4    4     10.89      0.00
   -1   -4    4     -2.63      0.00
    0   -4    4    -12.17      0.00
    1   -4    4    -23.27      0.00
    2   -4    4      2.15      0.00
    3   -4    4      0.27      0.00
    4   -4    4    -17.00      0.00
    5   -4    4     15.81      0.00
    6   -4    4     -2.90      0.00
    7   -4    4      2.03      0.00
    8   -4    4     -5.90      0.00
    9   -4    4     -0.83      0.00
   10   -4    4    -11.62      0.00
   11   -4    4      5.76      0.00
   12   -4    4     -9.83      0.00
   13   -4    4     -1.95      0.00
   14   -4    4      0.54      0.00
   15   -4    4      2.66      0.00
   16   -4    4      1.04      0.00
   17   -4    4     -3.49      0.00
  -17   -3    4      0.79      0.00
  -16   -3    4     -2.79      0.00
  -15   -3    4      1.47      0.00
  -14   -3    4      1.59      0.00
  -13   -3    4     -1.64      0.00
  -12   -3    4     -7.90      0.00
  -11   -3    4      9.01      0.00
  -10   -3    4      6.69      0.00
   -9   -3    4      1.80      0.00
   -8   -3    4     -0.71      0.00
   -7   -3    4      2.23      0.00
   -5   -3    4     15.95      0.00
   -4   -3    4     -8.30      0.00
   -3   -3    4    -27.55      0.00
   -2   -3    4     13.92      0.00
   -1   -3    4      8.50      0.00
    0   -3    4    -26.73      0.00
    1   -3    4      0.28      0.00
    2   -3    4      2.73      0.00
    3   -3    4     -8.61      0.00
    4   -3    4     -0.87      0.00
    5   -3    4      9.40      0.00
    6   -3    4     -4.98      0.00
    7   -3    4     -4.17      0.00
    8   -3    4     -8.76      0.00
    9   -3    4     -4.36      0.00
   10   -3    4     -6.55      0.00
   11   -3    4     -0.35      0.00
   12   -3    4     -7.48      0.00
   13   -3    4      3.84      0.00
   14   -3    4      3.66      0.00
   15   -3    4      5.37      0.00
   16   -3    4     -0.76      0.00
   17   -3    4     -3.31      0.00
  -17   -2    4      0.93      0.00
  -16   -2    4     -6.61      0.00
  -15   -2    4     -0.32      0.00
  -14   -2    4     -1.51      0.00
  -13   -2    4     -5.91      0.00
  -12   -2    4     -6.88      0.00
  -11   -2    4     10.57      0.00
   -9   -2    4      5.41      0.00
   -8   -2    4     -4.31      0.00
   -7   -2    4      5.74      0.00
   -6   -2    4    -16.08      0.00
   -5   -2    4      5.34      0.00
   -4   -2    4    -23.48      0.00
   -3   -2    4    -14.52      0.00
   -2   -2    4     11.87      0.00
   -1   -2    4    -12.06      0.00
    0   -2    4     -2.17      0.00
    1   -2    4     -1.27      0.00
    2   -2    4      2.89      0.00
    3   -2    4     25.04      0.00
    4   -2    4     30.92      0.00
    5   -2    4     -6.41      0.00
    6   -2    4     -2.36      0.00
    7   -2    4     -1.12      0.00
    8   -2    4     -9.20      0.00
    9   -2    4     -4.02      0.00
   10   -2    4      5.54      0.00
   11   -2    4    -14.45      0.00
   12   -2    4      7.06      0.00
   13   -2    4      0.63      0.00
   14   -2    4     -0.06      0.00
   15   -2    4      5.28      0.00
   16   -2    4     -1.36      0.00
   17   -2    4      0.40      0.00
   18   -2    4     -5.94      0.00
  -17   -1    4      3.82      0.00
  -16   -1    4      1.10      0.00
  -15   -1    4     -4.91      0.00
  -14   -1    4      4.77      0.00
  -13   -1    4     -1.16      0.00
  -12   -1    4     -0.84      0.00
  -11   -1    4     13.52      0.00
  -10   -1    4     -1.90      0.00
   -9   -1    4     -3.53      0.00
   -7   -1    4      3.65      0.00
   -6   -1    4     -0.91      0.00
   -5   -1    4     -4.84      0.00
   -4   -1    4     13.84      0.00
   -3   -1    4      5.00      0.00
   -2   -1    4    -23.22      0.00
   -1   -1    4     16.07      0.00
    0   -1    4     36.05      0.00
    1   -1    4     -1.87      0.00
    2   -1    4     19.55      0.00
    3   -1    4    -24.47      0.00
    4   -1    4     35.45      0.00
    5   -1    4      8.14      0.00
    6   -1    4     -6.92      0.00
    7   -1    4     -5.64      0.00
    8   -1    4     12.37      0.00
    9   -1    4     -3.98      0.00
   10   -1    4     -3.88      0.00
   11   -1    4     -2.66      0.00
   12   -1    4      9.97      0.00
   13   -1    4      0.22      0.00
   14   -1    4     -2.93      0.00
   15   -1    4      2.72      0.00
   16   -1    4     -1.43      0.00
   17   -1    4      6.63      0.00
   18   -1    4     -1.63      0.00
  -17    0    4     -5.21      0.00
  -16    0    4      6.67      0.00
  -15    0    4     -2.95      0.00
  -14    0    4     -3.79      0.00
  -13    0    4      1.93      0.00
  -12    0    4      6.53      0.00
  -11    0    4      0.85      0.00
   -9    0    4      1.29      0.00
   -8    0    4      7.66      0.00
   -7    0    4     -0.73      0.00
   -6    0    4     15.76      0.00
   -5    0    4    -13.97      0.00
   -4    0    4      4.65      0.00
   -3    0    4     26.89      0.00
   -2    0    4    -29.48      0.00
   -1    0    4     34.77      0.00
    0    0    4     22.77      0.00
    1    0    4    -51.10      0.00
    2    0    4     50.68      0.00
    4    0    4     11.84      0.00
    5    0    4    -20.93      0.00
    6    0    4     -7.27      0.00
    7    0    4      3.10      0.00
    8    0    4      2.57      0.00
    9    0    4      0.32      0.00
   10    0    4     -2.77      0.00
   11    0    4     -1.34      0.00
   12    0    4      1.21      0.00
   13    0    4      8.12      0.00
   14    0    4     -3.42      0.00
   15    0    4      1.59      0.00
   16    0    4     -1.80      0.00
   17    0    4      2.55      0.00
   18    0    4     -1.01      0.00
  -17    1    4      0.37      0.00
  -16    1    4      0.83      0.00
  -15    1    4     -7.77      0.00
  -14    1    4     -0.85      0.00
  -13    1    4      4.99      0.00
  -12    1    4     -3.45      0.00
  -11    1    4     -0.90      0.00
   -9    1    4      1.50      0.00
   -8    1    4      4.89      0.00
   -7    1    4     -9.54      0.00
   -6    1    4      6.02      0.00
   -5    1    4     -0.59      0.00
   -4    1    4     -5.49      0.00
   -3    1    4    -26.48      0.00
   -2    1    4    -22.73      0.00
   -1    1    4      0.00      0.00
    0    1    4    -54.06      0.00
    1    1    4     43.68      0.00
    2    1    4    -49.02      0.00
    3    1    4    -25.45      0.00
    4    1    4     51.34      0.00
    5    1    4     19.78      0.00
    6    1    4    -38.19      0.00
    7    1    4      2.54      0.00
    8    1    4      2.93      0.00
    9    1    4    -15.19      0.00
   10    1    4      2.06      0.00
   11    1    4      4.19      0.00
   12    1    4     -9.81      0.00
   13    1    4      9.96      0.00
   14    1    4      1.79      0.00
   15    1    4     -3.57      0.00
   16    1    4      5.80      0.00
   17    1    4     -2.63      0.00
   18    1    4     -0.78      0.00
  -17    2    4      1.31      0.00
  -16    2    4      3.66      0.00
  -15    2    4     -5.67      0.00
  -14    2    4     -2.12      0.00
  -13    2    4      7.91      0.00
  -12    2    4     -0.35      0.00
  -11    2    4     -7.10      0.00
  -10    2    4      7.47      0.00
   -9    2    4      7.40      0.00
   -8    2    4      4.28      0.00
   -7    2    4    -12.39      0.00
   -6    2    4     -9.16      0.00
   -5    2    4      5.15      0.00
   -4    2    4     -1.99      0.00
   -3    2    4    -21.84      0.00
   -2    2    4      2.19      0.00
   -1    2    4      4.72      0.00
    0    2    4    -65.14      0.00
    1    2    4     12.23      0.00
    2    2    4     21.56      0.00
    3    2    4     45.70      0.00
    4    2    4    -56.01      0.00
    5    2    4     15.30      0.00
    6    2    4     17.37      0.00
    7    2    4    -11.38      0.00
    8    2    4     -8.14      0.00
    9    2    4      4.11      0.00
   10    2    4     -1.57      0.00
   11    2    4     -1.74      0.00
   12    2    4      4.70      0.00
   13    2    4      0.19      0.00
   14    2    4      2.99      0.00
   15    2    4     -6.45      0.00
   16    2    4      7.19      0.00
   17    2    4     -3.38      0.00
   18    2    4      0.36      0.00
   19    2    4      4.06      0.00
  -17    3    4     -0.67      0.00
  -16    3    4     -7.82      0.00
  -15    3    4      3.07      0.00
  -14    3    4      0.98      0.00
  -13    3    4     -4.82      0.00
  -12    3    4     11.42      0.00
  -11    3    4     -3.33      0.00
  -10    3    4     -5.12      0.00
   -8    3    4     -4.42      0.00
   -7    3    4      9.00      0.00
   -6    3    4     -3.23      0.00
   -5    3    4    -11.11      0.00
   -4    3    4     29.02      0.00
   -3    3    4     -2.47      0.00
   -2    3    4     12.44      0.00
   -1    3    4    -67.97      0.00
    0    3    4     44.29      0.00
    1    3    4     32.33      0.00
    2    3    4    -61.31      0.00
    3    3    4     36.54      0.00
    4    3    4     41.14      0.00
    5    3    4    -19.96      0.00
    6    3    4     -9.58      0.00
    7    3    4     -7.50      0.00
    8    3    4     -8.43      0.00
    9    3    4      6.49      0.00
   10    3    4     -0.39      0.00
   12    3    4      2.71      0.00
   13    3    4      4.37      0.00
   14    3    4      1.50      0.00
   15    3    4     -4.42      0.00
   16    3    4      0.05      0.00
   17    3    4      2.53      0.00
   18    3    4     -2.99      0.00
   19    3    4      2.20      0.00
  -17    4    4     -1.60      0.00
  -16    4    4     -3.55      0.00
  -15    4    4      3.64      0.00
  -14    4    4     -5.03      0.00
  -13    4    4     -6.35      0.00
  -12    4    4      8.98      0.00
  -11    4    4     -8.51      0.00
  -10    4    4     -4.72      0.00
   -8    4    4      2.05      0.00
   -7    4    4     10.71      0.00
   -6    4    4      6.97      0.00
   -5    4    4    -18.64      0.00
   -4    4    4     23.70      0.00
   -3    4    4     -2.75      0.00
   -2    4    4     -7.98      0.00
   -1    4    4    -49.33      0.00
    0    4    4     23.98      0.00
    1    4    4      6.29      0.00
    2    4    4     37.00      0.00
    3    4    4    -22.55      0.00
    4    4    4     -5.21      0.00
    5    4    4      2.98      0.00
    6    4    4     -3.53      0.00
    7    4    4    -12.17      0.00
    8    4    4     -5.01      0.00
    9    4    4      2.31      0.00
   10    4    4     -7.23      0.00
   12    4    4     -0.99      0.00
   13    4    4      0.67      0.00
   14    4    4     -6.70      0.00
   15    4    4     11.27      0.00
   16    4    4     -5.36      0.00
   17    4    4      5.17      0.00
   18    4    4     -1.80      0.00
   19    4    4     -2.36      0.00
  -16    5    4     -0.43      0.00
  -15    5    4     -1.74      0.00
  -14    5    4      4.73      0.00
  -13    5    4     -4.03      0.00
  -12    5    4      8.63      0.00
  -11    5    4     -1.13      0.00
  -10    5    4     -7.92      0.00
   -9    5    4     10.77      0.00
   -8    5    4      3.56      0.00
   -7    5    4     -4.93      0.00
   -6    5    4      1.33      0.00
   -5    5    4     -4.14      0.00
   -4    5    4     12.88      0.00
   -3    5    4    -14.71      0.00
   -2    5    4    -15.78      0.00
    0    5    4     37.50      0.00
    1    5    4     19.23      0.00
    2    5    4     -2.71      0.00
    3    5    4     15.97      0.00
    4    5    4     16.55      0.00
    5    5    4    -14.14      0.00
    6    5    4    -10.00      0.00
    7    5    4      9.10      0.00
    8    5    4     -7.54      0.00
    9    5    4      0.72      0.00
   10    5    4      4.77      0.00
   11    5    4      3.13      0.00
   12    5    4     -4.95      0.00
   13    5    4     11.85      0.00
   14    5    4     -9.51      0.00
   15    5    4     10.90      0.00
   16    5    4     -4.96      0.00
   17    5    4      2.72      0.00
   18    5    4      0.11      0.00
   19    5    4     -0.70      0.00
  -16    6    4      0.49      0.00
  -15    6    4     -2.78      0.00
  -14    6    4     -1.61      0.00
  -13    6    4      9.13      0.00
  -12    6    4     -4.82      0.00
  -11    6    4      7.02      0.00
  -10    6    4     -9.37      0.00
   -9    6    4      8.71      0.00
   -8    6    4     14.71      0.00
   -6    6    4     -6.93      0.00
   -5    6    4      2.19      0.00
   -4    6    4    -10.29      0.00
   -3    6    4      0.18      0.00
   -2    6    4     -6.62      0.00
   -1    6    4     -1.28      0.00
    0    6    4     20.32      0.00
    1    6    4     17.26      0.00
    2    6    4     12.13      0.00
    3    6    4     -4.23      0.00
    4    6    4     -8.80      0.00
    5    6    4     12.41      0.00
    6    6    4     -6.49      0.00
    7    6    4      1.84      0.00
    8    6    4     -2.17      0.00
    9    6    4     -6.73      0.00
   10    6    4      8.26      0.00
   11    6    4     11.26      0.00
   12    6    4      0.16      0.00
   13    6    4      8.09      0.00
   14    6    4      1.93      0.00
   15    6    4      3.85      0.00
   16    6    4     -0.55      0.00
   17    6    4     -0.97      0.00
   18    6    4      2.36      0.00
   19    6    4     -0.61      0.00
  -16    7    4     -0.19      0.00
  -15    7    4     -2.77      0.00
  -13    7    4      3.09      0.00
  -12    7    4     -1.57      0.00
  -11    7    4      8.37      0.00
  -10    7    4     -4.26      0.00
   -9    7    4     -1.03      0.00
   -8    7    4      0.61      0.00
   -7    7    4     -3.97      0.00
   -6    7    4     -7.40      0.00
   -5    7    4      9.72      0.00
   -4    7    4    -10.00      0.00
   -3    7    4     -3.43      0.00
   -2    7    4      6.34      0.00
   -1    7    4    -13.79      0.00
    0    7    4      9.88      0.00
    1    7    4      2.84      0.00
    2    7    4      0.34      0.00
    3    7    4    -18.33      0.00
    4    7    4      3.64      0.00
    5    7    4     -8.15      0.00
    6    7    4     -0.65      0.00
    7    7    4     -7.50      0.00
    8    7    4     -3.47      0.00
   10    7    4     14.79      0.00
   11    7    4     -6.98      0.00
   12    7    4      2.18      0.00
   13    7    4     -3.05      0.00
   14    7    4      4.52      0.00
   15    7    4     -4.24      0.00
   16    7    4      4.14      0.00
   17    7    4     -4.55      0.00
   18    7    4      0.12      0.00
  -15    8    4      1.71      0.00
  -13    8    4     -4.72      0.00
  -12    8    4     -0.21      0.00
  -11    8    4      1.25      0.00
  -10    8    4      8.41      0.00
   -9    8    4     -2.22      0.00
   -8    8    4      2.33      0.00
   -7    8    4     -1.00      0.00
   -6    8    4     -3.70      0.00
   -5    8    4      7.88      0.00
   -4    8    4    -10.48      0.00
   -3    8    4     -6.46      0.00
   -2    8    4      1.92      0.00
   -1    8    4      6.48      0.00
    0    8    4      2.45      0.00
    1    8    4     10.06      0.00
    2    8    4     -7.60      0.00
    3    8    4     -5.00      0.00
    4    8    4      3.08      0.00
    5    8    4     -7.19      0.00
    6    8    4      7.04      0.00
    7    8    4    -11.92      0.00
    8    8    4     -1.86      0.00
    9    8    4      6.37      0.00
   11    8    4     -8.75      0.00
   12    8    4      0.95      0.00
   13    8    4     -7.98      0.00
   14    8    4     -2.28      0.00
   15    8    4     -1.13      0.00
   16    8    4     -2.62      0.00
   17    8    4      2.12      0.00
   18    8    4     -4.86      0.00
  -15    9    4     -0.31      0.00
  -13    9    4     -6.02      0.00
  -12    9    4      2.82      0.00
  -11    9    4     -4.65      0.00
  -10    9    4      3.36      0.00
   -9    9    4      1.17      0.00
   -8    9    4      0.87      0.00
   -7    9    4     -7.49      0.00
   -6    9    4      7.31      0.00
   -5    9    4     -2.25      0.00
   -4    9    4     -4.05      0.00
   -2    9    4    -14.38      0.00
   -1    9    4     16.26      0.00
    0    9    4     -3.36      0.00
    1    9    4      6.24      0.00
    2    9    4     -2.76      0.00
    3    9    4     11.46      0.00
    4    9    4     -8.64      0.00
    5    9    4     -9.57      0.00
    6    9    4      7.57      0.00
    7    9    4      0.27      0.00
   10    9    4      1.68      0.00
   11    9    4     -1.32      0.00
   12    9    4     -4.73      0.00
   13    9    4     -1.40      0.00
   14    9    4      4.02      0.00
   15    9    4      4.03      0.00
   16    9    4     -3.18      0.00
   17    9    4      2.93      0.00
   18    9    4     -0.99      0.00
  -14   10    4      3.42      0.00
  -13   10    4     -1.99      0.00
  -12   10    4      6.54      0.00
  -11   10    4     -4.83      0.00
  -10   10    4      3.75      0.00
   -9   10    4     -2.69      0.00
   -8   10    4      4.39      0.00
   -7   10    4     -5.98      0.00
   -6   10    4      6.98      0.00
   -5   10    4     -6.92      0.00
   -4   10    4     -5.54      0.00
   -3   10    4     -5.07      0.00
   -2   10    4      1.30      0.00
   -1   10    4     23.98      0.00
    0   10    4      0.56      0.00
    1   10    4     -8.51      0.00
    2   10    4      4.87      0.00
    3   10    4      8.61      0.00
    4   10    4    -13.01      0.00
    5   10    4      0.86      0.00
    6   10    4      0.01      0.00
    7   10    4      1.54      0.00
    8   10    4      5.05      0.00
    9   10    4      0.71      0.00
   10   10    4     -8.50      0.00
   11   10    4      5.51      0.00
   12   10    4      2.95      0.00
   13   10    4     -1.73      0.00
   14   10    4      2.26      0.00
   15   10    4      1.70      0.00
   16   10    4     -3.49      0.00
   17   10    4     -0.21      0.00
   18   10    4     -0.05      0.00
  -13   11    4     -2.06      0.00
  -12   11    4      4.49      0.00
  -11   11    4      0.84      0.00
  -10   11    4     -0.15      0.00
   -9   11    4      1.86      0.00
   -8   11    4     -4.08      0.00
   -7   11    4      1.01      0.00
   -6   11    4      0.62      0.00
   -5   11    4     -4.50      0.00
   -4   11    4      1.92      0.00
   -3   11    4     -8.21      0.00
   -2   11    4      8.33      0.00
   -1   11    4     14.36      0.00
    0   11    4      3.40      0.00
    1   11    4     -1.49      0.00
    3   11    4     -4.92      0.00
    5   11    4      6.63      0.00
    6   11    4      4.98      0.00
    7   11    4     16.47      0.00
    8   11    4    -12.34      0.00
    9   11    4      1.28      0.00
   10   11    4      7.50      0.00
   11   11    4      1.79      0.00
   12   11    4     -3.19      0.00
   13   11    4      8.14      0.00
   14   11    4     -2.93      0.00
   15   11    4     -3.24      0.00
   16   11    4     -0.21      0.00
   17   11    4     -1.23      0.00
  -13   12    4     -3.46      0.00
  -12   12    4     -3.55      0.00
  -11   12    4      4.91      0.00
  -10   12    4      3.97      0.00
   -9   12    4     -1.30      0.00
   -8   12    4     -0.53      0.00
   -7   12    4      4.87      0.00
   -6   12    4     -3.11      0.00
   -5   12    4     -2.49      0.00
   -4   12    4     -7.18      0.00
   -3   12    4     -2.54      0.00
   -2   12    4     12.74      0.00
   -1   12    4     -8.55      0.00
    0   12    4      3.65      0.00
    1   12    4    -14.91      0.00
    2   12    4      2.26      0.00
    3   12    4      1.96      0.00
    4   12    4     -1.71      0.00
    5   12    4      1.83      0.00
    6   12    4     -1.09      0.00
    7   12    4     -0.67      0.00
    8   12    4      1.25      0.00
    9   12    4     -2.89      0.00
   10   12    4     -4.63      0.00
   11   12    4      3.56      0.00
   12   12    4      1.87      0.00
   13   12    4     -2.10      0.00
   14   12    4     -0.51      0.00
   15   12    4      0.74      0.00
   16   12    4      0.72      0.00
  -12   13    4     -2.39      0.00
   -9   13    4     -1.42      0.00
   -8   13    4      0.09      0.00
   -7   13    4     -3.90      0.00
   -6   13    4      2.46      0.00
   -5   13    4      0.57      0.00
   -4   13    4     -9.99      0.00
   -3   13    4      6.60      0.00
   -2   13    4      6.54      0.00
   -1   13    4    -12.47      0.00
    0   13    4      6.38      0.00
    1   13    4    -11.25      0.00
    2   13    4     -1.96      0.00
    3   13    4      1.07      0.00
    4   13    4     -1.11      0.00
    5   13    4     -6.83      0.00
    6   13    4      3.79      0.00
    7   13    4     -5.09      0.00
    8   13    4     -6.15      0.00
    9   13    4      5.51      0.00
   10   13    4      2.50      0.00
   11   13    4     -3.51      0.00
   12   13    4      5.74      0.00
   13   13    4      0.71      0.00
   14   13    4     -4.29      0.00
   15   13    4      2.11      0.00
   16   13    4     -0.78      0.00
  -11   14    4      2.22      0.00
  -10   14    4     -0.98      0.00
   -9   14    4     -0.18      0.00
   -8   14    4     -0.39      0.00
   -7   14    4     -1.86      0.00
   -6   14    4     -6.38      0.00
   -5   14    4      0.41      0.00
   -4   14    4     -1.16      0.00
   -3   14    4      8.63      0.00
   -2   14    4     -1.80      0.00
   -1   14    4      1.75      0.00
    0   14    4      2.57      0.00
    1   14    4     -4.21      0.00
    2   14    4      3.84      0.00
    3   14    4      0.84      0.00
    4   14    4     -1.00      0.00
    5   14    4     -4.78      0.00
    6   14    4     -0.45      0.00
    7   14    4      3.30      0.00
    8   14    4      4.52      0.00
    9   14    4     -3.13      0.00
   10   14    4      1.05      0.00
   11   14    4     -0.81      0.00
   12   14    4     -1.23      0.00
   13   14    4      4.53      0.00
   14   14    4     -0.72      0.00
   15   14    4     -0.33      0.00
   -9   15    4      2.90      0.00
   -8   15    4     -3.05      0.00
   -7   15    4      0.95      0.00
   -6   15    4     -0.09      0.00
   -5   15    4     -3.42      0.00
   -4   15    4      1.22      0.00
   -3   15    4      5.81      0.00
   -2   15    4     -2.82      0.00
   -1   15    4      4.86      0.00
    0   15    4     -6.28      0.00
    1   15    4      4.37      0.00
    2   15    4     -0.21      0.00
    3   15    4     -6.67      0.00
    4   15    4      2.96      0.00
    5   15    4     -4.08      0.00
    6   15    4      1.27      0.00
    7   15    4      1.54      0.00
    8   15    4      1.11      0.00
    9   15    4     -1.61      0.00
   10   15    4      0.06      0.00
   11   15    4     -0.40      0.00
   12   15    4     -0.66      0.00
   13   15    4     -0.67      0.00
   14   15    4      1.68      0.00
   -8   16    4     -0.99      0.00
   -7   16    4     -1.64      0.00
   -6   16    4      0.17      0.00
   -5   16    4      4.60      0.00
   -4   16    4      0.51      0.00
   -3   16    4     -2.06      0.00
   -2   16    4     -1.74      0.00
   -1   16    4      1.86      0.00
    0   16    4     -5.79      0.00
    1   16    4      4.66      0.00
    2   16    4      0.27      0.00
    3   16    4     -2.66      0.00
    4   16    4      0.28      0.00
    5   16    4      0.23      0.00
    6   16    4      0.36      0.00
    7   16    4      3.63      0.00
    8   16    4     -0.90      0.00
    9   16    4     -2.07      0.00
   10   16    4      1.36      0.00
   11   16    4     -0.71      0.00
   12   16    4      2.17      0.00
   13   16    4      1.19      0.00
   -6   17    4      0.88      0.00
   -5   17    4     -1.24      0.00
   -4   17    4      0.52      0.00
   -3   17    4      5.94      0.00
   -2   17    4     -2.19      0.00
   -1   17    4     -1.47      0.00
    0   17    4      2.04      0.00
    1   17    4      3.95      0.00
    2   17    4     -2.22      0.00
    3   17    4      3.56      0.00
    4   17    4      0.56      0.00
    5   17    4      1.56      0.00
    6   17    4      2.43      0.00
    7   17    4      0.71      0.00
    8   17    4     -1.18      0.00
    9   17    4     -0.04      0.00
   10   17    4      1.69      0.00
   11   17    4      0.79      0.00
   -4   18    4      0.46      0.00
   -3   18    4     -1.35      0.00
   -2   18    4      3.34      0.00
   -1   18    4     -0.13      0.00
    0   18    4     -0.24      0.00
    1   18    4     -0.08      0.00
    2   18    4      0.16      0.00
    3   18    4      1.04      0.00
    4   18    4     -2.19      0.00
    5   18    4      1.87      0.00
    6   18    4     -2.11      0.00
    7   18    4     -4.16      0.00
    8   18    4      2.40      0.00
    9   18    4      0.64      0.00
   -1   19    4      0.14      0.00
    0   19    4     -0.47      0.00
    1   19    4      0.54      0.00
    2   19    4      0.57      0.00
    3   19    4     -1.31      0.00
    4   19    4     -1.02      0.00
    5   19    4      0.19      0.00
    6   19    4      0.34      0.00
   -3  -15    5     -0.81      0.00
   -2  -15    5     -0.80      0.00
   -1  -15    5     -0.80      0.00
    0  -15    5      1.84      0.00
    1  -15    5     -2.38      0.00
   -7  -14    5     -1.50      0.00
   -6  -14    5     -0.49      0.00
   -5  -14    5     -2.36      0.00
   -4  -14    5      0.49      0.00
   -3  -14    5     -2.45      0.00
   -2  -14    5     -3.50      0.00
   -1  -14    5      2.44      0.00
    0  -14    5     -1.20      0.00
    1  -14    5     -1.28      0.00
    2  -14    5     -0.61      0.00
    3  -14    5     -1.84      0.00
    4  -14    5      3.54      0.00
    5  -14    5     -0.13      0.00
   -9  -13    5      0.58      0.00
   -8  -13    5     -1.51      0.00
   -7  -13    5     -1.59      0.00
   -6  -13    5     -3.76      0.00
   -5  -13    5      4.13      0.00
   -4  -13    5     -2.11      0.00
   -3  -13    5     -4.56      0.00
   -2  -13    5      2.52      0.00
   -1  -13    5      2.04      0.00
    0  -13    5     -3.99      0.00
    1  -13    5      4.00      0.00
    2  -13    5     -0.83      0.00
    3  -13    5     -0.97      0.00
    4  -13    5      0.97      0.00
    5  -13    5     -0.91      0.00
    6  -13    5      0.43      0.00
    7  -13    5      0.88      0.00
  -11  -12    5     -0.14      0.00
  -10  -12    5     -0.55      0.00
   -9  -12    5      2.86      0.00
   -8  -12    5     -0.42      0.00
   -7  -12    5      0.35      0.00
   -6  -12    5     -1.73      0.00
   -5  -12    5     -0.71      0.00
   -4  -12    5      1.75      0.00
   -3  -12    5     -1.55      0.00
   -2  -12    5      4.28      0.00
   -1  -12    5     -2.78      0.00
    0  -12    5      4.22      0.00
    1  -12    5      3.46      0.00
    2  -12    5     -4.26      0.00
    3  -12    5      1.91      0.00
    4  -12    5      0.24      0.00
    5  -12    5     -1.33      0.00
    6  -12    5      2.85      0.00
    7  -12    5      3.27      0.00
    8  -12    5     -0.80      0.00
    9  -12    5      0.51      0.00
  -12  -11    5      0.79      0.00
  -11  -11    5      2.12      0.00
  -10  -11    5     -0.43      0.00
   -9  -11    5      1.72      0.00
   -8  -11    5      0.65      0.00
   -7  -11    5     -0.29      0.00
   -6  -11    5      0.46      0.00
   -5  -11    5     -0.54      0.00
   -4  -11    5      0.81      0.00
   -3  -11    5     -0.60      0.00
   -2  -11    5      0.88      0.00
   -1  -11    5     -4.60      0.00
    0  -11    5      0.07      0.00
    1  -11    5     -0.01      0.00
    2  -11    5      1.40      0.00
    3  -11    5     -1.04      0.00
    4  -11    5     -2.32      0.00
    5  -11    5      1.33      0.00
    6  -11    5      0.29      0.00
    7  -11    5     -1.87      0.00
    8  -11    5      4.81      0.00
    9  -11    5     -1.10      0.00
   10  -11    5     -2.46      0.00
  -13  -10    5     -1.49      0.00
  -12  -10    5      0.01      0.00
  -11  -10    5     -1.12      0.00
  -10  -10    5     -0.02      0.00
   -9  -10    5      0.74      0.00
   -8  -10    5     -0.48      0.00
   -7  -10    5      1.32      0.00
   -6  -10    5     -7.50      0.00
   -5  -10    5     -4.50      0.00
   -4  -10    5      6.66      0.00
   -3  -10    5     -4.72      0.00
   -2  -10    5     -8.84      0.00
   -1  -10    5      9.68      0.00
    0  -10    5      7.60      0.00
    1  -10    5     -8.80      0.00
    2  -10    5     -0.46      0.00
    3  -10    5      2.07      0.00
    4  -10    5      0.47      0.00
    5  -10    5      2.91      0.00
    6  -10    5     -1.78      0.00
    7  -10    5     -5.25      0.00
    8  -10    5      4.86      0.00
    9  -10    5      0.70      0.00
   10  -10    5      1.13      0.00
   11  -10    5      2.64      0.00
   12  -10    5     -1.42      0.00
  -14   -9    5      0.47      0.00
  -13   -9    5      2.24      0.00
  -12   -9    5     -2.47      0.00
  -11   -9    5      0.53      0.00
  -10   -9    5      1.92      0.00
   -9   -9    5      1.08      0.00
   -8   -9    5     -2.86      0.00
   -7   -9    5     -0.97      0.00
   -6   -9    5     -1.02      0.00
   -5   -9    5      1.90      0.00
   -4   -9    5     -5.38      0.00
   -3   -9    5      6.07      0.00
   -2   -9    5     -2.82      0.00
   -1   -9    5     -1.05      0.00
    0   -9    5      9.11      0.00
    1   -9    5      4.52      0.00
    2   -9    5     -4.38      0.00
    3   -9    5      0.12      0.00
    4   -9    5     -0.72      0.00
    5   -9    5     -1.63      0.00
    6   -9    5      3.51      0.00
    7   -9    5      2.93      0.00
    8   -9    5     -4.05      0.00
    9   -9    5      0.63      0.00
   10   -9    5      4.85      0.00
   11   -9    5     -1.18      0.00
   12   -9    5      1.13      0.00
   13   -9    5     -1.15      0.00
  -15   -8    5     -1.58      0.00
  -14   -8    5      1.75      0.00
  -13   -8    5     -1.78      0.00
  -12   -8    5     -0.01      0.00
  -11   -8    5      0.46      0.00
  -10   -8    5     -1.55      0.00
   -9   -8    5      0.97      0.00
   -8   -8    5     -1.02      0.00
   -7   -8    5      1.39      0.00
   -6   -8    5     -2.94      0.00
   -5   -8    5     10.45      0.00
   -4   -8    5     -6.28      0.00
   -3   -8    5      2.80      0.00
   -2   -8    5      8.17      0.00
   -1   -8    5      6.87      0.00
    0   -8    5     -5.20      0.00
    1   -8    5      5.20      0.00
    2   -8    5     -1.87      0.00
    3   -8    5     -1.28      0.00
    4   -8    5      1.64      0.00
    5   -8    5     -2.39      0.00
    6   -8    5      1.25      0.00
    7   -8    5     -2.33      0.00
    8   -8    5     -0.80      0.00
    9   -8    5      0.00      0.00
   10   -8    5      3.85      0.00
   11   -8    5     -4.82      0.00
   12   -8    5      3.46      0.00
   13   -8    5      0.86      0.00
   14   -8    5      2.73      0.00
  -15   -7    5     -0.17      0.00
  -14   -7    5      2.15      0.00
  -13   -7    5     -5.19      0.00
  -12   -7    5     -2.22      0.00
  -11   -7    5      1.21      0.00
  -10   -7    5      0.49      0.00
   -9   -7    5      5.55      0.00
   -8   -7    5     -3.42      0.00
   -7   -7    5     -6.05      0.00
   -6   -7    5      1.99      0.00
   -5   -7    5      3.90      0.00
   -4   -7    5     -7.07      0.00
   -3   -7    5     -4.87      0.00
   -2   -7    5      5.71      0.00
   -1   -7    5      1.01      0.00
    0   -7    5      0.98      0.00
    1   -7    5      9.07      0.00
    2   -7    5     -8.45      0.00
    3   -7    5     -1.92      0.00
    4   -7    5      4.55      0.00
    5   -7    5     -2.76      0.00
    6   -7    5     -1.53      0.00
    7   -7    5     -0.72      0.00
    8   -7    5    -11.04      0.00
    9   -7    5      7.18      0.00
   10   -7    5      1.12      0.00
   11   -7    5     -8.41      0.00
   12   -7    5     -1.81      0.00
   13   -7    5     -0.64      0.00
   14   -7    5      2.50      0.00
   15   -7    5     -0.61      0.00
  -16   -6    5     -0.54      0.00
  -15   -6    5      0.21      0.00
  -14   -6    5     -1.20      0.00
  -13   -6    5     -1.96      0.00
  -12   -6    5      2.66      0.00
  -11   -6    5      8.60      0.00
  -10   -6    5     -0.63      0.00
   -9   -6    5     -7.18      0.00
   -8   -6    5      8.05      0.00
   -7   -6    5     -0.13      0.00
   -6   -6    5     -4.04      0.00
   -5   -6    5    -15.23      0.00
   -4   -6    5      0.64      0.00
   -3   -6    5      3.74      0.00
   -2   -6    5     -1.97      0.00
   -1   -6    5     -6.51      0.00
    0   -6    5      3.98      0.00
    1   -6    5      6.55      0.00
    2   -6    5    -13.67      0.00
    3   -6    5      5.24      0.00
    4   -6    5      4.47      0.00
    5   -6    5      3.54      0.00
    6   -6    5     -4.38      0.00
    7   -6    5     -2.09      0.00
    8   -6    5     -3.01      0.00
    9   -6    5      6.41      0.00
   10   -6    5     -3.90      0.00
   11   -6    5      2.81      0.00
   12   -6    5      0.93      0.00
   13   -6    5     -4.98      0.00
   14   -6    5      0.28      0.00
   15   -6    5     -2.99      0.00
  -16   -5    5     -0.78      0.00
  -15   -5    5      0.13      0.00
  -14   -5    5     -0.43      0.00
  -13   -5    5     -1.57      0.00
  -12   -5    5      3.09      0.00
  -11   -5    5     -0.15      0.00
  -10   -5    5      3.26      0.00
   -9   -5    5     -7.99      0.00
   -8   -5    5     -7.76      0.00
   -6   -5    5      2.88      0.00
   -5   -5    5     -6.60      0.00
   -4   -5    5     -0.36      0.00
   -3   -5    5      5.49      0.00
   -2   -5    5      7.19      0.00
   -1   -5    5      0.78      0.00
    0   -5    5      7.52      0.00
    1   -5    5      1.49      0.00
    2   -5    5     -1.70      0.00
    3   -5    5     14.13      0.00
    4   -5    5    -12.18      0.00
    5   -5    5      3.61      0.00
    6   -5    5     -0.08      0.00
    7   -5    5      0.18      0.00
    8   -5    5      2.23      0.00
    9   -5    5      3.82      0.00
   10   -5    5      2.65      0.00
   11   -5    5      5.94      0.00
   12   -5    5     -0.85      0.00
   13   -5    5      9.04      0.00
   14   -5    5      0.72      0.00
   15   -5    5     -8.10      0.00
   16   -5    5      3.95      0.00
  -16   -4    5     -0.34      0.00
  -15   -4    5      2.21      0.00
  -14   -4    5     -5.62      0.00
  -13   -4    5      4.04      0.00
  -12   -4    5      5.09      0.00
  -11   -4    5     -3.74      0.00
  -10   -4    5     -2.80      0.00
   -9   -4    5    -11.46      0.00
   -7   -4    5     10.23      0.00
   -6   -4    5     -7.38      0.00
   -5   -4    5     -6.06      0.00
   -4   -4    5     13.59      0.00
   -3   -4    5      3.04      0.00
   -2   -4    5      3.60      0.00
   -1   -4    5      3.53      0.00
    0   -4    5      5.28      0.00
    1   -4    5     -9.12      0.00
    2   -4    5      9.54      0.00
    3   -4    5     14.61      0.00
    4   -4    5    -17.57      0.00
    5   -4    5     -1.42      0.00
    6   -4    5     -6.72      0.00
    7   -4    5      1.34      0.00
    8   -4    5      3.79      0.00
    9   -4    5      1.23      0.00
   10   -4    5      3.31      0.00
   11   -4    5      6.10      0.00
   12   -4    5     -7.11      0.00
   13   -4    5      0.23      0.00
   14   -4    5      4.03      0.00
   15   -4    5     -3.97      0.00
   16   -4    5     -2.52      0.00
   17   -4    5      0.85      0.00
  -17   -3    5      0.60      0.00
  -16   -3    5      0.13      0.00
  -15   -3    5      4.49      0.00
  -14   -3    5      1.60      0.00
  -13   -3    5      1.76      0.00
  -12   -3    5      4.80      0.00
  -11   -3    5     -2.29      0.00
  -10   -3    5      2.24      0.00
   -9   -3    5     -4.43      0.00
   -8   -3    5     -2.43      0.00
   -7   -3    5     13.87      0.00
   -6   -3    5     -1.11      0.00
   -5   -3    5      9.40      0.00
   -4   -3    5     -6.58      0.00
   -3   -3    5      6.09      0.00
   -2   -3    5      8.72      0.00
   -1   -3    5    -13.41      0.00
    0   -3    5      7.06      0.00
    1   -3    5     -4.40      0.00
    2   -3    5    -16.64      0.00
    3   -3    5    -15.43      0.00
    4   -3    5      7.57      0.00
    5   -3    5    -13.96      0.00
    6   -3    5     -1.88      0.00
    7   -3    5     -1.88      0.00
    8   -3    5      2.29      0.00
    9   -3    5     -4.78      0.00
   10   -3    5      1.77      0.00
   11   -3    5     -0.17      0.00
   12   -3    5      1.19      0.00
   13   -3    5     -1.63      0.00
   14   -3    5     -2.85      0.00
   15   -3    5      0.52      0.00
   16   -3    5     -3.10      0.00
   17   -3    5      0.85      0.00
  -17   -2    5     -3.09      0.00
  -16   -2    5      0.30      0.00
  -15   -2    5      0.95      0.00
  -14   -2    5     -2.90      0.00
  -13   -2    5      4.12      0.00
  -12   -2    5      4.70      0.00
  -11   -2    5     -4.92      0.00
  -10   -2    5      0.15      0.00
   -9   -2    5      6.42      0.00
   -8   -2    5      2.69      0.00
   -7   -2    5     -2.18      0.00
   -6   -2    5     -1.58      0.00
   -5   -2    5      0.74      0.00
   -4   -2    5    -17.44      0.00
   -3   -2    5     26.62      0.00
   -2   -2    5     17.11      0.00
   -1   -2    5    -30.33      0.00
    0   -2    5      0.29      0.00
    1   -2    5     -5.18      0.00
    2   -2    5     14.87      0.00
    3   -2    5    -17.09      0.00
    4   -2    5     -5.88      0.00
    5   -2    5    -13.82      0.00
    6   -2    5      7.28      0.00
    7   -2    5     -9.55      0.00
    8   -2    5     -4.48      0.00
    9   -2    5      5.54      0.00
   10   -2    5      1.61      0.00
   11   -2    5     -8.31      0.00
   12   -2    5      9.56      0.00
   13   -2    5     -0.58      0.00
   14   -2    5     -5.07      0.00
   15   -2    5      2.98      0.00
   16   -2    5     -5.58      0.00
   17   -2    5      0.09      0.00
  -17   -1    5      0.13      0.00
  -16   -1    5     -2.90      0.00
  -15   -1    5      2.36      0.00
  -14   -1    5     -0.68      0.00
  -13   -1    5     -7.04      0.00
  -12   -1    5      3.96      0.00
  -11   -1    5      0.64      0.00
  -10   -1    5     -8.15      0.00
   -9   -1    5     -6.51      0.00
   -8   -1    5      6.79      0.00
   -7   -1    5    -18.77      0.00
   -6   -1    5     -0.36      0.00
   -5   -1    5      3.00      0.00
   -4   -1    5    -12.26      0.00
   -3   -1    5      8.95      0.00
   -2   -1    5     -9.65      0.00
   -1   -1    5     13.40      0.00
    0   -1    5      8.94      0.00
    1   -1    5    -22.12      0.00
    2   -1    5     11.46      0.00
    3   -1    5     13.59      0.00
    4   -1    5     -5.67      0.00
    5   -1    5    -12.34      0.00
    6   -1    5      2.62      0.00
    7   -1    5      5.61      0.00
    8   -1    5      2.47      0.00
    9   -1    5     -3.93      0.00
   10   -1    5      0.02      0.00
   11   -1    5      9.63      0.00
   12   -1    5      3.12      0.00
   13   -1    5     -6.12      0.00
   14   -1    5     -1.78      0.00
   15   -1    5      2.19      0.00
   16   -1    5     -1.77      0.00
   17   -1    5     -0.07      0.00
   18   -1    5      0.30      0.00
  -17    0    5      0.00      0.00
  -16    0    5      2.66      0.00
  -15    0    5     -2.01      0.00
  -14    0    5      1.53      0.00
  -13    0    5      5.01      0.00
  -12    0    5     -3.29      0.00
  -11    0    5     -1.63      0.00
  -10    0    5      1.88      0.00
   -9    0    5     -4.36      0.00
   -8    0    5     -7.29      0.00
   -7    0    5     -7.74      0.00
   -6    0    5     -2.12      0.00
   -5    0    5      9.56      0.00
   -4    0    5      7.70      0.00
   -3    0    5     15.74      0.00
   -2    0    5    -21.39      0.00
   -1    0    5     55.11      0.00
    0    0    5     -5.98      0.00
    1    0    5     -7.91      0.00
    2    0    5     43.91      0.00
    3    0    5      7.91      0.00
    4    0    5    -38.05      0.00
    5    0    5      7.70      0.00
    6    0    5    -10.30      0.00
    7    0    5      7.52      0.00
    8    0    5     16.48      0.00
    9    0    5      3.24      0.00
   10    0    5     -7.84      0.00
   11    0    5      4.40      0.00
   12    0    5      9.19      0.00
   13    0    5    -12.89      0.00
   14    0    5      2.16      0.00
   15    0    5     -4.57      0.00
   16    0    5      5.94      0.00
   17    0    5     -1.28      0.00
   18    0    5     -0.37      0.00
  -17    1    5     -1.37      0.00
  -16    1    5     -2.23      0.00
  -15    1    5     -0.48      0.00
  -14    1    5      3.49      0.00
  -13    1    5      5.55      0.00
  -12    1    5     -3.69      0.00
  -11    1    5     -2.25      0.00
  -10    1    5     -2.39      0.00
   -9    1    5      2.08      0.00
   -8    1    5     -2.02      0.00
   -7    1    5      3.81      0.00
   -6    1    5     -4.17      0.00
   -5    1    5     18.94      0.00
   -4    1    5      5.59      0.00
   -3    1    5    -22.61      0.00
   -2    1    5      9.61      0.00
   -1    1    5     31.19      0.00
    0    1    5     -2.07      0.00
    1    1    5     24.75      0.00
    2    1    5    -40.07      0.00
    3    1    5     36.27      0.00
    4    1    5    -19.08      0.00
    5    1    5    -15.63      0.00
    6    1    5      0.36      0.00
    7    1    5     11.77      0.00
    8    1    5     -6.80      0.00
    9    1    5      2.35      0.00
   10    1    5     14.60      0.00
   11    1    5      0.32      0.00
   12    1    5     -1.50      0.00
   13    1    5     -7.47      0.00
   14    1    5      5.26      0.00
   15    1    5     -7.53      0.00
   16    1    5      6.41      0.00
   17    1    5     -3.79      0.00
   18    1    5     -1.37      0.00
  -17    2    5      4.74      0.00
  -16    2    5     -2.80      0.00
  -15    2    5     -3.08      0.00
  -14    2    5      8.38      0.00
  -13    2    5      0.18      0.00
  -12    2    5     -8.49      0.00
  -11    2    5      3.31      0.00
  -10    2    5      8.37      0.00
   -9    2    5    -10.09      0.00
   -8    2    5      2.54      0.00
   -7    2    5     -0.02      0.00
   -6    2    5      2.71      0.00
   -5    2    5     -3.80      0.00
   -4    2    5     -6.15      0.00
   -3    2    5    -27.59      0.00
   -2    2    5     26.19      0.00
   -1    2    5      8.28      0.00
    0    2    5    -46.27      0.00
    1    2    5     33.52      0.00
    2    2    5     -6.10      0.00
    3    2    5    -19.92      0.00
    4    2    5    -24.58      0.00
    5    2    5     -0.58      0.00
    6    2    5      7.05      0.00
    7    2    5     10.60      0.00
    8    2    5      4.17      0.00
    9    2    5     -4.10      0.00
   10    2    5     -7.13      0.00
   11    2    5     11.57      0.00
   12    2    5      4.05      0.00
   13    2    5    -10.95      0.00
   14    2    5      4.57      0.00
   15    2    5      0.80      0.00
   16    2    5     -0.32      0.00
   17    2    5      1.22      0.00
   18    2    5     -0.36      0.00
   19    2    5     -2.48      0.00
  -17    3    5      3.27      0.00
  -16    3    5     -5.16      0.00
  -15    3    5      6.87      0.00
  -14    3    5      4.32      0.00
  -13    3    5     -3.38      0.00
  -12    3    5      0.54      0.00
  -11    3    5     -7.48      0.00
  -10    3    5     12.38      0.00
   -9    3    5     -4.79      0.00
   -8    3    5     -9.70      0.00
   -7    3    5     -3.50      0.00
   -6    3    5     13.78      0.00
   -5    3    5     -8.51      0.00
   -4    3    5      1.11      0.00
   -3    3    5    -12.88      0.00
   -2    3    5     12.38      0.00
   -1    3    5      8.58      0.00
    0    3    5     22.12      0.00
    1    3    5    -22.32      0.00
    2    3    5    -42.71      0.00
    3    3    5      8.62      0.00
    4    3    5     10.81      0.00
    5    3    5    -12.15      0.00
    6    3    5     11.14      0.00
    7    3    5     -8.63      0.00
    8    3    5     12.93      0.00
    9    3    5     17.14      0.00
   10    3    5     -4.27      0.00
   11    3    5     -2.28      0.00
   12    3    5     -1.20      0.00
   13    3    5      8.28      0.00
   14    3    5     -9.50      0.00
   15    3    5      2.91      0.00
   16    3    5     -5.16      0.00
   17    3    5     -0.62      0.00
   18    3    5      3.15      0.00
   19    3    5     -0.77      0.00
  -17    4    5     -0.01      0.00
  -16    4    5      0.44      0.00
  -15    4    5     -0.37      0.00
  -14    4    5     -4.18      0.00
  -13    4    5      0.26      0.00
  -12    4    5     -2.93      0.00
  -11    4    5     -1.07      0.00
  -10    4    5     -0.15      0.00
   -8    4    5      4.15      0.00
   -7    4    5    -10.33      0.00
   -6    4    5      3.38      0.00
   -5    4    5     -2.03      0.00
   -4    4    5     20.85      0.00
   -3    4    5      5.06      0.00
   -2    4    5    -23.27      0.00
   -1    4    5     34.70      0.00
    0    4    5     -3.10      0.00
    1    4    5    -16.02      0.00
    2    4    5      4.69      0.00
    3    4    5    -45.44      0.00
    4    4    5      8.02      0.00
    5    4    5     10.27      0.00
    6    4    5    -12.05      0.00
    7    4    5      6.65      0.00
    8    4    5      0.75      0.00
    9    4    5     -1.81      0.00
   10    4    5      5.38      0.00
   11    4    5      7.52      0.00
   12    4    5    -11.28      0.00
   13    4    5      0.79      0.00
   14    4    5     -6.72      0.00
   15    4    5      2.49      0.00
   16    4    5      0.57      0.00
   17    4    5     -3.20      0.00
   18    4    5     -1.81      0.00
   19    4    5      0.11      0.00
  -16    5    5      3.38      0.00
  -15    5    5      2.41      0.00
  -14    5    5     -3.96      0.00
  -13    5    5      3.37      0.00
  -12    5    5     -5.96      0.00
  -11    5    5     -1.39      0.00
  -10    5    5     -0.47      0.00
   -9    5    5      1.80      0.00
   -8    5    5     -6.75      0.00
   -7    5    5      5.77      0.00
   -6    5    5     -3.62      0.00
   -5    5    5     13.41      0.00
   -4    5    5     -5.62      0.00
   -3    5    5      3.19      0.00
   -2    5    5    -19.13      0.00
   -1    5    5     26.81      0.00
    0    5    5      7.75      0.00
    1    5    5    -32.08      0.00
    2    5    5      7.22      0.00
    3    5    5     10.38      0.00
    4    5    5     -9.80      0.00
    5    5    5      2.00      0.00
    6    5    5    -13.23      0.00
    7    5    5      5.16      0.00
    8    5    5     13.90      0.00
    9    5    5     -3.12      0.00
   10    5    5     -5.92      0.00
   11    5    5     -3.25      0.00
   12    5    5     -6.68      0.00
   13    5    5     -1.57      0.00
   14    5    5     -2.49      0.00
   15    5    5     -3.69      0.00
   16    5    5      5.67      0.00
   17    5    5     -2.51      0.00
   18    5    5      1.43      0.00
   19    5    5     -0.26      0.00
  -16    6    5     -0.80      0.00
  -15    6    5     -0.94      0.00
  -14    6    5     -0.25      0.00
  -13    6    5     13.47      0.00
  -12    6    5     -7.18      0.00
  -11    6    5      5.58      0.00
  -10    6    5     -2.06      0.00
   -9    6    5      9.94      0.00
   -8    6    5     -1.79      0.00
   -7    6    5     -1.36      0.00
   -5    6    5     15.46      0.00
   -4    6    5    -16.30      0.00
   -3    6    5      6.44      0.00
   -2    6    5      6.24      0.00
   -1    6    5     19.65      0.00
    1    6    5    -15.21      0.00
    2    6    5      7.75      0.00
    3    6    5     -6.36      0.00
    4    6    5     -3.18      0.00
    5    6    5      8.62      0.00
    6    6    5      4.07      0.00
    7    6    5      5.21      0.00
    8    6    5      9.43      0.00
    9    6    5     -3.44      0.00
   11    6    5     -4.72      0.00
   12    6    5     -4.63      0.00
   13    6    5     -3.41      0.00
   14    6    5     11.34      0.00
   15    6    5    -10.85      0.00
   16    6    5      3.30      0.00
   17    6    5     -0.14      0.00
   18    6    5     -1.97      0.00
   19    6    5      3.03      0.00
  -16    7    5     -0.90      0.00
  -15    7    5      1.22      0.00
  -14    7    5      1.83      0.00
  -13    7    5      0.86      0.00
  -12    7    5      1.98      0.00
  -11    7    5     -1.48      0.00
  -10    7    5      1.93      0.00
   -9    7    5     -6.77      0.00
   -8    7    5     -1.04      0.00
   -7    7    5      2.51      0.00
   -6    7    5     -0.89      0.00
   -5    7    5      8.44      0.00
   -4    7    5    -14.77      0.00
   -3    7    5      8.17      0.00
   -2    7    5     12.23      0.00
    0    7    5     -4.70      0.00
    1    7    5      3.47      0.00
    2    7    5    -15.26      0.00
    3    7    5     -9.09      0.00
    4    7    5      4.88      0.00
    5    7    5     -7.87      0.00
    6    7    5     13.66      0.00
    7    7    5     -1.87      0.00
    8    7    5      3.83      0.00
   10    7    5      6.09      0.00
   11    7    5     -7.39      0.00
   12    7    5      9.98      0.00
   13    7    5      1.00      0.00
   14    7    5     11.12      0.00
   15    7    5     -2.32      0.00
   16    7    5     -2.36      0.00
   17    7    5      0.75      0.00
   18    7    5      2.22      0.00
  -15    8    5      3.66      0.00
  -13    8    5     -6.25      0.00
  -12    8    5      3.27      0.00
  -11    8    5      0.99      0.00
  -10    8    5      3.42      0.00
   -9    8    5    -11.46      0.00
   -8    8    5      5.37      0.00
   -7    8    5     -5.17      0.00
   -6    8    5     -2.90      0.00
   -5    8    5     -5.06      0.00
   -4    8    5     -2.10      0.00
   -3    8    5     19.05      0.00
   -1    8    5      1.36      0.00
    0    8    5    -22.84      0.00
    1    8    5     20.00      0.00
    2    8    5    -34.47      0.00
    3    8    5     -1.88      0.00
    4    8    5     17.50      0.00
    5    8    5     -9.21      0.00
    6    8    5      3.10      0.00
    7    8    5      1.16      0.00
    8    8    5     -4.40      0.00
   10    8    5     -5.44      0.00
   11    8    5     -1.44      0.00
   12    8    5      3.79      0.00
   13    8    5      0.16      0.00
   14    8    5     -1.07      0.00
   15    8    5      3.58      0.00
   16    8    5     -1.45      0.00
   17    8    5      1.29      0.00
   18    8    5      0.27      0.00
  -15    9    5      2.74      0.00
  -14    9    5      0.21      0.00
  -13    9    5     -5.91      0.00
   -8    9    5      0.40      0.00
   -7    9    5      3.00      0.00
   -6    9    5      0.84      0.00
   -5    9    5    -11.52      0.00
   -3    9    5     13.89      0.00
   -2    9    5     -2.22      0.00
   -1    9    5     -3.57      0.00
    0    9    5    -17.05      0.00
    1    9    5     17.62      0.00
    2    9    5    -16.20      0.00
    3    9    5      2.26      0.00
    4    9    5      3.35      0.00
    5    9    5      8.45      0.00
    6    9    5     -0.51      0.00
    7    9    5     -3.94      0.00
    8    9    5     -6.42      0.00
    9    9    5      8.73      0.00
   10    9    5     -2.69      0.00
   11    9    5     -4.58      0.00
   12    9    5     -6.53      0.00
   13    9    5      1.64      0.00
   14    9    5     -4.93      0.00
   15    9    5     -2.37      0.00
   16    9    5      0.01      0.00
   17    9    5     -1.65      0.00
   18    9    5      4.01      0.00
  -14   10    5     -1.07      0.00
  -13   10    5     -1.27      0.00
  -12   10    5     -0.52      0.00
  -10   10    5     -3.72      0.00
   -9   10    5     -0.14      0.00
   -8   10    5      0.31      0.00
   -7   10    5     -0.52      0.00
   -6   10    5      1.93      0.00
   -5   10    5     -9.31      0.00
   -4   10    5      8.88      0.00
   -2   10    5      6.85      0.00
   -1   10    5     -6.42      0.00
    0   10    5    -16.92      0.00
    1   10    5      1.57      0.00
    2   10    5      8.52      0.00
    3   10    5      3.55      0.00
    4   10    5     -5.65      0.00
    5   10    5      7.96      0.00
    6   10    5    -15.55      0.00
    7   10    5      1.40      0.00
    8   10    5     -1.20      0.00
    9   10    5     -6.44      0.00
   10   10    5      1.61      0.00
   11   10    5      7.48      0.00
   12   10    5    -12.67      0.00
   13   10    5     -0.68      0.00
   14   10    5      6.13      0.00
   15   10    5     -4.72      0.00
   16   10    5      5.13      0.00
   17   10    5     -2.00      0.00
   18   10    5      2.29      0.00
  -13   11    5      1.98      0.00
  -12   11    5      0.36      0.00
  -11   11    5     -3.63      0.00
  -10   11    5     -1.65      0.00
   -9   11    5     -2.47      0.00
   -8   11    5     -5.44      0.00
   -7   11    5      6.32      0.00
   -6   11    5     -4.31      0.00
   -5   11    5      0.41      0.00
   -4   11    5     14.92      0.00
   -3   11    5     -6.81      0.00
   -2   11    5      9.90      0.00
    0   11    5     -1.31      0.00
    1   11    5      7.58      0.00
    2   11    5      0.08      0.00
    3   11    5     -1.95      0.00
    4   11    5     -3.07      0.00
    5   11    5     14.11      0.00
    6   11    5     -5.01      0.00
    7   11    5     -2.37      0.00
    8   11    5      3.10      0.00
    9   11    5      5.47      0.00
   10   11    5      1.54      0.00
   11   11    5     -4.16      0.00
   12   11    5      2.27      0.00
   13   11    5      1.68      0.00
   14   11    5     -2.24      0.00
   15   11    5      0.52      0.00
   16   11    5      0.85      0.00
   17   11    5     -1.16      0.00
  -12   12    5     -1.62      0.00
  -11   12    5      2.13      0.00
  -10   12    5      1.98      0.00
   -9   12    5     -5.27      0.00
   -8   12    5      5.11      0.00
   -7   12    5     -3.73      0.00
   -6   12    5     -5.95      0.00
   -5   12    5      7.65      0.00
   -4   12    5      6.24      0.00
   -3   12    5     -4.51      0.00
   -2   12    5      9.36      0.00
   -1   12    5    -15.99      0.00
    0   12    5      0.56      0.00
    1   12    5      5.49      0.00
    2   12    5      4.59      0.00
    3   12    5     -2.44      0.00
    4   12    5      0.98      0.00
    5   12    5      6.81      0.00
    6   12    5      7.15      0.00
    7   12    5      0.27      0.00
    8   12    5      5.20      0.00
    9   12    5     -4.94      0.00
   10   12    5      7.63      0.00
   11   12    5     -1.37      0.00
   12   12    5     -3.62      0.00
   13   12    5      5.33      0.00
   14   12    5     -0.04      0.00
   15   12    5     -1.33      0.00
   16   12    5     -0.02      0.00
   17   12    5      1.39      0.00
  -12   13    5      2.00      0.00
  -11   13    5      0.98      0.00
  -10   13    5      1.14      0.00
   -9   13    5     -3.12      0.00
   -8   13    5      2.81      0.00
   -7   13    5      5.43      0.00
   -6   13    5     -0.28      0.00
   -5   13    5      2.01      0.00
   -4   13    5      4.05      0.00
   -3   13    5     -0.43      0.00
   -2   13    5    -10.31      0.00
   -1   13    5     -8.26      0.00
    0   13    5      1.61      0.00
    1   13    5     -5.79      0.00
    2   13    5      1.34      0.00
    3   13    5      1.62      0.00
    4   13    5      1.31      0.00
    5   13    5      2.50      0.00
    6   13    5      2.76      0.00
    7   13    5     -8.11      0.00
    8   13    5      1.24      0.00
    9   13    5      2.08      0.00
   10   13    5     -5.45      0.00
   11   13    5      6.25      0.00
   12   13    5     -0.08      0.00
   13   13    5     -6.18      0.00
   14   13    5      0.72      0.00
   15   13    5      4.97      0.00
   16   13    5     -4.40      0.00
  -11   14    5      2.70      0.00
  -10   14    5     -2.85      0.00
   -9   14    5      1.73      0.00
   -8   14    5     -4.65      0.00
   -7   14    5     -1.22      0.00
   -6   14    5      3.59      0.00
   -5   14    5      6.41      0.00
   -4   14    5     -3.59      0.00
   -3   14    5      4.96      0.00
   -2   14    5    -13.01      0.00
   -1   14    5      3.62      0.00
    0   14    5     -1.31      0.00
    1   14    5     -4.88      0.00
    2   14    5      3.41      0.00
    3   14    5     -2.31      0.00
    4   14    5      0.05      0.00
    5   14    5      0.15      0.00
    6   14    5     -1.80      0.00
    7   14    5     -0.86      0.00
    8   14    5     -0.85      0.00
    9   14    5     -1.19      0.00
   10   14    5      3.68      0.00
   11   14    5     -2.07      0.00
   12   14    5      1.70      0.00
   13   14    5     -0.75      0.00
   14   14    5     -2.23      0.00
   15   14    5     -1.81      0.00
  -10   15    5     -2.49      0.00
   -9   15    5      2.21      0.00
   -8   15    5     -0.04      0.00
   -7   15    5      1.75      0.00
   -6   15    5     -2.42      0.00
   -5   15    5      0.54      0.00
   -4   15    5      4.52      0.00
   -3   15    5     -2.52      0.00
   -2   15    5     -7.74      0.00
   -1   15    5      9.85      0.00
    0   15    5     -0.03      0.00
    1   15    5     -1.52      0.00
    2   15    5      1.29      0.00
    3   15    5      0.01      0.00
    4   15    5      0.79      0.00
    5   15    5     -0.75      0.00
    6   15    5      1.97      0.00
    7   15    5     -0.13      0.00
    8   15    5      0.83      0.00
    9   15    5     -0.93      0.00
   10   15    5      3.86      0.00
   11   15    5     -0.30      0.00
   12   15    5     -1.04      0.00
   13   15    5     -6.83      0.00
   14   15    5      4.33      0.00
   -8   16    5      2.57      0.00
   -7   16    5     -0.38      0.00
   -6   16    5      3.84      0.00
   -5   16    5      3.38      0.00
   -4   16    5     -4.99      0.00
   -3   16    5     -1.22      0.00
   -2   16    5      1.69      0.00
   -1   16    5     -4.57      0.00
    0   16    5     -0.41      0.00
    1   16    5      3.69      0.00
    2   16    5     -5.19      0.00
    3   16    5      1.28      0.00
    4   16    5      0.88      0.00
    5   16    5     -4.80      0.00
    6   16    5      2.07      0.00
    7   16    5      3.32      0.00
    8   16    5     -1.98      0.00
    9   16    5     -0.18      0.00
   10   16    5      1.00      0.00
   11   16    5     -3.87      0.00
   12   16    5      0.60      0.00
   13   16    5      0.44      0.00
   -7   17    5      0.92      0.00
   -6   17    5      1.25      0.00
   -5   17    5      0.57      0.00
   -4   17    5      1.45      0.00
   -3   17    5     -2.02      0.00
   -2   17    5      0.64      0.00
   -1   17    5      0.37      0.00
    0   17    5     -0.67      0.00
    1   17    5     -0.52      0.00
    2   17    5     -2.57      0.00
    3   17    5      3.33      0.00
    4   17    5      0.24      0.00
    5   17    5     -0.75      0.00
    6   17    5      4.40      0.00
    7   17    5     -1.78      0.00
    8   17    5      0.02      0.00
    9   17    5      0.79      0.00
   10   17    5      1.12      0.00
   11   17    5     -1.34      0.00
   12   17    5     -1.47      0.00
   -5   18    5     -0.11      0.00
   -4   18    5     -0.24      0.00
   -3   18    5     -0.57      0.00
   -2   18    5      2.37      0.00
   -1   18    5     -0.69      0.00
    0   18    5      2.84      0.00
    1   18    5      0.38      0.00
    2   18    5     -2.48      0.00
    3   18    5      4.07      0.00
    4   18    5      1.43      0.00
    5   18    5     -0.88      0.00
    6   18    5     -1.35      0.00
    7   18    5      1.58      0.00
    8   18    5     -1.90      0.00
    9   18    5     -1.25      0.00
   10   18    5      0.47      0.00
   -2   19    5     -0.94      0.00
   -1   19    5      1.35      0.00
    0   19    5     -0.49      0.00
    1   19    5     -1.45      0.00
    2   19    5     -0.34      0.00
    3   19    5     -2.12      0.00
    4   19    5      1.35      0.00
    5   19    5      0.62      0.00
    6   19    5     -4.13      0.00
    7   19    5      1.17      0.00
    8   19    5     -1.32      0.00
   -4  -14    6      1.25      0.00
   -3  -14    6     -2.99      0.00
   -2  -14    6      1.44      0.00
   -1  -14    6      4.38      0.00
    0  -14    6     -4.34      0.00
    1  -14    6      2.56      0.00
    2  -14    6      0.27      0.00
   -7  -13    6     -0.92      0.00
   -6  -13    6     -0.56      0.00
   -5  -13    6      3.28      0.00
   -4  -13    6     -2.91      0.00
   -3  -13    6     -3.02      0.00
   -2  -13    6      0.81      0.00
   -1  -13    6      0.21      0.00
    0  -13    6     -1.26      0.00
    1  -13    6      2.58      0.00
    2  -13    6     -4.45      0.00
    3  -13    6      2.81      0.00
    4  -13    6     -0.74      0.00
    5  -13    6     -1.29      0.00
   -9  -12    6     -0.29      0.00
   -8  -12    6     -1.16      0.00
   -7  -12    6     -1.98      0.00
   -6  -12    6      1.57      0.00
   -5  -12    6      0.92      0.00
   -4  -12    6     -0.25      0.00
   -3  -12    6     -0.12      0.00
   -2  -12    6      4.39      0.00
   -1  -12    6     -2.29      0.00
    0  -12    6      2.94      0.00
    1  -12    6     -3.19      0.00
    2  -12    6     -0.95      0.00
    3  -12    6     -0.38      0.00
    4  -12    6     -0.05      0.00
    5  -12    6     -0.50      0.00
    6  -12    6      2.37      0.00
    7  -12    6      0.06      0.00
    8  -12    6     -2.71      0.00
  -11  -11    6      2.51      0.00
  -10  -11    6     -0.74      0.00
   -9  -11    6     -1.87      0.00
   -8  -11    6      1.45      0.00
   -7  -11    6     -3.79      0.00
   -6  -11    6      7.66      0.00
   -5  -11    6      0.22      0.00
   -4  -11    6     -4.56      0.00
   -3  -11    6      6.02      0.00
   -2  -11    6     -0.13      0.00
   -1  -11    6     -3.73      0.00
    0  -11    6      3.36      0.00
    1  -11    6     -3.07      0.00
    2  -11    6      0.43      0.00
    3  -11    6     -2.29      0.00
    4  -11    6     -0.98      0.00
    5  -11    6      4.18      0.00
    6  -11    6     -0.61      0.00
    7  -11    6      0.58      0.00
    8  -11    6     -0.01      0.00
    9  -11    6     -1.31      0.00
  -12  -10    6     -1.98      0.00
  -11  -10    6     -0.29      0.00
  -10  -10    6      1.22      0.00
   -9  -10    6     -2.39      0.00
   -8  -10    6      2.80      0.00
   -7  -10    6     -0.78      0.00
   -6  -10    6     -2.48      0.00
   -5  -10    6      9.08      0.00
   -4  -10    6     -2.59      0.00
   -3  -10    6     -3.04      0.00
   -2  -10    6      1.44      0.00
   -1  -10    6      4.30      0.00
    0  -10    6    -11.32      0.00
    1  -10    6     -7.11      0.00
    2  -10    6      5.70      0.00
    3  -10    6     -2.13      0.00
    4  -10    6      3.46      0.00
    5  -10    6      2.18      0.00
    6  -10    6     -4.14      0.00
    7  -10    6     -0.84      0.00
    8  -10    6      0.33      0.00
    9  -10    6     -0.80      0.00
   10  -10    6      0.06      0.00
   11  -10    6      0.51      0.00
  -13   -9    6      0.50      0.00
  -12   -9    6     -3.98      0.00
  -11   -9    6      0.78      0.00
  -10   -9    6      0.51      0.00
   -9   -9    6     -2.07      0.00
   -8   -9    6     -0.29      0.00
   -7   -9    6      0.66      0.00
   -6   -9    6     -3.32      0.00
   -5   -9    6      4.24      0.00
   -4   -9    6      0.94      0.00
   -3   -9    6     -1.08      0.00
   -2   -9    6     -7.57      0.00
   -1   -9    6      9.70      0.00
    0   -9    6     -3.28      0.00
    1   -9    6     -9.47      0.00
    2   -9    6      7.06      0.00
    3   -9    6     -0.24      0.00
    4   -9    6      3.99      0.00
    5   -9    6     -1.70      0.00
    6   -9    6     -1.03      0.00
    7   -9    6      2.85      0.00
    8   -9    6     -2.15      0.00
    9   -9    6     -0.32      0.00
   10   -9    6      2.20      0.00
   11   -9    6     -2.48      0.00
   12   -9    6      3.16      0.00
  -14   -8    6      2.49      0.00
  -13   -8    6      2.26      0.00
  -12   -8    6      0.92      0.00
  -11   -8    6      0.82      0.00
  -10   -8    6     -2.59      0.00
   -9   -8    6      0.99      0.00
   -8   -8    6      1.46      0.00
   -7   -8    6      0.99      0.00
   -6   -8    6      1.29      0.00
   -5   -8    6      2.78      0.00
   -4   -8    6      3.67      0.00
   -3   -8    6      0.19      0.00
   -2   -8    6     -1.82      0.00
   -1   -8    6      6.36      0.00
    0   -8    6    -12.57      0.00
    1   -8    6      2.75      0.00
    2   -8    6      7.47      0.00
    3   -8    6     -2.97      0.00
    4   -8    6      3.76      0.00
    5   -8    6     -1.83      0.00
    6   -8    6     -3.46      0.00
    7   -8    6      3.71      0.00
    8   -8    6      4.03      0.00
    9   -8    6     -3.07      0.00
   10   -8    6      1.64      0.00
   11   -8    6     -1.29      0.00
   12   -8    6      2.83      0.00
   13   -8    6      0.37      0.00
  -13   -7    6      0.91      0.00
  -12   -7    6     -0.24      0.00
  -11   -7    6     -1.26      0.00
  -10   -7    6     -0.75      0.00
   -9   -7    6      2.88      0.00
   -8   -7    6     -5.57      0.00
   -7   -7    6      3.30      0.00
   -6   -7    6     12.56      0.00
   -5   -7    6     -6.61      0.00
   -4   -7    6      9.81      0.00
   -3   -7    6     -0.67      0.00
   -2   -7    6      1.41      0.00
   -1   -7    6      2.45      0.00
    0   -7    6     -6.22      0.00
    2   -7    6      1.46      0.00
    3   -7    6     -0.30      0.00
    4   -7    6     -4.88      0.00
    5   -7    6      1.12      0.00
    6   -7    6      2.09      0.00
    7   -7    6      0.00      0.00
    8   -7    6      0.67      0.00
    9   -7    6      7.15      0.00
   10   -7    6     -8.25      0.00
   11   -7    6      0.29      0.00
   12   -7    6      4.63      0.00
   13   -7    6      2.84      0.00
   14   -7    6      0.21      0.00
  -15   -6    6     -1.52      0.00
  -14   -6    6      1.18      0.00
  -13   -6    6     -0.97      0.00
  -12   -6    6      0.43      0.00
  -11   -6    6     -1.50      0.00
  -10   -6    6     -5.48      0.00
   -9   -6    6      5.69      0.00
   -8   -6    6      2.96      0.00
   -7   -6    6     -0.93      0.00
   -6   -6    6      4.40      0.00
   -5   -6    6    -11.87      0.00
   -4   -6    6      1.95      0.00
   -3   -6    6      0.84      0.00
   -2   -6    6     -5.55      0.00
   -1   -6    6     -4.44      0.00
    0   -6    6      1.85      0.00
    1   -6    6      6.20      0.00
    2   -6    6    -16.49      0.00
    3   -6    6     10.25      0.00
    4   -6    6     -0.28      0.00
    5   -6    6     -2.46      0.00
    6   -6    6     -1.28      0.00
    7   -6    6      1.44      0.00
    8   -6    6      2.63      0.00
    9   -6    6     -0.53      0.00
   10   -6    6     -8.93      0.00
   11   -6    6      3.52      0.00
   12   -6    6     -3.87      0.00
   13   -6    6     -3.30      0.00
   14   -6    6      3.67      0.00
   15   -6    6      0.86      0.00
  -15   -5    6     -2.76      0.00
  -14   -5    6      2.17      0.00
  -13   -5    6      0.42      0.00
  -12   -5    6      1.91      0.00
  -11   -5    6     -6.08      0.00
  -10   -5    6      1.42      0.00
   -9   -5    6      6.40      0.00
   -8   -5    6     -3.67      0.00
   -7   -5    6      0.00      0.00
   -6   -5    6     -3.87      0.00
   -5   -5    6      0.83      0.00
   -2   -5    6     -3.37      0.00
   -1   -5    6    -11.11      0.00
    1   -5    6     -0.34      0.00
    2   -5    6    -10.71      0.00
    3   -5    6      6.35      0.00
    4   -5    6     -0.84      0.00
    5   -5    6     10.16      0.00
    6   -5    6      3.03      0.00
    7   -5    6     -5.67      0.00
    8   -5    6      3.48      0.00
    9   -5    6     -4.56      0.00
   10   -5    6     -4.74      0.00
   11   -5    6      1.71      0.00
   12   -5    6      3.98      0.00
   13   -5    6     -4.47      0.00
   14   -5    6     -5.40      0.00
   15   -5    6      4.30      0.00
   16   -5    6      1.37      0.00
  -16   -4    6      1.04      0.00
  -15   -4    6     -3.18      0.00
  -14   -4    6      0.67      0.00
  -13   -4    6      2.77      0.00
  -12   -4    6     -3.48      0.00
  -11   -4    6     -5.02      0.00
  -10   -4    6     -5.43      0.00
   -9   -4    6      3.72      0.00
   -8   -4    6      0.97      0.00
   -7   -4    6      0.99      0.00
   -6   -4    6    -17.52      0.00
   -4   -4    6     18.79      0.00
   -3   -4    6    -16.43      0.00
   -2   -4    6     12.41      0.00
   -1   -4    6     -8.96      0.00
    0   -4    6     -5.69      0.00
    1   -4    6      6.51      0.00
    2   -4    6     17.15      0.00
    3   -4    6     -5.42      0.00
    4   -4    6      0.49      0.00
    5   -4    6     -0.47      0.00
    6   -4    6      3.42      0.00
    7   -4    6      7.14      0.00
    8   -4    6     -0.57      0.00
    9   -4    6      0.27      0.00
   10   -4    6      5.49      0.00
   11   -4    6     -3.03      0.00
   12   -4    6      1.49      0.00
   13   -4    6      5.25      0.00
   14   -4    6     -4.11      0.00
   15   -4    6      2.02      0.00
   16   -4    6      0.11      0.00
  -16   -3    6     -0.30      0.00
  -15   -3    6     -0.12      0.00
  -14   -3    6      2.54      0.00
  -13   -3    6      0.03      0.00
  -12   -3    6     -4.50      0.00
  -11   -3    6     -0.56      0.00
  -10   -3    6      1.80      0.00
   -9   -3    6     -0.48      0.00
   -8   -3    6      0.41      0.00
   -7   -3    6      2.99      0.00
   -6   -3    6     -0.69      0.00
   -5   -3    6      8.21      0.00
   -4   -3    6     -0.74      0.00
   -3   -3    6    -17.38      0.00
   -2   -3    6      5.62      0.00
   -1   -3    6      1.73      0.00
    0   -3    6     -2.66      0.00
    1   -3    6     -1.63      0.00
    2   -3    6     11.67      0.00
    3   -3    6     -6.02      0.00
    4   -3    6     11.65      0.00
    5   -3    6     -9.21      0.00
    6   -3    6      6.28      0.00
    7   -3    6      8.15      0.00
    8   -3    6     -5.68      0.00
    9   -3    6     -1.74      0.00
   10   -3    6     14.53      0.00
   11   -3    6     -8.15      0.00
   12   -3    6     -5.41      0.00
   13   -3    6      4.82      0.00
   14   -3    6     -4.60      0.00
   15   -3    6      5.12      0.00
   16   -3    6      0.09      0.00
   17   -3    6      0.42      0.00
  -16   -2    6      1.36      0.00
  -15   -2    6     -2.83      0.00
  -14   -2    6      6.66      0.00
  -13   -2    6      5.40      0.00
  -12   -2    6     -7.56      0.00
  -11   -2    6      2.97      0.00
  -10   -2    6      9.40      0.00
   -9   -2    6      5.54      0.00
   -7   -2    6      5.31      0.00
   -6   -2    6      8.35      0.00
   -5   -2    6      2.64      0.00
   -4   -2    6     -5.25      0.00
   -3   -2    6     15.43      0.00
   -2   -2    6    -17.12      0.00
   -1   -2    6    -11.42      0.00
    0   -2    6      8.41      0.00
    1   -2    6      1.56      0.00
    2   -2    6    -10.57      0.00
    3   -2    6    -18.12      0.00
    4   -2    6      2.43      0.00
    5   -2    6      7.81      0.00
    6   -2    6      5.57      0.00
    7   -2    6      1.88      0.00
    8   -2    6     -3.89      0.00
    9   -2    6     -3.60      0.00
   10   -2    6      4.13      0.00
   11   -2    6     -9.44      0.00
   12   -2    6     -4.76      0.00
   13   -2    6      1.05      0.00
   14   -2    6     -3.07      0.00
   15   -2    6      3.95      0.00
   16   -2    6     -1.12      0.00
   17   -2    6      1.48      0.00
  -16   -1    6      0.71      0.00
  -15   -1    6      3.11      0.00
  -14   -1    6     -4.59      0.00
  -13   -1    6     -2.65      0.00
  -12   -1    6      2.61      0.00
  -11   -1    6     -2.29      0.00
  -10   -1    6      1.06      0.00
   -9   -1    6      6.99      0.00
   -8   -1    6      3.80      0.00
   -7   -1    6     -0.10      0.00
   -6   -1    6     11.29      0.00
   -5   -1    6     -7.42      0.00
   -4   -1    6    -14.03      0.00
   -3   -1    6     24.33      0.00
   -2   -1    6    -17.63      0.00
   -1   -1    6     -2.30      0.00
    0   -1    6      4.13      0.00
    1   -1    6    -13.97      0.00
    2   -1    6    -13.57      0.00
    3   -1    6      6.02      0.00
    4   -1    6    -16.40      0.00
    5   -1    6     20.23      0.00
    6   -1    6      9.36      0.00
    7   -1    6    -10.08      0.00
    8   -1    6     -3.19      0.00
    9   -1    6     -4.01      0.00
   10   -1    6      5.71      0.00
   11   -1    6     -4.30      0.00
   12   -1    6     -4.92      0.00
   13   -1    6     -3.33      0.00
   14   -1    6      8.29      0.00
   15   -1    6     -4.08      0.00
   16   -1    6      0.01      0.00
   17   -1    6     -2.11      0.00
  -16    0    6      2.59      0.00
  -15    0    6      1.15      0.00
  -14    0    6     -0.72      0.00
  -13    0    6     -9.97      0.00
  -12    0    6     -0.94      0.00
  -11    0    6      0.70      0.00
  -10    0    6     -0.65      0.00
   -9    0    6     -7.35      0.00
   -8    0    6     -8.60      0.00
   -7    0    6      8.06      0.00
   -6    0    6     -1.74      0.00
   -5    0    6    -10.50      0.00
   -4    0    6     -4.18      0.00
   -3    0    6      8.16      0.00
   -2    0    6     -3.50      0.00
   -1    0    6     -6.19      0.00
    0    0    6    -18.28      0.00
    1    0    6     16.31      0.00
    2    0    6     -2.02      0.00
    3    0    6     -6.31      0.00
    4    0    6     13.19      0.00
    5    0    6      8.39      0.00
    6    0    6     -0.04      0.00
    7    0    6      8.26      0.00
    8    0    6      1.26      0.00
    9    0    6    -15.22      0.00
   10    0    6     -3.51      0.00
   11    0    6      0.62      0.00
   12    0    6      0.84      0.00
   13    0    6     -8.35      0.00
   14    0    6     15.46      0.00
   15    0    6     -5.11      0.00
   16    0    6      4.04      0.00
   17    0    6     -1.44      0.00
   18    0    6      0.56      0.00
  -17    1    6     -1.33      0.00
  -16    1    6      0.53      0.00
  -15    1    6      0.99      0.00
  -14    1    6     -1.26      0.00
  -13    1    6     -5.27      0.00
  -12    1    6      1.61      0.00
  -11    1    6     -5.01      0.00
  -10    1    6      4.88      0.00
   -9    1    6      0.27      0.00
   -8    1    6     -4.05      0.00
   -7    1    6      0.75      0.00
   -6    1    6      6.00      0.00
   -5    1    6      1.74      0.00
   -4    1    6      3.95      0.00
   -3    1    6    -16.94      0.00
   -2    1    6     30.40      0.00
   -1    1    6     -5.00      0.00
    0    1    6    -17.07      0.00
    1    1    6     14.85      0.00
    2    1    6      5.55      0.00
    3    1    6     10.56      0.00
    4    1    6     16.52      0.00
    5    1    6      6.97      0.00
    6    1    6      9.87      0.00
    7    1    6    -17.38      0.00
    8    1    6     -3.53      0.00
   10    1    6     -6.17      0.00
   11    1    6    -10.27      0.00
   12    1    6     -3.87      0.00
   13    1    6      1.30      0.00
   14    1    6      1.54      0.00
   15    1    6      3.41      0.00
   16    1    6     -4.94      0.00
   17    1    6     -0.18      0.00
   18    1    6      2.95      0.00
  -16    2    6     -3.08      0.00
  -15    2    6     -0.19      0.00
  -14    2    6      3.71      0.00
  -13    2    6    -11.25      0.00
  -12    2    6     10.55      0.00
  -11    2    6      2.18      0.00
  -10    2    6     -0.86      0.00
   -8    2    6     14.66      0.00
   -7    2    6     -8.39      0.00
   -6    2    6      8.19      0.00
   -5    2    6     -6.10      0.00
   -4    2    6      5.32      0.00
   -3    2    6     -9.23      0.00
   -2    2    6     20.18      0.00
   -1    2    6    -22.96      0.00
    0    2    6    -19.34      0.00
    1    2    6     30.80      0.00
    2    2    6     12.11      0.00
    3    2    6     -8.94      0.00
    4    2    6      6.83      0.00
    5    2    6    -14.50      0.00
    6    2    6     22.21      0.00
    7    2    6      5.11      0.00
    8    2    6    -31.95      0.00
   10    2    6      2.59      0.00
   11    2    6      6.01      0.00
   12    2    6    -10.30      0.00
   13    2    6      2.61      0.00
   14    2    6      1.62      0.00
   15    2    6      6.54      0.00
   16    2    6     -3.25      0.00
   17    2    6      1.03      0.00
   18    2    6     -2.41      0.00
  -16    3    6      0.38      0.00
  -15    3    6      5.59      0.00
  -14    3    6     -1.52      0.00
  -13    3    6     -6.93      0.00
  -12    3    6      4.29      0.00
  -11    3    6      4.94      0.00
  -10    3    6      0.34      0.00
   -9    3    6      1.57      0.00
   -8    3    6     -2.43      0.00
   -7    3    6     15.30      0.00
   -6    3    6      1.72      0.00
   -5    3    6    -20.68      0.00
   -4    3    6    -13.39      0.00
   -3    3    6      8.00      0.00
   -2    3    6     -2.74      0.00
   -1    3    6    -21.21      0.00
    0    3    6     22.73      0.00
    1    3    6    -42.41      0.00
    2    3    6     22.50      0.00
    3    3    6     14.31      0.00
    4    3    6     -2.92      0.00
    5    3    6      9.23      0.00
    6    3    6    -18.93      0.00
    7    3    6      6.66      0.00
    8    3    6     10.29      0.00
    9    3    6     -4.93      0.00
   10    3    6    -17.81      0.00
   11    3    6     -4.69      0.00
   12    3    6      9.11      0.00
   13    3    6      8.19      0.00
   14    3    6     -2.59      0.00
   15    3    6      5.22      0.00
   16    3    6     -3.69      0.00
   17    3    6      5.46      0.00
   18    3    6      2.85      0.00
  -16    4    6      0.83      0.00
  -15    4    6      0.09      0.00
  -14    4    6     -3.28      0.00
  -13    4    6      0.53      0.00
  -12    4    6     -0.12      0.00
  -11    4    6     11.96      0.00
  -10    4    6    -13.41      0.00
   -9    4    6      4.58      0.00
   -8    4    6    -11.31      0.00
   -6    4    6      1.19      0.00
   -5    4    6      2.00      0.00
   -4    4    6     -6.59      0.00
   -3    4    6      4.41      0.00
   -2    4    6      3.75      0.00
   -1    4    6    -10.52      0.00
    0    4    6     14.93      0.00
    1    4    6    -39.80      0.00
    2    4    6     17.72      0.00
    3    4    6     -3.62      0.00
    4    4    6     -2.50      0.00
    5    4    6     20.10      0.00
    6    4    6      2.12      0.00
    7    4    6     -2.71      0.00
    8    4    6     -5.48      0.00
    9    4    6      2.80      0.00
   10    4    6      3.93      0.00
   11    4    6     -6.56      0.00
   12    4    6      1.21      0.00
   13    4    6      2.35      0.00
   14    4    6      2.02      0.00
   15    4    6      0.04      0.00
   16    4    6      0.52      0.00
   17    4    6     -5.58      0.00
   18    4    6      0.05      0.00
   19    4    6      3.75      0.00
  -16    5    6      2.97      0.00
  -15    5    6     -2.01      0.00
  -14    5    6     -8.18      0.00
  -13    5    6      2.01      0.00
  -12    5    6     -8.91      0.00
  -11    5    6      5.32      0.00
  -10    5    6      0.91      0.00
   -9    5    6     -5.92      0.00
   -8    5    6      2.84      0.00
   -7    5    6      5.06      0.00
   -6    5    6    -18.20      0.00
   -5    5    6     17.36      0.00
   -4    5    6    -10.61      0.00
   -3    5    6      3.03      0.00
   -2    5    6      1.93      0.00
   -1    5    6     -8.25      0.00
    0    5    6      5.35      0.00
    1    5    6    -26.17      0.00
    2    5    6     15.82      0.00
    3    5    6     23.95      0.00
    4    5    6     -1.69      0.00
    5    5    6     -5.80      0.00
    6    5    6     -3.98      0.00
    7    5    6     -2.18      0.00
    8    5    6     10.22      0.00
    9    5    6    -20.25      0.00
   10    5    6     -2.20      0.00
   11    5    6      6.58      0.00
   12    5    6      9.94      0.00
   13    5    6     -7.61      0.00
   14    5    6     -1.18      0.00
   15    5    6     -0.24      0.00
   16    5    6      0.61      0.00
   17    5    6      2.59      0.00
   18    5    6     -1.58      0.00
   19    5    6     -0.89      0.00
  -16    6    6     -1.28      0.00
  -15    6    6     -2.58      0.00
  -14    6    6      2.83      0.00
  -13    6    6      4.87      0.00
  -12    6    6     -3.81      0.00
  -11    6    6     -3.84      0.00
  -10    6    6      7.09      0.00
   -9    6    6     -1.71      0.00
   -8    6    6      3.90      0.00
   -7    6    6      6.68      0.00
   -6    6    6     -4.10      0.00
   -4    6    6     -4.94      0.00
   -3    6    6     -4.89      0.00
   -2    6    6      5.00      0.00
   -1    6    6     -6.30      0.00
    0    6    6    -28.85      0.00
    1    6    6     10.55      0.00
    2    6    6     12.84      0.00
    3    6    6     11.35      0.00
    4    6    6     11.94      0.00
    5    6    6    -10.38      0.00
    6    6    6      9.49      0.00
    7    6    6    -14.35      0.00
    8    6    6     -0.05      0.00
    9    6    6     -4.14      0.00
   10    6    6     -5.38      0.00
   11    6    6     -5.32      0.00
   12    6    6      2.43      0.00
   13    6    6     -1.79      0.00
   14    6    6     -1.68      0.00
   15    6    6      0.48      0.00
   16    6    6      0.00      0.00
   17    6    6      2.49      0.00
   18    6    6     -0.86      0.00
   19    6    6      2.16      0.00
  -15    7    6     -5.42      0.00
  -14    7    6      1.32      0.00
  -13    7    6      1.09      0.00
  -12    7    6      6.45      0.00
  -11    7    6     -6.40      0.00
  -10    7    6      9.65      0.00
   -9    7    6     -5.36      0.00
   -8    7    6      1.82      0.00
   -7    7    6      8.42      0.00
   -6    7    6      7.78      0.00
   -5    7    6      0.07      0.00
   -4    7    6     -0.49      0.00
   -3    7    6      0.44      0.00
   -1    7    6     10.17      0.00
    0    7    6    -16.70      0.00
    1    7    6     14.66      0.00
    2    7    6      6.13      0.00
    3    7    6     -7.32      0.00
    4    7    6     11.89      0.00
    5    7    6     -7.26      0.00
    6    7    6     -2.16      0.00
    7    7    6      5.83      0.00
    8    7    6     -1.25      0.00
    9    7    6      2.38      0.00
   10    7    6     -5.83      0.00
   11    7    6     -0.94      0.00
   12    7    6      7.54      0.00
   13    7    6     -0.02      0.00
   14    7    6     -2.69      0.00
   15    7    6      1.03      0.00
   16    7    6     -2.17      0.00
   17    7    6      1.97      0.00
   18    7    6     -1.52      0.00
  -15    8    6     -2.86      0.00
  -14    8    6     -0.74      0.00
  -13    8    6     -3.33      0.00
  -12    8    6      6.86      0.00
  -11    8    6     -2.57      0.00
  -10    8    6     -3.47      0.00
   -9    8    6      7.56      0.00
   -8    8    6     -4.53      0.00
   -7    8    6     -0.91      0.00
   -6    8    6      4.63      0.00
   -5    8    6     -3.80      0.00
   -4    8    6      8.48      0.00
   -3    8    6      2.44      0.00
   -2    8    6    -22.23      0.00
   -1    8    6      6.05      0.00
    0    8    6      3.25      0.00
    1    8    6      4.10      0.00
    2    8    6      3.34      0.00
    3    8    6      4.72      0.00
    4    8    6     -2.42      0.00
    5    8    6     -2.67      0.00
    6    8    6     -4.99      0.00
    7    8    6      3.45      0.00
    8    8    6     -8.83      0.00
    9    8    6      6.93      0.00
   10    8    6     -5.93      0.00
   11    8    6      7.65      0.00
   12    8    6     13.01      0.00
   13    8    6      4.70      0.00
   14    8    6      2.58      0.00
   15    8    6      4.78      0.00
   16    8    6      3.77      0.00
   17    8    6     -1.49      0.00
   18    8    6      1.10      0.00
  -14    9    6     -1.36      0.00
  -13    9    6      1.91      0.00
  -12    9    6      2.19      0.00
  -11    9    6     -0.87      0.00
  -10    9    6     -7.95      0.00
   -9    9    6     14.76      0.00
   -8    9    6     -1.54      0.00
   -7    9    6     -1.12      0.00
   -6    9    6      0.30      0.00
   -5    9    6     -4.81      0.00
   -3    9    6     -1.63      0.00
   -2    9    6    -15.07      0.00
   -1    9    6      1.17      0.00
    0    9    6     23.18      0.00
    1    9    6    -14.70      0.00
    2    9    6     -1.27      0.00
    3    9    6      9.84      0.00
    4    9    6    -10.27      0.00
    5    9    6     11.65      0.00
    6    9    6     -8.66      0.00
    7    9    6     -0.61      0.00
    8    9    6      2.68      0.00
    9    9    6     -1.90      0.00
   10    9    6    -10.30      0.00
   11    9    6      7.74      0.00
   12    9    6      7.42      0.00
   13    9    6     -3.43      0.00
   14    9    6     -0.45      0.00
   15    9    6      1.24      0.00
   16    9    6      0.86      0.00
   17    9    6      1.61      0.00
   18    9    6      0.60      0.00
  -14   10    6     -0.40      0.00
  -13   10    6      2.30      0.00
  -12   10    6      1.51      0.00
  -11   10    6      0.11      0.00
   -9   10    6     10.53      0.00
   -8   10    6     -2.86      0.00
   -7   10    6     -5.34      0.00
   -6   10    6      3.06      0.00
   -5   10    6     -2.70      0.00
   -4   10    6      4.96      0.00
   -3   10    6    -11.55      0.00
   -2   10    6     -2.53      0.00
   -1   10    6     -2.91      0.00
    0   10    6     12.62      0.00
    1   10    6     -9.40      0.00
    2   10    6      5.65      0.00
    3   10    6      8.54      0.00
    4   10    6    -10.02      0.00
    5   10    6     -2.34      0.00
    6   10    6     -5.62      0.00
    7   10    6     -3.27      0.00
    8   10    6      1.17      0.00
    9   10    6     -4.96      0.00
   10   10    6      3.96      0.00
   11   10    6      2.87      0.00
   12   10    6     -7.17      0.00
   13   10    6     -0.13      0.00
   14   10    6     -1.92      0.00
   15   10    6     -3.18      0.00
   16   10    6      0.94      0.00
   17   10    6     -1.21      0.00
   18   10    6     -1.98      0.00
  -13   11    6      1.54      0.00
  -12   11    6     -0.88      0.00
  -11   11    6     -0.49      0.00
  -10   11    6      1.14      0.00
   -9   11    6     -0.29      0.00
   -8   11    6      1.49      0.00
   -7   11    6      2.89      0.00
   -6   11    6     -5.88      0.00
   -5   11    6      2.58      0.00
   -4   11    6      3.68      0.00
   -3   11    6    -15.71      0.00
   -2   11    6      5.52      0.00
   -1   11    6     -2.93      0.00
    0   11    6     11.68      0.00
    1   11    6     -1.25      0.00
    2   11    6      2.16      0.00
    3   11    6      0.98      0.00
    4   11    6      3.67      0.00
    5   11    6     -9.50      0.00
    6   11    6     -7.63      0.00
    7   11    6     -3.48      0.00
    8   11    6      3.35      0.00
    9   11    6     -1.87      0.00
   10   11    6     -1.91      0.00
   11   11    6      2.98      0.00
   12   11    6     -4.34      0.00
   13   11    6     -5.08      0.00
   14   11    6      3.76      0.00
   15   11    6      3.48      0.00
   16   11    6     -4.38      0.00
   17   11    6      0.26      0.00
  -12   12    6     -2.54      0.00
  -11   12    6      1.35      0.00
  -10   12    6     -3.18      0.00
   -9   12    6     -0.67      0.00
   -8   12    6     -3.32      0.00
   -7   12    6     -3.49      0.00
   -6   12    6      3.54      0.00
   -5   12    6      2.87      0.00
   -4   12    6    -11.83      0.00
   -3   12    6      0.97      0.00
   -2   12    6     10.85      0.00
   -1   12    6    -10.12      0.00
    0   12    6     10.02      0.00
    1   12    6      8.79      0.00
    2   12    6     -2.92      0.00
    3   12    6     -4.26      0.00
    4   12    6      5.32      0.00
    5   12    6    -11.30      0.00
    6   12    6      9.31      0.00
    7   12    6      3.11      0.00
    8   12    6     -1.40      0.00
    9   12    6      8.45      0.00
   10   12    6     -0.97      0.00
   11   12    6     -6.75      0.00
   12   12    6      3.08      0.00
   13   12    6      4.97      0.00
   14   12    6     -4.79      0.00
   15   12    6      3.72      0.00
   16   12    6     -2.74      0.00
   17   12    6     -2.66      0.00
  -12   13    6      3.97      0.00
  -11   13    6     -3.54      0.00
  -10   13    6     -2.36      0.00
   -9   13    6      4.24      0.00
   -8   13    6      2.38      0.00
   -7   13    6      0.53      0.00
   -6   13    6     -4.00      0.00
   -5   13    6      2.81      0.00
   -4   13    6    -12.32      0.00
   -3   13    6     -0.64      0.00
   -2   13    6      0.08      0.00
   -1   13    6      6.49      0.00
    0   13    6      1.48      0.00
    1   13    6      2.18      0.00
    2   13    6      4.22      0.00
    3   13    6     -5.63      0.00
    4   13    6      3.44      0.00
    5   13    6      1.64      0.00
    6   13    6     -1.33      0.00
    7   13    6      5.57      0.00
    8   13    6     -0.18      0.00
    9   13    6     -0.27      0.00
   10   13    6     -1.12      0.00
   11   13    6      1.35      0.00
   12   13    6     -3.96      0.00
   13   13    6      2.57      0.00
   14   13    6      6.07      0.00
   15   13    6     -2.08      0.00
   16   13    6     -1.82      0.00
  -11   14    6      1.00      0.00
  -10   14    6     -1.85      0.00
   -9   14    6      3.89      0.00
   -8   14    6     -3.18      0.00
   -7   14    6      4.83      0.00
   -6   14    6      5.49      0.00
   -5   14    6     -6.14      0.00
   -4   14    6     -8.48      0.00
   -3   14    6      7.42      0.00
   -2   14    6     -8.64      0.00
   -1   14    6      6.72      0.00
    0   14    6     -1.31      0.00
    1   14    6     -2.45      0.00
    2   14    6      3.13      0.00
    3   14    6     -5.65      0.00
    4   14    6     -0.49      0.00
    5   14    6      3.54      0.00
    6   14    6     -4.51      0.00
    7   14    6     -0.32      0.00
    8   14    6      1.05      0.00
    9   14    6     -5.75      0.00
   10   14    6     -1.17      0.00
   11   14    6     -1.60      0.00
   12   14    6      6.98      0.00
   13   14    6     -1.86      0.00
   14   14    6     -1.03      0.00
   15   14    6     -0.89      0.00
  -10   15    6      4.45      0.00
   -9   15    6     -1.30      0.00
   -8   15    6      2.48      0.00
   -7   15    6     -1.14      0.00
   -6   15    6     -1.86      0.00
   -5   15    6      0.13      0.00
   -4   15    6     -0.29      0.00
   -3   15    6     -5.75      0.00
   -2   15    6      8.96      0.00
   -1   15    6      7.35      0.00
    0   15    6     -7.90      0.00
    1   15    6      0.80      0.00
    2   15    6      3.36      0.00
    3   15    6     -7.80      0.00
    4   15    6      2.23      0.00
    5   15    6      2.26      0.00
    6   15    6     -2.57      0.00
    7   15    6     -3.50      0.00
    8   15    6      2.21      0.00
    9   15    6     -0.06      0.00
   10   15    6      1.45      0.00
   11   15    6      1.30      0.00
   12   15    6     -3.99      0.00
   13   15    6      0.30      0.00
   14   15    6      2.96      0.00
   15   15    6     -2.25      0.00
   -8   16    6      2.61      0.00
   -7   16    6     -1.07      0.00
   -6   16    6      1.34      0.00
   -5   16    6     -4.55      0.00
   -4   16    6      1.77      0.00
   -3   16    6     -0.78      0.00
   -2   16    6      1.15      0.00
   -1   16    6      1.18      0.00
    0   16    6      2.19      0.00
    1   16    6     -0.57      0.00
    2   16    6     -1.86      0.00
    3   16    6      3.80      0.00
    4   16    6     -4.69      0.00
    5   16    6     -0.42      0.00
    6   16    6      3.35      0.00
    7   16    6      0.18      0.00
    8   16    6     -3.21      0.00
    9   16    6      3.52      0.00
   10   16    6     -0.49      0.00
   11   16    6      3.22      0.00
   12   16    6     -0.38      0.00
   13   16    6      1.28      0.00
   14   16    6     -0.93      0.00
   -7   17    6      0.98      0.00
   -6   17    6     -0.40      0.00
   -5   17    6     -1.89      0.00
   -4   17    6      0.63      0.00
   -3   17    6      0.57      0.00
   -2   17    6      1.78      0.00
   -1   17    6     -5.15      0.00
    0   17    6     -2.03      0.00
    1   17    6      1.49      0.00
    2   17    6     -2.95      0.00
    3   17    6      1.03      0.00
    4   17    6     -3.35      0.00
    5   17    6      1.91      0.00
    6   17    6     -1.18      0.00
    7   17    6      0.53      0.00
    8   17    6      3.03      0.00
    9   17    6     -0.34      0.00
   10   17    6     -2.35      0.00
   11   17    6      0.84      0.00
   12   17    6      0.70      0.00
   -5   18    6     -1.88      0.00
   -4   18    6      1.29      0.00
   -3   18    6      1.15      0.00
   -2   18    6      0.75      0.00
   -1   18    6     -0.91      0.00
    0   18    6      2.99      0.00
    1   18    6     -1.04      0.00
    2   18    6     -0.78      0.00
    3   18    6      2.78      0.00
    4   18    6     -4.31      0.00
    5   18    6      2.32      0.00
    6   18    6      1.22      0.00
    7   18    6      0.24      0.00
    8   18    6     -1.62      0.00
    9   18    6      2.54      0.00
   10   18    6     -1.83      0.00
   11   18    6     -0.21      0.00
   -2   19    6      0.72      0.00
   -1   19    6     -1.32      0.00
    0   19    6     -0.86      0.00
    1   19    6      0.55      0.00
    2   19    6      0.85      0.00
    3   19    6     -0.47      0.00
    4   19    6      2.56      0.00
    5   19    6     -0.52      0.00
    6   19    6     -1.65      0.00
    7   19    6      0.46      0.00
    8   19    6     -1.49      0.00
   -5  -13    7     -0.25      0.00
   -4  -13    7     -1.10      0.00
   -3  -13    7      0.34      0.00
   -2  -13    7      0.70      0.00
   -1  -13    7      0.07      0.00
    0  -13    7      0.70      0.00
    1  -13    7     -0.73      0.00
    2  -13    7     -0.03      0.00
    3  -13    7      1.40      0.00
   -8  -12    7      1.25      0.00
   -7  -12    7      1.48      0.00
   -6  -12    7     -3.39      0.00
   -5  -12    7      0.40      0.00
   -4  -12    7     -1.43      0.00
   -3  -12    7      0.29      0.00
   -2  -12    7     -0.12      0.00
   -1  -12    7     -5.12      0.00
    0  -12    7      1.47      0.00
    1  -12    7     -0.51      0.00
    2  -12    7      0.79      0.00
    3  -12    7     -0.55      0.00
    4  -12    7     -0.19      0.00
    5  -12    7     -2.56      0.00
    6  -12    7      1.80      0.00
   -9  -11    7     -1.29      0.00
   -8  -11    7     -1.40      0.00
   -7  -11    7      3.28      0.00
   -6  -11    7     -1.00      0.00
   -5  -11    7     -5.00      0.00
   -4  -11    7      0.51      0.00
   -3  -11    7      3.39      0.00
   -2  -11    7     -2.31      0.00
   -1  -11    7     -1.60      0.00
    0  -11    7      3.46      0.00
    1  -11    7     -3.46      0.00
    2  -11    7      2.74      0.00
    3  -11    7      1.85      0.00
    4  -11    7     -4.49      0.00
    5  -11    7      0.56      0.00
    6  -11    7     -0.39      0.00
    7  -11    7      1.15      0.00
    8  -11    7      1.11      0.00
  -11  -10    7      0.03      0.00
  -10  -10    7      2.85      0.00
   -9  -10    7     -0.14      0.00
   -8  -10    7     -0.11      0.00
   -7  -10    7      3.20      0.00
   -6  -10    7     -2.28      0.00
   -5  -10    7      0.33      0.00
   -4  -10    7     -3.65      0.00
   -3  -10    7      1.27      0.00
   -2  -10    7     -0.02      0.00
   -1  -10    7     -5.02      0.00
    0  -10    7      3.23      0.00
    1  -10    7      1.05      0.00
    2  -10    7     -2.50      0.00
    3  -10    7      1.79      0.00
    4  -10    7      1.47      0.00
    5  -10    7     -1.56      0.00
    6  -10    7     -1.43      0.00
    7  -10    7     -1.37      0.00
    8  -10    7      3.47      0.00
    9  -10    7     -3.60      0.00
   10  -10    7      1.44      0.00
  -12   -9    7     -1.81      0.00
  -11   -9    7      1.79      0.00
  -10   -9    7      0.58      0.00
   -9   -9    7     -0.48      0.00
   -8   -9    7      0.45      0.00
   -7   -9    7      0.77      0.00
   -6   -9    7      2.58      0.00
   -5   -9    7     -2.28      0.00
   -4   -9    7     -2.19      0.00
   -3   -9    7     -2.38      0.00
   -2   -9    7     -0.20      0.00
   -1   -9    7     -2.07      0.00
    0   -9    7     -1.16      0.00
    1   -9    7      2.99      0.00
    2   -9    7      2.08      0.00
    3   -9    7     -4.37      0.00
    4   -9    7     -0.52      0.00
    5   -9    7      0.27      0.00
    6   -9    7      1.10      0.00
    7   -9    7      0.48      0.00
    8   -9    7     -2.51      0.00
    9   -9    7     -0.30      0.00
   10   -9    7      3.93      0.00
   11   -9    7     -1.58      0.00
  -13   -8    7     -2.71      0.00
  -12   -8    7      0.07      0.00
  -11   -8    7      0.67      0.00
  -10   -8    7     -1.03      0.00
   -9   -8    7      1.87      0.00
   -8   -8    7      0.96      0.00
   -7   -8    7     -9.01      0.00
   -6   -8    7      4.86      0.00
   -5   -8    7     -3.21      0.00
   -4   -8    7     -8.66      0.00
   -3   -8    7     -0.06      0.00
   -2   -8    7      4.81      0.00
   -1   -8    7     -1.81      0.00
    0   -8    7     -8.10      0.00
    1   -8    7     10.62      0.00
    2   -8    7     -0.40      0.00
    3   -8    7      1.31      0.00
    4   -8    7     -1.86      0.00
    5   -8    7     -2.21      0.00
    6   -8    7     -0.66      0.00
    7   -8    7      4.63      0.00
    8   -8    7     -4.52      0.00
    9   -8    7      1.88      0.00
   10   -8    7      3.84      0.00
   11   -8    7      0.27      0.00
   12   -8    7     -2.47      0.00
   13   -8    7     -0.04      0.00
  -13   -7    7      0.41      0.00
  -12   -7    7      0.21      0.00
  -11   -7    7      3.82      0.00
  -10   -7    7      2.36      0.00
   -9   -7    7     -2.27      0.00
   -8   -7    7      1.35      0.00
   -7   -7    7     -2.32      0.00
   -6   -7    7      1.61      0.00
   -5   -7    7      2.85      0.00
   -4   -7    7     -0.32      0.00
   -3   -7    7     -5.39      0.00
   -2   -7    7      4.97      0.00
   -1   -7    7      1.03      0.00
    0   -7    7     -1.21      0.00
    1   -7    7      8.44      0.00
    2   -7    7     -0.92      0.00
    3   -7    7     -4.39      0.00
    4   -7    7      0.10      0.00
    5   -7    7      4.77      0.00
    6   -7    7     -1.55      0.00
    7   -7    7      1.45      0.00
    8   -7    7     -2.34      0.00
    9   -7    7      5.34      0.00
   10   -7    7     -0.52      0.00
   11   -7    7      4.65      0.00
   12   -7    7     -1.43      0.00
   13   -7    7     -0.58      0.00
   14   -7    7      1.19      0.00
  -14   -6    7     -0.21      0.00
  -13   -6    7     -5.31      0.00
  -12   -6    7      2.48      0.00
  -11   -6    7     -0.38      0.00
  -10   -6    7     -0.41      0.00
   -9   -6    7     -1.88      0.00
   -8   -6    7      4.30      0.00
   -7   -6    7      1.40      0.00
   -6   -6    7     -3.52      0.00
   -5   -6    7     -1.42      0.00
   -4   -6    7     10.18      0.00
   -3   -6    7      3.24      0.00
   -2   -6    7     -1.63      0.00
   -1   -6    7      2.56      0.00
    0   -6    7     12.12      0.00
    1   -6    7      1.36      0.00
    2   -6    7     -3.35      0.00
    3   -6    7      2.14      0.00
    4   -6    7     -6.65      0.00
    5   -6    7     -0.34      0.00
    6   -6    7      4.21      0.00
    7   -6    7      0.04      0.00
    8   -6    7      5.01      0.00
    9   -6    7      0.74      0.00
   10   -6    7      0.69      0.00
   11   -6    7      4.01      0.00
   12   -6    7     -2.93      0.00
   13   -6    7      4.69      0.00
   14   -6    7      2.18      0.00
  -15   -5    7     -1.51      0.00
  -14   -5    7     -2.43      0.00
  -13   -5    7      0.73      0.00
  -12   -5    7     -0.98      0.00
  -11   -5    7     -1.90      0.00
  -10   -5    7      6.15      0.00
   -9   -5    7     -4.20      0.00
   -8   -5    7     -6.01      0.00
   -7   -5    7      4.28      0.00
   -6   -5    7      0.98      0.00
   -5   -5    7     -5.66      0.00
   -4   -5    7     -1.46      0.00
   -3   -5    7     -8.85      0.00
   -2   -5    7     -1.42      0.00
   -1   -5    7     12.05      0.00
    0   -5    7      7.29      0.00
    1   -5    7    -19.39      0.00
    2   -5    7      5.71      0.00
    3   -5    7      1.06      0.00
    4   -5    7     -2.12      0.00
    5   -5    7      2.40      0.00
    6   -5    7     -2.34      0.00
    7   -5    7     -8.60      0.00
    8   -5    7      5.62      0.00
    9   -5    7     -6.43      0.00
   10   -5    7     -2.95      0.00
   11   -5    7      1.07      0.00
   12   -5    7     -5.68      0.00
   13   -5    7      0.84      0.00
   14   -5    7      2.35      0.00
   15   -5    7      1.25      0.00
  -15   -4    7      1.33      0.00
  -14   -4    7     -4.95      0.00
  -13   -4    7      2.65      0.00
  -12   -4    7     -1.55      0.00
  -11   -4    7     -0.81      0.00
  -10   -4    7     -1.53      0.00
   -9   -4    7      1.14      0.00
   -8   -4    7     -1.45      0.00
   -7   -4    7     -7.94      0.00
   -6   -4    7     -5.58      0.00
   -5   -4    7      0.07      0.00
   -4   -4    7     10.59      0.00
   -3   -4    7    -11.25      0.00
   -2   -4    7     -2.04      0.00
    0   -4    7      7.67      0.00
    1   -4    7    -15.35      0.00
    2   -4    7      5.63      0.00
    3   -4    7     -4.99      0.00
    4   -4    7      7.70      0.00
    5   -4    7     -0.13      0.00
    6   -4    7     -3.39      0.00
    7   -4    7     -2.02      0.00
    8   -4    7     -3.71      0.00
    9   -4    7     -4.43      0.00
   10   -4    7     -5.03      0.00
   11   -4    7      2.24      0.00
   12   -4    7     -3.38      0.00
   13   -4    7      3.57      0.00
   14   -4    7     -3.76      0.00
   15   -4    7      1.95      0.00
   16   -4    7     -0.71      0.00
  -15   -3    7      0.81      0.00
  -14   -3    7     -3.22      0.00
  -13   -3    7      0.11      0.00
  -12   -3    7     -0.87      0.00
  -11   -3    7      0.27      0.00
  -10   -3    7      1.99      0.00
   -9   -3    7     -5.78      0.00
   -8   -3    7     -3.50      0.00
   -7   -3    7     -7.77      0.00
   -4   -3    7    -19.21      0.00
   -3   -3    7     15.00      0.00
   -1   -3    7     -2.23      0.00
    0   -3    7     -1.93      0.00
    1   -3    7     11.20      0.00
    2   -3    7      8.83      0.00
    3   -3    7     -3.86      0.00
    4   -3    7      8.52      0.00
    5   -3    7     -1.28      0.00
    6   -3    7     -8.69      0.00
    7   -3    7     -2.11      0.00
    8   -3    7      2.29      0.00
    9   -3    7      7.46      0.00
   10   -3    7      1.71      0.00
   11   -3    7     -0.47      0.00
   12   -3    7      5.44      0.00
   13   -3    7      6.33      0.00
   14   -3    7     -2.87      0.00
   15   -3    7      0.15      0.00
   16   -3    7     -1.40      0.00
  -16   -2    7     -0.77      0.00
  -15   -2    7     -2.02      0.00
  -14   -2    7      3.62      0.00
  -13   -2    7     -1.55      0.00
  -12   -2    7      2.15      0.00
  -11   -2    7      9.09      0.00
  -10   -2    7     -4.13      0.00
   -9   -2    7     -0.38      0.00
   -8   -2    7      2.93      0.00
   -7   -2    7     -2.45      0.00
   -6   -2    7     -4.90      0.00
   -5   -2    7     10.35      0.00
   -4   -2    7    -16.62      0.00
   -3   -2    7     14.56      0.00
   -2   -2    7     -8.73      0.00
   -1   -2    7     -2.71      0.00
    0   -2    7      8.75      0.00
    1   -2    7     12.42      0.00
    2   -2    7     -4.99      0.00
    3   -2    7      5.66      0.00
    4   -2    7      1.25      0.00
    5   -2    7      0.90      0.00
    6   -2    7     -1.01      0.00
    7   -2    7     -8.50      0.00
    8   -2    7      4.13      0.00
    9   -2    7      6.11      0.00
   10   -2    7     -1.01      0.00
   11   -2    7     -3.39      0.00
   12   -2    7      9.80      0.00
   13   -2    7      0.44      0.00
   14   -2    7      1.82      0.00
   15   -2    7     -0.10      0.00
   16   -2    7     -1.89      0.00
   17   -2    7      4.80      0.00
  -16   -1    7      0.50      0.00
  -15   -1    7     -0.44      0.00
  -14   -1    7     -1.66      0.00
  -13   -1    7      6.78      0.00
  -12   -1    7      3.80      0.00
  -11   -1    7      6.93      0.00
  -10   -1    7     -0.81      0.00
   -9   -1    7      0.44      0.00
   -8   -1    7      2.86      0.00
   -7   -1    7      8.01      0.00
   -6   -1    7      2.11      0.00
   -5   -1    7     -2.86      0.00
   -4   -1    7     10.86      0.00
   -3   -1    7      2.02      0.00
   -2   -1    7     -4.61      0.00
   -1   -1    7     11.42      0.00
    0   -1    7      1.52      0.00
    1   -1    7     -4.89      0.00
    2   -1    7     -8.39      0.00
    3   -1    7      0.95      0.00
    4   -1    7     -4.25      0.00
    5   -1    7      4.91      0.00
    6   -1    7    -11.80      0.00
    7   -1    7    -10.32      0.00
    8   -1    7     12.93      0.00
    9   -1    7      2.01      0.00
   10   -1    7     -4.34      0.00
   11   -1    7     -1.23      0.00
   12   -1    7      6.13      0.00
   13   -1    7     -4.67      0.00
   14   -1    7      0.82      0.00
   15   -1    7     -6.86      0.00
   16   -1    7      0.42      0.00
   17   -1    7     -1.04      0.00
  -16    0    7      1.75      0.00
  -15    0    7     -2.21      0.00
  -14    0    7     -1.41      0.00
  -13    0    7      4.32      0.00
  -12    0    7      3.42      0.00
  -11    0    7     -1.90      0.00
  -10    0    7     -5.64      0.00
   -9    0    7     -5.48      0.00
   -8    0    7      6.33      0.00
   -7    0    7      0.56      0.00
   -6    0    7     -6.89      0.00
   -5    0    7    -14.30      0.00
   -4    0    7     33.24      0.00
   -3    0    7    -12.34      0.00
   -2    0    7    -10.15      0.00
   -1    0    7     15.63      0.00
    0    0    7     -4.94      0.00
    1    0    7      8.27      0.00
    2    0    7    -16.82      0.00
    3    0    7     -7.89      0.00
    4    0    7      5.54      0.00
    5    0    7    -21.12      0.00
    6    0    7      2.76      0.00
    7    0    7      4.93      0.00
    8    0    7     -7.41      0.00
    9    0    7     -0.45      0.00
   10    0    7      4.42      0.00
   11    0    7      4.61      0.00
   12    0    7      1.60      0.00
   13    0    7      7.91      0.00
   14    0    7     -1.59      0.00
   15    0    7     -7.56      0.00
   16    0    7      2.06      0.00
   17    0    7     -5.82      0.00
  -16    1    7      1.89      0.00
  -15    1    7     -3.40      0.00
  -14    1    7     -2.91      0.00
  -13    1    7      4.70      0.00
  -12    1    7     -3.90      0.00
  -11    1    7     -4.40      0.00
  -10    1    7     -3.73      0.00
   -9    1    7    -10.19      0.00
   -8    1    7      5.68      0.00
   -7    1    7     -7.32      0.00
   -6    1    7     -5.29      0.00
   -5    1    7    -14.98      0.00
   -4    1    7     18.47      0.00
   -3    1    7     -9.10      0.00
   -2    1    7      1.68      0.00
   -1    1    7     10.41      0.00
    0    1    7    -16.70      0.00
    1    1    7     12.67      0.00
    2    1    7     -3.34      0.00
    3    1    7     -1.02      0.00
    4    1    7     22.90      0.00
    5    1    7    -13.85      0.00
    6    1    7    -20.58      0.00
    7    1    7     10.34      0.00
    8    1    7      4.97      0.00
    9    1    7     -5.10      0.00
   10    1    7     -5.49      0.00
   11    1    7     10.09      0.00
   12    1    7     -5.39      0.00
   13    1    7     11.16      0.00
   14    1    7     -7.14      0.00
   15    1    7      1.72      0.00
   16    1    7     -4.86      0.00
   17    1    7      3.35      0.00
  -16    2    7     -3.81      0.00
  -15    2    7     -1.84      0.00
  -14    2    7      0.99      0.00
  -13    2    7      2.35      0.00
  -12    2    7      1.50      0.00
  -11    2    7     -6.01      0.00
  -10    2    7     -2.11      0.00
   -9    2    7      7.55      0.00
   -8    2    7     -3.99      0.00
   -7    2    7     -9.56      0.00
   -6    2    7      6.97      0.00
   -5    2    7      0.44      0.00
   -4    2    7      4.07      0.00
   -3    2    7     14.53      0.00
   -2    2    7      5.42      0.00
   -1    2    7    -18.43      0.00
    0    2    7     15.17      0.00
    1    2    7     21.15      0.00
    2    2    7     -8.10      0.00
    3    2    7      2.63      0.00
    4    2    7    -11.45      0.00
    5    2    7      9.27      0.00
    6    2    7      9.01      0.00
    7    2    7    -14.39      0.00
    8    2    7    -14.12      0.00
    9    2    7     16.03      0.00
   10    2    7      4.51      0.00
   11    2    7      3.36      0.00
   12    2    7     -7.93      0.00
   13    2    7      5.90      0.00
   14    2    7    -10.34      0.00
   15    2    7     -2.57      0.00
   16    2    7      1.48      0.00
   17    2    7     -3.11      0.00
   18    2    7      2.99      0.00
  -16    3    7     -0.76      0.00
  -15    3    7     -0.04      0.00
  -14    3    7     -1.73      0.00
  -13    3    7      6.11      0.00
  -12    3    7     -2.73      0.00
  -11    3    7      5.42      0.00
  -10    3    7     -0.02      0.00
   -9    3    7     10.34      0.00
   -8    3    7     -5.39      0.00
   -7    3    7      2.45      0.00
   -6    3    7    -11.22      0.00
   -5    3    7      4.25      0.00
   -4    3    7     -5.92      0.00
   -3    3    7     10.69      0.00
   -2    3    7      0.82      0.00
   -1    3    7    -20.65      0.00
    0    3    7     34.77      0.00
    1    3    7     -5.37      0.00
    2    3    7     17.24      0.00
    3    3    7      1.27      0.00
    4    3    7    -21.81      0.00
    5    3    7    -12.33      0.00
    6    3    7    -15.29      0.00
    7    3    7     14.15      0.00
    8    3    7      0.11      0.00
    9    3    7    -12.33      0.00
   10    3    7     10.41      0.00
   11    3    7      6.53      0.00
   12    3    7     -2.00      0.00
   13    3    7      3.58      0.00
   14    3    7     -2.72      0.00
   15    3    7     -4.40      0.00
   16    3    7      5.62      0.00
   17    3    7      6.18      0.00
   18    3    7     -0.83      0.00
  -16    4    7     -0.05      0.00
  -15    4    7      3.36      0.00
  -14    4    7     -2.22      0.00
  -13    4    7      8.09      0.00
  -12    4    7     -0.32      0.00
  -11    4    7     -1.24      0.00
  -10    4    7     -5.70      0.00
   -9    4    7      1.20      0.00
   -7    4    7      4.79      0.00
   -6    4    7     -6.63      0.00
   -5    4    7     -1.00      0.00
   -4    4    7     -3.39      0.00
   -3    4    7     -2.21      0.00
   -2    4    7      1.83      0.00
   -1    4    7    -18.60      0.00
    0    4    7     17.07      0.00
    1    4    7      5.43      0.00
    2    4    7      5.29      0.00
    3    4    7    -19.24      0.00
    4    4    7    -14.26      0.00
    5    4    7      6.49      0.00
    6    4    7      7.09      0.00
    7    4    7    -18.39      0.00
    8    4    7     13.11      0.00
    9    4    7      0.54      0.00
   10    4    7      2.09      0.00
   11    4    7      1.37      0.00
   12    4    7     -3.32      0.00
   13    4    7      0.03      0.00
   14    4    7      3.32      0.00
   15    4    7      2.79      0.00
   16    4    7      1.11      0.00
   17    4    7     -3.61      0.00
   18    4    7      2.49      0.00
  -16    5    7      0.78      0.00
  -15    5    7     -0.38      0.00
  -14    5    7     -0.19      0.00
  -13    5    7      1.61      0.00
  -12    5    7      1.68      0.00
  -11    5    7     -3.14      0.00
  -10    5    7      0.92      0.00
   -9    5    7    -11.53      0.00
   -8    5    7      5.63      0.00
   -7    5    7    -12.88      0.00
   -6    5    7     -2.66      0.00
   -5    5    7      9.07      0.00
   -4    5    7     -1.93      0.00
   -3    5    7      3.16      0.00
   -2    5    7      6.22      0.00
   -1    5    7     15.00      0.00
    0    5    7    -10.10      0.00
    1    5    7     12.53      0.00
    2    5    7     -6.44      0.00
    3    5    7     -9.24      0.00
    4    5    7     -7.25      0.00
    5    5    7    -17.31      0.00
    6    5    7     22.04      0.00
    7    5    7     10.53      0.00
    8    5    7     -2.03      0.00
    9    5    7     -3.15      0.00
   10    5    7     12.14      0.00
   11    5    7      9.61      0.00
   12    5    7      0.17      0.00
   13    5    7     -7.02      0.00
   14    5    7     -1.86      0.00
   15    5    7     -0.93      0.00
   16    5    7     -3.31      0.00
   17    5    7     -0.42      0.00
   18    5    7     -5.12      0.00
  -15    6    7      0.99      0.00
  -14    6    7      6.83      0.00
  -13    6    7     -6.78      0.00
  -12    6    7     -1.27      0.00
  -11    6    7     -5.76      0.00
  -10    6    7      3.12      0.00
   -9    6    7      3.76      0.00
   -8    6    7     -0.35      0.00
   -7    6    7     -5.12      0.00
   -6    6    7     -4.69      0.00
   -5    6    7     -1.68      0.00
   -4    6    7     -0.64      0.00
   -3    6    7      1.30      0.00
   -2    6    7      3.93      0.00
    0    6    7    -14.32      0.00
    1    6    7     21.84      0.00
    2    6    7      1.98      0.00
    3    6    7    -10.63      0.00
    4    6    7     -1.79      0.00
    5    6    7      2.50      0.00
    6    6    7      2.73      0.00
    7    6    7     -2.11      0.00
    8    6    7     -7.42      0.00
    9    6    7     11.45      0.00
   10    6    7      7.97      0.00
   11    6    7      0.70      0.00
   12    6    7     -1.32      0.00
   13    6    7     -2.86      0.00
   14    6    7     -0.36      0.00
   15    6    7      1.69      0.00
   16    6    7     -7.73      0.00
   17    6    7     -0.29      0.00
   18    6    7      2.34      0.00
  -15    7    7      1.48      0.00
  -14    7    7      5.76      0.00
  -13    7    7     -4.90      0.00
  -12    7    7     -0.66      0.00
  -11    7    7      6.32      0.00
  -10    7    7     -3.41      0.00
   -9    7    7      4.32      0.00
   -8    7    7     -0.18      0.00
   -7    7    7      0.72      0.00
   -6    7    7      9.61      0.00
   -4    7    7     -1.16      0.00
   -3    7    7      3.62      0.00
   -2    7    7      2.83      0.00
    0    7    7     -7.95      0.00
    1    7    7      4.15      0.00
    2    7    7     -8.43      0.00
    3    7    7     -7.82      0.00
    4    7    7      3.39      0.00
    5    7    7     -5.22      0.00
    6    7    7     -0.70      0.00
    7    7    7     15.70      0.00
    8    7    7    -16.26      0.00
    9    7    7      2.51      0.00
   10    7    7     10.48      0.00
   11    7    7    -10.55      0.00
   12    7    7     -5.99      0.00
   13    7    7     -7.88      0.00
   14    7    7     -5.43      0.00
   15    7    7     -0.39      0.00
   16    7    7     -0.07      0.00
   17    7    7     -4.21      0.00
   18    7    7      3.41      0.00
  -15    8    7      1.84      0.00
  -14    8    7     -0.38      0.00
  -13    8    7     -2.63      0.00
  -12    8    7     -1.60      0.00
  -11    8    7      7.20      0.00
  -10    8    7     -5.19      0.00
   -9    8    7     -2.16      0.00
   -8    8    7     -0.55      0.00
   -7    8    7     -2.52      0.00
   -6    8    7      7.28      0.00
   -4    8    7      5.01      0.00
   -3    8    7     -0.84      0.00
   -2    8    7     -1.06      0.00
   -1    8    7     -0.34      0.00
    0    8    7      8.98      0.00
    1    8    7      1.54      0.00
    2    8    7     -6.02      0.00
    3    8    7      0.68      0.00
    4    8    7     -8.72      0.00
    5    8    7      0.35      0.00
    6    8    7     -0.57      0.00
    7    8    7      1.74      0.00
    8    8    7      7.90      0.00
    9    8    7      6.19      0.00
   10    8    7      4.52      0.00
   11    8    7     -5.16      0.00
   12    8    7     -1.92      0.00
   13    8    7      1.17      0.00
   14    8    7     -2.47      0.00
   15    8    7     -1.71      0.00
   16    8    7      1.04      0.00
   17    8    7     -4.38      0.00
   18    8    7      1.34      0.00
  -14    9    7      1.33      0.00
  -13    9    7      3.13      0.00
  -12    9    7     -6.64      0.00
  -11    9    7      2.64      0.00
  -10    9    7      2.86      0.00
   -9    9    7     -5.79      0.00
   -8    9    7      5.53      0.00
   -7    9    7     -6.14      0.00
   -6    9    7      7.04      0.00
   -5    9    7     -8.36      0.00
   -4    9    7      8.31      0.00
   -3    9    7     -6.99      0.00
   -2    9    7      6.14      0.00
   -1    9    7      6.92      0.00
    0    9    7      5.33      0.00
    1    9    7     -5.90      0.00
    2    9    7     -2.63      0.00
    3    9    7      8.63      0.00
    4    9    7     -7.19      0.00
    5    9    7      6.07      0.00
    6    9    7      3.11      0.00
    7    9    7     -2.06      0.00
    8    9    7     10.67      0.00
    9    9    7     -5.32      0.00
   10    9    7      0.22      0.00
   11    9    7      7.40      0.00
   12    9    7     -3.44      0.00
   13    9    7      6.68      0.00
   14    9    7      4.79      0.00
   15    9    7      1.61      0.00
   16    9    7      0.82      0.00
   17    9    7      6.13      0.00
   18    9    7     -2.32      0.00
  -14   10    7      0.93      0.00
  -13   10    7      5.34      0.00
  -12   10    7     -4.13      0.00
  -11   10    7     -4.18      0.00
  -10   10    7     10.55      0.00
   -9   10    7     -7.95      0.00
   -8   10    7     -0.39      0.00
   -7   10    7      1.59      0.00
   -6   10    7      5.05      0.00
   -5   10    7     -7.56      0.00
   -4   10    7      3.58      0.00
   -3   10    7     -7.73      0.00
   -2   10    7     14.97      0.00
   -1   10    7      8.03      0.00
    0   10    7     -4.70      0.00
    1   10    7     -9.53      0.00
    2   10    7     -0.42      0.00
    3   10    7     -2.09      0.00
    4   10    7     -9.74      0.00
    5   10    7      6.00      0.00
    6   10    7      6.02      0.00
    7   10    7     -1.28      0.00
    8   10    7      4.88      0.00
    9   10    7     -2.96      0.00
   10   10    7     -2.70      0.00
   11   10    7      1.51      0.00
   12   10    7     -1.06      0.00
   13   10    7      1.98      0.00
   14   10    7     -7.35      0.00
   15   10    7     -0.78      0.00
   16   10    7      4.15      0.00
   17   10    7      2.24      0.00
   18   10    7     -1.66      0.00
  -13   11    7      1.52      0.00
  -12   11    7     -2.08      0.00
  -11   11    7     -0.96      0.00
  -10   11    7      6.71      0.00
   -9   11    7     -0.99      0.00
   -8   11    7     -3.48      0.00
   -7   11    7      0.34      0.00
   -6   11    7     -8.18      0.00
   -5   11    7      8.13      0.00
   -4   11    7     -2.37      0.00
   -3   11    7     -7.82      0.00
   -2   11    7     15.12      0.00
   -1   11    7      2.15      0.00
    0   11    7     -3.22      0.00
    1   11    7     -6.92      0.00
    2   11    7      1.11      0.00
    3   11    7     -6.66      0.00
    4   11    7      6.20      0.00
    5   11    7     -6.16      0.00
    6   11    7     -2.64      0.00
    7   11    7     -0.31      0.00
    8   11    7     -7.79      0.00
    9   11    7      0.97      0.00
   10   11    7      1.06      0.00
   11   11    7     -4.95      0.00
   12   11    7     -2.17      0.00
   13   11    7      1.03      0.00
   14   11    7     -1.21      0.00
   15   11    7     -5.60      0.00
   16   11    7      4.40      0.00
   17   11    7      0.84      0.00
  -12   12    7     -0.97      0.00
  -11   12    7      1.27      0.00
  -10   12    7     -4.01      0.00
   -9   12    7      0.23      0.00
   -8   12    7     -3.53      0.00
   -7   12    7      2.91      0.00
   -6   12    7     -5.84      0.00
   -5   12    7      2.37      0.00
   -4   12    7     -1.08      0.00
   -3   12    7     15.31      0.00
   -2   12    7     -3.17      0.00
   -1   12    7     -9.68      0.00
    0   12    7      6.87      0.00
    1   12    7     -7.76      0.00
    2   12    7     -5.16      0.00
    3   12    7      5.91      0.00
    4   12    7      1.54      0.00
    5   12    7     -3.61      0.00
    6   12    7      4.97      0.00
    7   12    7     -5.76      0.00
    8   12    7     -1.30      0.00
    9   12    7      5.31      0.00
   10   12    7     -4.36      0.00
   11   12    7     -4.10      0.00
   12   12    7      7.19      0.00
   13   12    7     -5.59      0.00
   14   12    7     -3.33      0.00
   15   12    7      5.23      0.00
   16   12    7     -1.75      0.00
   17   12    7      1.93      0.00
  -11   13    7      0.28      0.00
  -10   13    7     -4.38      0.00
   -9   13    7     -0.18      0.00
   -8   13    7     -0.52      0.00
   -7   13    7     -3.88      0.00
   -6   13    7     -2.31      0.00
   -5   13    7      2.01      0.00
   -4   13    7     -3.84      0.00
   -3   13    7     16.82      0.00
   -2   13    7     -5.26      0.00
   -1   13    7     -1.41      0.00
    0   13    7      0.68      0.00
    1   13    7     -5.54      0.00
    2   13    7     -4.43      0.00
    3   13    7      2.35      0.00
    4   13    7      4.55      0.00
    5   13    7     -2.44      0.00
    6   13    7      1.12      0.00
    7   13    7      1.31      0.00
    8   13    7      4.90      0.00
    9   13    7      3.10      0.00
   10   13    7      1.50      0.00
   11   13    7     -7.48      0.00
   12   13    7      1.14      0.00
   13   13    7      5.94      0.00
   14   13    7     -2.36      0.00
   15   13    7     -3.60      0.00
   16   13    7      1.99      0.00
  -11   14    7      0.81      0.00
  -10   14    7     -1.47      0.00
   -9   14    7      0.73      0.00
   -8   14    7     -0.64      0.00
   -7   14    7      1.08      0.00
   -6   14    7     -1.74      0.00
   -5   14    7     -4.84      0.00
   -4   14    7      6.55      0.00
   -3   14    7      3.82      0.00
   -2   14    7    -12.58      0.00
   -1   14    7      6.07      0.00
    0   14    7      1.16      0.00
    1   14    7     -4.71      0.00
    2   14    7      2.58      0.00
    3   14    7      3.32      0.00
    4   14    7      1.12      0.00
    5   14    7     -1.78      0.00
    6   14    7      1.61      0.00
    7   14    7     -0.22      0.00
    8   14    7      3.38      0.00
    9   14    7     -7.05      0.00
   10   14    7      0.57      0.00
   11   14    7      4.39      0.00
   12   14    7      0.28      0.00
   13   14    7     -3.74      0.00
   14   14    7      2.30      0.00
   15   14    7      0.40      0.00
  -10   15    7      0.62      0.00
   -9   15    7      0.27      0.00
   -8   15    7      4.86      0.00
   -7   15    7     -3.82      0.00
   -6   15    7     -1.51      0.00
   -5   15    7      0.77      0.00
   -4   15    7      4.66      0.00
   -3   15    7     -0.12      0.00
   -2   15    7      1.96      0.00
   -1   15    7     -5.50      0.00
    0   15    7     -6.49      0.00
    1   15    7     10.23      0.00
    2   15    7     -8.56      0.00
    3   15    7      0.17      0.00
    4   15    7      7.61      0.00
    5   15    7     -5.60      0.00
    6   15    7     -1.45      0.00
    7   15    7      3.39      0.00
    8   15    7     -0.23      0.00
    9   15    7     -0.75      0.00
   10   15    7     -3.60      0.00
   11   15    7     -0.04      0.00
   12   15    7     -0.02      0.00
   13   15    7      1.16      0.00
   14   15    7     -1.24      0.00
   15   15    7     -4.58      0.00
   -8   16    7      0.25      0.00
   -7   16    7      0.35      0.00
   -6   16    7      1.07      0.00
   -5   16    7      0.46      0.00
   -4   16    7      3.91      0.00
   -3   16    7     -4.06      0.00
   -2   16    7      7.06      0.00
   -1   16    7      3.59      0.00
    0   16    7     -9.41      0.00
    1   16    7      4.69      0.00
    2   16    7     -0.25      0.00
    3   16    7      2.59      0.00
    4   16    7     -1.96      0.00
    5   16    7      6.40      0.00
    6   16    7     -1.89      0.00
    7   16    7     -0.06      0.00
    8   16    7     -2.07      0.00
    9   16    7      5.51      0.00
   10   16    7      1.24      0.00
   11   16    7     -1.40      0.00
   12   16    7      0.05      0.00
   13   16    7     -0.83      0.00
   14   16    7     -0.62      0.00
   -7   17    7     -0.76      0.00
   -6   17    7      0.70      0.00
   -5   17    7      1.65      0.00
   -4   17    7      1.61      0.00
   -3   17    7     -0.45      0.00
   -2   17    7     -1.61      0.00
   -1   17    7     -1.46      0.00
    0   17    7      0.05      0.00
    1   17    7      0.61      0.00
    2   17    7     -1.59      0.00
    3   17    7      2.92      0.00
    4   17    7      1.04      0.00
    5   17    7      0.31      0.00
    6   17    7     -2.59      0.00
    7   17    7      1.85      0.00
    8   17    7      0.43      0.00
    9   17    7     -0.28      0.00
   10   17    7      3.24      0.00
   11   17    7     -0.57      0.00
   12   17    7     -1.51      0.00
   13   17    7      3.11      0.00
   -5   18    7      0.47      0.00
   -4   18    7      0.74      0.00
   -3   18    7     -0.79      0.00
   -2   18    7     -0.03      0.00
   -1   18    7     -0.14      0.00
    0   18    7     -1.35      0.00
    1   18    7     -2.22      0.00
    2   18    7      2.50      0.00
    3   18    7     -3.33      0.00
    4   18    7     -1.18      0.00
    5   18    7      2.66      0.00
    6   18    7     -1.10      0.00
    7   18    7     -1.70      0.00
    8   18    7      3.02      0.00
    9   18    7      0.86      0.00
   10   18    7     -4.15      0.00
   11   18    7      3.10      0.00
   -3   19    7      0.17      0.00
   -2   19    7     -1.91      0.00
   -1   19    7      1.77      0.00
    0   19    7      1.45      0.00
    1   19    7     -0.15      0.00
    2   19    7      2.39      0.00
    3   19    7     -1.38      0.00
    4   19    7     -0.02      0.00
    5   19    7     -0.22      0.00
    6   19    7     -1.06      0.00
    7   19    7     -0.31      0.00
    8   19    7     -0.12      0.00
    9   19    7      0.69      0.00
    4   20    7     -1.72      0.00
    5   20    7      0.20      0.00
   -5  -12    8      0.36      0.00
   -4  -12    8     -0.55      0.00
   -3  -12    8      1.06      0.00
   -2  -12    8      0.01      0.00
   -1  -12    8     -0.92      0.00
    0  -12    8      1.90      0.00
    1  -12    8      1.69      0.00
    2  -12    8      0.50      0.00
    3  -12    8      0.92      0.00
    4  -12    8     -0.13      0.00
   -7  -11    8     -0.49      0.00
   -6  -11    8      0.33      0.00
   -5  -11    8     -3.03      0.00
   -4  -11    8      3.33      0.00
   -3  -11    8      0.24      0.00
   -2  -11    8     -2.62      0.00
   -1  -11    8      0.12      0.00
    0  -11    8     -0.47      0.00
    1  -11    8      2.26      0.00
    2  -11    8      4.22      0.00
    3  -11    8     -6.66      0.00
    4  -11    8     -2.47      0.00
    5  -11    8      2.49      0.00
    6  -11    8      0.86      0.00
    7  -11    8     -1.79      0.00
   -9  -10    8     -0.21      0.00
   -8  -10    8      1.12      0.00
   -7  -10    8     -2.05      0.00
   -6  -10    8     -2.55      0.00
   -5  -10    8     -0.34      0.00
   -4  -10    8      3.35      0.00
   -3  -10    8      1.96      0.00
   -2  -10    8     -3.31      0.00
   -1  -10    8      5.27      0.00
    0  -10    8      0.56      0.00
    1  -10    8     -2.40      0.00
    2  -10    8      1.88      0.00
    3  -10    8     -0.76      0.00
    4  -10    8      0.35      0.00
    5  -10    8     -2.94      0.00
    6  -10    8      0.11      0.00
    7  -10    8      1.52      0.00
    8  -10    8      1.06      0.00
    9  -10    8     -3.40      0.00
  -11   -9    8      2.27      0.00
  -10   -9    8     -3.67      0.00
   -9   -9    8      0.88      0.00
   -8   -9    8      4.32      0.00
   -7   -9    8      1.37      0.00
   -6   -9    8     -1.22      0.00
   -5   -9    8      0.42      0.00
   -4   -9    8      5.89      0.00
   -3   -9    8     -1.42      0.00
   -2   -9    8     -2.79      0.00
   -1   -9    8      7.18      0.00
    0   -9    8      0.19      0.00
    1   -9    8      0.31      0.00
    2   -9    8     -6.11      0.00
    3   -9    8     -3.22      0.00
    4   -9    8      5.79      0.00
    5   -9    8      1.49      0.00
    6   -9    8     -1.45      0.00
    7   -9    8      0.72      0.00
    8   -9    8      0.03      0.00
    9   -9    8     -0.82      0.00
   10   -9    8     -2.92      0.00
  -12   -8    8      0.76      0.00
  -11   -8    8     -3.57      0.00
  -10   -8    8     -1.35      0.00
   -9   -8    8      2.17      0.00
   -8   -8    8     -1.20      0.00
   -7   -8    8      1.63      0.00
   -6   -8    8      2.80      0.00
   -5   -8    8     -3.70      0.00
   -4   -8    8      2.56      0.00
   -3   -8    8      4.52      0.00
   -2   -8    8     -4.13      0.00
   -1   -8    8      2.06      0.00
    0   -8    8     -3.24      0.00
    1   -8    8      1.51      0.00
    2   -8    8     -6.52      0.00
    3   -8    8      1.59      0.00
    4   -8    8     -2.09      0.00
    5   -8    8      1.48      0.00
    6   -8    8      3.62      0.00
    7   -8    8     -1.98      0.00
    8   -8    8     -1.17      0.00
    9   -8    8      2.33      0.00
   10   -8    8     -1.40      0.00
   11   -8    8     -0.89      0.00
   12   -8    8      0.28      0.00
  -13   -7    8     -0.09      0.00
  -12   -7    8      2.76      0.00
  -11   -7    8      0.54      0.00
  -10   -7    8     -2.09      0.00
   -9   -7    8     -0.15      0.00
   -8   -7    8     -3.80      0.00
   -7   -7    8      0.44      0.00
   -6   -7    8     -0.79      0.00
   -5   -7    8     -3.54      0.00
   -4   -7    8     -6.92      0.00
   -3   -7    8      2.68      0.00
   -2   -7    8      3.81      0.00
   -1   -7    8    -10.08      0.00
    0   -7    8      0.00      0.00
    1   -7    8     -1.54      0.00
    2   -7    8    -10.22      0.00
    3   -7    8      5.20      0.00
    4   -7    8      4.55      0.00
    5   -7    8     -3.68      0.00
    6   -7    8      3.47      0.00
    7   -7    8     -4.88      0.00
    8   -7    8     -3.45      0.00
    9   -7    8      3.25      0.00
   10   -7    8     -2.12      0.00
   11   -7    8      0.62      0.00
   12   -7    8      1.79      0.00
   13   -7    8     -0.58      0.00
  -13   -6    8     -0.34      0.00
  -12   -6    8      2.93      0.00
  -11   -6    8     -1.57      0.00
  -10   -6    8      1.71      0.00
   -9   -6    8      3.13      0.00
   -8   -6    8     -0.65      0.00
   -7   -6    8     -1.22      0.00
   -6   -6    8      2.42      0.00
   -5   -6    8      3.77      0.00
   -4   -6    8      5.28      0.00
   -3   -6    8      3.12      0.00
   -2   -6    8      2.85      0.00
   -1   -6    8    -11.20      0.00
    0   -6    8      7.15      0.00
    1   -6    8     -2.85      0.00
    2   -6    8     -8.68      0.00
    3   -6    8      9.16      0.00
    4   -6    8      0.55      0.00
    5   -6    8     -2.66      0.00
    6   -6    8      3.59      0.00
    7   -6    8      1.69      0.00
    8   -6    8      1.92      0.00
    9   -6    8      1.19      0.00
   10   -6    8      1.15      0.00
   11   -6    8      2.37      0.00
   12   -6    8      1.57      0.00
   13   -6    8      0.99      0.00
   14   -6    8     -3.53      0.00
  -14   -5    8      0.00      0.00
  -13   -5    8      1.38      0.00
  -12   -5    8     -1.70      0.00
  -11   -5    8     -1.06      0.00
  -10   -5    8      2.23      0.00
   -9   -5    8     -3.06      0.00
   -8   -5    8     -0.20      0.00
   -7   -5    8      5.33      0.00
   -6   -5    8      1.82      0.00
   -5   -5    8      7.66      0.00
   -4   -5    8     -1.49      0.00
   -3   -5    8      1.68      0.00
   -2   -5    8     11.75      0.00
   -1   -5    8      1.18      0.00
    0   -5    8     -6.46      0.00
    1   -5    8     -2.08      0.00
    2   -5    8      7.02      0.00
    3   -5    8     -2.19      0.00
    4   -5    8     -2.84      0.00
    5   -5    8      0.01      0.00
    6   -5    8     -2.31      0.00
    7   -5    8      6.93      0.00
    8   -5    8      6.54      0.00
    9   -5    8     -2.77      0.00
   10   -5    8      4.07      0.00
   11   -5    8      2.19      0.00
   12   -5    8      1.55      0.00
   13   -5    8      0.09      0.00
   14   -5    8     -1.66      0.00
  -14   -4    8     -0.86      0.00
  -13   -4    8      0.45      0.00
  -12   -4    8      0.21      0.00
  -11   -4    8     -1.36      0.00
  -10   -4    8     -3.55      0.00
   -9   -4    8      2.22      0.00
   -8   -4    8      1.24      0.00
   -7   -4    8     -1.05      0.00
   -6   -4    8     -5.43      0.00
   -5   -4    8     11.81      0.00
   -4   -4    8     -0.87      0.00
   -3   -4    8    -15.76      0.00
   -2   -4    8      1.95      0.00
   -1   -4    8      6.88      0.00
    0   -4    8    -12.40      0.00
    1   -4    8    -12.01      0.00
    2   -4    8     13.29      0.00
    3   -4    8     -5.75      0.00
    4   -4    8     -3.61      0.00
    5   -4    8     -1.49      0.00
    6   -4    8     -0.20      0.00
    7   -4    8      6.03      0.00
    8   -4    8     -6.99      0.00
    9   -4    8    -10.55      0.00
   10   -4    8      3.23      0.00
   11   -4    8     -4.65      0.00
   12   -4    8     -4.64      0.00
   13   -4    8     -0.62      0.00
   14   -4    8     -0.38      0.00
   15   -4    8      0.82      0.00
  -15   -3    8      0.35      0.00
  -14   -3    8      3.30      0.00
  -13   -3    8     -2.73      0.00
  -12   -3    8     -4.87      0.00
  -11   -3    8     -0.57      0.00
  -10   -3    8      2.16      0.00
   -9   -3    8     -8.17      0.00
   -8   -3    8      0.60      0.00
   -7   -3    8      3.15      0.00
   -6   -3    8      0.33      0.00
   -4   -3    8    -13.23      0.00
   -3   -3    8     11.63      0.00
   -2   -3    8     -2.07      0.00
    1   -3    8     -0.90      0.00
    2   -3    8      0.90      0.00
    3   -3    8      0.54      0.00
    4   -3    8      0.91      0.00
    5   -3    8     -2.70      0.00
    6   -3    8      1.12      0.00
    7   -3    8      4.20      0.00
    8   -3    8     -0.92      0.00
    9   -3    8     -4.93      0.00
   10   -3    8      3.43      0.00
   11   -3    8     -5.00      0.00
   12   -3    8     -2.19      0.00
   13   -3    8     -5.93      0.00
   14   -3    8      2.41      0.00
   15   -3    8     -1.31      0.00
   16   -3    8      0.41      0.00
  -15   -2    8      1.40      0.00
  -14   -2    8      1.60      0.00
  -13   -2    8     -2.85      0.00
  -12   -2    8      0.23      0.00
  -11   -2    8     -4.22      0.00
  -10   -2    8     -0.58      0.00
   -9   -2    8      7.13      0.00
   -8   -2    8     -2.46      0.00
   -7   -2    8     -7.10      0.00
   -6   -2    8      2.48      0.00
   -2   -2    8    -10.74      0.00
    0   -2    8      6.88      0.00
    1   -2    8     -1.08      0.00
    2   -2    8     -0.87      0.00
    3   -2    8     10.23      0.00
    4   -2    8     -3.96      0.00
    5   -2    8      2.36      0.00
    6   -2    8     10.07      0.00
    7   -2    8     -6.97      0.00
    8   -2    8      8.98      0.00
    9   -2    8      4.20      0.00
   10   -2    8     -0.72      0.00
   11   -2    8      4.88      0.00
   12   -2    8      7.60      0.00
   13   -2    8    -10.27      0.00
   14   -2    8      7.68      0.00
   15   -2    8     -1.73      0.00
   16   -2    8      1.37      0.00
  -15   -1    8      2.28      0.00
  -14   -1    8     -2.14      0.00
  -13   -1    8     -1.51      0.00
  -12   -1    8      3.12      0.00
  -11   -1    8      1.81      0.00
  -10   -1    8      1.33      0.00
   -9   -1    8      0.47      0.00
   -8   -1    8      7.76      0.00
   -7   -1    8     -0.07      0.00
   -6   -1    8      7.68      0.00
   -2   -1    8    -11.14      0.00
   -1   -1    8      5.19      0.00
    0   -1    8     -4.52      0.00
    1   -1    8     -2.59      0.00
    2   -1    8      8.74      0.00
    3   -1    8      5.29      0.00
    4   -1    8      2.48      0.00
    5   -1    8     -1.55      0.00
    6   -1    8     -1.87      0.00
    7   -1    8      9.50      0.00
    8   -1    8      6.42      0.00
    9   -1    8     -0.13      0.00
   10   -1    8    -10.22      0.00
   11   -1    8      7.14      0.00
   12   -1    8      0.10      0.00
   13   -1    8    -11.67      0.00
   14   -1    8      5.87      0.00
   15   -1    8      0.99      0.00
   16   -1    8      5.58      0.00
  -15    0    8      0.93      0.00
  -14    0    8      4.82      0.00
  -13    0    8     -0.83      0.00
  -12    0    8      0.78      0.00
  -11    0    8     -5.54      0.00
  -10    0    8      8.79      0.00
   -9    0    8      2.39      0.00
   -8    0    8      0.20      0.00
   -7    0    8      1.59      0.00
   -6    0    8     10.46      0.00
   -5    0    8      9.31      0.00
   -4    0    8      6.47      0.00
   -3    0    8    -12.20      0.00
   -2    0    8     -2.08      0.00
   -1    0    8     17.58      0.00
    0    0    8    -12.28      0.00
    1    0    8     -7.36      0.00
    2    0    8      1.97      0.00
    3    0    8    -10.34      0.00
    4    0    8     -5.60      0.00
    5    0    8      5.87      0.00
    6    0    8      3.36      0.00
    7    0    8      3.27      0.00
    8    0    8     -4.14      0.00
    9    0    8     12.95      0.00
   10    0    8    -10.67      0.00
   11    0    8      0.32      0.00
   12    0    8      2.33      0.00
   13    0    8     -6.35      0.00
   14    0    8     -5.55      0.00
   15    0    8      0.69      0.00
   16    0    8      1.25      0.00
  -15    1    8     -2.98      0.00
  -14    1    8      5.37      0.00
  -13    1    8     -0.11      0.00
  -12    1    8     -1.27      0.00
  -11    1    8     -2.53      0.00
  -10    1    8     -7.45      0.00
   -9    1    8      7.78      0.00
   -8    1    8     -1.05      0.00
   -6    1    8     -4.43      0.00
   -5    1    8     16.53      0.00
   -4    1    8     -7.55      0.00
   -3    1    8    -19.42      0.00
   -2    1    8     12.05      0.00
   -1    1    8      3.45      0.00
    0    1    8     -9.83      0.00
    1    1    8     -2.32      0.00
    2    1    8     -3.23      0.00
    3    1    8     -2.51      0.00
    4    1    8     -5.88      0.00
    5    1    8     -6.50      0.00
    6    1    8      1.88      0.00
    7    1    8     20.70      0.00
    9    1    8      4.89      0.00
   10    1    8      3.27      0.00
   11    1    8     -4.70      0.00
   12    1    8     -2.00      0.00
   13    1    8      6.31      0.00
   14    1    8      0.05      0.00
   15    1    8      3.85      0.00
   16    1    8     -1.84      0.00
  -16    2    8     -1.14      0.00
  -15    2    8      0.21      0.00
  -14    2    8      0.40      0.00
  -13    2    8     -1.46      0.00
  -12    2    8     -7.84      0.00
  -11    2    8      0.22      0.00
  -10    2    8     -1.78      0.00
   -9    2    8      3.38      0.00
   -8    2    8     -8.96      0.00
   -7    2    8      7.35      0.00
   -6    2    8     -0.82      0.00
   -5    2    8      3.66      0.00
   -4    2    8     -5.58      0.00
   -3    2    8     -1.03      0.00
   -2    2    8      1.90      0.00
   -1    2    8    -18.65      0.00
    0    2    8     18.93      0.00
    1    2    8    -14.04      0.00
    2    2    8    -12.42      0.00
    3    2    8      7.62      0.00
    4    2    8     -1.32      0.00
    5    2    8     36.90      0.00
    6    2    8     -3.31      0.00
    7    2    8    -11.75      0.00
    9    2    8      0.76      0.00
   10    2    8     -5.56      0.00
   11    2    8     -2.49      0.00
   12    2    8     -1.81      0.00
   13    2    8     -3.49      0.00
   14    2    8     -0.84      0.00
   15    2    8      2.49      0.00
   16    2    8      2.92      0.00
   17    2    8     -3.45      0.00
  -15    3    8      1.93      0.00
  -14    3    8     -2.66      0.00
  -13    3    8      1.10      0.00
  -12    3    8     -6.15      0.00
  -11    3    8      4.77      0.00
  -10    3    8      2.82      0.00
   -9    3    8     -1.00      0.00
   -8    3    8     -2.73      0.00
   -6    3    8      3.22      0.00
   -5    3    8      2.52      0.00
   -4    3    8     -0.20      0.00
   -3    3    8     11.14      0.00
   -2    3    8      3.50      0.00
   -1    3    8     -6.64      0.00
    0    3    8     12.65      0.00
    1    3    8    -12.63      0.00
    2    3    8     -2.54      0.00
    3    3    8      6.43      0.00
    4    3    8      1.75      0.00
    5    3    8      4.83      0.00
    6    3    8     12.91      0.00
    7    3    8     -8.64      0.00
    8    3    8      4.70      0.00
    9    3    8      0.35      0.00
   10    3    8      0.34      0.00
   11    3    8    -11.70      0.00
   12    3    8      0.98      0.00
   13    3    8     -0.13      0.00
   14    3    8     -6.72      0.00
   15    3    8     -2.98      0.00
   16    3    8      5.18      0.00
   17    3    8      3.70      0.00
   18    3    8     -8.51      0.00
  -15    4    8      3.11      0.00
  -14    4    8     -5.25      0.00
  -13    4    8      0.77      0.00
  -12    4    8     -1.47      0.00
  -11    4    8     -0.08      0.00
  -10    4    8      8.72      0.00
   -9    4    8     -8.76      0.00
   -8    4    8      9.40      0.00
   -7    4    8      4.22      0.00
   -6    4    8     -9.03      0.00
   -5    4    8     -0.23      0.00
   -4    4    8      2.77      0.00
   -3    4    8     -2.79      0.00
   -2    4    8    -26.13      0.00
   -1    4    8     12.69      0.00
    0    4    8      2.23      0.00
    1    4    8      5.76      0.00
    2    4    8     -6.48      0.00
    3    4    8     -8.53      0.00
    4    4    8     24.99      0.00
    5    4    8      3.38      0.00
    6    4    8    -13.88      0.00
    7    4    8    -18.65      0.00
    8    4    8     14.01      0.00
    9    4    8     -3.08      0.00
   10    4    8     -3.95      0.00
   11    4    8     -6.97      0.00
   12    4    8     -8.69      0.00
   13    4    8      1.97      0.00
   14    4    8     10.61      0.00
   15    4    8      3.90      0.00
   16    4    8     -0.95      0.00
   17    4    8      4.11      0.00
   18    4    8     -0.16      0.00
  -15    5    8     -2.79      0.00
  -14    5    8     -0.15      0.00
  -13    5    8     -1.78      0.00
  -12    5    8      4.07      0.00
  -11    5    8     -4.84      0.00
  -10    5    8      2.18      0.00
   -9    5    8     -4.91      0.00
   -8    5    8      0.76      0.00
   -7    5    8      1.83      0.00
   -6    5    8     -0.86      0.00
   -5    5    8      5.32      0.00
   -4    5    8     -1.39      0.00
   -3    5    8      2.04      0.00
   -2    5    8    -20.99      0.00
   -1    5    8     16.37      0.00
    0    5    8    -19.96      0.00
    1    5    8      9.39      0.00
    2    5    8    -14.60      0.00
    3    5    8     -0.80      0.00
    4    5    8     10.37      0.00
    5    5    8     -2.52      0.00
    6    5    8     10.04      0.00
    7    5    8      3.72      0.00
    8    5    8     -9.87      0.00
    9    5    8     -0.44      0.00
   10    5    8     -6.55      0.00
   11    5    8     -4.67      0.00
   12    5    8      1.47      0.00
   13    5    8     -6.63      0.00
   14    5    8      5.46      0.00
   15    5    8      4.46      0.00
   16    5    8      1.03      0.00
   17    5    8      2.74      0.00
   18    5    8     -3.90      0.00
  -15    6    8     -1.31      0.00
  -14    6    8      1.44      0.00
  -13    6    8     -3.19      0.00
  -12    6    8      2.43      0.00
  -11    6    8     -2.04      0.00
  -10    6    8     -4.17      0.00
   -9    6    8      7.06      0.00
   -8    6    8     -5.62      0.00
   -7    6    8     -0.07      0.00
   -6    6    8     -4.89      0.00
   -5    6    8      6.33      0.00
   -3    6    8      3.25      0.00
   -2    6    8     -4.10      0.00
   -1    6    8     14.23      0.00
    0    6    8     -6.61      0.00
    1    6    8      9.25      0.00
    2    6    8     -0.59      0.00
    3    6    8    -13.90      0.00
    4    6    8     12.88      0.00
    5    6    8     18.03      0.00
    6    6    8    -18.42      0.00
    7    6    8     13.48      0.00
    8    6    8      4.23      0.00
    9    6    8      1.75      0.00
   10    6    8     -0.50      0.00
   11    6    8     -5.76      0.00
   12    6    8      3.45      0.00
   13    6    8      8.41      0.00
   14    6    8      4.72      0.00
   15    6    8     -8.49      0.00
   16    6    8     -3.25      0.00
   17    6    8      2.53      0.00
   18    6    8      1.07      0.00
  -15    7    8      0.15      0.00
  -14    7    8     -0.95      0.00
  -13    7    8     -1.30      0.00
  -12    7    8      2.60      0.00
  -11    7    8      1.50      0.00
  -10    7    8     -3.18      0.00
   -9    7    8      5.59      0.00
   -8    7    8      0.09      0.00
   -7    7    8      2.19      0.00
   -6    7    8      6.20      0.00
   -5    7    8    -11.52      0.00
   -4    7    8     -1.36      0.00
   -3    7    8      4.45      0.00
   -2    7    8     -0.26      0.00
   -1    7    8     -7.62      0.00
    0    7    8     -2.17      0.00
    1    7    8     -0.79      0.00
    2    7    8     -7.18      0.00
    3    7    8      7.10      0.00
    4    7    8      2.37      0.00
    5    7    8     11.95      0.00
    6    7    8      0.73      0.00
    7    7    8     -6.43      0.00
    8    7    8     -6.95      0.00
    9    7    8     -2.39      0.00
   10    7    8      3.06      0.00
   11    7    8     -6.11      0.00
   12    7    8     -1.55      0.00
   13    7    8      1.62      0.00
   14    7    8      5.51      0.00
   15    7    8     -4.03      0.00
   16    7    8      5.13      0.00
   17    7    8     -3.02      0.00
   18    7    8      3.77      0.00
  -14    8    8     -5.03      0.00
  -13    8    8     -0.97      0.00
  -12    8    8      4.36      0.00
  -11    8    8     -3.69      0.00
  -10    8    8      1.86      0.00
   -9    8    8     -1.81      0.00
   -8    8    8      8.92      0.00
   -7    8    8     -7.47      0.00
   -6    8    8     10.08      0.00
   -4    8    8     -2.27      0.00
   -2    8    8     -1.35      0.00
   -1    8    8     -9.43      0.00
    0    8    8     -4.72      0.00
    1    8    8     -3.80      0.00
    2    8    8     -9.81      0.00
    3    8    8      5.25      0.00
    4    8    8     -2.85      0.00
    5    8    8      3.92      0.00
    6    8    8      3.17      0.00
    7    8    8     -8.72      0.00
    8    8    8      4.68      0.00
    9    8    8     -3.65      0.00
   10    8    8    -12.15      0.00
   11    8    8      2.77      0.00
   12    8    8     -7.09      0.00
   13    8    8     -4.60      0.00
   14    8    8     -0.38      0.00
   15    8    8     -3.51      0.00
   16    8    8      2.21      0.00
   17    8    8      0.34      0.00
   18    8    8     -1.93      0.00
  -14    9    8     -0.05      0.00
  -13    9    8     -4.43      0.00
  -12    9    8      3.66      0.00
  -11    9    8     -2.42      0.00
  -10    9    8     -1.03      0.00
   -9    9    8     -2.26      0.00
   -8    9    8      3.10      0.00
   -7    9    8     -2.44      0.00
   -6    9    8      0.41      0.00
   -5    9    8      3.16      0.00
   -4    9    8      4.79      0.00
   -3    9    8     -5.91      0.00
   -2    9    8      4.44      0.00
   -1    9    8    -10.18      0.00
    0    9    8      0.70      0.00
    1    9    8      1.64      0.00
    2    9    8      1.41      0.00
    3    9    8     19.46      0.00
    4    9    8     -4.36      0.00
    5    9    8      0.46      0.00
    6    9    8      1.39      0.00
    7    9    8     -1.27      0.00
    8    9    8      0.73      0.00
    9    9    8      2.43      0.00
   10    9    8     -8.25      0.00
   11    9    8     10.47      0.00
   12    9    8     -2.32      0.00
   13    9    8      4.71      0.00
   14    9    8      5.80      0.00
   15    9    8      0.65      0.00
   16    9    8     -3.83      0.00
   17    9    8      5.04      0.00
   18    9    8     -5.89      0.00
  -13   10    8     -1.19      0.00
  -12   10    8      1.09      0.00
  -11   10    8      0.01      0.00
  -10   10    8      0.28      0.00
   -9   10    8     -0.26      0.00
   -8   10    8      1.31      0.00
   -7   10    8     12.39      0.00
   -6   10    8    -10.62      0.00
   -5   10    8      5.45      0.00
   -4   10    8      6.08      0.00
   -3   10    8     -7.05      0.00
   -1   10    8     -6.73      0.00
    0   10    8     -6.49      0.00
    1   10    8      8.10      0.00
    3   10    8     -0.44      0.00
    4   10    8      4.77      0.00
    5   10    8      2.25      0.00
    6   10    8      1.19      0.00
    7   10    8     12.10      0.00
    8   10    8     -7.46      0.00
    9   10    8     -3.71      0.00
   10   10    8      2.76      0.00
   11   10    8      3.68      0.00
   12   10    8      1.62      0.00
   13   10    8      2.01      0.00
   14   10    8      5.21      0.00
   15   10    8      6.56      0.00
   16   10    8     -1.47      0.00
   17   10    8     -1.11      0.00
   18   10    8      1.57      0.00
  -13   11    8     -1.97      0.00
  -12   11    8      1.22      0.00
  -11   11    8      3.36      0.00
  -10   11    8      1.83      0.00
   -9   11    8      1.69      0.00
   -8   11    8     -5.37      0.00
   -7   11    8     10.77      0.00
   -6   11    8     -4.45      0.00
   -5   11    8      7.87      0.00
   -4   11    8     -9.26      0.00
   -3   11    8     -0.99      0.00
   -2   11    8      8.71      0.00
   -1   11    8     -7.22      0.00
    0   11    8     -8.15      0.00
    1   11    8     11.70      0.00
    2   11    8      5.16      0.00
    3   11    8    -17.46      0.00
    4   11    8     12.77      0.00
    5   11    8    -10.73      0.00
    6   11    8      1.51      0.00
    7   11    8      6.48      0.00
    8   11    8     -7.79      0.00
    9   11    8     -5.28      0.00
   10   11    8      6.76      0.00
   11   11    8     -4.80      0.00
   12   11    8      3.70      0.00
   13   11    8      2.44      0.00
   14   11    8     -5.47      0.00
   15   11    8      1.22      0.00
   17   11    8     -3.42      0.00
  -12   12    8      0.75      0.00
  -11   12    8      0.38      0.00
  -10   12    8      3.47      0.00
   -9   12    8     -0.57      0.00
   -8   12    8      4.01      0.00
   -7   12    8     -4.62      0.00
   -6   12    8      2.15      0.00
   -5   12    8      2.97      0.00
   -4   12    8     -4.80      0.00
   -3   12    8     -0.45      0.00
   -2   12    8     -8.18      0.00
   -1   12    8      2.72      0.00
    0   12    8     -0.88      0.00
    1   12    8     -0.34      0.00
    2   12    8     15.66      0.00
    3   12    8     -8.34      0.00
    4   12    8     -0.66      0.00
    5   12    8      1.01      0.00
    6   12    8     -1.23      0.00
    7   12    8     -8.59      0.00
    8   12    8     -1.11      0.00
    9   12    8     -8.96      0.00
   10   12    8      4.11      0.00
   11   12    8      3.76      0.00
   12   12    8     -2.59      0.00
   13   12    8     -2.32      0.00
   14   12    8      3.41      0.00
   15   12    8      3.29      0.00
   16   12    8     -2.11      0.00
   17   12    8      2.78      0.00
  -11   13    8     -1.27      0.00
  -10   13    8      1.38      0.00
   -9   13    8     -2.68      0.00
   -8   13    8      2.77      0.00
   -7   13    8     -4.39      0.00
   -6   13    8      5.83      0.00
   -5   13    8     -1.04      0.00
   -4   13    8     -1.73      0.00
   -3   13    8      6.08      0.00
   -2   13    8    -13.62      0.00
   -1   13    8      2.80      0.00
    0   13    8     -0.70      0.00
    1   13    8     -6.69      0.00
    2   13    8      4.63      0.00
    3   13    8      2.57      0.00
    4   13    8     -2.12      0.00
    5   13    8      2.38      0.00
    6   13    8     -2.07      0.00
    7   13    8     -3.05      0.00
    8   13    8      4.79      0.00
    9   13    8     -1.38      0.00
   10   13    8     -5.53      0.00
   11   13    8      3.07      0.00
   12   13    8      5.43      0.00
   13   13    8     -2.21      0.00
   14   13    8     -1.87      0.00
   15   13    8      1.73      0.00
   16   13    8      1.65      0.00
  -10   14    8      3.42      0.00
   -9   14    8     -3.85      0.00
   -8   14    8     -2.03      0.00
   -7   14    8      1.29      0.00
   -6   14    8      2.49      0.00
   -5   14    8     -0.30      0.00
   -4   14    8     -1.66      0.00
   -3   14    8     -4.93      0.00
   -2   14    8     -3.51      0.00
   -1   14    8     10.30      0.00
    0   14    8     -6.34      0.00
    1   14    8      1.42      0.00
    2   14    8      7.66      0.00
    3   14    8     -0.04      0.00
    4   14    8     -6.92      0.00
    5   14    8      2.96      0.00
    6   14    8     -1.73      0.00
    7   14    8     -0.98      0.00
    8   14    8     -0.83      0.00
    9   14    8      0.54      0.00
   10   14    8      2.72      0.00
   11   14    8      1.16      0.00
   12   14    8     -1.33      0.00
   13   14    8     -3.29      0.00
   14   14    8      3.61      0.00
   15   14    8     -0.53      0.00
   16   14    8      0.70      0.00
   -9   15    8      1.46      0.00
   -8   15    8     -2.35      0.00
   -7   15    8     -3.51      0.00
   -6   15    8      1.19      0.00
   -5   15    8     -0.54      0.00
   -4   15    8      0.43      0.00
   -3   15    8     -8.59      0.00
   -2   15    8     -6.47      0.00
   -1   15    8      4.59      0.00
    0   15    8      4.39      0.00
    1   15    8      7.55      0.00
    2   15    8     -6.57      0.00
    3   15    8      8.95      0.00
    4   15    8     -6.71      0.00
    5   15    8     -7.54      0.00
    6   15    8      4.75      0.00
    7   15    8      3.04      0.00
    8   15    8     -7.70      0.00
    9   15    8     -0.29      0.00
   10   15    8     -1.28      0.00
   11   15    8     -0.46      0.00
   12   15    8      1.30      0.00
   13   15    8     -0.83      0.00
   14   15    8      1.10      0.00
   15   15    8     -0.70      0.00
   -8   16    8      0.95      0.00
   -7   16    8      0.93      0.00
   -6   16    8      0.84      0.00
   -5   16    8     -3.11      0.00
   -4   16    8     -2.31      0.00
   -3   16    8      2.04      0.00
   -2   16    8      3.21      0.00
   -1   16    8     -6.84      0.00
    0   16    8      2.49      0.00
    1   16    8      7.83      0.00
    2   16    8     -3.85      0.00
    3   16    8     -0.12      0.00
    4   16    8     -1.81      0.00
    5   16    8     -0.59      0.00
    6   16    8      2.24      0.00
    7   16    8      1.12      0.00
    8   16    8     -0.62      0.00
    9   16    8     -0.35      0.00
   10   16    8      0.85      0.00
   11   16    8     -0.76      0.00
   12   16    8     -0.79      0.00
   13   16    8     -1.23      0.00
   14   16    8     -1.04      0.00
   -7   17    8     -0.46      0.00
   -6   17    8      2.89      0.00
   -5   17    8     -0.04      0.00
   -4   17    8     -1.53      0.00
   -3   17    8      1.49      0.00
   -2   17    8      2.63      0.00
   -1   17    8     -0.16      0.00
    0   17    8      6.17      0.00
    1   17    8     -3.38      0.00
    2   17    8      0.58      0.00
    3   17    8      1.87      0.00
    4   17    8      1.16      0.00
    5   17    8     -1.37      0.00
    6   17    8      5.99      0.00
    7   17    8     -2.75      0.00
    8   17    8      0.25      0.00
    9   17    8      1.21      0.00
   10   17    8      1.59      0.00
   11   17    8     -2.30      0.00
   12   17    8      1.00      0.00
   13   17    8      1.94      0.00
   -5   18    8      1.08      0.00
   -4   18    8      0.55      0.00
   -3   18    8      0.44      0.00
   -2   18    8     -0.59      0.00
   -1   18    8     -2.78      0.00
    0   18    8      4.06      0.00
    1   18    8     -1.14      0.00
    2   18    8     -0.45      0.00
    3   18    8     -2.54      0.00
    4   18    8     -0.01      0.00
    5   18    8      0.52      0.00
    6   18    8      1.03      0.00
    7   18    8     -0.46      0.00
    8   18    8     -0.40      0.00
    9   18    8     -1.60      0.00
   10   18    8      1.70      0.00
   11   18    8      0.41      0.00
   -3   19    8     -0.87      0.00
   -2   19    8      0.28      0.00
   -1   19    8      1.56      0.00
    0   19    8     -2.04      0.00
    1   19    8     -1.09      0.00
    2   19    8      1.80      0.00
    3   19    8     -2.66      0.00
    4   19    8     -1.19      0.00
    5   19    8      0.27      0.00
    6   19    8     -1.22      0.00
    7   19    8      1.42      0.00
    8   19    8      0.66      0.00
    9   19    8     -1.37      0.00
    2   20    8      0.90      0.00
    3   20    8     -0.99      0.00
    4   20    8      0.13      0.00
    5   20    8      0.91      0.00
    6   20    8      0.38      0.00
   -5  -11    9      0.07      0.00
   -4  -11    9     -1.06      0.00
   -3  -11    9     -0.11      0.00
   -2  -11    9     -1.44      0.00
   -1  -11    9      0.31      0.00
    0  -11    9      2.62      0.00
    1  -11    9     -1.91      0.00
    2  -11    9      0.10      0.00
    3  -11    9     -1.96      0.00
    4  -11    9      3.13      0.00
    5  -11    9      0.05      0.00
   -7  -10    9     -2.25      0.00
   -6  -10    9     -0.44      0.00
   -5  -10    9      1.75      0.00
   -4  -10    9     -3.21      0.00
   -3  -10    9      0.77      0.00
   -2  -10    9     -1.24      0.00
   -1  -10    9      1.06      0.00
    0  -10    9     -3.03      0.00
    1  -10    9     -1.16      0.00
    2  -10    9      1.43      0.00
    3  -10    9     -1.11      0.00
    4  -10    9     -1.16      0.00
    5  -10    9      0.79      0.00
    6  -10    9     -1.06      0.00
    7  -10    9      2.11      0.00
   -9   -9    9      2.32      0.00
   -8   -9    9      1.09      0.00
   -7   -9    9     -2.40      0.00
   -6   -9    9      0.85      0.00
   -5   -9    9      1.60      0.00
   -4   -9    9     -1.18      0.00
   -3   -9    9     -0.72      0.00
   -2   -9    9      2.01      0.00
   -1   -9    9      2.04      0.00
    0   -9    9     -2.86      0.00
    1   -9    9      0.78      0.00
    2   -9    9      0.27      0.00
    3   -9    9      5.15      0.00
    4   -9    9      0.34      0.00
    5   -9    9     -3.54      0.00
    6   -9    9      0.28      0.00
    7   -9    9      2.21      0.00
    8   -9    9     -1.71      0.00
    9   -9    9     -1.16      0.00
  -10   -8    9      2.29      0.00
   -9   -8    9      2.32      0.00
   -8   -8    9      1.64      0.00
   -7   -8    9      1.50      0.00
   -6   -8    9      3.96      0.00
   -5   -8    9      2.26      0.00
   -4   -8    9      2.92      0.00
   -3   -8    9     -1.56      0.00
   -2   -8    9      1.33      0.00
   -1   -8    9      3.80      0.00
    0   -8    9     -6.58      0.00
    1   -8    9      5.09      0.00
    2   -8    9      4.86      0.00
    3   -8    9     -0.08      0.00
    4   -8    9      1.02      0.00
    5   -8    9     -1.79      0.00
    6   -8    9      1.65      0.00
    7   -8    9     -1.29      0.00
    8   -8    9      0.67      0.00
    9   -8    9      1.82      0.00
   10   -8    9     -2.51      0.00
   11   -8    9     -1.27      0.00
  -11   -7    9     -1.41      0.00
  -10   -7    9     -2.73      0.00
   -9   -7    9      0.38      0.00
   -8   -7    9     -0.22      0.00
   -7   -7    9      2.08      0.00
   -6   -7    9     -1.27      0.00
   -5   -7    9     -3.46      0.00
   -4   -7    9     -0.61      0.00
   -3   -7    9     -1.99      0.00
   -2   -7    9     -1.88      0.00
   -1   -7    9     -3.99      0.00
    0   -7    9      3.37      0.00
    1   -7    9     -1.98      0.00
    2   -7    9      1.88      0.00
    3   -7    9     -0.27      0.00
    4   -7    9     -1.15      0.00
    5   -7    9      0.26      0.00
    6   -7    9      0.85      0.00
    7   -7    9     -8.17      0.00
    8   -7    9     -0.07      0.00
    9   -7    9      4.34      0.00
   10   -7    9     -1.12      0.00
   11   -7    9      2.14      0.00
   12   -7    9     -1.03      0.00
  -12   -6    9     -0.22      0.00
  -11   -6    9      1.19      0.00
  -10   -6    9      1.25      0.00
   -9   -6    9     -0.43      0.00
   -8   -6    9     -1.90      0.00
   -7   -6    9      1.52      0.00
   -6   -6    9     -6.15      0.00
   -5   -6    9     -8.82      0.00
   -4   -6    9      4.35      0.00
   -3   -6    9     -4.65      0.00
   -2   -6    9     -9.44      0.00
   -1   -6    9     -7.82      0.00
    0   -6    9      7.54      0.00
    1   -6    9     -3.67      0.00
    2   -6    9      1.86      0.00
    3   -6    9      1.51      0.00
    4   -6    9     -6.06      0.00
    5   -6    9      1.38      0.00
    6   -6    9     -1.44      0.00
    7   -6    9     -5.18      0.00
    8   -6    9     -2.22      0.00
    9   -6    9      0.75      0.00
   10   -6    9     -3.09      0.00
   11   -6    9      3.77      0.00
   12   -6    9     -2.31      0.00
   13   -6    9      3.63      0.00
  -13   -5    9      0.35      0.00
  -12   -5    9     -1.05      0.00
  -11   -5    9     -1.02      0.00
  -10   -5    9      3.77      0.00
   -9   -5    9     -2.24      0.00
   -8   -5    9      0.32      0.00
   -7   -5    9      7.43      0.00
   -6   -5    9     -1.36      0.00
   -5   -5    9     -1.94      0.00
   -4   -5    9      1.96      0.00
   -3   -5    9     11.82      0.00
   -2   -5    9     -4.57      0.00
   -1   -5    9     -1.21      0.00
    0   -5    9      4.37      0.00
    1   -5    9      0.10      0.00
    2   -5    9      6.85      0.00
    3   -5    9     -2.06      0.00
    4   -5    9     -0.50      0.00
    5   -5    9      2.15      0.00
    6   -5    9     -4.78      0.00
    7   -5    9      4.24      0.00
    8   -5    9      6.27      0.00
    9   -5    9     -1.20      0.00
   10   -5    9      5.14      0.00
   11   -5    9      2.50      0.00
   12   -5    9     -0.59      0.00
   13   -5    9     -1.67      0.00
   14   -5    9      2.31      0.00
  -13   -4    9     -0.59      0.00
  -12   -4    9      3.37      0.00
  -11   -4    9     -1.26      0.00
  -10   -4    9     -1.58      0.00
   -9   -4    9      6.11      0.00
   -8   -4    9     -1.99      0.00
   -7   -4    9     -1.48      0.00
   -6   -4    9     -1.97      0.00
   -5   -4    9     10.27      0.00
   -4   -4    9     -3.38      0.00
   -3   -4    9     -2.82      0.00
   -2   -4    9      6.12      0.00
   -1   -4    9     -0.21      0.00
    0   -4    9      5.19      0.00
    1   -4    9      8.68      0.00
    2   -4    9      1.85      0.00
    3   -4    9    -10.51      0.00
    4   -4    9      1.30      0.00
    5   -4    9      1.47      0.00
    6   -4    9      1.60      0.00
    7   -4    9      0.08      0.00
    8   -4    9     -2.35      0.00
    9   -4    9     -0.97      0.00
   10   -4    9      7.71      0.00
   11   -4    9     -3.27      0.00
   12   -4    9      2.47      0.00
   13   -4    9      0.25      0.00
   14   -4    9     -2.21      0.00
  -14   -3    9      1.27      0.00
  -13   -3    9     -1.63      0.00
  -12   -3    9     -2.24      0.00
  -11   -3    9      6.43      0.00
  -10   -3    9     -3.88      0.00
   -9   -3    9     -5.19      0.00
   -8   -3    9      5.71      0.00
   -7   -3    9     -2.00      0.00
   -6   -3    9     -0.02      0.00
   -5   -3    9     -7.81      0.00
   -4   -3    9     -7.88      0.00
   -3   -3    9     10.19      0.00
   -2   -3    9     -2.61      0.00
   -1   -3    9    -16.96      0.00
    0   -3    9      3.89      0.00
    1   -3    9     15.96      0.00
    2   -3    9     -7.88      0.00
    3   -3    9     -5.86      0.00
    4   -3    9      0.64      0.00
    5   -3    9     -2.93      0.00
    6   -3    9      4.93      0.00
    7   -3    9     -3.05      0.00
    8   -3    9    -10.62      0.00
    9   -3    9     -0.61      0.00
   10   -3    9     -2.40      0.00
   11   -3    9    -13.59      0.00
   12   -3    9      2.75      0.00
   13   -3    9      2.34      0.00
   14   -3    9     -0.91      0.00
   15   -3    9      0.93      0.00
  -14   -2    9      0.18      0.00
  -13   -2    9      0.38      0.00
  -12   -2    9     -4.68      0.00
  -11   -2    9      0.30      0.00
  -10   -2    9      2.23      0.00
   -9   -2    9     -0.90      0.00
   -8   -2    9     -4.46      0.00
   -7   -2    9     -5.03      0.00
   -6   -2    9      3.54      0.00
   -5   -2    9     -3.36      0.00
   -4   -2    9     -9.52      0.00
   -3   -2    9     -0.31      0.00
   -2   -2    9      4.72      0.00
   -1   -2    9      2.09      0.00
    1   -2    9      3.18      0.00
    3   -2    9     -0.69      0.00
    4   -2    9      2.67      0.00
    5   -2    9      3.55      0.00
    6   -2    9      0.47      0.00
    7   -2    9     -4.73      0.00
    8   -2    9     -1.69      0.00
    9   -2    9      3.87      0.00
   10   -2    9      2.46      0.00
   11   -2    9     -4.51      0.00
   12   -2    9      1.39      0.00
   13   -2    9      1.49      0.00
   14   -2    9      0.73      0.00
   15   -2    9      0.13      0.00
  -15   -1    9      0.51      0.00
  -14   -1    9     -4.97      0.00
  -13   -1    9      0.45      0.00
  -12   -1    9      2.91      0.00
  -11   -1    9      0.72      0.00
  -10   -1    9     -1.04      0.00
   -9   -1    9      1.54      0.00
   -8   -1    9      1.53      0.00
   -7   -1    9     -4.51      0.00
   -6   -1    9     -3.61      0.00
   -4   -1    9     11.49      0.00
   -3   -1    9     -4.46      0.00
   -2   -1    9     -4.78      0.00
   -1   -1    9     12.08      0.00
    0   -1    9     -0.57      0.00
    1   -1    9      5.93      0.00
    2   -1    9      3.37      0.00
    3   -1    9      1.83      0.00
    4   -1    9      1.70      0.00
    5   -1    9     -0.26      0.00
    6   -1    9     -2.19      0.00
    7   -1    9     10.11      0.00
    8   -1    9     -8.59      0.00
    9   -1    9     -3.62      0.00
   10   -1    9      7.88      0.00
   11   -1    9      5.24      0.00
   12   -1    9     -3.64      0.00
   13   -1    9      8.51      0.00
   14   -1    9      3.08      0.00
   15   -1    9      0.62      0.00
   16   -1    9      0.86      0.00
  -15    0    9      1.07      0.00
  -14    0    9     -1.33      0.00
  -13    0    9     -4.17      0.00
  -12    0    9      0.37      0.00
  -11    0    9      6.90      0.00
  -10    0    9      5.30      0.00
   -9    0    9     -3.87      0.00
   -8    0    9     -1.46      0.00
   -7    0    9      8.13      0.00
   -5    0    9     -2.10      0.00
   -4    0    9      9.45      0.00
   -2    0    9      5.05      0.00
   -1    0    9      5.33      0.00
    0    0    9     -7.67      0.00
    1    0    9      3.00      0.00
    2    0    9      4.98      0.00
    3    0    9      1.75      0.00
    4    0    9      6.45      0.00
    5    0    9      2.40      0.00
    6    0    9    -14.12      0.00
    7    0    9      5.23      0.00
    8    0    9     -0.43      0.00
    9    0    9    -12.16      0.00
   10    0    9      1.04      0.00
   11    0    9      7.50      0.00
   12    0    9     -6.82      0.00
   13    0    9      0.65      0.00
   14    0    9     -0.56      0.00
   15    0    9      0.86      0.00
   16    0    9      1.78      0.00
  -15    1    9      1.89      0.00
  -14    1    9      0.72      0.00
  -13    1    9     -0.03      0.00
  -12    1    9      1.98      0.00
  -11    1    9      1.97      0.00
  -10    1    9     -2.56      0.00
   -9    1    9      7.43      0.00
   -8    1    9     -9.23      0.00
   -7    1    9     -2.48      0.00
   -5    1    9      6.42      0.00
   -3    1    9     -4.10      0.00
   -2    1    9     25.92      0.00
   -1    1    9    -13.80      0.00
    0    1    9      3.47      0.00
    1    1    9      1.50      0.00
    2    1    9     -3.77      0.00
    3    1    9      6.00      0.00
    4    1    9    -11.93      0.00
    5    1    9    -11.48      0.00
    6    1    9      6.44      0.00
    7    1    9     -5.85      0.00
    8    1    9      1.94      0.00
    9    1    9      2.11      0.00
   10    1    9     -1.87      0.00
   11    1    9      2.39      0.00
   12    1    9      0.83      0.00
   13    1    9      6.38      0.00
   14    1    9     -2.28      0.00
   15    1    9     -0.09      0.00
   16    1    9     -3.72      0.00
  -15    2    9      2.37      0.00
  -14    2    9     -0.91      0.00
  -13    2    9      1.15      0.00
  -12    2    9      0.28      0.00
  -11    2    9      5.11      0.00
  -10    2    9     -0.85      0.00
   -9    2    9     -7.80      0.00
   -8    2    9      1.76      0.00
   -7    2    9     -3.97      0.00
   -5    2    9     -2.10      0.00
   -4    2    9     -9.99      0.00
   -3    2    9     -7.22      0.00
   -2    2    9      7.58      0.00
   -1    2    9     -4.78      0.00
    0    2    9     15.88      0.00
    1    2    9    -10.12      0.00
    2    2    9     -2.99      0.00
    3    2    9     10.31      0.00
    4    2    9     -0.86      0.00
    5    2    9     -7.52      0.00
    6    2    9     -3.11      0.00
    8    2    9      5.74      0.00
    9    2    9     -2.74      0.00
   10    2    9      3.09      0.00
   11    2    9      9.21      0.00
   12    2    9     -1.58      0.00
   13    2    9      6.41      0.00
   14    2    9      5.74      0.00
   15    2    9      2.22      0.00
   16    2    9     -4.76      0.00
  -15    3    9      0.87      0.00
  -14    3    9     -2.09      0.00
  -13    3    9      1.06      0.00
  -12    3    9      3.64      0.00
  -11    3    9     -4.82      0.00
  -10    3    9      4.56      0.00
   -9    3    9     -5.54      0.00
   -8    3    9     -1.75      0.00
   -7    3    9      6.21      0.00
   -4    3    9     -3.68      0.00
   -3    3    9     10.87      0.00
   -1    3    9     -4.27      0.00
    0    3    9      4.61      0.00
    1    3    9    -12.84      0.00
    2    3    9      6.30      0.00
    3    3    9      5.79      0.00
    4    3    9     -0.92      0.00
    5    3    9     -5.69      0.00
    6    3    9     14.27      0.00
    7    3    9     -5.46      0.00
    8    3    9      6.64      0.00
    9    3    9     -4.74      0.00
   10    3    9     -9.35      0.00
   11    3    9      5.87      0.00
   12    3    9     14.66      0.00
   13    3    9    -10.77      0.00
   14    3    9     -3.79      0.00
   15    3    9      2.55      0.00
   16    3    9     -7.42      0.00
   17    3    9      1.44      0.00
  -15    4    9     -0.50      0.00
  -14    4    9     -0.78      0.00
  -13    4    9     -0.42      0.00
  -12    4    9      5.24      0.00
  -11    4    9     -2.32      0.00
  -10    4    9     -3.68      0.00
   -9    4    9      2.47      0.00
   -8    4    9      3.46      0.00
   -7    4    9      0.22      0.00
   -5    4    9      5.10      0.00
   -4    4    9     -1.65      0.00
   -3    4    9      1.52      0.00
   -2    4    9      3.26      0.00
   -1    4    9     19.44      0.00
    0    4    9     -4.37      0.00
    1    4    9     -7.11      0.00
    2    4    9      8.51      0.00
    3    4    9      1.76      0.00
    4    4    9     16.48      0.00
    5    4    9    -19.55      0.00
    6    4    9    -16.71      0.00
    7    4    9      8.72      0.00
    8    4    9      1.33      0.00
    9    4    9      1.96      0.00
   10    4    9      2.26      0.00
   11    4    9     -9.18      0.00
   12    4    9     12.46      0.00
   13    4    9      0.78      0.00
   14    4    9     -6.88      0.00
   15    4    9     -1.77      0.00
   16    4    9     -3.63      0.00
   17    4    9     -2.57      0.00
   18    4    9      8.88      0.00
  -15    5    9     -4.66      0.00
  -14    5    9      1.22      0.00
  -13    5    9     -3.20      0.00
  -12    5    9     -0.75      0.00
  -11    5    9      3.20      0.00
  -10    5    9     -4.66      0.00
   -9    5    9      5.35      0.00
   -8    5    9     -4.08      0.00
   -7    5    9      0.67      0.00
   -5    5    9     -3.31      0.00
   -4    5    9     -1.21      0.00
   -3    5    9     -5.26      0.00
   -2    5    9     -9.21      0.00
   -1    5    9      7.24      0.00
    0    5    9     -7.11      0.00
    1    5    9     -7.00      0.00
    2    5    9     12.29      0.00
    3    5    9     12.99      0.00
    4    5    9     -9.74      0.00
    5    5    9     -5.42      0.00
    6    5    9     -8.61      0.00
    7    5    9     -3.18      0.00
    8    5    9     -9.07      0.00
    9    5    9     -6.46      0.00
   10    5    9      4.57      0.00
   11    5    9     -0.92      0.00
   12    5    9      5.82      0.00
   13    5    9     -5.71      0.00
   14    5    9      3.26      0.00
   15    5    9      4.47      0.00
   16    5    9      3.83      0.00
   17    5    9     -4.30      0.00
   18    5    9      2.53      0.00
  -14    6    9      2.72      0.00
  -13    6    9      0.71      0.00
  -12    6    9     -4.23      0.00
  -11    6    9      4.57      0.00
  -10    6    9     -1.75      0.00
   -9    6    9      4.66      0.00
   -8    6    9     -2.14      0.00
   -7    6    9    -13.46      0.00
   -6    6    9     10.98      0.00
   -5    6    9     -5.20      0.00
   -4    6    9      1.05      0.00
   -3    6    9      1.87      0.00
   -1    6    9      4.05      0.00
    0    6    9     -1.77      0.00
    1    6    9      1.28      0.00
    2    6    9      3.56      0.00
    3    6    9     -1.07      0.00
    4    6    9     -0.82      0.00
    5    6    9    -11.08      0.00
    6    6    9    -10.73      0.00
    7    6    9     11.86      0.00
    8    6    9      3.22      0.00
    9    6    9     -5.65      0.00
   10    6    9      5.17      0.00
   11    6    9     -2.08      0.00
   12    6    9      5.41      0.00
   13    6    9      5.69      0.00
   14    6    9     -6.03      0.00
   15    6    9     -3.94      0.00
   16    6    9      5.47      0.00
   17    6    9     -2.59      0.00
   18    6    9     -1.04      0.00
  -14    7    9      2.04      0.00
  -13    7    9      6.17      0.00
  -12    7    9     -2.34      0.00
  -11    7    9     -0.48      0.00
  -10    7    9      5.04      0.00
   -9    7    9     -7.82      0.00
   -8    7    9      7.31      0.00
   -7    7    9     -7.25      0.00
   -6    7    9      2.89      0.00
   -5    7    9    -10.77      0.00
   -4    7    9      6.83      0.00
   -3    7    9      0.01      0.00
   -1    7    9      0.05      0.00
    0    7    9     15.68      0.00
    1    7    9      1.80      0.00
    2    7    9      2.43      0.00
    3    7    9      8.90      0.00
    4    7    9    -10.83      0.00
    5    7    9     -3.56      0.00
    6    7    9      2.68      0.00
    7    7    9     -6.70      0.00
    8    7    9      5.97      0.00
    9    7    9      7.55      0.00
   10    7    9      4.10      0.00
   11    7    9      8.08      0.00
   12    7    9      3.12      0.00
   13    7    9      4.62      0.00
   14    7    9     -1.02      0.00
   15    7    9     -2.50      0.00
   16    7    9      0.68      0.00
   17    7    9     -3.72      0.00
   18    7    9     -1.98      0.00
  -14    8    9     -0.74      0.00
  -13    8    9      5.55      0.00
  -12    8    9     -1.49      0.00
  -11    8    9     -2.53      0.00
  -10    8    9      6.31      0.00
   -9    8    9     -4.20      0.00
   -8    8    9      3.03      0.00
   -7    8    9     -2.10      0.00
   -6    8    9      1.67      0.00
   -5    8    9     -8.75      0.00
   -4    8    9      7.14      0.00
    2    8    9    -10.86      0.00
    3    8    9     -3.42      0.00
    4    8    9     -0.82      0.00
    5    8    9     -5.38      0.00
    6    8    9      4.92      0.00
    7    8    9     -4.68      0.00
    8    8    9     -3.32      0.00
    9    8    9      7.61      0.00
   10    8    9     -9.11      0.00
   11    8    9      6.73      0.00
   12    8    9     -1.81      0.00
   13    8    9     -3.77      0.00
   14    8    9     -1.67      0.00
   15    8    9      0.13      0.00
   16    8    9     -2.24      0.00
   17    8    9      1.58      0.00
   18    8    9     -2.76      0.00
  -13    9    9     -2.67      0.00
  -12    9    9      0.98      0.00
  -11    9    9     -1.88      0.00
  -10    9    9     -2.22      0.00
   -9    9    9      4.27      0.00
   -8    9    9    -10.94      0.00
   -7    9    9      7.20      0.00
   -6    9    9     -7.27      0.00
   -5    9    9      0.43      0.00
   -4    9    9      5.21      0.00
   -3    9    9     -2.95      0.00
   -2    9    9      4.12      0.00
    0    9    9      6.19      0.00
    1    9    9     -7.56      0.00
    2    9    9     -1.09      0.00
    4    9    9     -9.06      0.00
    6    9    9     -8.99      0.00
    7    9    9      2.30      0.00
    8    9    9      1.51      0.00
    9    9    9      3.50      0.00
   10    9    9     -1.40      0.00
   11    9    9      6.12      0.00
   12    9    9     -4.31      0.00
   13    9    9     -8.18      0.00
   14    9    9     -3.50      0.00
   15    9    9      0.08      0.00
   16    9    9     -4.74      0.00
   17    9    9      0.62      0.00
   18    9    9     -1.30      0.00
  -13   10    9      0.21      0.00
  -12   10    9     -1.06      0.00
  -11   10    9      1.49      0.00
  -10   10    9     -5.26      0.00
   -9   10    9      7.17      0.00
   -8   10    9    -10.19      0.00
   -7   10    9      2.58      0.00
   -6   10    9     -6.32      0.00
   -5   10    9      6.62      0.00
   -4   10    9      0.60      0.00
   -3   10    9     -9.31      0.00
   -2   10    9      3.42      0.00
   -1   10    9      3.78      0.00
    0   10    9      2.54      0.00
    1   10    9      5.16      0.00
    2   10    9      7.75      0.00
    3   10    9     -9.11      0.00
    4   10    9      7.77      0.00
    5   10    9      2.22      0.00
    6   10    9     -0.60      0.00
    7   10    9     -0.90      0.00
    8   10    9      0.14      0.00
    9   10    9      4.81      0.00
   10   10    9      9.90      0.00
   11   10    9     -3.45      0.00
   12   10    9      1.66      0.00
   13   10    9      2.02      0.00
   14   10    9      0.71      0.00
   15   10    9     -1.21      0.00
   16   10    9     -0.38      0.00
   17   10    9     -4.66      0.00
   18   10    9      5.16      0.00
  -12   11    9      1.62      0.00
  -11   11    9      2.82      0.00
  -10   11    9     -4.01      0.00
   -9   11    9      1.55      0.00
   -8   11    9      0.11      0.00
   -7   11    9      0.46      0.00
   -6   11    9      2.14      0.00
   -5   11    9      2.64      0.00
   -4   11    9     -8.03      0.00
   -3   11    9      6.50      0.00
   -2   11    9     -0.18      0.00
   -1   11    9     -4.91      0.00
    0   11    9     10.56      0.00
    1   11    9     -1.05      0.00
    2   11    9     -2.29      0.00
    3   11    9     -5.08      0.00
    4   11    9      8.86      0.00
    5   11    9     -6.63      0.00
    6   11    9     10.04      0.00
    7   11    9      0.87      0.00
    8   11    9      1.64      0.00
    9   11    9      3.74      0.00
   10   11    9      6.98      0.00
   11   11    9     -4.20      0.00
   12   11    9     -1.01      0.00
   13   11    9     -0.95      0.00
   14   11    9     -1.46      0.00
   15   11    9     -1.37      0.00
   16   11    9     -2.89      0.00
   17   11    9     -0.63      0.00
  -12   12    9     -0.27      0.00
  -11   12    9      3.95      0.00
  -10   12    9     -1.82      0.00
   -9   12    9     -1.75      0.00
   -8   12    9      6.74      0.00
   -7   12    9     -6.93      0.00
   -6   12    9      5.59      0.00
   -5   12    9     -3.11      0.00
   -4   12    9     -8.25      0.00
   -3   12    9     10.61      0.00
   -2   12    9      1.05      0.00
   -1   12    9     -0.90      0.00
    0   12    9     11.29      0.00
    1   12    9     -0.69      0.00
    2   12    9     -4.50      0.00
    3   12    9     -4.88      0.00
    4   12    9     -6.17      0.00
    5   12    9      4.02      0.00
    6   12    9     -0.48      0.00
    7   12    9     -3.40      0.00
    8   12    9     -0.52      0.00
    9   12    9      7.54      0.00
   10   12    9      0.65      0.00
   11   12    9     -2.51      0.00
   12   12    9     -6.58      0.00
   13   12    9      1.06      0.00
   14   12    9      0.29      0.00
   15   12    9     -4.98      0.00
   16   12    9     -0.28      0.00
   17   12    9     -1.00      0.00
  -11   13    9      0.12      0.00
  -10   13    9     -2.28      0.00
   -9   13    9      0.13      0.00
   -8   13    9     -1.38      0.00
   -7   13    9      2.31      0.00
   -6   13    9     -3.09      0.00
   -5   13    9     -1.93      0.00
   -4   13    9     -0.60      0.00
   -3   13    9      4.59      0.00
   -2   13    9     -3.30      0.00
   -1   13    9      8.46      0.00
    0   13    9     -0.38      0.00
    1   13    9     -3.33      0.00
    2   13    9     -7.77      0.00
    3   13    9      6.75      0.00
    4   13    9     -8.23      0.00
    5   13    9      5.70      0.00
    6   13    9     -3.92      0.00
    7   13    9      0.51      0.00
    8   13    9     -2.15      0.00
    9   13    9      0.70      0.00
   10   13    9     -3.22      0.00
   11   13    9      4.33      0.00
   12   13    9     -0.84      0.00
   13   13    9     -1.58      0.00
   14   13    9      4.96      0.00
   15   13    9     -2.01      0.00
   16   13    9      3.56      0.00
  -10   14    9     -0.61      0.00
   -9   14    9     -1.57      0.00
   -8   14    9     -1.47      0.00
   -7   14    9      4.12      0.00
   -6   14    9     -1.83      0.00
   -5   14    9     -2.06      0.00
   -4   14    9      6.16      0.00
   -3   14    9      2.40      0.00
   -2   14    9      3.63      0.00
   -1   14    9      3.73      0.00
    0   14    9    -13.97      0.00
    1   14    9      7.56      0.00
    2   14    9     -8.53      0.00
    3   14    9     -5.24      0.00
    4   14    9      4.23      0.00
    5   14    9      3.87      0.00
    6   14    9     -5.85      0.00
    7   14    9      2.86      0.00
    8   14    9      1.54      0.00
    9   14    9     -0.69      0.00
   10   14    9      5.02      0.00
   11   14    9     -2.38      0.00
   12   14    9     -1.05      0.00
   13   14    9     -0.69      0.00
   14   14    9      2.03      0.00
   15   14    9      1.98      0.00
   16   14    9     -0.55      0.00
   -9   15    9     -2.01      0.00
   -8   15    9     -1.08      0.00
   -7   15    9      0.62      0.00
   -6   15    9      0.06      0.00
   -5   15    9     -1.54      0.00
   -4   15    9      4.90      0.00
   -3   15    9     -9.35      0.00
   -2   15    9     10.15      0.00
   -1   15    9      4.94      0.00
    0   15    9     -9.62      0.00
    1   15    9      1.34      0.00
    2   15    9      3.61      0.00
    3   15    9     -3.16      0.00
    4   15    9      0.68      0.00
    5   15    9      0.60      0.00
    6   15    9     -1.40      0.00
    7   15    9     -3.18      0.00
    8   15    9      0.93      0.00
    9   15    9     -0.53      0.00
   10   15    9     -0.30      0.00
   11   15    9      1.92      0.00
   12   15    9     -1.81      0.00
   13   15    9      3.82      0.00
   14   15    9     -4.67      0.00
   15   15    9      0.91      0.00
   -8   16    9      1.14      0.00
   -7   16    9     -0.20      0.00
   -6   16    9     -1.25      0.00
   -5   16    9     -3.56      0.00
   -4   16    9      1.13      0.00
   -3   16    9     -2.76      0.00
   -2   16    9      0.46      0.00
   -1   16    9     -4.84      0.00
    0   16    9      4.42      0.00
    1   16    9     -2.95      0.00
    2   16    9      0.21      0.00
    3   16    9     -2.81      0.00
    4   16    9     -0.40      0.00
    5   16    9     -0.80      0.00
    6   16    9     -1.08      0.00
    7   16    9     -0.32      0.00
    8   16    9      0.84      0.00
    9   16    9      1.34      0.00
   10   16    9     -2.78      0.00
   11   16    9      0.88      0.00
   12   16    9     -4.55      0.00
   13   16    9      3.22      0.00
   14   16    9     -2.40      0.00
   -7   17    9      2.43      0.00
   -6   17    9      0.60      0.00
   -5   17    9     -1.83      0.00
   -4   17    9     -0.28      0.00
   -3   17    9      0.91      0.00
   -2   17    9      3.08      0.00
   -1   17    9     -4.13      0.00
    0   17    9      2.66      0.00
    1   17    9     -5.13      0.00
    2   17    9      1.08      0.00
    3   17    9      0.49      0.00
    4   17    9      1.73      0.00
    5   17    9      3.83      0.00
    6   17    9     -0.97      0.00
    7   17    9      1.51      0.00
    8   17    9      3.14      0.00
    9   17    9      2.91      0.00
   10   17    9     -2.77      0.00
   11   17    9      2.11      0.00
   12   17    9      2.01      0.00
   13   17    9     -1.42      0.00
   -5   18    9      2.02      0.00
   -4   18    9     -1.06      0.00
   -3   18    9      1.02      0.00
   -2   18    9      0.40      0.00
   -1   18    9      1.57      0.00
    0   18    9      4.32      0.00
    1   18    9     -4.40      0.00
    2   18    9     -1.63      0.00
    3   18    9      4.25      0.00
    4   18    9      0.99      0.00
    5   18    9      4.32      0.00
    6   18    9     -0.72      0.00
    7   18    9     -0.80      0.00
    8   18    9     -1.88      0.00
    9   18    9      1.70      0.00
   10   18    9      0.22      0.00
   11   18    9     -1.47      0.00
   -3   19    9     -1.12      0.00
   -2   19    9     -0.91      0.00
   -1   19    9      0.17      0.00
    0   19    9      0.65      0.00
    1   19    9      1.64      0.00
    2   19    9     -3.36      0.00
    3   19    9      0.94      0.00
    4   19    9      1.82      0.00
    5   19    9     -3.46      0.00
    6   19    9      1.09      0.00
    7   19    9      1.88      0.00
    8   19    9     -0.38      0.00
    9   19    9     -3.89      0.00
    1   20    9     -0.63      0.00
    2   20    9     -0.53      0.00
    3   20    9      1.11      0.00
    4   20    9      2.08      0.00
    5   20    9     -3.67      0.00
    6   20    9     -0.08      0.00
   -1  -11   10      1.86      0.00
   -5  -10   10      0.84      0.00
   -4  -10   10     -1.16      0.00
   -3  -10   10     -1.27      0.00
   -2  -10   10     -0.96      0.00
   -1  -10   10      0.32      0.00
    0  -10   10     -2.30      0.00
    1  -10   10      1.86      0.00
    2  -10   10     -3.05      0.00
    3  -10   10      1.56      0.00
    4  -10   10      1.27      0.00
    5  -10   10      1.26      0.00
   -7   -9   10     -1.87      0.00
   -6   -9   10     -1.57      0.00
   -5   -9   10     -1.57      0.00
   -4   -9   10     -0.22      0.00
   -3   -9   10     -0.74      0.00
   -2   -9   10      1.46      0.00
   -1   -9   10     -1.48      0.00
    0   -9   10     -0.36      0.00
    1   -9   10      0.08      0.00
    2   -9   10     -1.63      0.00
    3   -9   10      1.21      0.00
    4   -9   10     -1.42      0.00
    5   -9   10     -0.91      0.00
    6   -9   10      3.73      0.00
    7   -9   10     -0.05      0.00
    8   -9   10     -1.31      0.00
   -9   -8   10      0.77      0.00
   -8   -8   10     -1.24      0.00
   -7   -8   10     -1.11      0.00
   -6   -8   10      3.27      0.00
   -5   -8   10      2.40      0.00
   -4   -8   10     -0.15      0.00
   -3   -8   10      0.06      0.00
   -2   -8   10      6.56      0.00
   -1   -8   10     -2.57      0.00
    0   -8   10      0.12      0.00
    1   -8   10      8.07      0.00
    2   -8   10     -0.29      0.00
    3   -8   10      0.09      0.00
    4   -8   10     -0.28      0.00
    5   -8   10     -2.25      0.00
    6   -8   10      1.22      0.00
    7   -8   10      3.62      0.00
    8   -8   10     -2.79      0.00
    9   -8   10      1.49      0.00
  -10   -7   10      0.18      0.00
   -9   -7   10      1.36      0.00
   -8   -7   10     -1.44      0.00
   -7   -7   10      2.53      0.00
   -6   -7   10      4.72      0.00
   -5   -7   10      3.57      0.00
   -4   -7   10      0.69      0.00
   -3   -7   10      1.08      0.00
   -2   -7   10      6.01      0.00
   -1   -7   10      0.27      0.00
    0   -7   10      5.37      0.00
    1   -7   10      0.28      0.00
    2   -7   10     -0.41      0.00
    3   -7   10     -0.12      0.00
    4   -7   10     -1.27      0.00
    5   -7   10      4.53      0.00
    6   -7   10     -4.39      0.00
    7   -7   10      3.02      0.00
    8   -7   10      3.15      0.00
    9   -7   10      1.63      0.00
   10   -7   10     -1.03      0.00
   11   -7   10     -1.67      0.00
  -11   -6   10     -0.43      0.00
  -10   -6   10     -0.23      0.00
   -9   -6   10     -0.45      0.00
   -8   -6   10     -4.68      0.00
   -7   -6   10     -2.41      0.00
   -6   -6   10      0.15      0.00
   -5   -6   10     -0.29      0.00
   -4   -6   10     -2.67      0.00
   -3   -6   10     -6.63      0.00
   -2   -6   10     -0.07      0.00
   -1   -6   10      0.30      0.00
    0   -6   10      5.52      0.00
    1   -6   10     -4.20      0.00
    2   -6   10     -6.37      0.00
    3   -6   10     -2.23      0.00
    4   -6   10     -4.22      0.00
    5   -6   10      4.23      0.00
    6   -6   10     -2.18      0.00
    7   -6   10     -3.55      0.00
    8   -6   10      3.37      0.00
    9   -6   10     -2.87      0.00
   10   -6   10     -3.64      0.00
   11   -6   10      1.57      0.00
   12   -6   10      1.09      0.00
  -12   -5   10     -1.79      0.00
  -11   -5   10      1.75      0.00
  -10   -5   10     -0.24      0.00
   -9   -5   10     -1.97      0.00
   -8   -5   10      4.21      0.00
   -7   -5   10     -1.59      0.00
   -6   -5   10     -4.72      0.00
   -5   -5   10     -1.25      0.00
   -4   -5   10      2.18      0.00
   -3   -5   10     -3.75      0.00
   -2   -5   10     -5.42      0.00
   -1   -5   10     11.81      0.00
    0   -5   10     -8.02      0.00
    1   -5   10     -9.10      0.00
    2   -5   10      3.85      0.00
    3   -5   10     -4.11      0.00
    4   -5   10      0.81      0.00
    5   -5   10     -1.34      0.00
    6   -5   10     -1.59      0.00
    7   -5   10     -0.37      0.00
    8   -5   10      2.43      0.00
    9   -5   10     -7.25      0.00
   10   -5   10      0.47      0.00
   11   -5   10     -2.93      0.00
   12   -5   10      2.02      0.00
   13   -5   10      0.84      0.00
  -12   -4   10     -0.37      0.00
  -11   -4   10     -0.23      0.00
  -10   -4   10      1.33      0.00
   -9   -4   10      1.19      0.00
   -8   -4   10     -0.18      0.00
   -7   -4   10     -1.60      0.00
   -6   -4   10      2.84      0.00
   -5   -4   10      8.08      0.00
   -4   -4   10      1.53      0.00
   -3   -4   10     -0.74      0.00
   -2   -4   10      6.10      0.00
   -1   -4   10     10.31      0.00
    0   -4   10     -0.02      0.00
    1   -4   10     -8.83      0.00
    2   -4   10     -3.55      0.00
    3   -4   10      1.94      0.00
    4   -4   10      7.21      0.00
    5   -4   10     -1.33      0.00
    6   -4   10      2.30      0.00
    7   -4   10     -0.51      0.00
    8   -4   10      2.68      0.00
    9   -4   10      2.87      0.00
   10   -4   10      5.29      0.00
   11   -4   10      0.05      0.00
   12   -4   10     -0.78      0.00
   13   -4   10      0.27      0.00
   14   -4   10     -1.95      0.00
  -13   -3   10      1.88      0.00
  -12   -3   10      1.03      0.00
  -11   -3   10      2.00      0.00
  -10   -3   10      1.41      0.00
   -9   -3   10     -2.65      0.00
   -8   -3   10      2.59      0.00
   -7   -3   10      0.26      0.00
   -6   -3   10      1.92      0.00
   -5   -3   10     -4.78      0.00
   -4   -3   10      4.52      0.00
   -3   -3   10      8.73      0.00
   -2   -3   10     -8.97      0.00
   -1   -3   10      0.57      0.00
    0   -3   10      2.77      0.00
    1   -3   10      0.91      0.00
    2   -3   10     -6.71      0.00
    3   -3   10      0.65      0.00
    4   -3   10      1.09      0.00
    5   -3   10      0.52      0.00
    6   -3   10      1.92      0.00
    7   -3   10     -4.63      0.00
    8   -3   10     -4.55      0.00
    9   -3   10      8.03      0.00
   10   -3   10     -8.01      0.00
   11   -3   10      2.92      0.00
   12   -3   10      3.50      0.00
   13   -3   10     -3.29      0.00
   14   -3   10     -2.02      0.00
  -14   -2   10      1.44      0.00
  -13   -2   10     -0.93      0.00
  -12   -2   10      4.44      0.00
  -11   -2   10     -2.85      0.00
  -10   -2   10     -0.58      0.00
   -9   -2   10     -0.31      0.00
   -8   -2   10     -4.66      0.00
   -7   -2   10      3.49      0.00
   -6   -2   10      3.82      0.00
   -5   -2   10     -4.42      0.00
   -4   -2   10     -5.75      0.00
   -3   -2   10      8.35      0.00
   -2   -2   10    -10.41      0.00
   -1   -2   10      1.56      0.00
    0   -2   10     -5.94      0.00
    1   -2   10     -6.90      0.00
    2   -2   10     -5.14      0.00
    3   -2   10      7.93      0.00
    4   -2   10     -0.13      0.00
    5   -2   10     -1.12      0.00
    6   -2   10     -3.35      0.00
    7   -2   10     -0.94      0.00
    8   -2   10      0.93      0.00
    9   -2   10      5.42      0.00
   10   -2   10    -10.04      0.00
   11   -2   10     -0.18      0.00
   12   -2   10      2.86      0.00
   13   -2   10     -6.00      0.00
   14   -2   10      0.53      0.00
   15   -2   10      1.02      0.00
  -14   -1   10     -0.08      0.00
  -13   -1   10      2.45      0.00
  -12   -1   10      0.74      0.00
  -11   -1   10     -3.57      0.00
  -10   -1   10     -4.89      0.00
   -9   -1   10      1.75      0.00
   -8   -1   10     -6.06      0.00
   -7   -1   10      7.88      0.00
   -6   -1   10     -0.73      0.00
   -5   -1   10     -9.43      0.00
   -4   -1   10     10.72      0.00
   -3   -1   10      2.02      0.00
   -2   -1   10     -5.97      0.00
   -1   -1   10      0.80      0.00
    0   -1   10     -1.32      0.00
    1   -1   10     -0.85      0.00
    2   -1   10     -6.63      0.00
    3   -1   10     -1.89      0.00
    4   -1   10     -2.37      0.00
    5   -1   10      7.94      0.00
    6   -1   10     -2.68      0.00
    7   -1   10      3.41      0.00
    8   -1   10      3.59      0.00
    9   -1   10      8.03      0.00
   10   -1   10      0.46      0.00
   11   -1   10      3.04      0.00
   12   -1   10      1.59      0.00
   13   -1   10      2.17      0.00
   14   -1   10     -3.23      0.00
   15   -1   10     -2.55      0.00
  -14    0   10     -0.76      0.00
  -13    0   10      1.16      0.00
  -12    0   10     -1.93      0.00
  -11    0   10      0.83      0.00
  -10    0   10     -5.32      0.00
   -9    0   10      2.72      0.00
   -8    0   10      4.00      0.00
   -7    0   10     -1.41      0.00
   -6    0   10     -1.77      0.00
   -5    0   10      2.23      0.00
   -4    0   10      3.71      0.00
   -3    0   10     -6.14      0.00
   -2    0   10     12.36      0.00
   -1    0   10     -7.68      0.00
    1    0   10      4.80      0.00
    2    0   10      2.44      0.00
    3    0   10     -0.49      0.00
    4    0   10      2.88      0.00
    5    0   10     -1.95      0.00
    6    0   10      3.13      0.00
    7    0   10      3.20      0.00
    8    0   10     -6.40      0.00
    9    0   10      1.38      0.00
   10    0   10      6.86      0.00
   11    0   10     -0.97      0.00
   12    0   10     -6.58      0.00
   13    0   10      3.57      0.00
   14    0   10     -0.38      0.00
   15    0   10     -0.59      0.00
   16    0   10      2.58      0.00
  -14    1   10     -0.55      0.00
  -13    1   10      2.81      0.00
  -12    1   10     -2.00      0.00
  -11    1   10     -4.50      0.00
  -10    1   10      2.07      0.00
   -9    1   10      0.71      0.00
   -8    1   10      3.57      0.00
   -7    1   10      3.18      0.00
   -6    1   10      2.13      0.00
   -5    1   10      4.11      0.00
   -3    1   10      7.37      0.00
   -2    1   10      6.63      0.00
   -1    1   10    -22.93      0.00
    0    1   10      2.45      0.00
    1    1   10      2.75      0.00
    2    1   10     -0.85      0.00
    3    1   10      1.19      0.00
    4    1   10     -1.33      0.00
    5    1   10     -3.80      0.00
    6    1   10     10.14      0.00
    7    1   10     -2.78      0.00
    8    1   10     -1.07      0.00
    9    1   10     -5.09      0.00
   10    1   10     -1.61      0.00
   11    1   10      1.46      0.00
   12    1   10     -9.44      0.00
   13    1   10     -2.35      0.00
   14    1   10     -5.09      0.00
   15    1   10      2.69      0.00
   16    1   10     -2.45      0.00
  -14    2   10      1.91      0.00
  -13    2   10     -0.92      0.00
  -12    2   10      1.55      0.00
  -11    2   10     -0.12      0.00
  -10    2   10      0.39      0.00
   -9    2   10     -3.57      0.00
   -8    2   10      2.35      0.00
   -7    2   10     -5.08      0.00
   -6    2   10      3.04      0.00
   -4    2   10     -8.46      0.00
   -3    2   10      7.48      0.00
   -2    2   10      1.96      0.00
   -1    2   10     -6.83      0.00
    0    2   10     -4.31      0.00
    1    2   10      9.26      0.00
    2    2   10     -0.34      0.00
    3    2   10     -2.24      0.00
    4    2   10     -4.39      0.00
    5    2   10     -6.85      0.00
    6    2   10      4.07      0.00
    7    2   10     -1.84      0.00
    8    2   10      3.71      0.00
    9    2   10      7.69      0.00
   10    2   10      6.50      0.00
   11    2   10     -4.67      0.00
   12    2   10     -2.56      0.00
   13    2   10      3.64      0.00
   14    2   10     -1.00      0.00
   15    2   10      2.57      0.00
   16    2   10     -0.85      0.00
  -14    3   10      0.64      0.00
  -13    3   10      1.15      0.00
  -12    3   10      1.10      0.00
  -11    3   10     -1.40      0.00
  -10    3   10      3.81      0.00
   -9    3   10     -3.79      0.00
   -8    3   10     -2.56      0.00
   -7    3   10     10.34      0.00
   -6    3   10     -8.84      0.00
   -5    3   10      4.14      0.00
   -4    3   10     -2.20      0.00
   -2    3   10    -17.34      0.00
   -1    3   10      2.99      0.00
    0    3   10     -4.72      0.00
    1    3   10      3.80      0.00
    2    3   10     12.01      0.00
    3    3   10    -16.82      0.00
    4    3   10     -5.69      0.00
    5    3   10      9.81      0.00
    6    3   10      8.77      0.00
    8    3   10      3.92      0.00
    9    3   10    -10.68      0.00
   10    3   10     11.57      0.00
   11    3   10      4.15      0.00
   12    3   10     -2.53      0.00
   13    3   10     -4.69      0.00
   14    3   10      9.66      0.00
   15    3   10     -1.59      0.00
   16    3   10      0.43      0.00
  -14    4   10      4.29      0.00
  -13    4   10     -0.10      0.00
  -12    4   10      0.69      0.00
  -11    4   10      0.02      0.00
  -10    4   10     -4.61      0.00
   -9    4   10      6.03      0.00
   -8    4   10     -1.48      0.00
   -7    4   10      2.52      0.00
   -6    4   10      2.92      0.00
   -4    4   10      4.73      0.00
   -2    4   10     -6.61      0.00
   -1    4   10     12.09      0.00
    0    4   10     -8.23      0.00
    1    4   10     -3.79      0.00
    2    4   10      0.53      0.00
    3    4   10    -11.27      0.00
    4    4   10      0.54      0.00
    5    4   10     -1.49      0.00
    6    4   10      9.95      0.00
    7    4   10     12.77      0.00
    8    4   10      4.83      0.00
    9    4   10     -1.33      0.00
   10    4   10     -0.83      0.00
   11    4   10     -2.96      0.00
   12    4   10      1.54      0.00
   13    4   10     -7.82      0.00
   14    4   10     -4.64      0.00
   15    4   10     -1.73      0.00
   16    4   10      0.82      0.00
   17    4   10     -0.91      0.00
  -14    5   10      1.65      0.00
  -13    5   10     -1.91      0.00
  -12    5   10     -2.08      0.00
  -11    5   10     -0.43      0.00
  -10    5   10     -1.57      0.00
   -9    5   10     -2.40      0.00
   -8    5   10      4.92      0.00
   -7    5   10     -7.36      0.00
   -6    5   10      6.58      0.00
   -4    5   10     -3.47      0.00
   -1    5   10      7.01      0.00
    0    5   10    -10.31      0.00
    1    5   10      0.35      0.00
    2    5   10      4.45      0.00
    3    5   10     -2.58      0.00
    4    5   10     -9.29      0.00
    5    5   10     15.91      0.00
    6    5   10      1.33      0.00
    7    5   10     -1.28      0.00
    8    5   10     -4.27      0.00
    9    5   10     -3.29      0.00
   10    5   10      3.07      0.00
   11    5   10      5.07      0.00
   12    5   10    -10.18      0.00
   13    5   10     -4.98      0.00
   14    5   10      3.63      0.00
   15    5   10     -4.81      0.00
   16    5   10      2.39      0.00
   17    5   10      1.37      0.00
  -14    6   10     -2.04      0.00
  -13    6   10     -6.81      0.00
  -12    6   10      1.58      0.00
  -11    6   10     -3.17      0.00
  -10    6   10      4.15      0.00
   -9    6   10     -4.01      0.00
   -8    6   10     -0.07      0.00
   -7    6   10     -9.05      0.00
   -6    6   10     12.50      0.00
   -4    6   10     -3.37      0.00
   -2    6   10      5.16      0.00
    0    6   10     -7.12      0.00
    1    6   10      1.56      0.00
    2    6   10    -10.60      0.00
    3    6   10      8.25      0.00
    4    6   10      1.17      0.00
    5    6   10      0.55      0.00
    6    6   10      3.37      0.00
    7    6   10      2.88      0.00
    8    6   10     -7.72      0.00
    9    6   10      0.45      0.00
   10    6   10    -11.30      0.00
   11    6   10     -0.68      0.00
   12    6   10     -2.29      0.00
   13    6   10     -2.45      0.00
   14    6   10      0.65      0.00
   15    6   10      1.22      0.00
   16    6   10      3.62      0.00
   17    6   10      0.80      0.00
  -14    7   10     -0.47      0.00
  -13    7   10     -0.74      0.00
  -12    7   10      1.45      0.00
  -11    7   10      0.14      0.00
  -10    7   10      5.11      0.00
   -9    7   10     -6.30      0.00
   -8    7   10      0.99      0.00
   -7    7   10      2.67      0.00
   -6    7   10      0.40      0.00
   -5    7   10      5.72      0.00
   -4    7   10     -3.43      0.00
   -2    7   10     13.85      0.00
    0    7   10      6.30      0.00
    1    7   10      3.40      0.00
    2    7   10     -1.90      0.00
    3    7   10      5.35      0.00
    5    7   10      2.51      0.00
    8    7   10     -0.98      0.00
    9    7   10     13.22      0.00
   10    7   10     -4.13      0.00
   11    7   10     -3.47      0.00
   12    7   10     -2.88      0.00
   13    7   10      0.36      0.00
   14    7   10     -0.10      0.00
   15    7   10      5.19      0.00
   16    7   10     -1.60      0.00
   17    7   10      0.60      0.00
   18    7   10      0.97      0.00
  -13    8   10      2.99      0.00
  -12    8   10     -1.54      0.00
  -11    8   10      1.55      0.00
  -10    8   10     -2.25      0.00
   -9    8   10      2.53      0.00
   -8    8   10     -6.88      0.00
   -7    8   10     13.03      0.00
   -6    8   10     -3.97      0.00
   -5    8   10      2.87      0.00
   -4    8   10      2.91      0.00
   -3    8   10    -12.00      0.00
   -1    8   10     -0.49      0.00
    0    8   10      5.40      0.00
    1    8   10      2.14      0.00
    4    8   10      3.49      0.00
    5    8   10     -3.86      0.00
    6    8   10     10.26      0.00
    7    8   10     -4.72      0.00
    8    8   10      1.57      0.00
    9    8   10      5.06      0.00
   10    8   10     -9.55      0.00
   11    8   10     -0.38      0.00
   12    8   10      6.18      0.00
   13    8   10      1.29      0.00
   14    8   10     -3.08      0.00
   15    8   10      6.11      0.00
   16    8   10      0.29      0.00
   17    8   10      2.29      0.00
  -13    9   10      1.76      0.00
  -12    9   10      0.07      0.00
  -11    9   10     -3.34      0.00
  -10    9   10     -3.29      0.00
   -9    9   10      3.86      0.00
   -8    9   10     -2.41      0.00
   -7    9   10      7.33      0.00
   -6    9   10     -4.54      0.00
   -5    9   10      2.30      0.00
   -4    9   10      6.98      0.00
   -3    9   10     -6.54      0.00
   -2    9   10     -4.28      0.00
   -1    9   10     10.26      0.00
    0    9   10      1.08      0.00
    1    9   10    -19.43      0.00
    3    9   10     -6.01      0.00
    5    9   10      0.04      0.00
    6    9   10     -0.84      0.00
    7    9   10      7.89      0.00
    8    9   10      2.08      0.00
    9    9   10    -12.79      0.00
   10    9   10      1.46      0.00
   11    9   10     -9.28      0.00
   12    9   10     -4.79      0.00
   13    9   10      5.70      0.00
   14    9   10     -3.35      0.00
   15    9   10      2.57      0.00
   16    9   10      1.65      0.00
   17    9   10      2.62      0.00
  -13   10   10      1.64      0.00
  -12   10   10     -2.92      0.00
  -11   10   10     -0.42      0.00
  -10   10   10     -0.96      0.00
   -9   10   10     -1.47      0.00
   -8   10   10      3.13      0.00
   -7   10   10     -2.43      0.00
   -6   10   10     -1.11      0.00
   -5   10   10     -0.41      0.00
   -4   10   10      2.06      0.00
   -3   10   10      1.84      0.00
   -2   10   10      1.30      0.00
   -1   10   10      4.08      0.00
    0   10   10     -0.25      0.00
    1   10   10     -9.20      0.00
    2   10   10      0.88      0.00
    3   10   10    -11.39      0.00
    4   10   10     12.63      0.00
    5   10   10     -1.72      0.00
    6   10   10     -4.17      0.00
    7   10   10     -1.36      0.00
    8   10   10      7.42      0.00
    9   10   10     -8.63      0.00
   10   10   10      2.57      0.00
   11   10   10     -5.02      0.00
   12   10   10     -1.34      0.00
   13   10   10      5.08      0.00
   14   10   10     -3.63      0.00
   15   10   10      0.40      0.00
   16   10   10      5.09      0.00
   17   10   10     -3.11      0.00
  -12   11   10     -3.01      0.00
  -11   11   10     -1.36      0.00
  -10   11   10      4.57      0.00
   -9   11   10     -6.26      0.00
   -8   11   10      5.64      0.00
   -7   11   10     -2.83      0.00
   -6   11   10      2.89      0.00
   -5   11   10      0.40      0.00
   -4   11   10     -8.12      0.00
   -3   11   10      7.90      0.00
   -2   11   10     -0.88      0.00
   -1   11   10     -4.46      0.00
    0   11   10     -2.48      0.00
    1   11   10     -8.87      0.00
    2   11   10      7.89      0.00
    3   11   10      2.59      0.00
    4   11   10      6.79      0.00
    5   11   10      2.21      0.00
    6   11   10      1.19      0.00
    7   11   10     -0.24      0.00
    8   11   10      0.42      0.00
    9   11   10     -0.58      0.00
   10   11   10     -0.32      0.00
   11   11   10     -3.88      0.00
   12   11   10      3.85      0.00
   13   11   10      0.69      0.00
   14   11   10      4.04      0.00
   15   11   10     -3.44      0.00
   16   11   10      1.86      0.00
   17   11   10      2.39      0.00
  -11   12   10     -0.80      0.00
  -10   12   10      0.53      0.00
   -9   12   10      1.46      0.00
   -8   12   10      4.70      0.00
   -7   12   10     -1.19      0.00
   -6   12   10     -0.28      0.00
   -5   12   10      2.47      0.00
   -4   12   10     -0.20      0.00
   -3   12   10      7.91      0.00
   -2   12   10    -11.11      0.00
   -1   12   10     -4.36      0.00
    0   12   10      0.10      0.00
    1   12   10     -2.46      0.00
    2   12   10     -6.17      0.00
    3   12   10     12.86      0.00
    4   12   10     -2.60      0.00
    5   12   10      7.61      0.00
    6   12   10     -0.57      0.00
    7   12   10     -0.21      0.00
    8   12   10      6.88      0.00
    9   12   10      4.70      0.00
   10   12   10     -8.94      0.00
   11   12   10     -4.33      0.00
   12   12   10      3.49      0.00
   13   12   10     -3.80      0.00
   14   12   10      0.38      0.00
   15   12   10     -0.72      0.00
   16   12   10     -2.86      0.00
   17   12   10     -1.66      0.00
  -11   13   10     -5.33      0.00
  -10   13   10      0.73      0.00
   -9   13   10      3.39      0.00
   -8   13   10     -0.77      0.00
   -7   13   10      3.14      0.00
   -6   13   10     -3.24      0.00
   -5   13   10      1.03      0.00
   -4   13   10      1.18      0.00
   -3   13   10      1.94      0.00
   -2   13   10     -5.24      0.00
   -1   13   10      3.40      0.00
    0   13   10     -8.29      0.00
    1   13   10      8.65      0.00
    2   13   10     -4.24      0.00
    3   13   10      8.79      0.00
    4   13   10     -3.78      0.00
    5   13   10     -0.60      0.00
    6   13   10      2.05      0.00
    7   13   10     -2.23      0.00
    8   13   10      5.25      0.00
    9   13   10     -2.23      0.00
   10   13   10     -4.86      0.00
   11   13   10     -0.28      0.00
   12   13   10      3.17      0.00
   13   13   10     -1.27      0.00
   14   13   10     -0.08      0.00
   15   13   10     -1.00      0.00
   16   13   10      1.23      0.00
  -10   14   10     -3.47      0.00
   -9   14   10      3.40      0.00
   -8   14   10      0.58      0.00
   -7   14   10     -6.19      0.00
   -6   14   10      4.79      0.00
   -5   14   10     -0.78      0.00
   -4   14   10      7.37      0.00
   -3   14   10     -5.46      0.00
   -2   14   10     -4.79      0.00
   -1   14   10      3.29      0.00
    0   14   10     -1.83      0.00
    1   14   10      1.82      0.00
    2   14   10     -7.14      0.00
    3   14   10      3.08      0.00
    4   14   10      4.68      0.00
    5   14   10     -8.10      0.00
    6   14   10      5.03      0.00
    7   14   10      1.21      0.00
    8   14   10     -4.39      0.00
    9   14   10     -1.83      0.00
   10   14   10     -0.01      0.00
   11   14   10     -2.57      0.00
   12   14   10      2.26      0.00
   13   14   10      3.04      0.00
   14   14   10      4.79      0.00
   15   14   10      2.95      0.00
   16   14   10     -1.67      0.00
   -9   15   10      1.31      0.00
   -8   15   10      3.50      0.00
   -7   15   10     -4.72      0.00
   -6   15   10      3.91      0.00
   -5   15   10      3.68      0.00
   -4   15   10      1.28      0.00
   -3   15   10     -2.91      0.00
   -2   15   10      8.05      0.00
   -1   15   10    -10.18      0.00
    0   15   10      4.21      0.00
    1   15   10      0.90      0.00
    2   15   10      1.92      0.00
    3   15   10     -0.45      0.00
    4   15   10      5.85      0.00
    5   15   10     -2.64      0.00
    6   15   10      0.72      0.00
    7   15   10      1.28      0.00
    8   15   10     -5.19      0.00
    9   15   10     -1.80      0.00
   10   15   10      1.31      0.00
   11   15   10      5.40      0.00
   12   15   10     -2.09      0.00
   13   15   10      2.06      0.00
   14   15   10     -2.65      0.00
   15   15   10      3.96      0.00
   -8   16   10      1.09      0.00
   -7   16   10     -2.03      0.00
   -6   16   10      0.57      0.00
   -5   16   10      0.80      0.00
   -4   16   10     -2.39      0.00
   -3   16   10     -1.93      0.00
   -2   16   10      1.64      0.00
   -1   16   10     -5.47      0.00
    0   16   10      3.72      0.00
    1   16   10     -1.65      0.00
    2   16   10      4.25      0.00
    3   16   10      4.60      0.00
    4   16   10     -5.52      0.00
    5   16   10      2.41      0.00
    6   16   10     -2.21      0.00
    7   16   10     -3.92      0.00
    8   16   10     -2.36      0.00
    9   16   10     -1.26      0.00
   10   16   10     -1.38      0.00
   11   16   10      1.27      0.00
   12   16   10     -1.95      0.00
   13   16   10      0.34      0.00
   14   16   10      1.99      0.00
   -6   17   10     -2.09      0.00
   -5   17   10     -0.05      0.00
   -4   17   10     -2.26      0.00
   -3   17   10     -0.51      0.00
   -2   17   10     -3.07      0.00
   -1   17   10     -1.89      0.00
    0   17   10      0.31      0.00
    1   17   10     -1.20      0.00
    2   17   10     -0.03      0.00
    3   17   10      0.56      0.00
    4   17   10     -2.56      0.00
    5   17   10      0.55      0.00
    6   17   10     -3.17      0.00
    7   17   10      1.59      0.00
    8   17   10      2.37      0.00
    9   17   10     -2.99      0.00
   10   17   10      2.27      0.00
   11   17   10     -1.34      0.00
   12   17   10      1.14      0.00
   13   17   10     -2.83      0.00
   -5   18   10     -0.93      0.00
   -4   18   10     -0.94      0.00
   -3   18   10      1.60      0.00
   -2   18   10     -1.75      0.00
   -1   18   10      3.54      0.00
    0   18   10     -4.22      0.00
    1   18   10     -1.14      0.00
    2   18   10      6.16      0.00
    3   18   10     -2.94      0.00
    4   18   10     -0.61      0.00
    5   18   10      3.36      0.00
    6   18   10     -0.99      0.00
    7   18   10     -1.96      0.00
    8   18   10      5.46      0.00
    9   18   10      0.63      0.00
   10   18   10      1.75      0.00
   11   18   10     -0.58      0.00
   -3   19   10     -0.12      0.00
   -2   19   10      0.90      0.00
   -1   19   10      4.19      0.00
    0   19   10     -2.65      0.00
    1   19   10      0.57      0.00
    2   19   10      2.89      0.00
    3   19   10     -0.60      0.00
    4   19   10      0.60      0.00
    5   19   10     -0.83      0.00
    6   19   10     -0.27      0.00
    7   19   10     -1.45      0.00
    8   19   10     -1.32      0.00
    9   19   10     -1.71      0.00
   10   19   10      0.35      0.00
    1   20   10     -0.17      0.00
    2   20   10      2.55      0.00
    3   20   10     -3.26      0.00
    4   20   10     -1.07      0.00
    5   20   10      1.05      0.00
    6   20   10     -0.85      0.00
   -1  -10   11      1.94      0.00
    0  -10   11     -1.65      0.00
    1  -10   11      2.13      0.00
   -5   -9   11     -1.39      0.00
   -4   -9   11      0.06      0.00
   -3   -9   11     -2.25      0.00
   -2   -9   11     -3.06      0.00
   -1   -9   11      0.67      0.00
    0   -9   11     -0.65      0.00
    1   -9   11     -4.16      0.00
    2   -9   11      0.49      0.00
    3   -9   11     -1.27      0.00
    4   -9   11      1.00      0.00
    5   -9   11      1.86      0.00
    6   -9   11      2.56      0.00
   -7   -8   11     -0.32      0.00
   -6   -8   11     -0.27      0.00
   -5   -8   11     -1.93      0.00
   -4   -8   11     -0.20      0.00
   -3   -8   11     -0.85      0.00
   -2   -8   11      0.57      0.00
   -1   -8   11     -2.89      0.00
    0   -8   11      0.92      0.00
    1   -8   11     -0.62      0.00
    2   -8   11     -1.85      0.00
    3   -8   11      2.41      0.00
    4   -8   11     -1.44      0.00
    5   -8   11      0.29      0.00
    6   -8   11      1.57      0.00
    7   -8   11     -1.54      0.00
    8   -8   11      0.11      0.00
   -8   -7   11      0.91      0.00
   -7   -7   11      2.91      0.00
   -6   -7   11     -0.87      0.00
   -5   -7   11      2.33      0.00
   -4   -7   11      2.75      0.00
   -3   -7   11      3.50      0.00
   -2   -7   11      3.41      0.00
   -1   -7   11     -0.97      0.00
    0   -7   11      2.08      0.00
    1   -7   11     -0.57      0.00
    2   -7   11      0.96      0.00
    3   -7   11      4.41      0.00
    4   -7   11      2.02      0.00
    5   -7   11     -0.12      0.00
    6   -7   11     -2.27      0.00
    7   -7   11     -0.31      0.00
    8   -7   11      1.70      0.00
    9   -7   11     -0.24      0.00
   10   -7   11      0.90      0.00
  -10   -6   11      1.00      0.00
   -9   -6   11     -4.78      0.00
   -8   -6   11     -0.52      0.00
   -7   -6   11      5.22      0.00
   -6   -6   11      1.45      0.00
   -5   -6   11     -0.17      0.00
   -4   -6   11      0.18      0.00
   -3   -6   11      4.75      0.00
   -2   -6   11     -0.17      0.00
   -1   -6   11     -2.77      0.00
    0   -6   11      6.62      0.00
    1   -6   11     -3.70      0.00
    2   -6   11      0.84      0.00
    3   -6   11      2.89      0.00
    4   -6   11     -0.69      0.00
    5   -6   11      0.58      0.00
    6   -6   11     -0.36      0.00
    7   -6   11      1.74      0.00
    8   -6   11      3.50      0.00
    9   -6   11     -4.67      0.00
   10   -6   11      1.65      0.00
   11   -6   11      2.65      0.00
  -11   -5   11     -1.99      0.00
  -10   -5   11     -2.13      0.00
   -9   -5   11      0.21      0.00
   -8   -5   11      2.83      0.00
   -7   -5   11     -3.83      0.00
   -6   -5   11     -4.10      0.00
   -5   -5   11      1.97      0.00
   -4   -5   11     -4.72      0.00
   -3   -5   11     -4.34      0.00
   -2   -5   11      2.05      0.00
   -1   -5   11     -1.35      0.00
    0   -5   11    -10.76      0.00
    1   -5   11      1.87      0.00
    2   -5   11      7.37      0.00
    3   -5   11     -4.40      0.00
    4   -5   11      0.22      0.00
    5   -5   11     -4.44      0.00
    6   -5   11     -4.98      0.00
    7   -5   11      4.50      0.00
    8   -5   11     -2.21      0.00
    9   -5   11     -8.65      0.00
   10   -5   11      3.08      0.00
   11   -5   11     -1.72      0.00
   12   -5   11      1.03      0.00
  -11   -4   11     -2.85      0.00
  -10   -4   11     -0.86      0.00
   -9   -4   11      2.78      0.00
   -8   -4   11      1.21      0.00
   -7   -4   11     -2.29      0.00
   -6   -4   11      1.16      0.00
   -5   -4   11      3.85      0.00
   -4   -4   11     -5.81      0.00
   -3   -4   11     -3.27      0.00
   -2   -4   11      6.75      0.00
   -1   -4   11      2.51      0.00
    0   -4   11     -6.01      0.00
    1   -4   11     -2.73      0.00
    2   -4   11      5.36      0.00
    3   -4   11      5.47      0.00
    4   -4   11      0.15      0.00
    5   -4   11     -1.74      0.00
    6   -4   11     -1.16      0.00
    7   -4   11      1.99      0.00
    8   -4   11     -5.13      0.00
    9   -4   11     -1.71      0.00
   10   -4   11      4.56      0.00
   11   -4   11     -4.49      0.00
   12   -4   11      0.35      0.00
   13   -4   11      1.23      0.00
  -12   -3   11     -2.61      0.00
  -11   -3   11      2.38      0.00
  -10   -3   11      0.26      0.00
   -9   -3   11     -1.11      0.00
   -8   -3   11      4.41      0.00
   -7   -3   11     -2.46      0.00
   -6   -3   11      1.43      0.00
   -5   -3   11     -0.37      0.00
   -4   -3   11      0.63      0.00
   -3   -3   11      3.64      0.00
   -2   -3   11      0.30      0.00
   -1   -3   11     -2.39      0.00
    0   -3   11     -1.73      0.00
    1   -3   11     11.05      0.00
    2   -3   11     -0.47      0.00
    3   -3   11     -0.05      0.00
    4   -3   11      1.37      0.00
    5   -3   11      1.68      0.00
    6   -3   11     -1.42      0.00
    7   -3   11      2.29      0.00
    8   -3   11     -2.89      0.00
    9   -3   11      5.18      0.00
   10   -3   11      0.28      0.00
   11   -3   11      0.86      0.00
   12   -3   11      0.64      0.00
   13   -3   11     -1.60      0.00
   14   -3   11      0.12      0.00
  -12   -2   11      0.62      0.00
  -11   -2   11      0.16      0.00
  -10   -2   11      2.82      0.00
   -9   -2   11      3.35      0.00
   -8   -2   11     -4.09      0.00
   -7   -2   11     -2.32      0.00
   -6   -2   11      4.72      0.00
   -5   -2   11     -3.66      0.00
   -4   -2   11     -0.86      0.00
   -3   -2   11     -4.19      0.00
   -2   -2   11     -1.59      0.00
   -1   -2   11      1.68      0.00
    0   -2   11     -9.42      0.00
    1   -2   11      2.32      0.00
    2   -2   11     11.38      0.00
    3   -2   11      5.82      0.00
    4   -2   11     -7.55      0.00
    5   -2   11     -2.66      0.00
    6   -2   11     -1.98      0.00
    7   -2   11     -3.65      0.00
    8   -2   11      1.34      0.00
    9   -2   11     -2.12      0.00
   10   -2   11     -3.03      0.00
   11   -2   11     -0.23      0.00
   12   -2   11     -2.35      0.00
   13   -2   11     -1.55      0.00
   14   -2   11      5.09      0.00
  -13   -1   11      1.77      0.00
  -12   -1   11     -1.75      0.00
  -11   -1   11      1.32      0.00
  -10   -1   11     -2.33      0.00
   -9   -1   11     -1.07      0.00
   -8   -1   11      6.27      0.00
   -7   -1   11      1.54      0.00
   -6   -1   11     -7.90      0.00
   -5   -1   11     -2.52      0.00
   -4   -1   11     18.29      0.00
   -3   -1   11    -16.01      0.00
   -2   -1   11    -10.33      0.00
   -1   -1   11      4.47      0.00
    0   -1   11      6.68      0.00
    1   -1   11     -4.55      0.00
    2   -1   11      0.64      0.00
    3   -1   11     -2.77      0.00
    4   -1   11      4.44      0.00
    5   -1   11      0.59      0.00
    6   -1   11     -8.00      0.00
    7   -1   11      5.26      0.00
    8   -1   11      5.76      0.00
    9   -1   11     -4.55      0.00
   10   -1   11     -2.59      0.00
   11   -1   11      6.17      0.00
   12   -1   11     -4.57      0.00
   13   -1   11      0.12      0.00
   14   -1   11     -0.52      0.00
  -13    0   11     -1.24      0.00
  -12    0   11     -0.45      0.00
  -11    0   11     -1.75      0.00
  -10    0   11      0.51      0.00
   -9    0   11     -2.49      0.00
   -8    0   11      1.23      0.00
   -7    0   11     -3.67      0.00
   -6    0   11      0.87      0.00
   -5    0   11      3.12      0.00
   -4    0   11     -0.41      0.00
   -3    0   11     -7.67      0.00
   -2    0   11      7.87      0.00
   -1    0   11     -2.47      0.00
    0    0   11      7.26      0.00
    1    0   11      3.17      0.00
    2    0   11      0.26      0.00
    3    0   11     -8.78      0.00
    4    0   11      2.07      0.00
    5    0   11     -0.81      0.00
    6    0   11      3.13      0.00
    7    0   11     -3.82      0.00
    8    0   11      5.68      0.00
    9    0   11      6.29      0.00
   10    0   11     -5.83      0.00
   11    0   11      1.98      0.00
   12    0   11      3.06      0.00
   13    0   11      4.55      0.00
   14    0   11      0.22      0.00
   15    0   11     -1.25      0.00
  -13    1   11     -3.01      0.00
  -12    1   11     -1.73      0.00
  -11    1   11     -3.89      0.00
  -10    1   11      4.13      0.00
   -9    1   11      2.28      0.00
   -8    1   11      6.31      0.00
   -7    1   11     -1.48      0.00
   -6    1   11     -8.68      0.00
   -5    1   11      9.92      0.00
   -4    1   11     -3.72      0.00
   -3    1   11     -2.59      0.00
   -2    1   11     -5.93      0.00
   -1    1   11      2.89      0.00
    0    1   11     12.91      0.00
    1    1   11     -4.44      0.00
    2    1   11     -1.84      0.00
    5    1   11     -0.10      0.00
    6    1   11      7.10      0.00
    7    1   11     -9.20      0.00
    8    1   11     -9.53      0.00
    9    1   11     -0.25      0.00
   10    1   11     -2.89      0.00
   11    1   11     -7.60      0.00
   12    1   11      0.49      0.00
   13    1   11      1.57      0.00
   14    1   11      0.73      0.00
   15    1   11      3.06      0.00
  -14    2   11      1.37      0.00
  -13    2   11     -3.48      0.00
  -12    2   11     -0.38      0.00
  -11    2   11      0.00      0.00
  -10    2   11      1.72      0.00
   -9    2   11      6.26      0.00
   -8    2   11     -6.59      0.00
   -7    2   11      5.08      0.00
   -6    2   11     -0.22      0.00
   -5    2   11     -5.09      0.00
   -4    2   11     -4.65      0.00
   -3    2   11     14.77      0.00
   -2    2   11     -5.27      0.00
   -1    2   11     -6.32      0.00
    0    2   11     11.49      0.00
    3    2   11      7.22      0.00
    5    2   11      4.40      0.00
    6    2   11     -4.51      0.00
    7    2   11     -8.07      0.00
    8    2   11      0.89      0.00
    9    2   11      3.09      0.00
   10    2   11     -6.61      0.00
   11    2   11    -11.66      0.00
   12    2   11      8.37      0.00
   13    2   11     -3.49      0.00
   14    2   11     -1.22      0.00
   15    2   11      1.53      0.00
  -14    3   11     -0.49      0.00
  -13    3   11      2.74      0.00
  -12    3   11     -2.68      0.00
  -11    3   11      4.13      0.00
  -10    3   11      0.33      0.00
   -9    3   11      3.07      0.00
   -8    3   11     -2.55      0.00
   -7    3   11     -3.67      0.00
   -6    3   11     -6.50      0.00
   -5    3   11     -2.85      0.00
   -4    3   11     -9.90      0.00
   -3    3   11      2.42      0.00
   -2    3   11     -5.60      0.00
   -1    3   11      0.03      0.00
    0    3   11      8.93      0.00
    2    3   11      4.64      0.00
    3    3   11     -6.24      0.00
    4    3   11      8.74      0.00
    5    3   11      5.76      0.00
    6    3   11    -12.76      0.00
    7    3   11     -2.63      0.00
    8    3   11     -3.40      0.00
    9    3   11      0.93      0.00
   10    3   11     14.55      0.00
   11    3   11     -7.92      0.00
   12    3   11      7.41      0.00
   13    3   11      6.95      0.00
   14    3   11      2.70      0.00
   15    3   11     -1.98      0.00
   16    3   11      4.77      0.00
  -14    4   11      0.81      0.00
  -13    4   11      0.95      0.00
  -12    4   11      0.89      0.00
  -11    4   11      4.91      0.00
  -10    4   11     -0.70      0.00
   -9    4   11     -2.28      0.00
   -8    4   11      3.83      0.00
   -7    4   11     -2.74      0.00
   -6    4   11      4.74      0.00
   -5    4   11     -5.00      0.00
   -4    4   11      4.09      0.00
   -3    4   11     -2.13      0.00
   -2    4   11     -7.13      0.00
   -1    4   11      8.27      0.00
    0    4   11      0.34      0.00
    1    4   11     -2.61      0.00
    2    4   11     -0.87      0.00
    3    4   11      0.78      0.00
    4    4   11     -1.36      0.00
    5    4   11      1.78      0.00
    6    4   11     -7.27      0.00
    7    4   11      6.73      0.00
    8    4   11      2.33      0.00
    9    4   11     -2.15      0.00
   10    4   11     -2.03      0.00
   11    4   11      3.04      0.00
   12    4   11      2.55      0.00
   13    4   11      4.86      0.00
   14    4   11      2.64      0.00
   15    4   11      0.39      0.00
   16    4   11     -0.72      0.00
   17    4   11     -3.11      0.00
  -13    5   11      2.42      0.00
  -12    5   11      0.61      0.00
  -11    5   11      2.83      0.00
  -10    5   11      0.67      0.00
   -9    5   11     -6.83      0.00
   -8    5   11     10.29      0.00
   -7    5   11     -6.71      0.00
   -6    5   11      7.66      0.00
   -5    5   11     -4.00      0.00
   -3    5   11      4.51      0.00
   -2    5   11      4.91      0.00
   -1    5   11      6.50      0.00
    0    5   11     -4.42      0.00
    2    5   11     -6.46      0.00
    3    5   11     -5.91      0.00
    4    5   11     -8.22      0.00
    5    5   11     10.88      0.00
    6    5   11     -8.60      0.00
    7    5   11      3.63      0.00
    8    5   11     -5.05      0.00
    9    5   11      5.05      0.00
   10    5   11      3.81      0.00
   11    5   11      1.34      0.00
   12    5   11     -8.81      0.00
   13    5   11      3.94      0.00
   14    5   11      3.48      0.00
   15    5   11     -6.05      0.00
   16    5   11     -1.99      0.00
   17    5   11      1.57      0.00
  -13    6   11     -2.06      0.00
  -12    6   11      1.43      0.00
  -11    6   11     -4.40      0.00
  -10    6   11      0.36      0.00
   -9    6   11     -1.77      0.00
   -8    6   11     -2.10      0.00
   -7    6   11      4.55      0.00
   -6    6   11     -4.71      0.00
   -5    6   11     -7.65      0.00
   -4    6   11      2.02      0.00
   -3    6   11     -4.80      0.00
   -2    6   11      8.50      0.00
   -1    6   11     -0.94      0.00
    0    6   11     -9.19      0.00
    1    6   11     -0.20      0.00
    2    6   11     -0.66      0.00
    3    6   11     10.71      0.00
    4    6   11     -4.63      0.00
    5    6   11     -2.06      0.00
    6    6   11      2.39      0.00
    7    6   11      0.33      0.00
    8    6   11    -10.39      0.00
    9    6   11     -6.12      0.00
   10    6   11     -3.59      0.00
   11    6   11     10.16      0.00
   12    6   11     -3.86      0.00
   13    6   11      1.39      0.00
   14    6   11      0.95      0.00
   15    6   11     -2.09      0.00
   16    6   11     -3.41      0.00
   17    6   11      2.08      0.00
  -13    7   11      0.06      0.00
  -12    7   11     -0.34      0.00
  -11    7   11      1.41      0.00
  -10    7   11     -4.51      0.00
   -9    7   11      4.88      0.00
   -8    7   11     -3.06      0.00
   -7    7   11      5.76      0.00
   -6    7   11     -8.11      0.00
   -5    7   11     -6.18      0.00
   -4    7   11      2.92      0.00
   -3    7   11      4.16      0.00
   -2    7   11      0.85      0.00
   -1    7   11     -9.83      0.00
    0    7   11      0.84      0.00
    1    7   11     -0.45      0.00
    2    7   11      1.38      0.00
    4    7   11      7.05      0.00
    5    7   11     -7.53      0.00
    6    7   11      0.88      0.00
    7    7   11     -6.23      0.00
    8    7   11     -4.32      0.00
    9    7   11      4.79      0.00
   10    7   11     -4.75      0.00
   11    7   11      1.17      0.00
   12    7   11      0.29      0.00
   13    7   11      2.73      0.00
   14    7   11      0.32      0.00
   15    7   11      1.25      0.00
   16    7   11     -4.69      0.00
   17    7   11      1.58      0.00
  -13    8   11     -0.67      0.00
  -12    8   11      2.60      0.00
  -11    8   11      5.57      0.00
  -10    8   11     -5.33      0.00
   -9    8   11      7.38      0.00
   -8    8   11     -2.29      0.00
   -7    8   11      6.25      0.00
   -6    8   11     -5.52      0.00
   -5    8   11     -3.51      0.00
   -4    8   11      2.61      0.00
   -3    8   11      2.06      0.00
   -2    8   11      3.83      0.00
   -1    8   11     -6.43      0.00
    0    8   11     -1.37      0.00
    1    8   11      6.21      0.00
    2    8   11     10.59      0.00
    4    8   11      4.89      0.00
    5    8   11     -5.77      0.00
    6    8   11     -2.13      0.00
    7    8   11     -8.10      0.00
    8    8   11      6.02      0.00
    9    8   11     -1.53      0.00
   10    8   11      1.38      0.00
   11    8   11     12.67      0.00
   12    8   11      0.49      0.00
   13    8   11     -3.43      0.00
   14    8   11      3.10      0.00
   15    8   11      3.28      0.00
   16    8   11     -1.88      0.00
   17    8   11     -1.35      0.00
  -12    9   11     -0.77      0.00
  -11    9   11      1.60      0.00
  -10    9   11     -0.67      0.00
   -9    9   11      0.91      0.00
   -8    9   11      2.55      0.00
   -7    9   11     -4.83      0.00
   -6    9   11      4.17      0.00
   -5    9   11     -0.57      0.00
   -4    9   11     -1.60      0.00
   -3    9   11     -4.60      0.00
   -2    9   11     -1.94      0.00
   -1    9   11      6.76      0.00
    0    9   11     -4.17      0.00
    1    9   11     -3.25      0.00
    2    9   11     20.31      0.00
    3    9   11     -3.69      0.00
    4    9   11     -6.36      0.00
    5    9   11      2.08      0.00
    6    9   11     -5.53      0.00
    7    9   11      6.03      0.00
    8    9   11     -4.91      0.00
    9    9   11     -6.00      0.00
   10    9   11      4.52      0.00
   11    9   11      2.75      0.00
   12    9   11      4.32      0.00
   13    9   11      1.55      0.00
   14    9   11      0.70      0.00
   15    9   11      1.75      0.00
   16    9   11      2.34      0.00
   17    9   11     -2.09      0.00
  -12   10   11     -0.66      0.00
  -11   10   11     -0.70      0.00
  -10   10   11      0.46      0.00
   -9   10   11      1.78      0.00
   -8   10   11      0.52      0.00
   -7   10   11     -7.03      0.00
   -6   10   11     -2.18      0.00
   -5   10   11      8.18      0.00
   -4   10   11     -5.95      0.00
   -3   10   11      0.31      0.00
   -2   10   11      3.02      0.00
   -1   10   11      0.51      0.00
    0   10   11      2.89      0.00
    1   10   11      1.41      0.00
    2   10   11     -1.25      0.00
    3   10   11      3.19      0.00
    4   10   11     -7.96      0.00
    5   10   11     -3.07      0.00
    6   10   11     -3.13      0.00
    7   10   11      5.72      0.00
    8   10   11     -3.70      0.00
    9   10   11     -5.57      0.00
   10   10   11      5.53      0.00
   11   10   11      1.39      0.00
   12   10   11      1.01      0.00
   13   10   11      0.92      0.00
   14   10   11     -0.63      0.00
   15   10   11      0.69      0.00
   16   10   11     -0.24      0.00
   17   10   11     -2.67      0.00
  -12   11   11     -0.39      0.00
  -11   11   11      2.05      0.00
  -10   11   11      2.27      0.00
   -9   11   11     -3.67      0.00
   -8   11   11     -0.46      0.00
   -7   11   11      0.09      0.00
   -6   11   11     -5.60      0.00
   -5   11   11      3.23      0.00
   -4   11   11    -10.83      0.00
   -3   11   11      9.72      0.00
   -2   11   11      3.34      0.00
   -1   11   11     -0.82      0.00
    0   11   11     -1.53      0.00
    1   11   11      8.45      0.00
    2   11   11     -3.96      0.00
    3   11   11      5.17      0.00
    4   11   11     -8.05      0.00
    5   11   11     -6.20      0.00
    6   11   11      6.41      0.00
    7   11   11     -3.88      0.00
    8   11   11     -7.80      0.00
    9   11   11      3.66      0.00
   10   11   11      4.36      0.00
   11   11   11      1.17      0.00
   12   11   11      6.29      0.00
   13   11   11     -2.84      0.00
   14   11   11     -1.03      0.00
   15   11   11     -1.97      0.00
   16   11   11     -0.21      0.00
   17   11   11     -0.34      0.00
  -11   12   11     -2.78      0.00
  -10   12   11      1.74      0.00
   -9   12   11      0.89      0.00
   -8   12   11     -3.54      0.00
   -7   12   11     -0.83      0.00
   -6   12   11     -1.02      0.00
   -5   12   11     -0.10      0.00
   -4   12   11     -0.29      0.00
   -3   12   11     -0.56      0.00
   -2   12   11     -9.65      0.00
   -1   12   11      6.63      0.00
    0   12   11     -3.64      0.00
    1   12   11      1.58      0.00
    2   12   11     -5.65      0.00
    3   12   11      8.59      0.00
    4   12   11     -3.28      0.00
    5   12   11     -2.11      0.00
    6   12   11      4.59      0.00
    7   12   11     -7.03      0.00
    8   12   11      0.69      0.00
    9   12   11      2.90      0.00
   10   12   11     -0.89      0.00
   11   12   11      1.89      0.00
   12   12   11      1.09      0.00
   13   12   11     -0.17      0.00
   14   12   11     -5.44      0.00
   15   12   11     -0.13      0.00
   16   12   11     -3.88      0.00
  -10   13   11      2.35      0.00
   -9   13   11     -2.27      0.00
   -8   13   11      1.07      0.00
   -7   13   11      1.28      0.00
   -6   13   11      4.11      0.00
   -5   13   11     -7.74      0.00
   -4   13   11      5.27      0.00
   -3   13   11      0.60      0.00
   -2   13   11     -6.48      0.00
   -1   13   11      1.12      0.00
    0   13   11     -1.64      0.00
    1   13   11      8.78      0.00
    2   13   11     -0.14      0.00
    3   13   11     -4.29      0.00
    4   13   11      5.57      0.00
    5   13   11     -3.22      0.00
    6   13   11     -1.36      0.00
    7   13   11      4.49      0.00
    8   13   11      4.16      0.00
    9   13   11     -0.84      0.00
   10   13   11      0.48      0.00
   11   13   11      5.10      0.00
   12   13   11     -4.10      0.00
   13   13   11     -1.60      0.00
   14   13   11     -7.03      0.00
   15   13   11     -1.60      0.00
   16   13   11     -1.11      0.00
   -9   14   11     -1.20      0.00
   -8   14   11     -3.27      0.00
   -7   14   11     -2.82      0.00
   -6   14   11      5.93      0.00
   -5   14   11     -4.54      0.00
   -4   14   11      4.81      0.00
   -3   14   11    -11.07      0.00
   -2   14   11      4.36      0.00
   -1   14   11      7.48      0.00
    0   14   11     -0.87      0.00
    1   14   11     -1.35      0.00
    2   14   11      9.03      0.00
    3   14   11     -8.75      0.00
    4   14   11     -2.11      0.00
    5   14   11      1.06      0.00
    6   14   11     -5.90      0.00
    7   14   11      4.56      0.00
    8   14   11      0.87      0.00
    9   14   11      4.56      0.00
   10   14   11     -3.32      0.00
   11   14   11      0.51      0.00
   12   14   11      1.62      0.00
   13   14   11      1.21      0.00
   14   14   11      1.43      0.00
   15   14   11     -3.29      0.00
   -8   15   11     -0.68      0.00
   -7   15   11      1.88      0.00
   -6   15   11     -3.95      0.00
   -5   15   11      1.47      0.00
   -4   15   11     -0.09      0.00
   -3   15   11      1.03      0.00
   -2   15   11      4.63      0.00
   -1   15   11     -3.14      0.00
    0   15   11     10.16      0.00
    1   15   11     -4.72      0.00
    2   15   11     -2.12      0.00
    3   15   11     -0.17      0.00
    4   15   11     -4.54      0.00
    5   15   11     -0.92      0.00
    6   15   11     -0.85      0.00
    7   15   11      1.68      0.00
    8   15   11     -2.07      0.00
    9   15   11      2.09      0.00
   10   15   11      1.85      0.00
   11   15   11      1.32      0.00
   12   15   11      0.48      0.00
   13   15   11     -1.61      0.00
   14   15   11      0.92      0.00
   15   15   11      4.90      0.00
   -7   16   11      5.25      0.00
   -6   16   11     -1.86      0.00
   -5   16   11     -1.07      0.00
   -4   16   11     -1.10      0.00
   -3   16   11      3.37      0.00
   -2   16   11      4.72      0.00
   -1   16   11     -3.76      0.00
    0   16   11      3.90      0.00
    1   16   11      3.59      0.00
    2   16   11     -2.72      0.00
    3   16   11      2.89      0.00
    4   16   11     -2.99      0.00
    5   16   11      4.74      0.00
    6   16   11     -0.53      0.00
    7   16   11     -5.58      0.00
    8   16   11      4.34      0.00
    9   16   11      0.54      0.00
   10   16   11      0.82      0.00
   11   16   11     -0.31      0.00
   12   16   11      2.10      0.00
   13   16   11      0.14      0.00
   14   16   11      2.33      0.00
   -6   17   11     -0.69      0.00
   -5   17   11      1.10      0.00
   -4   17   11     -1.30      0.00
   -3   17   11      1.50      0.00
   -2   17   11     -2.01      0.00
   -1   17   11     -0.91      0.00
    0   17   11      1.91      0.00
    1   17   11     -1.65      0.00
    2   17   11     -3.20      0.00
    3   17   11      2.02      0.00
    4   17   11      0.65      0.00
    5   17   11     -6.36      0.00
    6   17   11      3.21      0.00
    7   17   11     -1.26      0.00
    8   17   11     -3.25      0.00
    9   17   11      1.47      0.00
   10   17   11      0.79      0.00
   11   17   11     -3.82      0.00
   12   17   11      0.99      0.00
   13   17   11     -1.44      0.00
   -5   18   11      1.84      0.00
   -4   18   11      0.10      0.00
   -3   18   11      1.00      0.00
   -2   18   11     -1.14      0.00
   -1   18   11     -2.20      0.00
    0   18   11      0.77      0.00
    1   18   11     -1.43      0.00
    2   18   11     -0.93      0.00
    3   18   11     -5.70      0.00
    4   18   11      3.04      0.00
    5   18   11     -2.05      0.00
    6   18   11      1.95      0.00
    7   18   11      3.23      0.00
    8   18   11      2.93      0.00
    9   18   11     -0.13      0.00
   10   18   11     -0.78      0.00
   11   18   11      0.57      0.00
   -2   19   11      0.35      0.00
   -1   19   11     -0.44      0.00
    0   19   11     -0.21      0.00
    1   19   11     -0.35      0.00
    2   19   11      0.71      0.00
    3   19   11      0.89      0.00
    4   19   11     -2.02      0.00
    5   19   11     -1.09      0.00
    6   19   11      0.10      0.00
    7   19   11      2.14      0.00
    8   19   11     -1.09      0.00
    9   19   11      1.63      0.00
    1   20   11      0.54      0.00
    2   20   11      0.23      0.00
    3   20   11     -0.04      0.00
    4   20   11      0.61      0.00
    5   20   11      0.83      0.00
    6   20   11     -2.67      0.00
   -5   -8   12     -3.96      0.00
   -4   -8   12     -0.88      0.00
   -3   -8   12     -3.37      0.00
   -2   -8   12      1.37      0.00
   -1   -8   12     -2.70      0.00
    0   -8   12     -2.16      0.00
    1   -8   12      1.42      0.00
    2   -8   12     -1.19      0.00
    3   -8   12     -0.62      0.00
    4   -8   12     -1.97      0.00
    5   -8   12      3.47      0.00
   -7   -7   12     -0.08      0.00
   -6   -7   12     -1.36      0.00
   -5   -7   12      1.13      0.00
   -4   -7   12      1.03      0.00
   -3   -7   12      1.10      0.00
   -2   -7   12     -2.32      0.00
   -1   -7   12      0.23      0.00
    0   -7   12     -0.50      0.00
    1   -7   12     -0.39      0.00
    2   -7   12      1.63      0.00
    3   -7   12      1.30      0.00
    4   -7   12     -0.78      0.00
    5   -7   12     -1.06      0.00
    6   -7   12      0.33      0.00
    7   -7   12     -2.34      0.00
    8   -7   12      2.97      0.00
   -8   -6   12      0.50      0.00
   -7   -6   12      3.52      0.00
   -6   -6   12     -2.18      0.00
   -5   -6   12     -0.43      0.00
   -4   -6   12      6.85      0.00
   -3   -6   12      6.60      0.00
   -2   -6   12     -5.57      0.00
   -1   -6   12      3.74      0.00
    0   -6   12      5.30      0.00
    1   -6   12     -2.90      0.00
    2   -6   12      2.93      0.00
    3   -6   12     -1.87      0.00
    4   -6   12     -0.80      0.00
    5   -6   12      2.05      0.00
    6   -6   12      1.54      0.00
    7   -6   12     -2.78      0.00
    8   -6   12      2.17      0.00
    9   -6   12      1.95      0.00
   -9   -5   12      1.72      0.00
   -8   -5   12      0.07      0.00
   -7   -5   12     -1.01      0.00
   -6   -5   12     -0.63      0.00
   -5   -5   12      2.01      0.00
   -4   -5   12     -0.08      0.00
   -3   -5   12      4.00      0.00
   -2   -5   12     -4.69      0.00
   -1   -5   12     -1.11      0.00
    0   -5   12     -0.04      0.00
    1   -5   12      6.08      0.00
    2   -5   12     -1.10      0.00
    3   -5   12     -5.45      0.00
    4   -5   12     -2.66      0.00
    5   -5   12     -3.86      0.00
    6   -5   12      3.55      0.00
    7   -5   12      4.65      0.00
    8   -5   12     -1.94      0.00
    9   -5   12      1.04      0.00
   10   -5   12      1.47      0.00
   11   -5   12     -2.02      0.00
  -10   -4   12      1.62      0.00
   -9   -4   12      0.10      0.00
   -8   -4   12     -2.25      0.00
   -7   -4   12      1.85      0.00
   -6   -4   12     -1.05      0.00
   -5   -4   12      2.02      0.00
   -4   -4   12     -4.72      0.00
   -3   -4   12      0.80      0.00
   -2   -4   12      0.49      0.00
   -1   -4   12      1.16      0.00
    0   -4   12     -1.27      0.00
    1   -4   12      3.53      0.00
    2   -4   12     -1.98      0.00
    3   -4   12     -1.52      0.00
    4   -4   12     -3.05      0.00
    5   -4   12     -2.09      0.00
    6   -4   12      0.30      0.00
    7   -4   12      0.14      0.00
    8   -4   12     -3.92      0.00
    9   -4   12      1.85      0.00
   10   -4   12     -0.33      0.00
   11   -4   12     -3.97      0.00
   12   -4   12     -0.41      0.00
  -11   -3   12      2.35      0.00
  -10   -3   12     -0.06      0.00
   -9   -3   12      0.96      0.00
   -8   -3   12      0.66      0.00
   -7   -3   12     -1.38      0.00
   -6   -3   12      1.24      0.00
   -5   -3   12     -1.77      0.00
   -4   -3   12     -0.17      0.00
   -3   -3   12      5.16      0.00
   -2   -3   12     -2.72      0.00
   -1   -3   12     -0.42      0.00
    0   -3   12      9.26      0.00
    1   -3   12      4.97      0.00
    2   -3   12     -8.68      0.00
    3   -3   12     -2.27      0.00
    4   -3   12      2.59      0.00
    5   -3   12      3.69      0.00
    6   -3   12      4.98      0.00
    7   -3   12      2.29      0.00
    8   -3   12     -3.98      0.00
    9   -3   12      3.15      0.00
   10   -3   12     -1.99      0.00
   11   -3   12      2.18      0.00
   12   -3   12     -1.19      0.00
   13   -3   12     -2.30      0.00
  -11   -2   12      0.32      0.00
  -10   -2   12      1.31      0.00
   -9   -2   12     -0.86      0.00
   -8   -2   12     -6.27      0.00
   -7   -2   12      4.79      0.00
   -6   -2   12      2.10      0.00
   -5   -2   12     -6.89      0.00
   -4   -2   12     -2.50      0.00
   -3   -2   12      3.10      0.00
   -2   -2   12      4.53      0.00
   -1   -2   12     -3.88      0.00
    0   -2   12     -0.29      0.00
    1   -2   12     -0.88      0.00
    2   -2   12      3.10      0.00
    3   -2   12     -3.31      0.00
    4   -2   12     -6.54      0.00
    5   -2   12      4.36      0.00
    6   -2   12      0.74      0.00
    7   -2   12     -2.61      0.00
    8   -2   12      7.89      0.00
    9   -2   12     -4.09      0.00
   10   -2   12     -2.76      0.00
   11   -2   12      2.82      0.00
   12   -2   12      1.25      0.00
   13   -2   12     -0.34      0.00
  -12   -1   12      1.96      0.00
  -11   -1   12      2.08      0.00
  -10   -1   12      1.41      0.00
   -9   -1   12      2.05      0.00
   -8   -1   12      0.26      0.00
   -7   -1   12     -3.96      0.00
   -6   -1   12     -4.28      0.00
   -5   -1   12      5.74      0.00
   -4   -1   12      4.27      0.00
   -3   -1   12    -12.68      0.00
   -2   -1   12      2.39      0.00
   -1   -1   12      4.63      0.00
    0   -1   12      0.23      0.00
    1   -1   12     -7.86      0.00
    2   -1   12     -3.14      0.00
    3   -1   12      2.11      0.00
    4   -1   12      3.79      0.00
    5   -1   12     -5.42      0.00
    6   -1   12     -2.64      0.00
    7   -1   12     -0.10      0.00
    8   -1   12     -1.93      0.00
    9   -1   12     -1.52      0.00
   10   -1   12     -0.79      0.00
   11   -1   12      0.99      0.00
   12   -1   12     -3.22      0.00
   13   -1   12      0.85      0.00
   14   -1   12      2.11      0.00
  -12    0   12      1.82      0.00
  -11    0   12     -1.12      0.00
  -10    0   12     -0.05      0.00
   -9    0   12     -1.84      0.00
   -8    0   12     -1.52      0.00
   -7    0   12      1.74      0.00
   -6    0   12      1.38      0.00
   -5    0   12      8.61      0.00
   -4    0   12     -4.89      0.00
   -3    0   12     -0.28      0.00
   -2    0   12     14.36      0.00
   -1    0   12     -4.70      0.00
    0    0   12     -4.90      0.00
    1    0   12      2.39      0.00
    2    0   12     -6.07      0.00
    3    0   12     -0.15      0.00
    4    0   12     -1.49      0.00
    5    0   12     -5.75      0.00
    6    0   12      4.58      0.00
    7    0   12      5.41      0.00
    8    0   12      4.03      0.00
    9    0   12     -5.25      0.00
   10    0   12      5.75      0.00
   11    0   12      2.85      0.00
   12    0   12      0.28      0.00
   13    0   12      0.28      0.00
   14    0   12     -2.79      0.00
  -12    1   12      0.91      0.00
  -11    1   12     -0.41      0.00
  -10    1   12     -2.38      0.00
   -9    1   12     -0.46      0.00
   -8    1   12     -3.42      0.00
   -7    1   12     -3.53      0.00
   -6    1   12      1.13      0.00
   -5    1   12     11.79      0.00
   -4    1   12     -9.31      0.00
   -3    1   12     -4.58      0.00
   -2    1   12     10.99      0.00
   -1    1   12     11.88      0.00
    0    1   12     -8.72      0.00
    1    1   12     -5.92      0.00
    2    1   12     -3.65      0.00
    3    1   12      4.85      0.00
    4    1   12     -3.78      0.00
    5    1   12     -7.57      0.00
    6    1   12      8.78      0.00
    7    1   12     -1.16      0.00
    8    1   12      3.51      0.00
    9    1   12     -2.67      0.00
   10    1   12      3.26      0.00
   11    1   12     -0.02      0.00
   12    1   12      2.76      0.00
   13    1   12      2.62      0.00
   14    1   12     -0.56      0.00
  -13    2   12     -1.15      0.00
  -12    2   12      0.03      0.00
  -11    2   12     -0.06      0.00
  -10    2   12      0.32      0.00
   -9    2   12     -3.62      0.00
   -8    2   12     -0.99      0.00
   -7    2   12      9.05      0.00
   -6    2   12      0.46      0.00
   -5    2   12     -2.32      0.00
   -4    2   12      3.40      0.00
   -3    2   12      4.38      0.00
   -2    2   12     -5.73      0.00
   -1    2   12      7.65      0.00
    0    2   12     -5.51      0.00
    1    2   12    -13.30      0.00
    3    2   12      3.02      0.00
    4    2   12     -3.07      0.00
    5    2   12      7.88      0.00
    6    2   12     -3.66      0.00
    7    2   12     -0.67      0.00
    8    2   12      6.97      0.00
    9    2   12     -9.45      0.00
   10    2   12     -6.80      0.00
   11    2   12      2.11      0.00
   12    2   12     -1.37      0.00
   13    2   12     -3.83      0.00
   14    2   12      1.21      0.00
   15    2   12     -2.42      0.00
  -13    3   12      1.63      0.00
  -12    3   12     -1.96      0.00
  -11    3   12     -0.91      0.00
  -10    3   12      3.58      0.00
   -9    3   12     -1.96      0.00
   -8    3   12     -0.70      0.00
   -7    3   12     -4.24      0.00
   -6    3   12      2.01      0.00
   -5    3   12     -4.48      0.00
   -4    3   12      2.46      0.00
   -3    3   12     10.23      0.00
   -2    3   12     -9.69      0.00
   -1    3   12      5.57      0.00
    0    3   12      1.30      0.00
    1    3   12    -10.88      0.00
    2    3   12      6.53      0.00
    4    3   12      0.57      0.00
    5    3   12      4.77      0.00
    6    3   12     -0.43      0.00
    7    3   12     -3.59      0.00
    8    3   12      1.69      0.00
    9    3   12      4.34      0.00
   10    3   12      0.70      0.00
   11    3   12     -0.06      0.00
   12    3   12      2.56      0.00
   13    3   12     -7.05      0.00
   14    3   12     -1.31      0.00
   15    3   12     -1.86      0.00
   16    3   12      3.33      0.00
  -13    4   12     -1.22      0.00
  -12    4   12      1.77      0.00
  -11    4   12     -1.48      0.00
  -10    4   12      0.22      0.00
   -9    4   12     -2.67      0.00
   -8    4   12      4.74      0.00
   -7    4   12     -4.20      0.00
   -6    4   12     -3.75      0.00
   -5    4   12     -1.67      0.00
   -4    4   12      2.95      0.00
   -3    4   12     -1.14      0.00
   -2    4   12     -7.73      0.00
   -1    4   12     -0.41      0.00
    0    4   12     -3.87      0.00
    1    4   12     -2.71      0.00
    2    4   12      5.45      0.00
    3    4   12     10.82      0.00
    5    4   12     -2.53      0.00
    6    4   12     -1.75      0.00
    7    4   12      4.72      0.00
    8    4   12     -1.06      0.00
    9    4   12      2.88      0.00
   10    4   12     -1.62      0.00
   11    4   12      8.10      0.00
   12    4   12      4.00      0.00
   13    4   12     -2.75      0.00
   14    4   12     -0.87      0.00
   15    4   12     -0.13      0.00
   16    4   12      4.33      0.00
  -13    5   12      1.47      0.00
  -12    5   12      1.71      0.00
  -11    5   12     -1.20      0.00
  -10    5   12     -0.83      0.00
   -9    5   12      3.35      0.00
   -8    5   12     -1.92      0.00
   -7    5   12     -0.16      0.00
   -6    5   12      5.43      0.00
   -5    5   12      4.76      0.00
   -4    5   12      4.26      0.00
   -3    5   12      1.53      0.00
   -2    5   12      1.24      0.00
   -1    5   12     -7.82      0.00
    0    5   12      3.23      0.00
    1    5   12     10.90      0.00
    2    5   12    -19.57      0.00
    3    5   12     -4.00      0.00
    4    5   12      1.46      0.00
    5    5   12     -3.29      0.00
    6    5   12     -1.50      0.00
    7    5   12      1.87      0.00
    8    5   12      1.61      0.00
    9    5   12     14.59      0.00
   10    5   12     -3.81      0.00
   11    5   12     -5.02      0.00
   12    5   12      1.10      0.00
   13    5   12     -0.98      0.00
   14    5   12      1.96      0.00
   15    5   12     -2.17      0.00
   16    5   12      2.34      0.00
   17    5   12     -1.85      0.00
  -13    6   12      1.84      0.00
  -12    6   12      1.73      0.00
  -11    6   12     -1.85      0.00
  -10    6   12     -1.93      0.00
   -9    6   12      4.39      0.00
   -8    6   12     -4.85      0.00
   -7    6   12      3.62      0.00
   -6    6   12     -2.68      0.00
   -5    6   12      8.38      0.00
   -4    6   12      2.73      0.00
   -3    6   12     -4.93      0.00
   -2    6   12     12.48      0.00
   -1    6   12    -10.50      0.00
    0    6   12      0.56      0.00
    1    6   12     15.22      0.00
    2    6   12     -7.49      0.00
    3    6   12    -14.30      0.00
    4    6   12     -0.97      0.00
    5    6   12     -3.92      0.00
    6    6   12      7.88      0.00
    7    6   12      1.71      0.00
    8    6   12     -1.83      0.00
    9    6   12      2.45      0.00
   10    6   12      5.38      0.00
   11    6   12     -5.91      0.00
   12    6   12     -1.83      0.00
   13    6   12      1.53      0.00
   14    6   12     -6.77      0.00
   15    6   12      1.88      0.00
   16    6   12      0.82      0.00
   17    6   12     -2.98      0.00
  -12    7   12     -5.51      0.00
  -11    7   12     -0.23      0.00
  -10    7   12     -2.20      0.00
   -9    7   12      0.90      0.00
   -8    7   12     -3.26      0.00
   -7    7   12     -0.92      0.00
   -6    7   12     -1.43      0.00
   -5    7   12     -2.44      0.00
   -4    7   12      6.96      0.00
   -3    7   12     -3.92      0.00
   -2    7   12     -3.24      0.00
   -1    7   12     -3.90      0.00
    0    7   12      5.43      0.00
    1    7   12     -2.86      0.00
    2    7   12     -2.25      0.00
    3    7   12    -11.17      0.00
    4    7   12      4.68      0.00
    5    7   12      1.65      0.00
    6    7   12      9.88      0.00
    7    7   12     -7.03      0.00
    8    7   12      2.98      0.00
    9    7   12      2.22      0.00
   10    7   12     -3.01      0.00
   11    7   12     -5.93      0.00
   12    7   12     -0.25      0.00
   13    7   12      1.96      0.00
   14    7   12     -6.02      0.00
   15    7   12     -2.35      0.00
   16    7   12      0.74      0.00
   17    7   12     -2.57      0.00
  -12    8   12     -0.95      0.00
  -11    8   12     -0.78      0.00
  -10    8   12      2.99      0.00
   -9    8   12     -0.98      0.00
   -8    8   12      1.82      0.00
   -7    8   12     -4.02      0.00
   -6    8   12      0.34      0.00
   -5    8   12      1.56      0.00
   -4    8   12      2.77      0.00
   -3    8   12      4.13      0.00
   -2    8   12     -6.89      0.00
   -1    8   12     -3.81      0.00
    0    8   12      5.97      0.00
    1    8   12     -8.47      0.00
    2    8   12      1.30      0.00
    3    8   12     -5.24      0.00
    4    8   12      3.10      0.00
    5    8   12      7.54      0.00
    6    8   12     -3.71      0.00
    7    8   12      0.58      0.00
    8    8   12      7.96      0.00
    9    8   12     -6.02      0.00
   10    8   12      8.56      0.00
   11    8   12     -0.20      0.00
   12    8   12     -8.23      0.00
   13    8   12     -0.39      0.00
   14    8   12     -0.52      0.00
   15    8   12     -5.09      0.00
   16    8   12      0.62      0.00
   17    8   12      0.94      0.00
  -12    9   12      0.37      0.00
  -11    9   12      1.03      0.00
  -10    9   12      2.73      0.00
   -9    9   12     -2.99      0.00
   -8    9   12      1.57      0.00
   -7    9   12     -0.94      0.00
   -6    9   12      3.17      0.00
   -5    9   12      4.76      0.00
   -4    9   12     -1.25      0.00
   -3    9   12      0.29      0.00
   -2    9   12     -7.47      0.00
   -1    9   12      4.73      0.00
    0    9   12     -0.81      0.00
    1    9   12     -3.52      0.00
    2    9   12      3.47      0.00
    3    9   12     -2.49      0.00
    4    9   12     -2.53      0.00
    5    9   12     14.88      0.00
    6    9   12     -9.05      0.00
    7    9   12      1.17      0.00
    8    9   12      6.28      0.00
    9    9   12     -2.07      0.00
   10    9   12      3.71      0.00
   11    9   12      0.18      0.00
   12    9   12     -6.03      0.00
   13    9   12     -0.06      0.00
   14    9   12      3.55      0.00
   15    9   12     -1.00      0.00
   16    9   12      1.02      0.00
   17    9   12      2.11      0.00
  -11   10   12     -1.89      0.00
  -10   10   12      2.24      0.00
   -9   10   12     -3.34      0.00
   -8   10   12     -4.09      0.00
   -7   10   12      4.15      0.00
   -6   10   12     -2.34      0.00
   -5   10   12     12.21      0.00
   -4   10   12    -10.70      0.00
   -3   10   12      4.27      0.00
   -2   10   12     -2.13      0.00
   -1   10   12     -4.68      0.00
    0   10   12      1.21      0.00
    1   10   12      9.95      0.00
    2   10   12     -6.30      0.00
    3   10   12      0.45      0.00
    4   10   12     -0.15      0.00
    5   10   12     -0.46      0.00
    6   10   12      1.30      0.00
    7   10   12     -0.45      0.00
    8   10   12      2.58      0.00
    9   10   12     -0.49      0.00
   10   10   12      1.24      0.00
   11   10   12     -4.93      0.00
   12   10   12     -3.75      0.00
   13   10   12     -0.43      0.00
   14   10   12      5.52      0.00
   15   10   12      0.65      0.00
   16   10   12      0.75      0.00
   17   10   12      5.15      0.00
  -11   11   12      3.11      0.00
  -10   11   12     -2.33      0.00
   -9   11   12     -1.95      0.00
   -8   11   12      0.14      0.00
   -7   11   12      3.80      0.00
   -6   11   12      0.13      0.00
   -5   11   12      0.73      0.00
   -4   11   12     -6.66      0.00
   -3   11   12      8.86      0.00
   -2   11   12      5.28      0.00
   -1   11   12     -0.26      0.00
    0   11   12     -3.60      0.00
    1   11   12     12.98      0.00
    2   11   12     -3.82      0.00
    3   11   12     -5.59      0.00
    4   11   12      2.53      0.00
    5   11   12     -5.98      0.00
    6   11   12     11.18      0.00
    7   11   12     -4.10      0.00
    8   11   12     -0.02      0.00
    9   11   12      4.27      0.00
   10   11   12     -2.25      0.00
   11   11   12     -1.85      0.00
   12   11   12      1.59      0.00
   13   11   12     -5.87      0.00
   14   11   12      6.09      0.00
   15   11   12      1.65      0.00
   16   11   12     -1.05      0.00
  -10   12   12      0.53      0.00
   -9   12   12     -1.99      0.00
   -8   12   12      0.53      0.00
   -7   12   12     -2.92      0.00
   -6   12   12      5.77      0.00
   -5   12   12     -5.36      0.00
   -4   12   12      2.88      0.00
   -3   12   12     -4.56      0.00
   -2   12   12      4.31      0.00
   -1   12   12      7.60      0.00
    0   12   12     -5.46      0.00
    1   12   12     -3.27      0.00
    2   12   12     -0.93      0.00
    3   12   12     -5.92      0.00
    4   12   12      2.51      0.00
    5   12   12      3.07      0.00
    6   12   12     -0.99      0.00
    7   12   12     -1.36      0.00
    8   12   12      2.15      0.00
    9   12   12      3.40      0.00
   10   12   12     -8.97      0.00
   11   12   12      0.57      0.00
   12   12   12      1.34      0.00
   13   12   12     -1.30      0.00
   14   12   12     -0.89      0.00
   15   12   12      2.65      0.00
   16   12   12      0.22      0.00
  -10   13   12     -4.79      0.00
   -9   13   12      1.32      0.00
   -8   13   12      3.43      0.00
   -7   13   12      0.66      0.00
   -6   13   12      0.91      0.00
   -5   13   12     -7.24      0.00
   -4   13   12      9.78      0.00
   -3   13   12     -3.07      0.00
   -2   13   12     -3.92      0.00
   -1   13   12      0.26      0.00
    0   13   12     -1.25      0.00
    1   13   12     -9.82      0.00
    2   13   12     -3.40      0.00
    3   13   12     -0.32      0.00
    4   13   12     -0.72      0.00
    5   13   12      5.73      0.00
    6   13   12     -1.76      0.00
    7   13   12      6.68      0.00
    8   13   12     -7.55      0.00
    9   13   12     -0.77      0.00
   10   13   12      1.25      0.00
   11   13   12     -2.15      0.00
   12   13   12     -5.10      0.00
   13   13   12     -2.44      0.00
   14   13   12     -1.17      0.00
   15   13   12      0.28      0.00
   16   13   12      4.24      0.00
   -9   14   12     -1.58      0.00
   -8   14   12     -0.34      0.00
   -7   14   12      4.57      0.00
   -6   14   12      0.81      0.00
   -5   14   12      2.88      0.00
   -4   14   12     -1.44      0.00
   -3   14   12     -5.06      0.00
   -2   14   12      8.96      0.00
   -1   14   12     -2.88      0.00
    0   14   12     -5.40      0.00
    1   14   12     -1.22      0.00
    2   14   12      1.21      0.00
    3   14   12      2.78      0.00
    4   14   12      1.28      0.00
    5   14   12      4.05      0.00
    6   14   12     -1.41      0.00
    7   14   12      6.80      0.00
    8   14   12      2.12      0.00
    9   14   12     -5.01      0.00
   10   14   12      1.94      0.00
   11   14   12     -2.48      0.00
   12   14   12      2.50      0.00
   13   14   12     -0.41      0.00
   14   14   12     -1.54      0.00
   15   14   12     -3.94      0.00
   -8   15   12     -1.73      0.00
   -7   15   12     -0.69      0.00
   -6   15   12     -4.10      0.00
   -5   15   12      6.22      0.00
   -4   15   12     -3.82      0.00
   -3   15   12     -0.96      0.00
   -2   15   12      1.91      0.00
   -1   15   12     -1.50      0.00
    0   15   12      0.07      0.00
    1   15   12     -3.13      0.00
    2   15   12      1.43      0.00
    3   15   12      3.38      0.00
    4   15   12     -4.25      0.00
    5   15   12     -2.13      0.00
    6   15   12      8.94      0.00
    7   15   12     -3.87      0.00
    8   15   12      1.45      0.00
    9   15   12     -2.72      0.00
   10   15   12      3.34      0.00
   11   15   12     -2.08      0.00
   12   15   12     -3.50      0.00
   13   15   12      3.18      0.00
   14   15   12     -0.30      0.00
   -7   16   12      0.28      0.00
   -6   16   12     -1.56      0.00
   -5   16   12     -0.73      0.00
   -4   16   12     -0.37      0.00
   -3   16   12      3.11      0.00
   -2   16   12      0.35      0.00
   -1   16   12     -2.02      0.00
    0   16   12      0.02      0.00
    1   16   12      1.08      0.00
    2   16   12      0.26      0.00
    3   16   12     -0.92      0.00
    4   16   12      4.33      0.00
    5   16   12     -0.76      0.00
    6   16   12      1.23      0.00
    7   16   12      0.93      0.00
    8   16   12      2.56      0.00
    9   16   12     -4.55      0.00
   10   16   12      0.85      0.00
   11   16   12      1.79      0.00
   12   16   12     -1.65      0.00
   13   16   12      2.77      0.00
   14   16   12     -0.67      0.00
   -6   17   12      1.96      0.00
   -5   17   12     -1.93      0.00
   -4   17   12     -1.00      0.00
   -3   17   12      1.46      0.00
   -2   17   12     -3.90      0.00
   -1   17   12      3.93      0.00
    0   17   12     -1.95      0.00
    1   17   12     -1.96      0.00
    2   17   12      5.00      0.00
    3   17   12     -2.56      0.00
    4   17   12      2.51      0.00
    5   17   12      2.80      0.00
    6   17   12     -0.04      0.00
    7   17   12     -1.29      0.00
    8   17   12     -2.59      0.00
    9   17   12      2.25      0.00
   10   17   12     -0.56      0.00
   11   17   12     -2.74      0.00
   12   17   12      2.74      0.00
   -4   18   12     -0.43      0.00
   -3   18   12      2.38      0.00
   -2   18   12     -2.88      0.00
   -1   18   12      0.74      0.00
    0   18   12      0.32      0.00
    1   18   12     -1.17      0.00
    2   18   12      0.78      0.00
    3   18   12     -2.79      0.00
    4   18   12      0.70      0.00
    5   18   12      2.88      0.00
    6   18   12     -1.76      0.00
    7   18   12      2.25      0.00
    8   18   12     -3.09      0.00
    9   18   12     -3.04      0.00
   10   18   12      1.43      0.00
   11   18   12     -2.17      0.00
   -2   19   12      0.48      0.00
   -1   19   12      1.10      0.00
    0   19   12     -2.49      0.00
    1   19   12      1.21      0.00
    2   19   12     -0.20      0.00
    3   19   12     -0.34      0.00
    4   19   12     -1.88      0.00
    5   19   12      2.23      0.00
    6   19   12     -0.44      0.00
    7   19   12      2.32      0.00
    8   19   12     -0.08      0.00
    9   19   12      0.32      0.00
    2   20   12     -0.92      0.00
    3   20   12      0.47      0.00
    4   20   12      0.71      0.00
    5   20   12     -2.27      0.00
    6   20   12     -3.01      0.00
   -4   -7   13     -5.88      0.00
   -3   -7   13     -0.57      0.00
   -2   -7   13     -1.37      0.00
   -1   -7   13     -1.72      0.00
    0   -7   13      0.75      0.00
    1   -7   13     -2.06      0.00
    2   -7   13      0.50      0.00
    3   -7   13     -0.06      0.00
    4   -7   13      1.57      0.00
    5   -7   13      1.59      0.00
   -6   -6   13     -0.66      0.00
   -5   -6   13      2.73      0.00
   -4   -6   13     -0.21      0.00
   -3   -6   13     -2.06      0.00
   -2   -6   13      0.94      0.00
   -1   -6   13      2.20      0.00
    0   -6   13     -0.61      0.00
    1   -6   13     -2.03      0.00
    2   -6   13     -0.29      0.00
    3   -6   13     -0.84      0.00
    4   -6   13      3.97      0.00
    5   -6   13      2.55      0.00
    6   -6   13     -4.49      0.00
    7   -6   13      0.42      0.00
    8   -6   13     -0.37      0.00
   -7   -5   13     -3.55      0.00
   -6   -5   13      2.57      0.00
   -5   -5   13      1.01      0.00
   -4   -5   13      1.82      0.00
   -3   -5   13     -2.13      0.00
   -2   -5   13      0.54      0.00
   -1   -5   13      3.48      0.00
    0   -5   13     -2.17      0.00
    1   -5   13      0.38      0.00
    2   -5   13     -2.50      0.00
    3   -5   13     -1.60      0.00
    4   -5   13      2.08      0.00
    5   -5   13      1.77      0.00
    6   -5   13     -1.14      0.00
    7   -5   13      1.21      0.00
    8   -5   13     -0.32      0.00
    9   -5   13     -0.72      0.00
   -8   -4   13      2.69      0.00
   -7   -4   13     -0.78      0.00
   -6   -4   13      2.00      0.00
   -5   -4   13     -1.03      0.00
   -4   -4   13     -0.71      0.00
   -3   -4   13     -0.68      0.00
   -2   -4   13      2.40      0.00
   -1   -4   13     -1.63      0.00
    0   -4   13     -3.35      0.00
    1   -4   13     -1.69      0.00
    2   -4   13     -1.18      0.00
    3   -4   13     -0.12      0.00
    4   -4   13      0.98      0.00
    5   -4   13     -3.21      0.00
    6   -4   13     -0.72      0.00
    7   -4   13     -1.03      0.00
    8   -4   13     -0.49      0.00
    9   -4   13      3.04      0.00
   10   -4   13     -1.69      0.00
   11   -4   13      0.00      0.00
   -9   -3   13     -1.70      0.00
   -8   -3   13     -0.47      0.00
   -7   -3   13     -0.74      0.00
   -6   -3   13      6.17      0.00
   -5   -3   13     -5.03      0.00
   -4   -3   13      3.38      0.00
   -3   -3   13     -1.04      0.00
   -2   -3   13     -0.48      0.00
   -1   -3   13      2.15      0.00
    0   -3   13      4.38      0.00
    1   -3   13     -2.13      0.00
    2   -3   13      0.48      0.00
    3   -3   13      1.42      0.00
    4   -3   13      4.63      0.00
    5   -3   13      0.93      0.00
    6   -3   13      3.41      0.00
    7   -3   13     -4.93      0.00
    8   -3   13     -5.95      0.00
    9   -3   13      6.79      0.00
   10   -3   13     -3.75      0.00
   11   -3   13     -0.71      0.00
   12   -3   13     -1.69      0.00
  -10   -2   13     -1.46      0.00
   -9   -2   13     -1.65      0.00
   -8   -2   13     -0.40      0.00
   -7   -2   13      3.89      0.00
   -6   -2   13      0.25      0.00
   -5   -2   13     -8.44      0.00
   -4   -2   13      3.15      0.00
   -3   -2   13      3.67      0.00
   -2   -2   13     -2.65      0.00
   -1   -2   13     -2.47      0.00
    0   -2   13     -0.49      0.00
    1   -2   13      0.17      0.00
    2   -2   13      5.52      0.00
    3   -2   13      0.12      0.00
    4   -2   13      1.55      0.00
    5   -2   13      5.54      0.00
    6   -2   13      3.17      0.00
    7   -2   13      2.68      0.00
    8   -2   13      0.33      0.00
    9   -2   13     -2.92      0.00
   10   -2   13      1.81      0.00
   11   -2   13      2.07      0.00
   12   -2   13      0.29      0.00
   13   -2   13     -3.59      0.00
  -11   -1   13      1.40      0.00
  -10   -1   13     -2.13      0.00
   -9   -1   13     -1.52      0.00
   -8   -1   13      0.76      0.00
   -7   -1   13     -0.41      0.00
   -6   -1   13     -5.38      0.00
   -5   -1   13     -0.17      0.00
   -4   -1   13     -0.25      0.00
   -3   -1   13     -6.72      0.00
   -2   -1   13      0.26      0.00
   -1   -1   13      1.67      0.00
    0   -1   13     -4.79      0.00
    1   -1   13     -2.19      0.00
    2   -1   13     -0.76      0.00
    3   -1   13      3.70      0.00
    4   -1   13      5.42      0.00
    5   -1   13     -3.36      0.00
    6   -1   13     -4.97      0.00
    7   -1   13     -1.30      0.00
    8   -1   13     -0.66      0.00
    9   -1   13      0.73      0.00
   10   -1   13     -4.10      0.00
   11   -1   13      4.97      0.00
   12   -1   13      0.16      0.00
   13   -1   13      1.92      0.00
  -11    0   13      0.61      0.00
  -10    0   13      2.13      0.00
   -9    0   13      2.40      0.00
   -8    0   13      1.51      0.00
   -7    0   13      3.24      0.00
   -6    0   13     -3.15      0.00
   -5    0   13      1.86      0.00
   -4    0   13     -2.66      0.00
   -3    0   13      4.60      0.00
   -2    0   13      2.18      0.00
   -1    0   13    -13.70      0.00
    0    0   13      1.84      0.00
    1    0   13      7.13      0.00
    2    0   13      1.75      0.00
    3    0   13      0.13      0.00
    4    0   13      0.83      0.00
    5    0   13     -1.96      0.00
    6    0   13     -0.02      0.00
    7    0   13     -2.76      0.00
    8    0   13     -8.65      0.00
    9    0   13      1.00      0.00
   10    0   13      5.61      0.00
   11    0   13     -4.35      0.00
   12    0   13      0.17      0.00
   13    0   13      0.25      0.00
   14    0   13     -1.23      0.00
  -11    1   13      0.67      0.00
  -10    1   13     -0.69      0.00
   -9    1   13      1.03      0.00
   -8    1   13     -3.52      0.00
   -7    1   13     -0.10      0.00
   -6    1   13      6.99      0.00
   -5    1   13      0.51      0.00
   -4    1   13     -4.30      0.00
   -3    1   13     10.11      0.00
   -2    1   13      3.86      0.00
   -1    1   13     -8.59      0.00
    0    1   13      2.32      0.00
    1    1   13      3.33      0.00
    2    1   13      6.29      0.00
    3    1   13      2.67      0.00
    4    1   13     -5.96      0.00
    5    1   13     -3.03      0.00
    6    1   13      5.97      0.00
    7    1   13     -3.78      0.00
    8    1   13      0.95      0.00
    9    1   13      1.09      0.00
   10    1   13      4.03      0.00
   11    1   13      0.22      0.00
   12    1   13     -1.70      0.00
   13    1   13     -1.04      0.00
   14    1   13     -2.30      0.00
  -12    2   13     -0.26      0.00
  -11    2   13     -0.27      0.00
  -10    2   13     -0.96      0.00
   -9    2   13     -2.88      0.00
   -8    2   13      3.01      0.00
   -7    2   13     -1.87      0.00
   -6    2   13      5.29      0.00
   -5    2   13     -3.24      0.00
   -4    2   13     -5.13      0.00
   -3    2   13      5.44      0.00
   -2    2   13     -1.02      0.00
   -1    2   13    -10.40      0.00
    0    2   13      0.23      0.00
    1    2   13      9.66      0.00
    2    2   13      2.33      0.00
    3    2   13     -4.64      0.00
    4    2   13     -0.50      0.00
    5    2   13      1.83      0.00
    6    2   13     -5.88      0.00
    7    2   13      5.92      0.00
    8    2   13     -1.73      0.00
    9    2   13     -2.85      0.00
   10    2   13     -0.50      0.00
   11    2   13     -0.25      0.00
   12    2   13     -1.12      0.00
   13    2   13      0.70      0.00
   14    2   13      1.34      0.00
  -12    3   13     -1.68      0.00
  -11    3   13      0.87      0.00
  -10    3   13     -1.19      0.00
   -9    3   13     -2.38      0.00
   -8    3   13      5.46      0.00
   -7    3   13      0.95      0.00
   -6    3   13      2.17      0.00
   -5    3   13     -0.48      0.00
   -4    3   13      4.45      0.00
   -3    3   13     -5.74      0.00
   -2    3   13     -1.69      0.00
   -1    3   13      4.13      0.00
    0    3   13     -5.74      0.00
    1    3   13      3.47      0.00
    2    3   13     -0.45      0.00
    3    3   13      0.37      0.00
    4    3   13      2.10      0.00
    5    3   13      7.24      0.00
    6    3   13     -4.54      0.00
    7    3   13      1.92      0.00
    8    3   13      2.62      0.00
    9    3   13     -4.43      0.00
   10    3   13      0.20      0.00
   11    3   13     -2.78      0.00
   12    3   13     -3.65      0.00
   13    3   13     -1.93      0.00
   14    3   13      3.57      0.00
   15    3   13     -1.16      0.00
  -12    4   13      0.77      0.00
  -11    4   13      1.42      0.00
  -10    4   13     -3.03      0.00
   -9    4   13      0.79      0.00
   -8    4   13      5.40      0.00
   -7    4   13     -3.49      0.00
   -6    4   13     -5.17      0.00
   -5    4   13      0.50      0.00
   -4    4   13      2.90      0.00
   -3    4   13    -13.63      0.00
   -2    4   13      0.38      0.00
   -1    4   13      8.03      0.00
    0    4   13     -9.44      0.00
    1    4   13      8.25      0.00
    2    4   13      5.51      0.00
    3    4   13      1.61      0.00
    4    4   13      4.76      0.00
    5    4   13     -0.90      0.00
    6    4   13      0.29      0.00
    7    4   13      2.01      0.00
    8    4   13     -1.52      0.00
    9    4   13     -2.80      0.00
   10    4   13     -2.18      0.00
   11    4   13      6.10      0.00
   12    4   13     -2.20      0.00
   13    4   13     -1.02      0.00
   14    4   13     -1.02      0.00
   15    4   13      3.89      0.00
  -12    5   13     -1.66      0.00
  -11    5   13     -0.15      0.00
  -10    5   13      2.35      0.00
   -9    5   13      2.84      0.00
   -8    5   13     -2.89      0.00
   -7    5   13      2.04      0.00
   -6    5   13     -1.62      0.00
   -5    5   13     -1.98      0.00
   -4    5   13      4.17      0.00
   -3    5   13    -15.13      0.00
   -2    5   13     -2.84      0.00
   -1    5   13      9.24      0.00
    0    5   13     -5.82      0.00
    1    5   13     -5.50      0.00
    2    5   13      2.75      0.00
    3    5   13      4.99      0.00
    4    5   13      7.86      0.00
    5    5   13     -7.97      0.00
    6    5   13      0.14      0.00
    7    5   13     -5.82      0.00
    8    5   13      1.52      0.00
    9    5   13      2.47      0.00
   10    5   13     -8.59      0.00
   11    5   13      2.55      0.00
   12    5   13     -3.05      0.00
   13    5   13      5.74      0.00
   14    5   13      3.65      0.00
   15    5   13      0.31      0.00
   16    5   13     -2.64      0.00
  -12    6   13      1.72      0.00
  -11    6   13     -1.94      0.00
  -10    6   13      2.78      0.00
   -9    6   13      6.43      0.00
   -8    6   13     -3.03      0.00
   -7    6   13      0.39      0.00
   -6    6   13      5.64      0.00
   -5    6   13     -2.12      0.00
   -4    6   13     -0.36      0.00
   -3    6   13     -3.36      0.00
   -2    6   13      2.04      0.00
   -1    6   13      2.23      0.00
    0    6   13     10.92      0.00
    1    6   13     -9.00      0.00
    2    6   13      3.53      0.00
    3    6   13     -0.59      0.00
    4    6   13      3.93      0.00
    5    6   13    -13.19      0.00
    6    6   13      1.88      0.00
    7    6   13      3.81      0.00
    8    6   13     -4.50      0.00
    9    6   13      1.10      0.00
   10    6   13     -1.50      0.00
   11    6   13     -0.01      0.00
   12    6   13      1.46      0.00
   13    6   13      1.32      0.00
   14    6   13     -0.70      0.00
   15    6   13      7.69      0.00
   16    6   13     -3.17      0.00
  -12    7   13     -0.47      0.00
  -11    7   13      0.90      0.00
  -10    7   13     -1.31      0.00
   -9    7   13      0.43      0.00
   -8    7   13     -0.22      0.00
   -7    7   13      0.46      0.00
   -6    7   13      2.30      0.00
   -5    7   13     -3.99      0.00
   -4    7   13     -1.20      0.00
   -3    7   13     -2.16      0.00
   -2    7   13      0.98      0.00
   -1    7   13      1.09      0.00
    0    7   13     17.34      0.00
    1    7   13     -9.86      0.00
    2    7   13      1.19      0.00
    3    7   13      3.30      0.00
    4    7   13      0.76      0.00
    5    7   13      3.17      0.00
    6    7   13     -5.76      0.00
    7    7   13     -4.07      0.00
    8    7   13      7.77      0.00
    9    7   13     -1.02      0.00
   10    7   13    -12.08      0.00
   11    7   13      1.07      0.00
   12    7   13      7.31      0.00
   13    7   13      2.72      0.00
   14    7   13     -2.42      0.00
   15    7   13      0.46      0.00
   16    7   13      0.78      0.00
  -11    8   13     -0.77      0.00
  -10    8   13      0.51      0.00
   -9    8   13     -1.12      0.00
   -8    8   13     -0.49      0.00
   -7    8   13     -1.16      0.00
   -6    8   13     -0.69      0.00
   -5    8   13     -0.37      0.00
   -4    8   13     -7.15      0.00
   -3    8   13      5.72      0.00
   -2    8   13     -2.29      0.00
   -1    8   13      1.07      0.00
    0    8   13      4.48      0.00
    1    8   13     -4.91      0.00
    2    8   13     -3.18      0.00
    3    8   13      5.58      0.00
    4    8   13     -2.29      0.00
    5    8   13      1.60      0.00
    6    8   13      0.86      0.00
    7    8   13      0.57      0.00
    8    8   13     -1.88      0.00
    9    8   13     -5.29      0.00
   10    8   13      3.03      0.00
   11    8   13     -4.59      0.00
   12    8   13      3.21      0.00
   13    8   13     -1.27      0.00
   14    8   13     -2.08      0.00
   15    8   13     -0.56      0.00
   16    8   13     -0.27      0.00
  -11    9   13      0.46      0.00
  -10    9   13      2.10      0.00
   -9    9   13      0.68      0.00
   -8    9   13      0.46      0.00
   -7    9   13      3.38      0.00
   -6    9   13     -5.08      0.00
   -5    9   13      5.07      0.00
   -4    9   13     -3.58      0.00
   -3    9   13     -3.41      0.00
   -2    9   13      3.73      0.00
   -1    9   13      8.27      0.00
    0    9   13    -12.25      0.00
    1    9   13     -0.51      0.00
    2    9   13     -5.52      0.00
    3    9   13      3.80      0.00
    4    9   13      4.82      0.00
    5    9   13      1.38      0.00
    6    9   13     -2.54      0.00
    7    9   13     -0.03      0.00
    8    9   13      2.18      0.00
    9    9   13     -7.09      0.00
   10    9   13      3.32      0.00
   11    9   13      0.57      0.00
   12    9   13      3.27      0.00
   13    9   13      0.46      0.00
   14    9   13     -3.71      0.00
   15    9   13      0.46      0.00
   16    9   13     -2.01      0.00
  -11   10   13     -3.21      0.00
  -10   10   13      3.53      0.00
   -9   10   13     -1.99      0.00
   -8   10   13      1.25      0.00
   -7   10   13      0.00      0.00
   -6   10   13     -1.02      0.00
   -5   10   13      2.70      0.00
   -4   10   13     -1.32      0.00
   -3   10   13     -3.68      0.00
   -2   10   13     -2.16      0.00
   -1   10   13      0.37      0.00
    0   10   13     -5.19      0.00
    1   10   13      2.28      0.00
    2   10   13     -1.90      0.00
    3   10   13      0.28      0.00
    4   10   13      9.92      0.00
    5   10   13    -11.46      0.00
    6   10   13      5.05      0.00
    7   10   13     -2.68      0.00
    8   10   13     -5.28      0.00
    9   10   13      1.11      0.00
   10   10   13      0.94      0.00
   11   10   13     -4.65      0.00
   12   10   13      4.77      0.00
   13   10   13      2.74      0.00
   14   10   13      1.06      0.00
   15   10   13      1.63      0.00
   16   10   13      2.28      0.00
  -10   11   13     -0.25      0.00
   -9   11   13      0.89      0.00
   -8   11   13      3.06      0.00
   -7   11   13     -3.18      0.00
   -6   11   13      4.03      0.00
   -5   11   13    -10.40      0.00
   -4   11   13      4.79      0.00
   -3   11   13      1.23      0.00
   -2   11   13     -1.86      0.00
   -1   11   13     -3.26      0.00
    0   11   13      1.48      0.00
    1   11   13      1.09      0.00
    2   11   13      7.25      0.00
    3   11   13     -0.90      0.00
    4   11   13      2.40      0.00
    5   11   13     -4.01      0.00
    6   11   13     -0.30      0.00
    7   11   13     -3.50      0.00
    8   11   13     -8.73      0.00
    9   11   13      5.88      0.00
   10   11   13      1.12      0.00
   11   11   13     -1.99      0.00
   12   11   13      1.70      0.00
   13   11   13      2.33      0.00
   14   11   13      5.20      0.00
   15   11   13     -1.24      0.00
   16   11   13      0.31      0.00
  -10   12   13      0.50      0.00
   -9   12   13      0.33      0.00
   -8   12   13      3.28      0.00
   -7   12   13     -4.54      0.00
   -6   12   13      6.45      0.00
   -5   12   13     -9.58      0.00
   -4   12   13      3.89      0.00
   -3   12   13      2.01      0.00
   -2   12   13     -0.01      0.00
   -1   12   13      0.56      0.00
    0   12   13      6.01      0.00
    1   12   13      2.68      0.00
    2   12   13      2.99      0.00
    3   12   13      4.06      0.00
    4   12   13     -0.41      0.00
    5   12   13      4.73      0.00
    6   12   13    -10.43      0.00
    7   12   13      6.21      0.00
    8   12   13      1.14      0.00
    9   12   13     -2.62      0.00
   10   12   13     -2.13      0.00
   11   12   13     10.14      0.00
   12   12   13     -2.02      0.00
   13   12   13      3.68      0.00
   14   12   13      1.58      0.00
   15   12   13      0.39      0.00
   16   12   13     -3.29      0.00
   -9   13   13      0.90      0.00
   -8   13   13     -1.51      0.00
   -7   13   13     -0.29      0.00
   -6   13   13     -5.54      0.00
   -5   13   13     -1.98      0.00
   -4   13   13      4.08      0.00
   -3   13   13     -2.35      0.00
   -2   13   13     -1.71      0.00
   -1   13   13     -0.33      0.00
    0   13   13     -0.64      0.00
    1   13   13      0.77      0.00
    2   13   13      0.97      0.00
    3   13   13     -2.29      0.00
    4   13   13     -5.46      0.00
    5   13   13      9.71      0.00
    6   13   13     -7.19      0.00
    7   13   13     -2.32      0.00
    8   13   13      0.19      0.00
    9   13   13     -2.15      0.00
   10   13   13     -1.13      0.00
   11   13   13      2.38      0.00
   12   13   13     -0.87      0.00
   13   13   13     -0.48      0.00
   14   13   13      2.89      0.00
   15   13   13     -1.19      0.00
   -8   14   13      1.12      0.00
   -7   14   13     -0.90      0.00
   -6   14   13     -0.52      0.00
   -5   14   13      4.24      0.00
   -4   14   13     -0.13      0.00
   -3   14   13     -3.56      0.00
   -2   14   13      5.02      0.00
   -1   14   13     -6.43      0.00
    0   14   13     -0.85      0.00
    1   14   13      0.54      0.00
    2   14   13     -1.09      0.00
    3   14   13      3.36      0.00
    4   14   13     -1.87      0.00
    5   14   13     -3.27      0.00
    6   14   13      1.71      0.00
    7   14   13     -4.36      0.00
    8   14   13     -0.83      0.00
    9   14   13     -3.52      0.00
   10   14   13      0.61      0.00
   11   14   13      1.78      0.00
   12   14   13      0.60      0.00
   13   14   13     -3.88      0.00
   14   14   13     -0.14      0.00
   -7   15   13     -1.35      0.00
   -6   15   13     -0.19      0.00
   -5   15   13      1.34      0.00
   -4   15   13      2.50      0.00
   -3   15   13     -2.12      0.00
   -2   15   13      3.19      0.00
   -1   15   13     -5.42      0.00
    0   15   13      4.57      0.00
    1   15   13      2.09      0.00
    2   15   13      4.00      0.00
    3   15   13     -1.18      0.00
    4   15   13      3.02      0.00
    5   15   13     -0.53      0.00
    6   15   13      2.20      0.00
    7   15   13     -8.66      0.00
    8   15   13      1.29      0.00
    9   15   13      5.29      0.00
   10   15   13     -0.66      0.00
   11   15   13      4.26      0.00
   12   15   13     -3.27      0.00
   13   15   13      2.47      0.00
   14   15   13      0.74      0.00
   -6   16   13      1.18      0.00
   -5   16   13     -2.66      0.00
   -4   16   13     -0.16      0.00
   -3   16   13      0.44      0.00
   -2   16   13     -0.97      0.00
   -1   16   13     -1.66      0.00
    0   16   13      3.36      0.00
    1   16   13      0.06      0.00
    2   16   13      4.20      0.00
    3   16   13     -0.13      0.00
    4   16   13     -2.43      0.00
    5   16   13     -0.94      0.00
    6   16   13     -1.42      0.00
    7   16   13      0.56      0.00
    8   16   13     -3.17      0.00
    9   16   13      3.66      0.00
   10   16   13      0.61      0.00
   11   16   13      1.65      0.00
   12   16   13     -2.14      0.00
   13   16   13     -1.14      0.00
   -5   17   13      0.06      0.00
   -4   17   13     -0.90      0.00
   -3   17   13     -0.62      0.00
   -2   17   13     -2.86      0.00
   -1   17   13      2.90      0.00
    0   17   13     -0.56      0.00
    1   17   13     -1.54      0.00
    2   17   13      0.26      0.00
    3   17   13      0.62      0.00
    4   17   13     -0.20      0.00
    5   17   13      1.90      0.00
    6   17   13     -5.20      0.00
    7   17   13      2.75      0.00
    8   17   13      2.00      0.00
    9   17   13      1.61      0.00
   10   17   13      0.48      0.00
   11   17   13     -1.07      0.00
   12   17   13      2.83      0.00
   -3   18   13      0.31      0.00
   -2   18   13     -3.32      0.00
   -1   18   13      1.60      0.00
    0   18   13      0.82      0.00
    1   18   13     -1.64      0.00
    2   18   13     -2.47      0.00
    3   18   13     -0.03      0.00
    4   18   13     -1.14      0.00
    5   18   13      1.17      0.00
    6   18   13     -1.91      0.00
    7   18   13     -0.91      0.00
    8   18   13      1.06      0.00
    9   18   13      0.37      0.00
   10   18   13      0.05      0.00
   11   18   13      1.59      0.00
   -1   19   13      1.78      0.00
    0   19   13     -2.81      0.00
    1   19   13      2.80      0.00
    2   19   13     -1.17      0.00
    3   19   13     -0.15      0.00
    4   19   13      0.98      0.00
    5   19   13     -0.88      0.00
    6   19   13      2.18      0.00
    7   19   13      1.04      0.00
    8   19   13      1.05      0.00
    9   19   13     -0.16      0.00
    4   20   13      1.73      0.00
   -3   -6   14      0.68      0.00
   -2   -6   14     -1.45      0.00
   -1   -6   14     -0.85      0.00
    0   -6   14     -1.64      0.00
    1   -6   14      0.72      0.00
    2   -6   14      1.32      0.00
    3   -6   14      1.59      0.00
    4   -6   14      2.27      0.00
   -5   -5   14     -1.07      0.00
   -4   -5   14     -0.30      0.00
   -3   -5   14     -0.10      0.00
   -2   -5   14      1.35      0.00
   -1   -5   14      2.10      0.00
    0   -5   14     -0.46      0.00
    1   -5   14     -1.42      0.00
    2   -5   14      1.22      0.00
    3   -5   14      1.00      0.00
    4   -5   14      0.32      0.00
    5   -5   14     -1.71      0.00
    6   -5   14     -1.30      0.00
    7   -5   14      2.04      0.00
   -7   -4   14     -1.30      0.00
   -6   -4   14      0.41      0.00
   -5   -4   14      1.27      0.00
   -4   -4   14      0.12      0.00
   -3   -4   14      0.97      0.00
   -2   -4   14      0.16      0.00
   -1   -4   14     -3.34      0.00
    0   -4   14     -0.02      0.00
    1   -4   14     -0.58      0.00
    2   -4   14     -1.07      0.00
    3   -4   14      1.46      0.00
    4   -4   14     -2.73      0.00
    5   -4   14     -3.87      0.00
    6   -4   14     -0.19      0.00
    7   -4   14      2.03      0.00
    8   -4   14      0.97      0.00
    9   -4   14      0.67      0.00
   -8   -3   14      0.13      0.00
   -7   -3   14      0.88      0.00
   -6   -3   14      0.80      0.00
   -5   -3   14      1.72      0.00
   -4   -3   14      1.65      0.00
   -3   -3   14     -0.22      0.00
   -2   -3   14      2.39      0.00
   -1   -3   14      0.82      0.00
    0   -3   14     -1.19      0.00
    1   -3   14      1.60      0.00
    2   -3   14     -0.61      0.00
    3   -3   14     -1.49      0.00
    4   -3   14     -3.88      0.00
    5   -3   14     -0.33      0.00
    6   -3   14     -3.64      0.00
    7   -3   14     -3.63      0.00
    8   -3   14      2.50      0.00
    9   -3   14      2.69      0.00
   -8   -2   14     -0.56      0.00
   -7   -2   14      3.83      0.00
   -6   -2   14     -2.83      0.00
   -5   -2   14     -0.79      0.00
   -4   -2   14      6.74      0.00
   -3   -2   14     -0.21      0.00
   -2   -2   14     -3.19      0.00
   -1   -2   14      2.69      0.00
    0   -2   14      2.15      0.00
    1   -2   14      6.51      0.00
    2   -2   14      1.99      0.00
    3   -2   14     -1.53      0.00
    4   -2   14     -3.82      0.00
    5   -2   14      5.57      0.00
    6   -2   14      0.85      0.00
    7   -2   14     -2.58      0.00
    8   -2   14      5.16      0.00
    9   -2   14     -1.50      0.00
   10   -2   14      0.27      0.00
   11   -2   14     -2.20      0.00
   -9   -1   14     -1.01      0.00
   -8   -1   14      2.26      0.00
   -7   -1   14     -1.72      0.00
   -6   -1   14     -4.73      0.00
   -5   -1   14      2.26      0.00
   -4   -1   14      0.26      0.00
   -3   -1   14     -4.63      0.00
   -2   -1   14      0.31      0.00
   -1   -1   14      3.26      0.00
    0   -1   14     -0.34      0.00
    1   -1   14      1.66      0.00
    2   -1   14     -4.40      0.00
    3   -1   14     -2.06      0.00
    4   -1   14      4.47      0.00
    5   -1   14     -3.01      0.00
    6   -1   14      2.34      0.00
    7   -1   14      3.22      0.00
    8   -1   14      5.19      0.00
    9   -1   14     -0.67      0.00
   10   -1   14      0.15      0.00
   11   -1   14      3.04      0.00
   12   -1   14     -4.69      0.00
  -10    0   14      2.69      0.00
   -9    0   14     -0.75      0.00
   -8    0   14      3.52      0.00
   -7    0   14     -3.44      0.00
   -6    0   14     -4.89      0.00
   -5    0   14      0.58      0.00
   -4    0   14     -4.56      0.00
   -3    0   14     -0.26      0.00
   -2    0   14     -1.90      0.00
   -1    0   14     -1.72      0.00
    0    0   14      6.22      0.00
    1    0   14      0.30      0.00
    2    0   14     -3.59      0.00
    3    0   14     -8.25      0.00
    4    0   14      0.44      0.00
    5    0   14     -2.88      0.00
    6    0   14      2.32      0.00
    7    0   14     -2.94      0.00
    8    0   14     -3.99      0.00
    9    0   14      2.07      0.00
   10    0   14      2.83      0.00
   11    0   14     -3.83      0.00
   12    0   14      3.60      0.00
   13    0   14      2.18      0.00
  -10    1   14      2.67      0.00
   -9    1   14      2.37      0.00
   -8    1   14      2.15      0.00
   -7    1   14     -0.25      0.00
   -6    1   14      1.32      0.00
   -5    1   14     -0.38      0.00
   -4    1   14      1.32      0.00
   -3    1   14      3.49      0.00
   -2    1   14     -5.13      0.00
   -1    1   14     10.24      0.00
    0    1   14      2.20      0.00
    1    1   14     -6.64      0.00
    2    1   14      3.49      0.00
    3    1   14      0.54      0.00
    4    1   14     -5.72      0.00
    5    1   14      1.89      0.00
    6    1   14     -2.47      0.00
    7    1   14     -2.35      0.00
    8    1   14      2.25      0.00
    9    1   14     -2.86      0.00
   10    1   14      3.40      0.00
   11    1   14     -3.68      0.00
   12    1   14     -0.97      0.00
   13    1   14      0.31      0.00
  -11    2   14      0.57      0.00
  -10    2   14      0.98      0.00
   -9    2   14     -2.26      0.00
   -8    2   14     -3.87      0.00
   -7    2   14      0.99      0.00
   -6    2   14      2.88      0.00
   -5    2   14     -5.56      0.00
   -4    2   14      0.83      0.00
   -3    2   14     11.45      0.00
   -2    2   14    -10.26      0.00
   -1    2   14      2.41      0.00
    0    2   14     10.82      0.00
    1    2   14      1.95      0.00
    2    2   14     -7.64      0.00
    3    2   14     -1.00      0.00
    4    2   14     -4.55      0.00
    5    2   14      6.23      0.00
    6    2   14     -4.29      0.00
    7    2   14     -0.78      0.00
    8    2   14      1.56      0.00
    9    2   14      4.43      0.00
   10    2   14     -3.00      0.00
   11    2   14     -0.55      0.00
   12    2   14      1.95      0.00
   13    2   14     -3.55      0.00
   14    2   14      0.81      0.00
  -11    3   14     -0.34      0.00
  -10    3   14     -1.06      0.00
   -9    3   14      0.16      0.00
   -8    3   14     -4.24      0.00
   -7    3   14      1.65      0.00
   -6    3   14      0.10      0.00
   -5    3   14      1.83      0.00
   -4    3   14     -0.44      0.00
   -3    3   14     -0.13      0.00
   -2    3   14     -1.39      0.00
   -1    3   14      2.97      0.00
    0    3   14      0.58      0.00
    1    3   14     -2.91      0.00
    2    3   14     -2.03      0.00
    3    3   14     -2.32      0.00
    4    3   14     -4.93      0.00
    5    3   14      1.26      0.00
    6    3   14      0.33      0.00
    7    3   14      5.39      0.00
    8    3   14     -2.86      0.00
    9    3   14      1.49      0.00
   10    3   14      2.16      0.00
   11    3   14     -4.52      0.00
   12    3   14      4.34      0.00
   13    3   14     -0.43      0.00
   14    3   14      1.45      0.00
  -11    4   14      0.32      0.00
  -10    4   14     -5.52      0.00
   -9    4   14      3.58      0.00
   -8    4   14     -0.62      0.00
   -7    4   14     -1.92      0.00
   -6    4   14      3.31      0.00
   -5    4   14     -1.10      0.00
   -4    4   14     -1.00      0.00
   -3    4   14      5.55      0.00
   -2    4   14      6.57      0.00
   -1    4   14     -1.75      0.00
    0    4   14      2.68      0.00
    1    4   14      1.97      0.00
    2    4   14     -6.58      0.00
    3    4   14     -3.88      0.00
    4    4   14      5.41      0.00
    5    4   14     -7.18      0.00
    6    4   14      8.16      0.00
    7    4   14      9.90      0.00
    8    4   14     -3.49      0.00
    9    4   14      0.71      0.00
   10    4   14     -0.17      0.00
   11    4   14      5.95      0.00
   12    4   14      0.70      0.00
   13    4   14     -2.64      0.00
   14    4   14     -2.05      0.00
   15    4   14      3.36      0.00
  -11    5   14      1.75      0.00
  -10    5   14     -1.63      0.00
   -9    5   14     -2.76      0.00
   -8    5   14     -0.65      0.00
   -7    5   14     -2.61      0.00
   -6    5   14      3.56      0.00
   -5    5   14     -1.73      0.00
   -4    5   14     -6.43      0.00
   -3    5   14     -1.12      0.00
   -2    5   14     15.85      0.00
   -1    5   14     -6.89      0.00
    0    5   14     -9.50      0.00
    1    5   14      3.46      0.00
    2    5   14     -2.44      0.00
    3    5   14     -3.32      0.00
    4    5   14      4.60      0.00
    5    5   14      0.42      0.00
    6    5   14     -2.65      0.00
    7    5   14      3.96      0.00
    8    5   14     -1.50      0.00
    9    5   14     -1.73      0.00
   10    5   14     -0.67      0.00
   11    5   14      1.10      0.00
   12    5   14     -1.30      0.00
   13    5   14      4.12      0.00
   14    5   14     -3.14      0.00
   15    5   14     -3.84      0.00
  -11    6   14      0.49      0.00
  -10    6   14      3.64      0.00
   -9    6   14     -1.36      0.00
   -8    6   14     -2.01      0.00
   -7    6   14      0.40      0.00
   -6    6   14      1.63      0.00
   -5    6   14     -3.98      0.00
   -4    6   14     -0.07      0.00
   -3    6   14      1.94      0.00
   -2    6   14      7.91      0.00
   -1    6   14     -6.58      0.00
    0    6   14     -9.30      0.00
    1    6   14     -1.05      0.00
    2    6   14      2.93      0.00
    3    6   14     -0.02      0.00
    4    6   14    -11.48      0.00
    5    6   14      4.56      0.00
    6    6   14      4.87      0.00
    7    6   14     -3.26      0.00
    8    6   14     -9.25      0.00
    9    6   14     -0.93      0.00
   10    6   14      8.01      0.00
   11    6   14      0.18      0.00
   12    6   14     -6.69      0.00
   13    6   14     -0.95      0.00
   14    6   14      2.64      0.00
   15    6   14      0.46      0.00
  -11    7   14      0.94      0.00
  -10    7   14      0.66      0.00
   -9    7   14     -1.54      0.00
   -8    7   14      3.30      0.00
   -7    7   14      3.21      0.00
   -6    7   14     -5.16      0.00
   -5    7   14      3.06      0.00
   -4    7   14     -1.69      0.00
   -3    7   14      6.06      0.00
   -2    7   14      0.74      0.00
   -1    7   14      0.94      0.00
    0    7   14     -0.90      0.00
    1    7   14     -3.81      0.00
    2    7   14      9.22      0.00
    3    7   14      7.81      0.00
    4    7   14     -9.93      0.00
    5    7   14      3.52      0.00
    6    7   14     -4.24      0.00
    7    7   14     -1.27      0.00
    8    7   14     10.50      0.00
    9    7   14     -9.91      0.00
   10    7   14      3.00      0.00
   11    7   14     10.23      0.00
   12    7   14     -1.21      0.00
   13    7   14     -0.75      0.00
   14    7   14     -1.00      0.00
   15    7   14     -0.23      0.00
   16    7   14      3.42      0.00
  -11    8   14      0.34      0.00
  -10    8   14     -0.79      0.00
   -9    8   14     -3.83      0.00
   -8    8   14     -1.32      0.00
   -7    8   14      4.55      0.00
   -6    8   14     -5.35      0.00
   -5    8   14      1.66      0.00
   -4    8   14      1.46      0.00
   -3    8   14      8.65      0.00
   -2    8   14    -10.55      0.00
   -1    8   14      8.28      0.00
    0    8   14     -0.19      0.00
    1    8   14     -0.78      0.00
    2    8   14      6.53      0.00
    3    8   14      3.99      0.00
    4    8   14     -6.92      0.00
    5    8   14     -2.41      0.00
    6    8   14      6.94      0.00
    7    8   14     -6.36      0.00
    8    8   14      7.06      0.00
    9    8   14      1.22      0.00
   10    8   14      1.59      0.00
   11    8   14     -1.83      0.00
   12    8   14      1.34      0.00
   13    8   14     -1.24      0.00
   14    8   14      3.54      0.00
   15    8   14     -0.65      0.00
   16    8   14     -1.78      0.00
  -10    9   14     -1.14      0.00
   -9    9   14     -0.37      0.00
   -8    9   14      0.35      0.00
   -7    9   14     -0.36      0.00
   -6    9   14     -2.89      0.00
   -5    9   14      3.93      0.00
   -4    9   14      0.31      0.00
   -3    9   14      3.54      0.00
   -2    9   14      0.61      0.00
   -1    9   14      0.92      0.00
    0    9   14     -0.90      0.00
    1    9   14     -1.85      0.00
    2    9   14     -3.26      0.00
    3    9   14     -3.09      0.00
    4    9   14      1.03      0.00
    5    9   14     -4.13      0.00
    6    9   14     -1.63      0.00
    7    9   14      6.08      0.00
    8    9   14      0.05      0.00
    9    9   14      1.21      0.00
   10    9   14      1.98      0.00
   11    9   14      0.01      0.00
   12    9   14     -1.05      0.00
   13    9   14     -5.81      0.00
   14    9   14     -2.01      0.00
   15    9   14     -1.15      0.00
   16    9   14     -2.76      0.00
  -10   10   14     -1.19      0.00
   -9   10   14      0.40      0.00
   -8   10   14      0.61      0.00
   -7   10   14     -2.58      0.00
   -6   10   14      3.80      0.00
   -5   10   14      0.81      0.00
   -4   10   14      2.88      0.00
   -3   10   14     -1.87      0.00
   -2   10   14      3.07      0.00
   -1   10   14     -5.50      0.00
    0   10   14      1.09      0.00
    1   10   14      2.47      0.00
    2   10   14     -8.27      0.00
    3   10   14     -2.78      0.00
    4   10   14     -0.60      0.00
    5   10   14     -1.82      0.00
    6   10   14      4.19      0.00
    7   10   14      7.39      0.00
    8   10   14     -7.57      0.00
    9   10   14      9.55      0.00
   10   10   14     -2.46      0.00
   11   10   14     -2.55      0.00
   12   10   14      4.45      0.00
   13   10   14     -4.76      0.00
   14   10   14     -1.86      0.00
   15   10   14     -1.15      0.00
   16   10   14     -0.64      0.00
   -9   11   14      1.06      0.00
   -8   11   14     -1.60      0.00
   -7   11   14     -2.29      0.00
   -6   11   14      1.91      0.00
   -5   11   14     -3.34      0.00
   -4   11   14      1.64      0.00
   -3   11   14      2.21      0.00
   -2   11   14     -2.72      0.00
   -1   11   14     -3.87      0.00
    0   11   14     -3.71      0.00
    1   11   14     -0.58      0.00
    2   11   14     -0.53      0.00
    3   11   14      1.08      0.00
    4   11   14     -6.41      0.00
    5   11   14      4.48      0.00
    6   11   14     -4.96      0.00
    7   11   14      0.39      0.00
    8   11   14     -3.16      0.00
    9   11   14      8.05      0.00
   10   11   14     -2.44      0.00
   11   11   14     -4.19      0.00
   12   11   14      3.53      0.00
   13   11   14     -2.09      0.00
   14   11   14     -2.13      0.00
   15   11   14     -0.43      0.00
   -9   12   14      3.50      0.00
   -8   12   14     -1.78      0.00
   -7   12   14      2.25      0.00
   -6   12   14     -0.23      0.00
   -5   12   14     -0.66      0.00
   -4   12   14      3.00      0.00
   -3   12   14     -0.08      0.00
   -2   12   14     -6.22      0.00
   -1   12   14      6.00      0.00
    0   12   14      1.99      0.00
    1   12   14     -2.03      0.00
    2   12   14     -6.21      0.00
    3   12   14     11.28      0.00
    4   12   14     -6.39      0.00
    5   12   14     -0.87      0.00
    6   12   14     -1.84      0.00
    7   12   14     -1.32      0.00
    8   12   14      5.26      0.00
    9   12   14      0.01      0.00
   10   12   14      1.67      0.00
   11   12   14     -2.49      0.00
   12   12   14     -2.33      0.00
   13   12   14      5.13      0.00
   14   12   14     -5.09      0.00
   15   12   14      0.55      0.00
   -8   13   14      1.04      0.00
   -7   13   14      1.57      0.00
   -6   13   14     -6.35      0.00
   -5   13   14      3.03      0.00
   -4   13   14      5.91      0.00
   -3   13   14     -1.99      0.00
   -2   13   14     -2.44      0.00
   -1   13   14      1.83      0.00
    0   13   14      5.89      0.00
    1   13   14      4.62      0.00
    2   13   14     -3.49      0.00
    3   13   14     -3.70      0.00
    4   13   14      5.51      0.00
    5   13   14     -1.88      0.00
    6   13   14      0.51      0.00
    7   13   14      0.90      0.00
    8   13   14      7.31      0.00
    9   13   14      0.24      0.00
   10   13   14      3.08      0.00
   11   13   14     -1.07      0.00
   12   13   14     -0.98      0.00
   13   13   14      1.52      0.00
   14   13   14      0.17      0.00
   15   13   14     -2.42      0.00
   -8   14   14     -1.34      0.00
   -7   14   14     -0.90      0.00
   -6   14   14      2.42      0.00
   -5   14   14     -0.18      0.00
   -4   14   14     -3.86      0.00
   -3   14   14     -2.47      0.00
   -2   14   14      5.07      0.00
   -1   14   14     -2.58      0.00
    0   14   14      2.87      0.00
    1   14   14     -2.75      0.00
    2   14   14     -1.28      0.00
    3   14   14     -3.52      0.00
    4   14   14     -2.61      0.00
    5   14   14     -6.29      0.00
    6   14   14      7.55      0.00
    7   14   14      1.30      0.00
    8   14   14     -1.17      0.00
    9   14   14     -1.92      0.00
   10   14   14     -3.73      0.00
   11   14   14     -0.08      0.00
   12   14   14     -0.30      0.00
   13   14   14     -1.05      0.00
   14   14   14     -2.06      0.00
   -7   15   14     -0.24      0.00
   -5   15   14      7.23      0.00
   -4   15   14     -4.13      0.00
   -3   15   14      0.85      0.00
   -2   15   14      1.22      0.00
   -1   15   14      0.42      0.00
    0   15   14      4.39      0.00
    1   15   14     -3.52      0.00
    2   15   14     -5.46      0.00
    3   15   14     -1.07      0.00
    4   15   14      6.11      0.00
    5   15   14     -4.04      0.00
    6   15   14     -0.70      0.00
    7   15   14      3.23      0.00
    8   15   14     -0.08      0.00
    9   15   14     -1.44      0.00
   10   15   14     -0.66      0.00
   11   15   14     -1.23      0.00
   12   15   14     -2.92      0.00
   13   15   14      2.86      0.00
   -5   16   14     -0.30      0.00
   -4   16   14     -2.02      0.00
   -3   16   14      4.06      0.00
   -2   16   14     -0.67      0.00
   -1   16   14      2.76      0.00
    0   16   14     -1.27      0.00
    1   16   14      1.53      0.00
    2   16   14      0.82      0.00
    3   16   14     -2.81      0.00
    4   16   14      0.55      0.00
    5   16   14      6.31      0.00
    6   16   14     -3.16      0.00
    7   16   14      0.95      0.00
    8   16   14      2.33      0.00
    9   16   14     -0.86      0.00
   10   16   14      1.99      0.00
   11   16   14     -1.63      0.00
   12   16   14      1.82      0.00
   -4   17   14     -1.26      0.00
   -3   17   14      1.79      0.00
   -2   17   14     -1.01      0.00
   -1   17   14      1.95      0.00
    0   17   14     -2.57      0.00
    1   17   14     -1.08      0.00
    2   17   14      0.17      0.00
    3   17   14      2.01      0.00
    4   17   14     -0.68      0.00
    5   17   14      1.83      0.00
    6   17   14      0.82      0.00
    7   17   14      1.43      0.00
    8   17   14      0.05      0.00
    9   17   14      0.21      0.00
   10   17   14     -0.46      0.00
   11   17   14     -3.04      0.00
   -2   18   14     -2.48      0.00
   -1   18   14     -1.60      0.00
    0   18   14     -0.82      0.00
    1   18   14     -2.97      0.00
    2   18   14     -1.42      0.00
    3   18   14     -0.66      0.00
    4   18   14      0.42      0.00
    5   18   14      0.04      0.00
    6   18   14      1.25      0.00
    7   18   14     -0.07      0.00
    8   18   14      1.51      0.00
    9   18   14      0.14      0.00
   10   18   14     -1.67      0.00
    0   19   14     -0.84      0.00
    1   19   14      0.87      0.00
    2   19   14     -1.76      0.00
    3   19   14      0.52      0.00
    4   19   14      0.63      0.00
    5   19   14     -2.03      0.00
    6   19   14      2.70      0.00
    7   19   14     -1.18      0.00
    8   19   14     -0.25      0.00
   -1   -5   15      1.10      0.00
    0   -5   15     -2.11      0.00
    1   -5   15     -0.25      0.00
    2   -5   15      2.04      0.00
    3   -5   15      0.62      0.00
   -4   -4   15      0.21      0.00
   -3   -4   15     -0.84      0.00
   -2   -4   15     -1.93      0.00
   -1   -4   15     -0.52      0.00
    0   -4   15      0.99      0.00
    1   -4   15     -0.99      0.00
    2   -4   15     -1.59      0.00
    3   -4   15      2.90      0.00
    4   -4   15     -2.90      0.00
    5   -4   15     -1.06      0.00
    6   -4   15      4.14      0.00
   -6   -3   15      3.57      0.00
   -5   -3   15     -0.68      0.00
   -4   -3   15     -1.37      0.00
   -3   -3   15      2.21      0.00
   -2   -3   15      0.02      0.00
   -1   -3   15     -2.19      0.00
    0   -3   15     -1.93      0.00
    1   -3   15     -3.11      0.00
    2   -3   15     -2.51      0.00
    3   -3   15     -0.11      0.00
    4   -3   15      0.83      0.00
    5   -3   15     -1.70      0.00
    6   -3   15      1.76      0.00
    7   -3   15     -1.06      0.00
    8   -3   15     -1.74      0.00
    9   -3   15      3.52      0.00
   -7   -2   15      1.78      0.00
   -6   -2   15     -0.90      0.00
   -5   -2   15      2.55      0.00
   -4   -2   15      2.05      0.00
   -3   -2   15     -1.15      0.00
   -2   -2   15      1.25      0.00
   -1   -2   15      0.67      0.00
    0   -2   15      1.96      0.00
    1   -2   15     -2.34      0.00
    2   -2   15      0.00      0.00
    3   -2   15     -1.87      0.00
    4   -2   15      0.59      0.00
    5   -2   15      1.22      0.00
    6   -2   15     -3.50      0.00
    7   -2   15     -0.14      0.00
    8   -2   15      0.85      0.00
    9   -2   15     -4.18      0.00
   10   -2   15      0.34      0.00
   -8   -1   15     -2.88      0.00
   -7   -1   15     -1.60      0.00
   -6   -1   15     -0.64      0.00
   -5   -1   15      5.86      0.00
   -4   -1   15     -0.27      0.00
   -3   -1   15     -3.67      0.00
   -2   -1   15      4.21      0.00
   -1   -1   15      0.80      0.00
    0   -1   15     -2.30      0.00
    1   -1   15     -2.86      0.00
    2   -1   15     -0.80      0.00
    3   -1   15      6.06      0.00
    4   -1   15      5.79      0.00
    5   -1   15     -2.96      0.00
    6   -1   15      0.29      0.00
    7   -1   15      4.91      0.00
    8   -1   15      2.85      0.00
    9   -1   15     -3.44      0.00
   10   -1   15     -1.31      0.00
   11   -1   15     -0.30      0.00
   -8    0   15     -1.50      0.00
   -7    0   15     -3.38      0.00
   -6    0   15     -0.48      0.00
   -5    0   15      1.80      0.00
   -4    0   15     -3.79      0.00
   -3    0   15      0.57      0.00
   -2    0   15     -0.66      0.00
   -1    0   15     -2.91      0.00
    0    0   15      3.42      0.00
    1    0   15     -3.50      0.00
    2    0   15     -6.25      0.00
    3    0   15      3.77      0.00
    4    0   15      1.63      0.00
    5    0   15      4.56      0.00
    6    0   15      2.06      0.00
    7    0   15     -0.97      0.00
    8    0   15      1.17      0.00
    9    0   15      1.60      0.00
   10    0   15      0.40      0.00
   11    0   15     -1.34      0.00
   12    0   15      1.48      0.00
   -9    1   15      2.74      0.00
   -8    1   15     -1.50      0.00
   -7    1   15     -0.42      0.00
   -6    1   15      2.83      0.00
   -5    1   15     -1.07      0.00
   -4    1   15     -5.88      0.00
   -3    1   15     -0.57      0.00
   -2    1   15      3.93      0.00
   -1    1   15     -0.36      0.00
    0    1   15    -10.40      0.00
    1    1   15     -0.25      0.00
    2    1   15      2.33      0.00
    3    1   15      5.92      0.00
    4    1   15     -5.78      0.00
    5    1   15      2.87      0.00
    6    1   15      1.25      0.00
    7    1   15     -1.89      0.00
    8    1   15     -2.71      0.00
    9    1   15     -1.79      0.00
   10    1   15      0.84      0.00
   11    1   15      0.25      0.00
   12    1   15      1.97      0.00
   -9    2   15      1.78      0.00
   -8    2   15      2.78      0.00
   -7    2   15      1.04      0.00
   -6    2   15     -0.33      0.00
   -5    2   15     -1.84      0.00
   -4    2   15      3.03      0.00
   -3    2   15      3.50      0.00
   -2    2   15     -5.85      0.00
   -1    2   15      2.17      0.00
    0    2   15     -1.38      0.00
    1    2   15     -2.05      0.00
    2    2   15     -0.20      0.00
    3    2   15      6.17      0.00
    4    2   15      5.15      0.00
    5    2   15      3.55      0.00
    6    2   15     -5.56      0.00
    7    2   15     -3.42      0.00
    8    2   15      1.82      0.00
    9    2   15     -0.67      0.00
   10    2   15     -2.77      0.00
   11    2   15      2.32      0.00
   12    2   15     -2.00      0.00
   13    2   15     -0.40      0.00
  -10    3   15      0.25      0.00
   -9    3   15     -4.02      0.00
   -8    3   15      3.25      0.00
   -7    3   15     -0.36      0.00
   -6    3   15     -3.90      0.00
   -5    3   15      1.21      0.00
   -4    3   15      2.23      0.00
   -3    3   15     -4.28      0.00
   -2    3   15     -1.74      0.00
   -1    3   15      0.41      0.00
    0    3   15     -6.81      0.00
    1    3   15     -0.56      0.00
    2    3   15     11.08      0.00
    3    3   15     -5.68      0.00
    4    3   15      5.38      0.00
    5    3   15      1.45      0.00
    6    3   15     -2.87      0.00
    7    3   15     -3.50      0.00
    8    3   15     -3.64      0.00
    9    3   15      3.62      0.00
   10    3   15     -1.01      0.00
   11    3   15     -2.16      0.00
   12    3   15      1.38      0.00
   13    3   15      0.40      0.00
  -10    4   15     -0.43      0.00
   -9    4   15      1.68      0.00
   -8    4   15     -1.73      0.00
   -7    4   15      0.78      0.00
   -6    4   15     -0.03      0.00
   -5    4   15     -0.10      0.00
   -4    4   15      9.91      0.00
   -3    4   15     -3.86      0.00
   -2    4   15     -5.79      0.00
   -1    4   15      1.98      0.00
    0    4   15      3.69      0.00
    1    4   15     -3.06      0.00
    2    4   15      5.69      0.00
    3    4   15      0.00      0.00
    4    4   15     -0.79      0.00
    5    4   15      0.41      0.00
    6    4   15      2.65      0.00
    7    4   15     -0.96      0.00
    8    4   15     -2.30      0.00
    9    4   15      4.26      0.00
   10    4   15      0.57      0.00
   11    4   15      3.23      0.00
   12    4   15     -3.79      0.00
   13    4   15      2.33      0.00
   14    4   15     -0.42      0.00
  -10    5   15     -0.74      0.00
   -9    5   15      0.47      0.00
   -8    5   15     -1.99      0.00
   -7    5   15      1.66      0.00
   -6    5   15      2.92      0.00
   -5    5   15     -2.19      0.00
   -4    5   15      2.80      0.00
   -3    5   15      3.62      0.00
   -2    5   15      1.50      0.00
   -1    5   15     -6.54      0.00
    0    5   15      5.93      0.00
    1    5   15      2.91      0.00
    2    5   15     -1.61      0.00
    3    5   15      5.21      0.00
    4    5   15     -2.53      0.00
    5    5   15      1.15      0.00
    6    5   15      1.33      0.00
    7    5   15      3.95      0.00
    8    5   15     -0.45      0.00
    9    5   15      3.03      0.00
   10    5   15      0.50      0.00
   11    5   15     -0.92      0.00
   12    5   15     -0.09      0.00
   13    5   15      1.58      0.00
   14    5   15     -1.96      0.00
  -10    6   15     -0.83      0.00
   -9    6   15     -0.56      0.00
   -8    6   15     -2.34      0.00
   -7    6   15      2.77      0.00
   -6    6   15     -2.19      0.00
   -5    6   15      0.07      0.00
   -4    6   15     -0.45      0.00
   -3    6   15      2.01      0.00
   -2    6   15     -4.28      0.00
   -1    6   15    -10.18      0.00
    0    6   15      6.56      0.00
    1    6   15     -0.57      0.00
    2    6   15    -10.03      0.00
    3    6   15      1.12      0.00
    4    6   15     -1.82      0.00
    5    6   15      4.64      0.00
    6    6   15      1.35      0.00
    7    6   15     -9.34      0.00
    8    6   15      0.33      0.00
    9    6   15      0.25      0.00
   10    6   15     -0.38      0.00
   11    6   15     -8.50      0.00
   12    6   15     -1.24      0.00
   13    6   15     -0.53      0.00
   14    6   15      1.55      0.00
   15    6   15     -0.51      0.00
  -10    7   15      0.11      0.00
   -9    7   15      2.11      0.00
   -8    7   15      3.63      0.00
   -7    7   15     -0.21      0.00
   -6    7   15     -3.01      0.00
   -5    7   15      3.26      0.00
   -4    7   15     -7.05      0.00
   -3    7   15      5.94      0.00
   -2    7   15     -5.92      0.00
   -1    7   15     -9.84      0.00
    0    7   15      3.19      0.00
    1    7   15      5.19      0.00
    2    7   15     -2.83      0.00
    3    7   15     -4.89      0.00
    4    7   15      8.68      0.00
    5    7   15     -1.44      0.00
    6    7   15      0.48      0.00
    7    7   15     -7.31      0.00
    8    7   15      0.29      0.00
    9    7   15     -6.05      0.00
   10    7   15      5.16      0.00
   11    7   15     -3.79      0.00
   12    7   15     -0.03      0.00
   13    7   15     -2.18      0.00
   14    7   15     -1.54      0.00
   15    7   15      4.38      0.00
  -10    8   15     -0.71      0.00
   -9    8   15     -0.18      0.00
   -8    8   15      2.39      0.00
   -7    8   15      1.55      0.00
   -6    8   15     -2.12      0.00
   -5    8   15      3.91      0.00
   -4    8   15     -0.80      0.00
   -3    8   15     -6.79      0.00
   -2    8   15     -0.03      0.00
   -1    8   15      3.04      0.00
    0    8   15     -7.03      0.00
    1    8   15     11.45      0.00
    2    8   15      9.79      0.00
    3    8   15     -4.81      0.00
    4    8   15      8.24      0.00
    5    8   15      1.95      0.00
    6    8   15      0.89      0.00
    7    8   15     -1.29      0.00
    8    8   15      1.04      0.00
    9    8   15     -0.02      0.00
   10    8   15      0.62      0.00
   11    8   15     -0.63      0.00
   12    8   15      5.20      0.00
   13    8   15      0.52      0.00
   14    8   15      3.63      0.00
   15    8   15      0.96      0.00
   -9    9   15     -0.14      0.00
   -8    9   15      0.22      0.00
   -7    9   15     -2.29      0.00
   -6    9   15      1.79      0.00
   -5    9   15      1.65      0.00
   -4    9   15      1.73      0.00
   -3    9   15     -7.34      0.00
   -2    9   15      1.01      0.00
   -1    9   15      6.92      0.00
    0    9   15     -4.66      0.00
    1    9   15      3.93      0.00
    2    9   15      5.06      0.00
    3    9   15     -1.66      0.00
    4    9   15      4.46      0.00
    5    9   15     -1.93      0.00
    6    9   15     -9.86      0.00
    7    9   15     13.18      0.00
    8    9   15     -5.01      0.00
    9    9   15      1.11      0.00
   10    9   15      0.06      0.00
   11    9   15     -1.57      0.00
   12    9   15     -1.57      0.00
   13    9   15      1.09      0.00
   14    9   15      2.49      0.00
   15    9   15      1.69      0.00
   -9   10   15      0.86      0.00
   -8   10   15      0.25      0.00
   -7   10   15     -0.11      0.00
   -6   10   15      4.85      0.00
   -5   10   15     -0.05      0.00
   -4   10   15     -2.16      0.00
   -3   10   15     -2.04      0.00
   -2   10   15      1.72      0.00
   -1   10   15      3.24      0.00
    0   10   15      0.85      0.00
    1   10   15      2.63      0.00
    2   10   15     -6.17      0.00
    3   10   15     -0.34      0.00
    4   10   15     -3.54      0.00
    5   10   15      2.80      0.00
    6   10   15     -0.16      0.00
    7   10   15      5.78      0.00
    8   10   15     -4.19      0.00
    9   10   15     -0.78      0.00
   10   10   15     -2.90      0.00
   11   10   15      0.31      0.00
   12   10   15     -2.70      0.00
   13   10   15     -0.12      0.00
   14   10   15     -0.47      0.00
   15   10   15     -1.95      0.00
   -9   11   15     -1.16      0.00
   -8   11   15      1.21      0.00
   -7   11   15     -2.50      0.00
   -6   11   15      5.37      0.00
   -5   11   15     -2.84      0.00
   -4   11   15     -3.94      0.00
   -3   11   15      5.40      0.00
   -2   11   15     -6.00      0.00
   -1   11   15      4.03      0.00
    0   11   15     -0.41      0.00
    1   11   15     -0.43      0.00
    2   11   15      0.81      0.00
    3   11   15     -1.53      0.00
    4   11   15     -0.51      0.00
    5   11   15      2.61      0.00
    6   11   15      4.59      0.00
    7   11   15     -1.69      0.00
    8   11   15      3.03      0.00
    9   11   15     -3.24      0.00
   10   11   15     -1.66      0.00
   11   11   15      4.03      0.00
   12   11   15     -4.16      0.00
   13   11   15     -0.28      0.00
   14   11   15      2.75      0.00
   15   11   15     -1.22      0.00
   -8   12   15      1.33      0.00
   -7   12   15     -0.03      0.00
   -6   12   15     -1.00      0.00
   -5   12   15     -1.53      0.00
   -4   12   15     -3.19      0.00
   -3   12   15     -1.79      0.00
   -2   12   15      1.56      0.00
   -1   12   15     -1.28      0.00
    0   12   15     -0.79      0.00
    1   12   15     -9.29      0.00
    2   12   15      2.32      0.00
    3   12   15      4.91      0.00
    4   12   15     -2.59      0.00
    5   12   15     -0.37      0.00
    6   12   15      4.53      0.00
    7   12   15     -7.01      0.00
    8   12   15      1.61      0.00
    9   12   15     -6.41      0.00
   10   12   15     -4.74      0.00
   11   12   15      6.50      0.00
   12   12   15     -0.99      0.00
   13   12   15     -0.68      0.00
   14   12   15     -0.51      0.00
   -7   13   15      0.04      0.00
   -6   13   15      0.18      0.00
   -5   13   15      2.63      0.00
   -4   13   15      2.68      0.00
   -3   13   15     -7.40      0.00
   -2   13   15      5.75      0.00
   -1   13   15     -2.43      0.00
    0   13   15      0.28      0.00
    1   13   15     -4.85      0.00
    2   13   15      0.25      0.00
    3   13   15      0.96      0.00
    4   13   15      7.46      0.00
    5   13   15     -5.89      0.00
    6   13   15     -1.05      0.00
    7   13   15      0.87      0.00
    8   13   15     -1.02      0.00
    9   13   15      2.84      0.00
   10   13   15     -3.16      0.00
   11   13   15     -1.14      0.00
   12   13   15      1.62      0.00
   13   13   15      0.49      0.00
   14   13   15      1.62      0.00
   -7   14   15      0.60      0.00
   -6   14   15     -0.83      0.00
   -5   14   15     -0.25      0.00
   -4   14   15     -1.01      0.00
   -3   14   15     -0.69      0.00
   -2   14   15      3.41      0.00
   -1   14   15     -2.15      0.00
    0   14   15     -0.68      0.00
    1   14   15      1.56      0.00
    2   14   15      4.03      0.00
    3   14   15     -0.90      0.00
    4   14   15     -1.36      0.00
    5   14   15      0.49      0.00
    6   14   15      2.05      0.00
    7   14   15     -1.52      0.00
    8   14   15     -1.39      0.00
    9   14   15      1.15      0.00
   10   14   15     -0.14      0.00
   11   14   15      2.89      0.00
   12   14   15      1.98      0.00
   13   14   15      0.69      0.00
   -6   15   15     -0.86      0.00
   -5   15   15      0.44      0.00
   -4   15   15     -5.67      0.00
   -3   15   15      6.20      0.00
   -2   15   15     -4.09      0.00
   -1   15   15      2.03      0.00
    0   15   15     -2.07      0.00
    1   15   15     -1.41      0.00
    2   15   15      2.80      0.00
    3   15   15      4.12      0.00
    4   15   15     -4.07      0.00
    5   15   15     -2.10      0.00
    6   15   15      2.46      0.00
    7   15   15     -1.45      0.00
    8   15   15     -4.68      0.00
    9   15   15     -0.69      0.00
   10   15   15      1.41      0.00
   11   15   15     -5.31      0.00
   12   15   15      1.41      0.00
   -4   16   15     -0.50      0.00
   -3   16   15      3.81      0.00
   -2   16   15     -0.56      0.00
   -1   16   15     -0.22      0.00
    0   16   15     -2.21      0.00
    1   16   15      2.27      0.00
    2   16   15      1.32      0.00
    3   16   15      1.26      0.00
    4   16   15      0.89      0.00
    5   16   15      1.24      0.00
    6   16   15     -2.15      0.00
    7   16   15      1.13      0.00
    8   16   15     -0.19      0.00
    9   16   15     -4.65      0.00
   10   16   15      3.65      0.00
   11   16   15     -0.66      0.00
   12   16   15      0.86      0.00
   -3   17   15      1.79      0.00
   -2   17   15     -0.79      0.00
   -1   17   15      1.27      0.00
    0   17   15     -1.25      0.00
    1   17   15      2.85      0.00
    2   17   15      1.66      0.00
    3   17   15      1.10      0.00
    4   17   15      0.68      0.00
    5   17   15     -0.44      0.00
    6   17   15     -0.72      0.00
    7   17   15     -1.81      0.00
    8   17   15      0.27      0.00
    9   17   15      1.67      0.00
   10   17   15     -2.15      0.00
   11   17   15      2.05      0.00
   -1   18   15     -0.30      0.00
    0   18   15     -0.64      0.00
    1   18   15      2.00      0.00
    2   18   15      0.66      0.00
    3   18   15     -2.26      0.00
    4   18   15      1.75      0.00
    5   18   15     -0.97      0.00
    6   18   15     -0.10      0.00
    7   18   15      0.89      0.00
    8   18   15     -2.28      0.00
    9   18   15     -1.21      0.00
    2   19   15      0.78      0.00
    3   19   15     -2.11      0.00
    4   19   15     -2.47      0.00
    6   19   15     -0.36      0.00
   -2   -3   16     -1.53      0.00
   -1   -3   16     -2.88      0.00
    0   -3   16     -1.13      0.00
    1   -3   16      0.15      0.00
    2   -3   16      3.63      0.00
    3   -3   16     -1.90      0.00
    4   -3   16      1.43      0.00
    5   -3   16     -0.49      0.00
   -4   -2   16      1.65      0.00
   -3   -2   16     -0.06      0.00
   -2   -2   16     -0.33      0.00
   -1   -2   16      0.92      0.00
    0   -2   16     -0.30      0.00
    1   -2   16      0.84      0.00
    2   -2   16      1.25      0.00
    3   -2   16     -3.70      0.00
    4   -2   16      1.47      0.00
    5   -2   16      2.12      0.00
    6   -2   16     -3.05      0.00
    7   -2   16     -1.39      0.00
    8   -2   16      0.76      0.00
   -6   -1   16     -0.38      0.00
   -5   -1   16      2.20      0.00
   -4   -1   16     -1.37      0.00
   -3   -1   16      0.35      0.00
   -2   -1   16      2.61      0.00
   -1   -1   16     -0.69      0.00
    0   -1   16     -2.21      0.00
    1   -1   16      5.59      0.00
    2   -1   16      2.85      0.00
    3   -1   16      0.62      0.00
    4   -1   16     -3.40      0.00
    5   -1   16     -4.90      0.00
    6   -1   16      1.80      0.00
    7   -1   16      0.23      0.00
    8   -1   16     -2.77      0.00
    9   -1   16     -2.46      0.00
   -7    0   16     -2.54      0.00
   -6    0   16      1.51      0.00
   -5    0   16      2.66      0.00
   -4    0   16     -1.60      0.00
   -3    0   16      1.49      0.00
   -2    0   16     -1.26      0.00
   -1    0   16      2.50      0.00
    0    0   16      3.72      0.00
    1    0   16     -1.21      0.00
    2    0   16      2.46      0.00
    3    0   16      3.33      0.00
    4    0   16     -2.34      0.00
    5    0   16     -3.27      0.00
    6    0   16      0.44      0.00
    7    0   16      3.33      0.00
    8    0   16      0.94      0.00
    9    0   16      0.63      0.00
   10    0   16     -0.59      0.00
   -7    1   16      0.64      0.00
   -6    1   16      0.81      0.00
   -5    1   16     -1.02      0.00
   -4    1   16     -4.29      0.00
   -3    1   16      2.09      0.00
   -2    1   16      2.51      0.00
   -1    1   16     -3.08      0.00
    0    1   16      2.81      0.00
    1    1   16      3.34      0.00
    2    1   16      1.87      0.00
    3    1   16     -2.50      0.00
    4    1   16     -3.98      0.00
    5    1   16     -0.06      0.00
    6    1   16      0.55      0.00
    7    1   16      0.94      0.00
    8    1   16      1.95      0.00
    9    1   16      1.01      0.00
   10    1   16     -0.41      0.00
   11    1   16      0.75      0.00
   -8    2   16      1.08      0.00
   -7    2   16      2.40      0.00
   -6    2   16     -0.15      0.00
   -5    2   16     -2.56      0.00
   -4    2   16      2.15      0.00
   -3    2   16     -4.33      0.00
   -2    2   16     -0.20      0.00
   -1    2   16      1.79      0.00
    0    2   16      4.00      0.00
    1    2   16     -1.58      0.00
    2    2   16     -0.94      0.00
    3    2   16     -2.83      0.00
    4    2   16      0.57      0.00
    5    2   16     -1.26      0.00
    6    2   16     -3.21      0.00
    7    2   16      3.47      0.00
    8    2   16      0.18      0.00
    9    2   16     -0.10      0.00
   10    2   16     -0.50      0.00
   11    2   16      0.59      0.00
   12    2   16      0.18      0.00
   -8    3   16      3.88      0.00
   -7    3   16     -3.27      0.00
   -6    3   16     -1.33      0.00
   -5    3   16     -1.55      0.00
   -4    3   16      2.92      0.00
   -3    3   16     -7.04      0.00
   -2    3   16      3.29      0.00
   -1    3   16     -2.32      0.00
    0    3   16      0.53      0.00
    1    3   16      3.70      0.00
    2    3   16     -3.27      0.00
    3    3   16     -2.64      0.00
    4    3   16      3.29      0.00
    5    3   16     -3.26      0.00
    6    3   16     -2.71      0.00
    7    3   16      3.41      0.00
    8    3   16     -2.34      0.00
    9    3   16     -0.58      0.00
   10    3   16     -1.00      0.00
   11    3   16      1.08      0.00
   12    3   16      0.18      0.00
   13    3   16     -3.35      0.00
   -8    4   16     -1.30      0.00
   -7    4   16     -2.28      0.00
   -6    4   16     -1.89      0.00
   -5    4   16      1.71      0.00
   -4    4   16      0.81      0.00
   -3    4   16    -10.17      0.00
   -2    4   16      3.86      0.00
   -1    4   16      2.61      0.00
    0    4   16     -0.44      0.00
    1    4   16      1.73      0.00
    2    4   16     -5.11      0.00
    3    4   16      0.26      0.00
    4    4   16      0.70      0.00
    5    4   16     -3.93      0.00
    6    4   16     -4.96      0.00
    7    4   16      0.42      0.00
    8    4   16      1.54      0.00
    9    4   16     -2.43      0.00
   10    4   16     -1.63      0.00
   11    4   16      1.43      0.00
   12    4   16     -0.72      0.00
   13    4   16      2.68      0.00
   -8    5   16     -0.16      0.00
   -7    5   16     -1.19      0.00
   -6    5   16      0.36      0.00
   -5    5   16      3.97      0.00
   -4    5   16      0.46      0.00
   -3    5   16     -0.94      0.00
   -2    5   16      4.59      0.00
   -1    5   16      4.49      0.00
    0    5   16      2.47      0.00
    1    5   16      4.68      0.00
    2    5   16      0.73      0.00
    3    5   16      0.07      0.00
    4    5   16     -1.75      0.00
    5    5   16     -2.50      0.00
    6    5   16      2.62      0.00
    7    5   16     -4.96      0.00
    8    5   16      7.81      0.00
    9    5   16      2.15      0.00
   10    5   16      1.32      0.00
   11    5   16     -0.14      0.00
   12    5   16      0.02      0.00
   13    5   16      3.17      0.00
   -9    6   16     -2.96      0.00
   -8    6   16     -1.20      0.00
   -7    6   16      1.11      0.00
   -6    6   16     -2.45      0.00
   -5    6   16      4.94      0.00
   -4    6   16     -2.73      0.00
   -3    6   16      0.50      0.00
   -2    6   16      2.32      0.00
   -1    6   16      6.85      0.00
    0    6   16      4.87      0.00
    1    6   16     -9.34      0.00
    2    6   16      4.63      0.00
    3    6   16     -2.16      0.00
    4    6   16     -4.69      0.00
    5    6   16     -1.05      0.00
    6    6   16      5.62      0.00
    7    6   16     -2.86      0.00
    8    6   16      7.10      0.00
    9    6   16     -0.16      0.00
   10    6   16      0.48      0.00
   11    6   16     -0.61      0.00
   12    6   16     -0.17      0.00
   13    6   16     -0.19      0.00
   14    6   16      0.94      0.00
   -9    7   16      1.40      0.00
   -8    7   16     -1.13      0.00
   -7    7   16     -0.56      0.00
   -6    7   16     -1.29      0.00
   -5    7   16     -1.09      0.00
   -4    7   16     -0.41      0.00
   -3    7   16      1.54      0.00
   -2    7   16     -5.98      0.00
   -1    7   16      5.02      0.00
    0    7   16      6.08      0.00
    1    7   16    -14.78      0.00
    2    7   16     -3.62      0.00
    3    7   16     -1.37      0.00
    4    7   16     -3.22      0.00
    5    7   16     -4.21      0.00
    6    7   16     -0.16      0.00
    7    7   16     -1.20      0.00
    8    7   16      1.18      0.00
    9    7   16     -0.64      0.00
   10    7   16     -4.44      0.00
   11    7   16     -2.19      0.00
   12    7   16      2.96      0.00
   13    7   16     -1.46      0.00
   14    7   16     -2.86      0.00
   -8    8   16      0.49      0.00
   -7    8   16      0.17      0.00
   -6    8   16      0.81      0.00
   -5    8   16     -4.67      0.00
   -4    8   16      1.50      0.00
   -3    8   16      0.20      0.00
   -2    8   16      0.11      0.00
   -1    8   16      0.21      0.00
    0    8   16     -0.06      0.00
    1    8   16     -1.47      0.00
    2    8   16     -1.27      0.00
    3    8   16     -1.18      0.00
    4    8   16      1.84      0.00
    5    8   16      6.20      0.00
    6    8   16     -4.95      0.00
    7    8   16      2.72      0.00
    8    8   16     -5.98      0.00
    9    8   16      1.58      0.00
   10    8   16     -0.08      0.00
   11    8   16      0.96      0.00
   12    8   16      1.49      0.00
   13    8   16      1.40      0.00
   14    8   16     -0.23      0.00
   -8    9   16      0.33      0.00
   -7    9   16     -3.63      0.00
   -6    9   16      3.11      0.00
   -5    9   16     -2.62      0.00
   -4    9   16      0.06      0.00
   -3    9   16      0.63      0.00
   -2    9   16      4.25      0.00
   -1    9   16      1.97      0.00
    0    9   16     -4.73      0.00
    1    9   16      3.18      0.00
    2    9   16      0.54      0.00
    3    9   16      6.16      0.00
    4    9   16      0.68      0.00
    5    9   16      1.03      0.00
    6    9   16     -4.16      0.00
    7    9   16      8.47      0.00
    8    9   16     -4.02      0.00
    9    9   16      1.56      0.00
   10    9   16      2.64      0.00
   11    9   16      1.76      0.00
   12    9   16      1.93      0.00
   13    9   16      1.75      0.00
   14    9   16      2.02      0.00
   -8   10   16      0.70      0.00
   -7   10   16     -0.57      0.00
   -6   10   16      1.47      0.00
   -5   10   16     -0.61      0.00
   -4   10   16     -3.02      0.00
   -3   10   16      5.63      0.00
   -2   10   16      4.12      0.00
   -1   10   16     -5.22      0.00
    0   10   16      0.96      0.00
    1   10   16      2.93      0.00
    2   10   16     -2.44      0.00
    3   10   16      1.33      0.00
    4   10   16     -4.14      0.00
    5   10   16     -0.92      0.00
    6   10   16      2.09      0.00
    7   10   16     -5.30      0.00
    8   10   16     -0.89      0.00
    9   10   16      0.03      0.00
   10   10   16      3.76      0.00
   11   10   16     -2.39      0.00
   12   10   16      0.03      0.00
   13   10   16      0.49      0.00
   14   10   16     -0.63      0.00
   -8   11   16     -0.85      0.00
   -7   11   16      1.51      0.00
   -6   11   16      1.14      0.00
   -5   11   16     -2.17      0.00
   -4   11   16      0.72      0.00
   -3   11   16      2.81      0.00
   -2   11   16      5.31      0.00
   -1   11   16     -3.88      0.00
    0   11   16     -0.54      0.00
    1   11   16      1.48      0.00
    2   11   16      4.64      0.00
    3   11   16     -5.14      0.00
    4   11   16     -1.92      0.00
    5   11   16     -1.25      0.00
    6   11   16      6.98      0.00
    7   11   16     -5.50      0.00
    8   11   16      4.89      0.00
    9   11   16      0.46      0.00
   10   11   16     -2.12      0.00
   11   11   16      2.04      0.00
   12   11   16     -3.00      0.00
   13   11   16      1.23      0.00
   14   11   16     -0.83      0.00
   -7   12   16      1.82      0.00
   -6   12   16     -5.36      0.00
   -5   12   16      0.50      0.00
   -4   12   16      1.80      0.00
   -3   12   16     -2.44      0.00
   -2   12   16      4.80      0.00
   -1   12   16     -3.09      0.00
    0   12   16      2.81      0.00
    1   12   16     -1.28      0.00
    2   12   16      5.78      0.00
    3   12   16     -5.36      0.00
    4   12   16      0.63      0.00
    5   12   16      5.42      0.00
    6   12   16      0.75      0.00
    7   12   16     -2.15      0.00
    8   12   16      0.51      0.00
    9   12   16      2.26      0.00
   10   12   16      1.67      0.00
   11   12   16      5.28      0.00
   12   12   16     -2.91      0.00
   13   12   16      0.10      0.00
   14   12   16     -1.55      0.00
   -6   13   16     -4.06      0.00
   -5   13   16     -0.81      0.00
   -4   13   16      3.73      0.00
   -3   13   16     -1.50      0.00
   -2   13   16      1.47      0.00
   -1   13   16     -3.67      0.00
    0   13   16     -4.40      0.00
    1   13   16      1.72      0.00
    2   13   16      0.18      0.00
    3   13   16     -4.57      0.00
    4   13   16      2.35      0.00
    5   13   16      0.99      0.00
    6   13   16     -2.74      0.00
    7   13   16      1.32      0.00
    8   13   16     -3.10      0.00
    9   13   16      0.21      0.00
   10   13   16      0.45      0.00
   11   13   16     -0.70      0.00
   12   13   16     -0.02      0.00
   13   13   16     -2.09      0.00
   -5   14   16      2.76      0.00
   -4   14   16     -2.76      0.00
   -3   14   16      3.05      0.00
   -2   14   16     -0.70      0.00
   -1   14   16     -1.37      0.00
    0   14   16     -2.03      0.00
    1   14   16      0.00      0.00
    2   14   16     -0.78      0.00
    3   14   16     -0.91      0.00
    4   14   16     -0.94      0.00
    5   14   16     -1.14      0.00
    6   14   16     -1.56      0.00
    7   14   16      0.38      0.00
    8   14   16      2.52      0.00
    9   14   16     -4.00      0.00
   10   14   16      6.03      0.00
   11   14   16      1.96      0.00
   12   14   16     -2.72      0.00
   13   14   16     -2.21      0.00
   -5   15   16      2.27      0.00
   -4   15   16     -0.89      0.00
   -3   15   16      0.01      0.00
   -2   15   16     -4.30      0.00
   -1   15   16      3.05      0.00
    0   15   16      2.35      0.00
    1   15   16     -0.49      0.00
    2   15   16      2.28      0.00
    3   15   16     -2.31      0.00
    4   15   16     -3.04      0.00
    5   15   16      0.51      0.00
    6   15   16     -2.26      0.00
    7   15   16     -1.62      0.00
    8   15   16      3.46      0.00
    9   15   16      2.29      0.00
   10   15   16     -1.45      0.00
   11   15   16     -0.56      0.00
   12   15   16      3.58      0.00
   -3   16   16     -2.09      0.00
   -2   16   16     -0.23      0.00
   -1   16   16     -1.07      0.00
    0   16   16      4.43      0.00
    1   16   16      0.34      0.00
    2   16   16      0.67      0.00
    3   16   16     -0.19      0.00
    4   16   16     -3.91      0.00
    5   16   16      2.12      0.00
    6   16   16      0.29      0.00
    7   16   16      0.27      0.00
    8   16   16     -1.61      0.00
    9   16   16      0.56      0.00
   10   16   16      2.79      0.00
   11   16   16     -3.54      0.00
   -2   17   16     -1.81      0.00
   -1   17   16      2.64      0.00
    0   17   16      1.49      0.00
    1   17   16      0.07      0.00
    2   17   16     -2.53      0.00
    3   17   16      1.19      0.00
    4   17   16     -0.36      0.00
    5   17   16     -0.37      0.00
    6   17   16      0.40      0.00
    7   17   16      2.09      0.00
    8   17   16      1.52      0.00
    9   17   16     -0.17      0.00
   10   17   16     -1.41      0.00
    0   18   16      3.59      0.00
    1   18   16     -0.21      0.00
    2   18   16     -3.64      0.00
    3   18   16     -0.07      0.00
    4   18   16      0.95      0.00
    5   18   16      0.05      0.00
    6   18   16      0.67      0.00
    7   18   16      0.56      0.00
    8   18   16     -2.27      0.00
    0   -2   17     -2.06      0.00
    1   -2   17     -0.08      0.00
    2   -2   17     -2.52      0.00
    3   -2   17      1.17      0.00
   -3   -1   17      1.27      0.00
   -2   -1   17      0.69      0.00
   -1   -1   17     -1.31      0.00
    0   -1   17      1.55      0.00
    1   -1   17      1.52      0.00
    2   -1   17     -3.55      0.00
    3   -1   17     -0.81      0.00
    4   -1   17      0.67      0.00
    5   -1   17      1.44      0.00
    6   -1   17      0.89      0.00
   -4    0   17      1.24      0.00
   -3    0   17      1.14      0.00
   -2    0   17     -0.47      0.00
   -1    0   17      0.22      0.00
    0    0   17     -0.17      0.00
    1    0   17     -1.89      0.00
    2    0   17     -0.67      0.00
    3    0   17     -0.90      0.00
    4    0   17     -1.97      0.00
    5    0   17      1.57      0.00
    6    0   17      1.49      0.00
    7    0   17     -1.23      0.00
    8    0   17     -3.47      0.00
   -5    1   17     -3.39      0.00
   -4    1   17      2.00      0.00
   -3    1   17      5.32      0.00
   -2    1   17     -0.50      0.00
   -1    1   17      0.05      0.00
    0    1   17     -1.43      0.00
    1    1   17     -0.08      0.00
    2    1   17      2.74      0.00
    3    1   17     -0.41      0.00
    4    1   17     -3.05      0.00
    5    1   17      3.26      0.00
    6    1   17      0.72      0.00
    7    1   17      0.08      0.00
    8    1   17      1.15      0.00
    9    1   17      1.72      0.00
   -6    2   17      0.50      0.00
   -5    2   17     -1.91      0.00
   -4    2   17      2.71      0.00
   -3    2   17      1.22      0.00
   -2    2   17      0.31      0.00
   -1    2   17      2.85      0.00
    0    2   17     -4.11      0.00
    1    2   17     -2.08      0.00
    2    2   17      0.03      0.00
    3    2   17     -1.39      0.00
    4    2   17      1.75      0.00
    5    2   17      3.38      0.00
    6    2   17      0.52      0.00
    7    2   17      0.57      0.00
    8    2   17     -0.04      0.00
    9    2   17      1.99      0.00
   10    2   17     -0.49      0.00
   11    2   17     -0.37      0.00
   -6    3   17      0.95      0.00
   -5    3   17     -0.83      0.00
   -4    3   17      1.67      0.00
   -3    3   17     -0.29      0.00
   -2    3   17     -1.10      0.00
   -1    3   17      0.34      0.00
    0    3   17     -5.14      0.00
    1    3   17     -0.75      0.00
    2    3   17     -0.64      0.00
    3    3   17     -1.61      0.00
    4    3   17     -0.12      0.00
    5    3   17      2.81      0.00
    6    3   17      4.42      0.00
    7    3   17      2.35      0.00
    8    3   17     -2.00      0.00
    9    3   17     -0.12      0.00
   10    3   17      1.07      0.00
   11    3   17     -0.98      0.00
   -7    4   17      1.47      0.00
   -6    4   17     -0.90      0.00
   -5    4   17     -0.38      0.00
   -4    4   17     -5.10      0.00
   -3    4   17      1.03      0.00
   -2    4   17     -1.28      0.00
   -1    4   17     -3.27      0.00
    0    4   17     -4.32      0.00
    1    4   17     -4.04      0.00
    2    4   17     -3.35      0.00
    3    4   17      1.75      0.00
    4    4   17      4.03      0.00
    5    4   17     -3.97      0.00
    6    4   17      4.41      0.00
    7    4   17     -0.28      0.00
    8    4   17     -2.08      0.00
    9    4   17     -3.81      0.00
   10    4   17     -0.09      0.00
   11    4   17      1.85      0.00
   -7    5   17      0.80      0.00
   -6    5   17      1.53      0.00
   -5    5   17     -0.20      0.00
   -4    5   17     -3.15      0.00
   -3    5   17      1.67      0.00
   -2    5   17      1.12      0.00
   -1    5   17     -4.87      0.00
    0    5   17     -3.15      0.00
    1    5   17      1.32      0.00
    2    5   17     -1.02      0.00
    3    5   17      2.61      0.00
    4    5   17      3.12      0.00
    5    5   17     -3.99      0.00
    6    5   17      1.54      0.00
    7    5   17     -3.76      0.00
    8    5   17      1.02      0.00
    9    5   17     -3.76      0.00
   10    5   17     -0.29      0.00
   11    5   17      1.60      0.00
   12    5   17      2.92      0.00
   -7    6   17      0.27      0.00
   -6    6   17      0.53      0.00
   -5    6   17      1.39      0.00
   -4    6   17     -0.32      0.00
   -3    6   17      5.38      0.00
   -2    6   17      0.96      0.00
   -1    6   17     -1.65      0.00
    0    6   17      1.26      0.00
    1    6   17      2.95      0.00
    2    6   17      3.60      0.00
    3    6   17      3.27      0.00
    4    6   17      4.40      0.00
    5    6   17      2.06      0.00
    6    6   17     -1.65      0.00
    7    6   17      2.50      0.00
    8    6   17      0.35      0.00
    9    6   17      3.13      0.00
   10    6   17      1.55      0.00
   11    6   17     -1.21      0.00
   12    6   17     -0.33      0.00
   13    6   17     -1.45      0.00
   -7    7   17      1.27      0.00
   -6    7   17      0.25      0.00
   -5    7   17     -1.87      0.00
   -4    7   17      1.51      0.00
   -3    7   17      0.90      0.00
   -2    7   17     -2.36      0.00
   -1    7   17      1.46      0.00
    0    7   17     -4.86      0.00
    1    7   17      2.99      0.00
    2    7   17      2.30      0.00
    3    7   17     -2.14      0.00
    4    7   17     -3.74      0.00
    5    7   17      5.31      0.00
    6    7   17     -2.86      0.00
    7    7   17      4.74      0.00
    8    7   17      1.55      0.00
    9    7   17      0.49      0.00
   10    7   17     -0.02      0.00
   11    7   17      0.75      0.00
   12    7   17     -1.35      0.00
   13    7   17     -3.49      0.00
   -7    8   17     -0.62      0.00
   -6    8   17      0.47      0.00
   -5    8   17      0.17      0.00
   -4    8   17      1.99      0.00
   -3    8   17     -2.71      0.00
   -2    8   17     -4.73      0.00
   -1    8   17      4.75      0.00
    0    8   17     -7.75      0.00
    1    8   17      1.94      0.00
    2    8   17     -1.10      0.00
    3    8   17     -4.80      0.00
    4    8   17      0.65      0.00
    5    8   17      2.27      0.00
    6    8   17     -3.16      0.00
    7    8   17      0.43      0.00
    8    8   17     -1.78      0.00
    9    8   17     -1.08      0.00
   10    8   17     -2.05      0.00
   11    8   17     -1.90      0.00
   12    8   17      0.94      0.00
   13    8   17      0.01      0.00
   -7    9   17     -2.04      0.00
   -6    9   17     -1.58      0.00
   -5    9   17      2.73      0.00
   -4    9   17      1.65      0.00
   -3    9   17     -0.81      0.00
   -2    9   17     -2.28      0.00
   -1    9   17      0.84      0.00
    0    9   17     -2.18      0.00
    1    9   17      1.00      0.00
    2    9   17     -1.38      0.00
    3    9   17      3.92      0.00
    4    9   17      3.11      0.00
    5    9   17     -0.62      0.00
    6    9   17      3.44      0.00
    7    9   17      0.49      0.00
    8    9   17     -1.88      0.00
    9    9   17     -1.29      0.00
   10    9   17     -0.93      0.00
   11    9   17      1.68      0.00
   12    9   17     -1.05      0.00
   13    9   17      0.03      0.00
   -6   10   17     -0.74      0.00
   -5   10   17     -0.87      0.00
   -4   10   17      1.81      0.00
   -3   10   17      0.73      0.00
   -2   10   17     -3.29      0.00
   -1   10   17     -2.99      0.00
    0   10   17      7.84      0.00
    1   10   17     -3.18      0.00
    2   10   17     -3.38      0.00
    3   10   17      5.38      0.00
    4   10   17      2.48      0.00
    5   10   17     -2.55      0.00
    6   10   17      2.71      0.00
    7   10   17     -6.85      0.00
    8   10   17     -0.86      0.00
    9   10   17      6.00      0.00
   10   10   17     -3.34      0.00
   11   10   17     -1.26      0.00
   12   10   17      2.00      0.00
   13   10   17     -0.01      0.00
   -6   11   17      2.46      0.00
   -5   11   17     -1.91      0.00
   -4   11   17      4.97      0.00
   -3   11   17     -1.78      0.00
   -2   11   17     -2.77      0.00
   -1   11   17     -6.78      0.00
    0   11   17      7.11      0.00
    1   11   17     -0.91      0.00
    2   11   17     -1.61      0.00
    3   11   17      2.08      0.00
    4   11   17     -0.30      0.00
    5   11   17     -2.31      0.00
    6   11   17     -0.17      0.00
    7   11   17     -4.78      0.00
    8   11   17     -0.50      0.00
    9   11   17      1.59      0.00
   10   11   17     -4.72      0.00
   11   11   17      1.63      0.00
   12   11   17     -3.97      0.00
   13   11   17      1.36      0.00
   -5   12   17     -0.31      0.00
   -4   12   17      2.33      0.00
   -3   12   17     -3.91      0.00
   -2   12   17     -0.62      0.00
   -1   12   17      2.17      0.00
    0   12   17      0.70      0.00
    1   12   17      3.40      0.00
    2   12   17     -2.31      0.00
    3   12   17      3.05      0.00
    4   12   17      2.23      0.00
    5   12   17     -1.12      0.00
    6   12   17     -1.65      0.00
    7   12   17      4.61      0.00
    8   12   17      0.62      0.00
    9   12   17      2.63      0.00
   10   12   17      0.25      0.00
   11   12   17     -2.71      0.00
   12   12   17      1.86      0.00
   13   12   17     -0.93      0.00
   -5   13   17      0.19      0.00
   -4   13   17      2.95      0.00
   -3   13   17     -4.27      0.00
   -2   13   17     -1.91      0.00
   -1   13   17      4.22      0.00
    0   13   17      0.56      0.00
    1   13   17      5.28      0.00
    2   13   17     -5.55      0.00
    3   13   17      1.30      0.00
    4   13   17      5.51      0.00
    5   13   17      0.47      0.00
    6   13   17     -3.66      0.00
    7   13   17      3.72      0.00
    8   13   17      4.49      0.00
    9   13   17     -2.21      0.00
   10   13   17      2.94      0.00
   11   13   17     -4.93      0.00
   12   13   17      3.75      0.00
   -4   14   17     -1.98      0.00
   -3   14   17      3.44      0.00
   -2   14   17     -1.60      0.00
   -1   14   17     -1.61      0.00
    0   14   17      1.41      0.00
    1   14   17     -1.84      0.00
    2   14   17     -1.21      0.00
    3   14   17      0.68      0.00
    4   14   17     -2.28      0.00
    5   14   17      2.97      0.00
    6   14   17      2.52      0.00
    7   14   17     -2.94      0.00
    8   14   17     -0.09      0.00
    9   14   17     -1.85      0.00
   10   14   17      2.95      0.00
   11   14   17     -4.28      0.00
   12   14   17     -3.53      0.00
   -3   15   17     -0.06      0.00
   -2   15   17      1.62      0.00
   -1   15   17     -0.91      0.00
    0   15   17     -2.64      0.00
    1   15   17     -2.00      0.00
    2   15   17      0.12      0.00
    3   15   17      0.76      0.00
    4   15   17     -0.81      0.00
    5   15   17      0.26      0.00
    6   15   17     -0.63      0.00
    7   15   17      2.07      0.00
    8   15   17     -0.96      0.00
    9   15   17     -1.01      0.00
   10   15   17     -1.79      0.00
   11   15   17      2.99      0.00
   -2   16   17      2.98      0.00
   -1   16   17      0.24      0.00
    0   16   17     -1.96      0.00
    1   16   17     -0.32      0.00
    2   16   17     -0.03      0.00
    3   16   17     -0.77      0.00
    4   16   17     -1.52      0.00
    5   16   17      3.45      0.00
    6   16   17     -3.41      0.00
    7   16   17     -0.74      0.00
    8   16   17      0.75      0.00
    9   16   17      1.61      0.00
   10   16   17     -0.04      0.00
    0   17   17     -2.83      0.00
    1   17   17      0.61      0.00
    2   17   17      1.11      0.00
    3   17   17      0.27      0.00
    4   17   17      2.44      0.00
    5   17   17     -1.01      0.00
    6   17   17     -0.63      0.00
    7   17   17     -0.14      0.00
    8   17   17      0.36      0.00
    3   18   17     -0.81      0.00
    4   18   17      1.25      0.00
    5   18   17      0.88      0.00
   -1    0   18      0.72      0.00
    0    0   18      0.69      0.00
    1    0   18     -1.84      0.00
    2    0   18     -0.57      0.00
    3    0   18      4.15      0.00
   -2    1   18     -1.11      0.00
   -1    1   18     -1.47      0.00
    0    1   18      0.68      0.00
    1    1   18      1.26      0.00
    2    1   18      2.39      0.00
    3    1   18     -1.58      0.00
    4    1   18      1.12      0.00
    5    1   18      1.31      0.00
    6    1   18     -3.16      0.00
   -3    2   18      0.62      0.00
   -2    2   18      0.58      0.00
   -1    2   18     -0.09      0.00
    0    2   18      2.10      0.00
    1    2   18      1.42      0.00
    2    2   18      3.08      0.00
    3    2   18      2.65      0.00
    4    2   18      2.50      0.00
    5    2   18     -2.91      0.00
    6    2   18     -3.77      0.00
    7    2   18     -0.53      0.00
    8    2   18      3.64      0.00
   -4    3   18      1.52      0.00
   -3    3   18     -0.74      0.00
   -2    3   18      0.88      0.00
   -1    3   18     -1.37      0.00
    0    3   18      2.54      0.00
    1    3   18      4.76      0.00
    2    3   18      1.43      0.00
    3    3   18     -3.68      0.00
    4    3   18      1.92      0.00
    5    3   18     -0.53      0.00
    6    3   18      0.20      0.00
    7    3   18      0.47      0.00
    8    3   18     -0.38      0.00
    9    3   18     -0.07      0.00
   -5    4   18      0.91      0.00
   -4    4   18     -3.54      0.00
   -3    4   18      0.82      0.00
   -2    4   18     -0.54      0.00
   -1    4   18     -0.11      0.00
    0    4   18      3.34      0.00
    1    4   18     -2.16      0.00
    2    4   18      2.32      0.00
    3    4   18      0.10      0.00
    4    4   18     -2.14      0.00
    5    4   18     -3.66      0.00
    6    4   18      4.91      0.00
    7    4   18     -0.03      0.00
    8    4   18      0.94      0.00
    9    4   18      0.52      0.00
   10    4   18     -2.85      0.00
   -5    5   18     -0.88      0.00
   -4    5   18     -4.65      0.00
   -3    5   18     -1.24      0.00
   -2    5   18      0.57      0.00
   -1    5   18     -5.12      0.00
    0    5   18      1.35      0.00
    1    5   18      0.54      0.00
    2    5   18     -2.04      0.00
    3    5   18     -1.69      0.00
    4    5   18     -5.62      0.00
    5    5   18      0.99      0.00
    6    5   18     -0.14      0.00
    7    5   18     -2.19      0.00
    8    5   18     -3.67      0.00
    9    5   18     -0.13      0.00
   10    5   18      1.03      0.00
   11    5   18     -0.25      0.00
   -5    6   18     -0.41      0.00
   -4    6   18     -0.76      0.00
   -3    6   18      3.21      0.00
   -2    6   18     -0.60      0.00
   -1    6   18      0.86      0.00
    0    6   18     -0.32      0.00
    1    6   18     -2.83      0.00
    2    6   18      3.67      0.00
    3    6   18      3.87      0.00
    4    6   18     -5.29      0.00
    5    6   18     -0.05      0.00
    6    6   18     -3.06      0.00
    7    6   18      1.76      0.00
    8    6   18     -5.87      0.00
    9    6   18     -0.61      0.00
   10    6   18      0.66      0.00
   11    6   18      0.86      0.00
   -6    7   18     -2.47      0.00
   -5    7   18     -0.34      0.00
   -4    7   18      2.02      0.00
   -3    7   18      1.61      0.00
   -2    7   18     -2.86      0.00
   -1    7   18      3.62      0.00
    0    7   18      3.87      0.00
    1    7   18      2.48      0.00
    2    7   18      1.52      0.00
    3    7   18     -0.51      0.00
    4    7   18      2.23      0.00
    5    7   18      1.82      0.00
    6    7   18     -4.15      0.00
    7    7   18      3.14      0.00
    8    7   18      3.52      0.00
    9    7   18     -0.20      0.00
   10    7   18      2.59      0.00
   11    7   18     -1.81      0.00
   12    7   18     -1.44      0.00
   -6    8   18      1.75      0.00
   -5    8   18     -0.79      0.00
   -4    8   18     -0.68      0.00
   -3    8   18     -1.31      0.00
   -2    8   18     -1.05      0.00
   -1    8   18      1.25      0.00
    0    8   18     -1.03      0.00
    1    8   18      4.54      0.00
    2    8   18     -1.16      0.00
    3    8   18     -4.58      0.00
    4    8   18      0.71      0.00
    5    8   18     -3.04      0.00
    6    8   18     -1.02      0.00
    7    8   18      1.04      0.00
    8    8   18      1.99      0.00
    9    8   18      0.25      0.00
   10    8   18      1.66      0.00
   11    8   18      0.99      0.00
   12    8   18      0.76      0.00
   -5    9   18      3.55      0.00
   -4    9   18     -2.40      0.00
   -3    9   18     -1.21      0.00
   -2    9   18      4.26      0.00
   -1    9   18     -1.39      0.00
    0    9   18      1.04      0.00
    1    9   18      0.71      0.00
    2    9   18     -2.58      0.00
    3    9   18     -0.27      0.00
    4    9   18     -1.47      0.00
    5    9   18     -2.99      0.00
    6    9   18      0.64      0.00
    7    9   18      3.03      0.00
    8    9   18     -0.95      0.00
    9    9   18     -1.43      0.00
   10    9   18     -0.75      0.00
   11    9   18      2.08      0.00
   12    9   18     -1.11      0.00
   -5   10   18     -1.49      0.00
   -4   10   18      0.04      0.00
   -3   10   18     -1.06      0.00
   -2   10   18      5.14      0.00
   -1   10   18      2.08      0.00
    0   10   18     -0.23      0.00
    1   10   18     -0.95      0.00
    2   10   18     -1.71      0.00
    3   10   18      0.69      0.00
    4   10   18     -1.64      0.00
    5   10   18      1.56      0.00
    6   10   18      2.04      0.00
    7   10   18     -1.21      0.00
    8   10   18      1.25      0.00
    9   10   18      2.21      0.00
   10   10   18     -4.48      0.00
   11   10   18      3.34      0.00
   12   10   18      1.47      0.00
   -5   11   18     -0.38      0.00
   -4   11   18     -0.62      0.00
   -3   11   18     -1.60      0.00
   -2   11   18     -1.39      0.00
   -1   11   18      6.08      0.00
    0   11   18     -2.30      0.00
    1   11   18     -4.28      0.00
    2   11   18      3.39      0.00
    3   11   18     -2.74      0.00
    4   11   18     -1.65      0.00
    5   11   18      0.24      0.00
    6   11   18     -2.29      0.00
    7   11   18     -0.79      0.00
    8   11   18      0.44      0.00
    9   11   18     -4.12      0.00
   10   11   18      0.07      0.00
   11   11   18      0.42      0.00
   12   11   18     -0.71      0.00
   -4   12   18     -0.90      0.00
   -3   12   18      1.00      0.00
   -2   12   18     -3.01      0.00
   -1   12   18      4.05      0.00
    0   12   18     -4.17      0.00
    1   12   18     -1.43      0.00
    2   12   18      2.64      0.00
    3   12   18     -1.17      0.00
    4   12   18     -0.30      0.00
    5   12   18     -0.96      0.00
    6   12   18     -0.75      0.00
    7   12   18     -1.17      0.00
    8   12   18     -0.81      0.00
    9   12   18     -1.79      0.00
   10   12   18     -0.39      0.00
   11   12   18     -1.55      0.00
   12   12   18      2.05      0.00
   -4   13   18     -2.90      0.00
   -3   13   18      0.05      0.00
   -2   13   18      0.85      0.00
   -1   13   18      1.25      0.00
    0   13   18      0.94      0.00
    1   13   18     -2.29      0.00
    2   13   18      2.38      0.00
    3   13   18      2.75      0.00
    4   13   18      0.21      0.00
    5   13   18     -2.55      0.00
    6   13   18     -0.47      0.00
    7   13   18      5.20      0.00
    8   13   18      1.42      0.00
    9   13   18     -2.98      0.00
   10   13   18      3.77      0.00
   11   13   18     -0.66      0.00
   -3   14   18      2.51      0.00
   -2   14   18      0.25      0.00
   -1   14   18      0.58      0.00
    0   14   18      4.67      0.00
    1   14   18     -2.96      0.00
    2   14   18     -0.90      0.00
    3   14   18      2.27      0.00
    4   14   18     -2.30      0.00
    5   14   18      2.17      0.00
    6   14   18      1.98      0.00
    7   14   18     -1.75      0.00
    8   14   18      1.60      0.00
    9   14   18      1.14      0.00
   10   14   18     -1.58      0.00
   11   14   18      2.64      0.00
   -2   15   18     -1.04      0.00
   -1   15   18     -0.59      0.00
    0   15   18     -0.45      0.00
    1   15   18      2.65      0.00
    2   15   18     -2.07      0.00
    3   15   18      1.86      0.00
    4   15   18     -0.52      0.00
    5   15   18     -0.96      0.00
    6   15   18      3.41      0.00
    7   15   18      0.91      0.00
    8   15   18     -4.52      0.00
    9   15   18      1.42      0.00
   10   15   18     -1.58      0.00
    0   16   18     -3.00      0.00
    1   16   18      1.12      0.00
    2   16   18     -1.73      0.00
    3   16   18     -1.21      0.00
    4   16   18      2.41      0.00
    5   16   18     -0.06      0.00
    6   16   18      0.12      0.00
    7   16   18      0.73      0.00
    8   16   18      0.11      0.00
    3   17   18     -0.85      0.00
    4   17   18      1.93      0.00
    5   17   18     -4.35      0.00
    2    2   19     -0.72      0.00
    3    2   19      0.67      0.00
   -1    3   19      1.26      0.00
    0    3   19      1.86      0.00
    1    3   19      1.60      0.00
    2    3   19     -4.19      0.00
    3    3   19      0.09      0.00
    4    3   19      2.97      0.00
    5    3   19     -2.26      0.00
    6    3   19     -0.80      0.00
   -2    4   19      0.03      0.00
   -1    4   19      1.45      0.00
    0    4   19      0.17      0.00
    1    4   19     -0.85      0.00
    2    4   19      0.12      0.00
    3    4   19      0.37      0.00
    4    4   19     -1.88      0.00
    5    4   19      1.97      0.00
    6    4   19      1.12      0.00
    7    4   19      0.03      0.00
   -3    5   19     -0.78      0.00
   -2    5   19      0.83      0.00
   -1    5   19      0.02      0.00
    0    5   19      2.49      0.00
    1    5   19     -1.22      0.00
    2    5   19     -6.15      0.00
    3    5   19      1.93      0.00
    4    5   19     -1.28      0.00
    5    5   19      5.45      0.00
    6    5   19     -1.08      0.00
    7    5   19      0.16      0.00
    8    5   19      2.48      0.00
   -3    6   19     -0.30      0.00
   -2    6   19     -3.70      0.00
   -1    6   19     -1.95      0.00
    0    6   19     -2.47      0.00
    1    6   19     -2.56      0.00
    2    6   19     -0.29      0.00
    3    6   19     -4.05      0.00
    4    6   19     -2.76      0.00
    5    6   19      3.57      0.00
    6    6   19      0.48      0.00
    7    6   19     -3.67      0.00
    8    6   19     -2.04      0.00
    9    6   19      0.47      0.00
   -4    7   19      1.73      0.00
   -3    7   19      1.60      0.00
   -2    7   19      0.02      0.00
   -1    7   19      0.75      0.00
    0    7   19     -2.29      0.00
    1    7   19     -3.21      0.00
    2    7   19      0.79      0.00
    3    7   19      0.18      0.00
    4    7   19      2.71      0.00
    5    7   19     -1.63      0.00
    6    7   19      1.61      0.00
    7    7   19     -1.42      0.00
    8    7   19      0.19      0.00
    9    7   19     -1.84      0.00
   10    7   19     -0.13      0.00
   -4    8   19     -0.31      0.00
   -3    8   19     -3.27      0.00
   -2    8   19      2.13      0.00
   -1    8   19      0.61      0.00
    0    8   19     -1.66      0.00
    1    8   19      1.13      0.00
    2    8   19     -0.81      0.00
    3    8   19      2.79      0.00
    4    8   19      2.43      0.00
    5    8   19     -1.54      0.00
    6    8   19      1.61      0.00
    7    8   19      0.01      0.00
    8    8   19      0.36      0.00
    9    8   19      4.94      0.00
   10    8   19     -0.14      0.00
   -4    9   19     -0.27      0.00
   -3    9   19     -1.20      0.00
   -2    9   19      0.38      0.00
   -1    9   19     -2.26      0.00
    0    9   19      0.56      0.00
    1    9   19     -1.09      0.00
    2    9   19     -0.73      0.00
    3    9   19      2.94      0.00
    4    9   19     -1.11      0.00
    5    9   19     -3.85      0.00
    6    9   19      2.77      0.00
    7    9   19      2.62      0.00
    8    9   19     -2.62      0.00
    9    9   19      2.82      0.00
   10    9   19      0.73      0.00
   -3   10   19      2.92      0.00
   -2   10   19      1.92      0.00
   -1   10   19     -3.95      0.00
    0   10   19      1.77      0.00
    1   10   19     -0.01      0.00
    2   10   19     -0.37      0.00
    3   10   19      1.00      0.00
    4   10   19     -0.15      0.00
    5   10   19      1.11      0.00
    6   10   19      1.23      0.00
    7   10   19     -0.12      0.00
    8   10   19      3.74      0.00
    9   10   19      0.19      0.00
   10   10   19      0.13      0.00
   -3   11   19      2.63      0.00
   -2   11   19      1.88      0.00
   -1   11   19     -1.16      0.00
    0   11   19     -2.20      0.00
    1   11   19      0.81      0.00
    2   11   19      2.94      0.00
    3   11   19     -4.37      0.00
    4   11   19      1.01      0.00
    5   11   19      2.60      0.00
    6   11   19      2.70      0.00
    7   11   19      1.19      0.00
    8   11   19     -1.04      0.00
    9   11   19     -3.74      0.00
   10   11   19      4.69      0.00
   -2   12   19      0.37      0.00
   -1   12   19     -1.90      0.00
    0   12   19     -2.23      0.00
    1   12   19      0.51      0.00
    2   12   19      0.08      0.00
    3   12   19     -1.68      0.00
    4   12   19      1.15      0.00
    5   12   19     -0.02      0.00
    6   12   19     -0.22      0.00
    7   12   19     -2.70      0.00
    8   12   19      0.25      0.00
    9   12   19     -4.03      0.00
   10   12   19     -0.56      0.00
   -1   13   19     -4.01      0.00
    0   13   19     -0.25      0.00
    1   13   19      1.42      0.00
    2   13   19      1.10      0.00
    3   13   19      1.16      0.00
    4   13   19      0.28      0.00
    5   13   19     -1.70      0.00
    6   13   19     -1.44      0.00
    7   13   19     -0.69      0.00
    8   13   19     -1.74      0.00
    9   13   19      0.16      0.00
    0   14   19      0.13      0.00
    1   14   19     -0.43      0.00
    2   14   19      0.91      0.00
    3   14   19      1.50      0.00
    4   14   19     -0.51      0.00
    5   14   19      0.85      0.00
    6   14   19     -0.59      0.00
    7   14   19     -1.92      0.00
    8   14   19      1.24      0.00
    9   14   19      2.55      0.00
    1   15   19      1.55      0.00
    2   15   19      2.41      0.00
    3   15   19     -3.13      0.00
    4   15   19     -1.06      0.00
    5   15   19     -0.27      0.00
    6   15   19      1.69      0.00
    7   15   19      1.95      0.00
    3    5   20      4.28      0.00
    1    6   20     -0.36      0.00
    2    6   20      1.89      0.00
    3    6   20     -2.03      0.00
    4    6   20      4.25      0.00
    6    6   20     -0.24      0.00
    0    7   20     -0.72      0.00
    1    7   20      0.06      0.00
    2    7   20     -0.47      0.00
    3    7   20     -2.20      0.00
    4    7   20     -0.96      0.00
    5    7   20      0.25      0.00
    6    7   20     -0.79      0.00
    7    7   20     -2.16      0.00
   -1    8   20     -0.79      0.00
    0    8   20     -0.84      0.00
    1    8   20      3.42      0.00
    2    8   20     -0.43      0.00
    3    8   20      0.17      0.00
    4    8   20     -1.49      0.00
    5    8   20      0.41      0.00
    6    8   20     -0.85      0.00
    7    8   20     -1.43      0.00
   -1    9   20      0.50      0.00
    0    9   20     -0.12      0.00
    1    9   20      0.23      0.00
    2    9   20      1.70      0.00
    3    9   20     -0.08      0.00
    4    9   20      0.11      0.00
    5    9   20     -1.21      0.00
    6    9   20      0.56      0.00
    7    9   20     -3.10      0.00
    0   10   20      3.39      0.00
    1   10   20     -2.20      0.00
    2   10   20      1.50      0.00
    3   10   20     -1.76      0.00
    4   10   20     -0.59      0.00
    5   10   20     -0.51      0.00
    6   10   20     -2.59      0.00
    8   10   20      2.72      0.00
    0   11   20      2.12      0.00
    1   11   20      0.81      0.00
    2   11   20      0.24      0.00
    3   11   20     -1.25      0.00
    4   11   20     -0.19      0.00
    5   11   20      1.60      0.00
    6   11   20     -0.12      0.00
    7   11   20      0.73      0.00
    1   12   20      0.63      0.00
    2   12   20     -2.48      0.00
    3   12   20      0.36      0.00
    4   12   20      0.00      0.00
    5   12   20      1.14      0.00
    6   12   20      1.40      0.00
    7   12   20      0.26      0.00
    2   13   20     -2.39      0.00
    3   13   20      0.62      0.00
    4   13   20     -1.47      0.00
    5   13   20     -0.49      0.00
    6   13   20     -0.51      0.00
    1    0    0    -68.46      0.00
   10    0    0      1.26      0.00
   19    0    0     -0.07      0.00
  -19    1    0     -2.53      0.00
   10    1    0     -7.17      0.00
   19    1    0      0.75      0.00
   19    2    0     -0.26      0.00
   19    3    0      1.74      0.00
  -18    4    0     -1.93      0.00
   19    4    0     -1.74      0.00
   10    5    0     -4.21      0.00
   19    5    0      1.17      0.00
  -17    6    0     -0.32      0.00
  -16    6    0     -3.26      0.00
    1    6    0    -16.96      0.00
    8    6    0     -8.80      0.00
  -15    7    0      3.03      0.00
  -14    7    0      1.55      0.00
   -3    7    0     -0.16      0.00
    8    7    0      3.13      0.00
  -16    8    0     -2.56      0.00
  -14    8    0      1.13      0.00
  -13    8    0      5.68      0.00
  -12    8    0      1.63      0.00
   18    8    0     -0.76      0.00
    6    9    0     -1.21      0.00
    3   10    0      1.22      0.00
   17   10    0     -0.10      0.00
  -13   12    0      1.13      0.00
   -9   12    0     -1.52      0.00
   -6   12    0      1.01      0.00
   15   13    0      0.65      0.00
  -10   14    0     -0.39      0.00
   14   14    0      0.12      0.00
   -9   15    0      1.72      0.00
   -7   16    0      0.10      0.00
   11   16    0      0.15      0.00
   -5   17    0      2.16      0.00
   -4   17    0     -0.93      0.00
    8   17    0     -0.20      0.00
    9   17    0      1.82      0.00
   -1   18    0      1.15      0.00
    0   18    0     -0.25      0.00
    1   18    0      1.40      0.00
    2   18    0     -0.37      0.00
    3   18    0     -2.06      0.00
    4   18    0      0.49      0.00
    5   18    0      0.36      0.00
   -7  -17    1      0.86      0.00
   -6  -17    1     -1.39      0.00
    3  -17    1      0.67      0.00
  -10  -16    1      0.75      0.00
    6  -16    1      1.45      0.00
    8  -15    1      1.15      0.00
  -13  -14    1     -0.85      0.00
   10  -14    1      0.92      0.00
  -14  -13    1      2.28      0.00
   11  -13    1      1.56      0.00
  -15  -12    1      1.33      0.00
  -16  -11    1     -0.50      0.00
    6  -11    1      0.64      0.00
  -17   -9    1      0.82      0.00
    8   -9    1     -0.78      0.00
   11   -9    1      1.71      0.00
   15   -9    1      0.16      0.00
    9   -8    1     -1.49      0.00
   16   -8    1     -0.37      0.00
  -18   -7    1     -1.34      0.00
    3   -7    1     -7.14      0.00
   -9   -6    1      3.26      0.00
    2   -6    1     -1.32      0.00
    3   -6    1    -14.50      0.00
   17   -6    1     -0.14      0.00
   16   -5    1      6.32      0.00
   -9   -4    1     -1.26      0.00
   18   -4    1     -1.93      0.00
  -19   -3    1      0.45      0.00
  -19   -2    1     -0.22      0.00
  -19   -1    1      1.44      0.00
   19   -1    1      0.18      0.00
  -19    0    1     -1.84      0.00
  -11    0    1      3.95      0.00
   19    0    1      1.43      0.00
  -11    1    1     -8.10      0.00
   -1    1    1     89.29      0.00
   19    1    1      1.04      0.00
   19    3    1      2.01      0.00
  -18    4    1      1.20      0.00
   19    4    1      1.17      0.00
   19    5    1     -1.04      0.00
  -17    6    1      2.56      0.00
   19    6    1      0.43      0.00
  -16    8    1      0.62      0.00
  -14    8    1      2.56      0.00
  -13    8    1     -4.72      0.00
  -10    8    1      3.68      0.00
   18    8    1      0.85      0.00
  -11    9    1      0.42      0.00
  -10    9    1     -2.31      0.00
    5    9    1     -2.04      0.00
    7    9    1     -2.85      0.00
   18    9    1     -2.23      0.00
  -11   10    1      0.46      0.00
   -2   10    1    -11.60      0.00
    3   10    1     -2.46      0.00
   17   10    1      0.77      0.00
  -14   11    1      0.48      0.00
   17   11    1     -1.88      0.00
  -13   12    1     -0.67      0.00
   16   12    1      1.65      0.00
  -12   13    1     -0.20      0.00
  -10   13    1      2.44      0.00
   15   13    1      0.05      0.00
  -11   14    1      3.84      0.00
   -9   15    1     -0.71      0.00
   13   15    1     -1.44      0.00
   -8   16    1     -0.36      0.00
   12   16    1     -0.91      0.00
   -5   17    1     -0.24      0.00
   10   17    1     -0.31      0.00
   -3   18    1      1.00      0.00
   -2   18    1     -1.48      0.00
    6   18    1      1.47      0.00
    7   18    1      0.16      0.00
   -5  -17    2      2.28      0.00
   -4  -17    2     -0.89      0.00
   -3  -17    2     -2.92      0.00
   -2  -17    2      2.41      0.00
   -1  -17    2      0.56      0.00
    0  -17    2     -0.95      0.00
    1  -17    2      0.78      0.00
   -8  -16    2      0.71      0.00
    4  -16    2      1.71      0.00
    5  -16    2     -2.11      0.00
    7  -15    2     -1.00      0.00
  -12  -14    2      0.50      0.00
    9  -14    2      0.28      0.00
  -13  -13    2      1.11      0.00
   12  -12    2      1.87      0.00
  -15  -11    2      0.89      0.00
   13  -11    2      0.87      0.00
  -16  -10    2      0.92      0.00
   14  -10    2     -0.55      0.00
   15   -9    2      2.24      0.00
  -17   -8    2     -1.19      0.00
   -6   -8    2     -0.71      0.00
    8   -8    2      1.27      0.00
   10   -8    2      2.71      0.00
   11   -8    2      1.43      0.00
   13   -8    2     -1.33      0.00
   -7   -7    2     -1.97      0.00
   14   -7    2      1.71      0.00
  -18   -6    2      1.70      0.00
    2   -6    2     -3.64      0.00
   17   -6    2      1.14      0.00
  -18   -5    2      1.55      0.00
   -8   -5    2      0.49      0.00
   -7   -5    2      3.33      0.00
    1   -5    2      2.94      0.00
   -9   -4    2      5.78      0.00
   -8   -4    2     -7.85      0.00
   18   -4    2     -0.70      0.00
   -9   -3    2      2.28      0.00
  -10   -2    2      0.88      0.00
   19   -1    2      0.70      0.00
   19    0    2      0.33      0.00
   10    1    2      9.58      0.00
  -18    3    2     -2.03      0.00
  -18    4    2     -0.17      0.00
   10    4    2     -0.72      0.00
   19    5    2     -2.40      0.00
  -17    6    2      0.11      0.00
   -8    6    2     -7.49      0.00
    4    6    2      8.76      0.00
   10    6    2     -3.36      0.00
   19    6    2      2.56      0.00
  -16    7    2     -2.00      0.00
   19    7    2     -0.02      0.00
  -16    8    2      0.21      0.00
  -15    8    2     -1.41      0.00
  -12    8    2     -3.83      0.00
  -11    8    2      3.38      0.00
   -5    8    2     -1.97      0.00
    8    8    2     -0.30      0.00
  -12    9    2      2.72      0.00
  -11    9    2      4.22      0.00
  -10    9    2      0.46      0.00
   -8    9    2     -0.62      0.00
    5    9    2     -1.87      0.00
   18    9    2      0.44      0.00
  -15   10    2     -1.40      0.00
  -12   10    2      1.82      0.00
   -9   10    2      1.17      0.00
   -8   10    2     -1.69      0.00
   -3   10    2      2.50      0.00
   -2   10    2      6.13      0.00
  -14   11    2     -2.31      0.00
   17   11    2      2.32      0.00
  -13   12    2      0.25      0.00
  -12   13    2      1.37      0.00
  -10   13    2     -0.17      0.00
   -9   13    2      0.15      0.00
   -8   13    2      0.80      0.00
   16   13    2     -2.58      0.00
  -11   14    2      1.23      0.00
   15   14    2     -0.77      0.00
  -10   15    2     -1.93      0.00
   14   15    2      1.84      0.00
   -8   16    2      1.59      0.00
   -6   17    2     -2.01      0.00
   11   17    2      1.63      0.00
   -4   18    2      1.23      0.00
    8   18    2      0.63      0.00
    9   18    2      0.41      0.00
    1   19    2      1.26      0.00
    2   19    2     -0.78      0.00
    3   19    2      0.02      0.00
    4   19    2     -0.50      0.00
   -6  -16    3      0.10      0.00
    3  -16    3     -1.98      0.00
   -9  -15    3     -0.18      0.00
    6  -15    3     -0.06      0.00
  -11  -14    3      0.47      0.00
    8  -14    3      0.88      0.00
   10  -13    3      0.79      0.00
   11  -12    3     -0.66      0.00
  -16   -9    3      1.04      0.00
    2   -9    3      5.34      0.00
    1   -8    3     -0.87      0.00
    8   -8    3     -0.25      0.00
    9   -8    3     -2.72      0.00
   10   -8    3     -0.02      0.00
   11   -8    3     -3.64      0.00
  -17   -7    3     -1.42      0.00
   -6   -7    3      1.69      0.00
   10   -7    3     -1.86      0.00
   13   -7    3     -5.84      0.00
   14   -7    3     -0.20      0.00
   16   -7    3     -1.79      0.00
  -18   -4    3     -1.69      0.00
   -7   -4    3      3.48      0.00
  -18   -3    3     -1.37      0.00
   -8   -3    3     -0.18      0.00
   18   -3    3      0.65      0.00
  -18   -2    3      0.46      0.00
    9   -2    3     13.77      0.00
   -9   -1    3     -3.35      0.00
   19   -1    3      0.45      0.00
   -8    0    3     -7.24      0.00
    0    0    3     38.69      0.00
   19    0    3      0.05      0.00
   11    1    3      1.03      0.00
  -18    2    3     -0.95      0.00
  -10    2    3     -1.01      0.00
  -18    3    3      0.56      0.00
   -9    5    3     -3.95      0.00
    0    5    3     -8.41      0.00
  -17    6    3     -0.42      0.00
  -15    7    3     -0.68      0.00
   19    7    3      0.37      0.00
  -16    8    3     -1.15      0.00
    9    8    3     -2.00      0.00
  -11    9    3      0.95      0.00
  -10    9    3     -5.40      0.00
   -9    9    3      1.07      0.00
    7    9    3     -0.12      0.00
    9    9    3      1.67      0.00
  -15   10    3      0.64      0.00
  -11   10    3     -1.09      0.00
   -9   10    3      0.05      0.00
   -8   10    3      0.25      0.00
   -7   10    3      0.34      0.00
   18   10    3     -2.42      0.00
  -14   11    3     -1.65      0.00
   17   12    3     -1.27      0.00
  -11   13    3     -0.66      0.00
  -10   13    3      1.39      0.00
   -9   13    3     -0.91      0.00
   16   13    3     -0.29      0.00
  -10   15    3      0.07      0.00
   13   16    3      0.93      0.00
   -7   17    3      1.12      0.00
   12   17    3      0.51      0.00
   -5   18    3     -0.39      0.00
   -4   18    3     -0.59      0.00
   10   18    3      0.23      0.00
   -1   19    3     -1.22      0.00
    0   19    3      1.05      0.00
    5   19    3      0.13      0.00
    6   19    3      0.11      0.00
    7   19    3      2.03      0.00
   -3  -16    4      0.61      0.00
   -2  -16    4     -0.70      0.00
   -1  -16    4     -0.84      0.00
    0  -16    4      1.97      0.00
   -7  -15    4      1.83      0.00
    4  -15    4     -0.98      0.00
    5  -15    4      0.77      0.00
  -10  -14    4     -0.92      0.00
    7  -14    4     -0.57      0.00
  -11  -13    4     -0.43      0.00
    9  -13    4     -0.24      0.00
   12  -11    4     -0.18      0.00
   13  -10    4      1.74      0.00
   14   -9    4      0.63      0.00
  -16   -8    4      0.30      0.00
   15   -8    4      0.65      0.00
   12   -7    4     -2.41      0.00
  -17   -6    4     -1.33      0.00
   15   -6    4      1.93      0.00
   15   -5    4     -3.16      0.00
   17   -5    4     -0.11      0.00
   -8   -4    4      6.25      0.00
   -6   -3    4     -0.30      0.00
   18   -3    4     -0.77      0.00
  -18   -2    4      1.36      0.00
  -10   -2    4      3.47      0.00
  -18   -1    4     -0.54      0.00
   -8   -1    4      0.32      0.00
  -18    0    4     -1.34      0.00
  -10    0    4     -3.03      0.00
    3    0    4     14.44      0.00
   19    0    4      0.12      0.00
  -18    1    4      2.48      0.00
  -10    1    4     -0.56      0.00
   19    1    4      1.46      0.00
  -18    2    4      0.77      0.00
   -9    3    4      7.69      0.00
   11    3    4     -1.34      0.00
   -9    4    4     -1.60      0.00
   11    4    4     -6.53      0.00
  -17    5    4     -0.25      0.00
   -1    5    4    -10.18      0.00
  -17    6    4      1.57      0.00
   -7    6    4     -6.70      0.00
  -14    7    4      1.12      0.00
    9    7    4     -1.87      0.00
   19    7    4     -0.29      0.00
  -16    8    4      0.23      0.00
  -14    8    4     -1.59      0.00
   10    8    4      0.31      0.00
   19    8    4     -2.97      0.00
  -14    9    4      2.10      0.00
   -3    9    4     -6.29      0.00
    8    9    4     -5.09      0.00
    9    9    4     -2.15      0.00
  -15   10    4     -0.04      0.00
  -14   11    4      1.91      0.00
    2   11    4      2.86      0.00
    4   11    4     -2.09      0.00
   17   12    4      2.18      0.00
  -11   13    4      1.78      0.00
  -10   13    4     -0.62      0.00
   16   14    4     -0.73      0.00
  -10   15    4     -2.62      0.00
   15   15    4     -1.33      0.00
   -9   16    4     -1.14      0.00
   14   16    4      1.21      0.00
   -7   17    4     -0.40      0.00
   12   17    4      1.56      0.00
   -5   18    4      0.12      0.00
   10   18    4     -1.30      0.00
   -2   19    4      0.33      0.00
    7   19    4     -2.19      0.00
    8   19    4      0.42      0.00
   -5  -15    5     -0.40      0.00
   -4  -15    5      1.14      0.00
    2  -15    5      1.54      0.00
   -8  -14    5      0.34      0.00
    6  -14    5     -2.73      0.00
  -10  -13    5      1.15      0.00
    8  -13    5     -0.10      0.00
   10  -12    5     -2.84      0.00
  -13  -11    5     -1.11      0.00
   11  -11    5      0.15      0.00
  -14  -10    5     -1.57      0.00
  -16   -7    5     -1.35      0.00
   16   -6    5      0.76      0.00
   -7   -5    5     -1.70      0.00
  -17   -4    5     -0.17      0.00
   -8   -4    5     -1.67      0.00
   18   -2    5     -1.69      0.00
   19    0    5      1.92      0.00
   19    1    5     -1.08      0.00
   -9    4    5     -2.46      0.00
  -17    5    5     -2.33      0.00
   -6    6    5     -1.77      0.00
    0    6    5      2.68      0.00
   10    6    5      6.31      0.00
   -1    7    5      0.41      0.00
    9    7    5      1.87      0.00
   19    7    5      1.55      0.00
  -16    8    5      2.00      0.00
  -14    8    5      2.93      0.00
   -2    8    5      2.75      0.00
    9    8    5      2.12      0.00
   19    8    5      0.19      0.00
  -12    9    5      1.19      0.00
  -11    9    5      0.28      0.00
  -10    9    5     -2.86      0.00
   -9    9    5     -3.52      0.00
   -4    9    5      6.13      0.00
  -11   10    5     -0.32      0.00
   -3   10    5      4.77      0.00
  -14   11    5     -0.05      0.00
   -1   11    5     -5.98      0.00
   18   11    5     -0.84      0.00
  -13   12    5      2.80      0.00
   17   13    5      0.99      0.00
   16   14    5     -0.44      0.00
   15   15    5     -0.52      0.00
   -9   16    5     -2.56      0.00
   14   16    5     -0.54      0.00
   13   17    5      0.61      0.00
   -6   18    5      0.84      0.00
   11   18    5      1.25      0.00
   -3   19    5     -1.57      0.00
    9   19    5     -0.04      0.00
    1   20    5     -0.21      0.00
    2   20    5      0.75      0.00
    3   20    5     -0.15      0.00
    4   20    5     -0.80      0.00
    5   20    5     -0.45      0.00
   -6  -14    6     -0.25      0.00
   -5  -14    6      0.20      0.00
    3  -14    6      2.19      0.00
    4  -14    6     -0.75      0.00
   -8  -13    6     -0.20      0.00
    6  -13    6     -1.31      0.00
    7  -13    6      0.48      0.00
  -10  -12    6     -0.29      0.00
    9  -12    6      2.03      0.00
   10  -11    6     -1.18      0.00
  -13  -10    6      0.90      0.00
   12  -10    6     -1.31      0.00
   13   -9    6     -0.81      0.00
   14   -8    6      0.02      0.00
  -15   -7    6      0.27      0.00
  -14   -7    6     -1.44      0.00
    1   -7    6      4.48      0.00
   15   -7    6      1.04      0.00
  -16   -5    6      0.87      0.00
   -4   -5    6     -2.79      0.00
   -3   -5    6     -3.78      0.00
    0   -5    6      1.89      0.00
   -5   -4    6      4.16      0.00
   17   -4    6      0.26      0.00
  -17   -2    6     -0.47      0.00
   -8   -2    6      3.90      0.00
   18   -2    6     -0.32      0.00
  -17   -1    6     -0.84      0.00
   18   -1    6     -0.31      0.00
  -17    0    6     -1.58      0.00
    9    1    6     12.05      0.00
   19    1    6     -0.29      0.00
  -17    2    6      1.46      0.00
   -9    2    6      4.10      0.00
    9    2    6      3.44      0.00
   19    2    6      0.35      0.00
  -17    3    6      0.75      0.00
   19    3    6     -2.31      0.00
  -17    4    6     -1.45      0.00
   -7    4    6      5.21      0.00
   -5    6    6      5.50      0.00
  -16    7    6     -1.48      0.00
   -2    7    6     -8.90      0.00
   19    7    6     -1.04      0.00
   19    8    6     -1.54      0.00
  -15    9    6     -0.37      0.00
   -4    9    6      5.58      0.00
  -10   10    6     -3.05      0.00
  -14   11    6     -1.04      0.00
   18   11    6     -1.62      0.00
  -13   12    6      1.62      0.00
   17   13    6      0.57      0.00
   16   14    6      0.82      0.00
   -9   16    6     -1.32      0.00
   -8   17    6     -0.47      0.00
   13   17    6      1.10      0.00
   -6   18    6     -0.50      0.00
   12   18    6      2.49      0.00
   -4   19    6      1.06      0.00
   -3   19    6     -0.02      0.00
    9   19    6     -0.89      0.00
   10   19    6      1.18      0.00
    0   20    6      0.94      0.00
    1   20    6     -2.10      0.00
    2   20    6     -0.48      0.00
    3   20    6      1.12      0.00
    4   20    6     -0.46      0.00
    5   20    6     -1.39      0.00
    6   20    6      1.28      0.00
   -6  -13    7     -0.09      0.00
    4  -13    7      0.22      0.00
    5  -13    7     -0.85      0.00
   -9  -12    7     -0.04      0.00
    7  -12    7     -0.99      0.00
  -10  -11    7      1.58      0.00
    9  -11    7     -2.41      0.00
   11  -10    7     -1.77      0.00
   12   -9    7      0.66      0.00
  -14   -7    7      0.47      0.00
  -15   -6    7      0.81      0.00
   15   -6    7     -2.66      0.00
   16   -5    7     -0.62      0.00
  -16   -4    7      0.05      0.00
   -1   -4    7      2.45      0.00
  -16   -3    7     -0.27      0.00
   -6   -3    7      1.45      0.00
   -5   -3    7      3.30      0.00
   -2   -3    7      6.89      0.00
   17   -3    7      0.02      0.00
   18   -1    7      0.97      0.00
   18    0    7     -0.61      0.00
   18    1    7      3.03      0.00
   19    2    7     -1.11      0.00
   19    3    7     -3.52      0.00
   -8    4    7     -2.42      0.00
   19    4    7      1.42      0.00
   19    5    7     -0.73      0.00
  -16    6    7     -0.62      0.00
   -1    6    7      2.93      0.00
   19    6    7     -0.41      0.00
   -5    7    7     -6.47      0.00
   -1    7    7     -2.32      0.00
   19    7    7     -0.56      0.00
   -5    8    7      0.52      0.00
   19    8    7     -0.75      0.00
  -15    9    7     -1.25      0.00
   18   11    7     -0.88      0.00
  -13   12    7     -2.67      0.00
  -12   13    7     -1.77      0.00
   17   13    7     -1.03      0.00
   16   14    7      1.86      0.00
   -9   16    7      0.45      0.00
   -8   17    7     -0.63      0.00
   -6   18    7      0.03      0.00
   12   18    7     -0.33      0.00
   -4   19    7      0.67      0.00
   10   19    7     -1.34      0.00
   -1   20    7     -2.05      0.00
    0   20    7      0.15      0.00
    1   20    7     -0.88      0.00
    2   20    7      1.15      0.00
    3   20    7     -0.05      0.00
    6   20    7     -0.12      0.00
    7   20    7     -0.40      0.00
   -3  -13    8      1.29      0.00
   -2  -13    8      0.51      0.00
   -1  -13    8     -0.61      0.00
    0  -13    8      0.00      0.00
    1  -13    8     -0.10      0.00
    2  -13    8      0.97      0.00
   -7  -12    8     -1.08      0.00
   -6  -12    8      0.79      0.00
    5  -12    8      0.53      0.00
    6  -12    8     -0.18      0.00
   -9  -11    8     -0.17      0.00
   -8  -11    8     -0.69      0.00
    8  -11    8     -1.27      0.00
  -10  -10    8     -0.79      0.00
   10  -10    8     -0.05      0.00
   11   -9    8     -0.49      0.00
  -14   -6    8      0.00      0.00
   15   -5    8      0.13      0.00
  -15   -4    8      0.33      0.00
   16   -4    8      0.53      0.00
   -5   -3    8     -0.38      0.00
   -1   -3    8     -5.37      0.00
    0   -3    8     -9.79      0.00
   -5   -2    8      1.49      0.00
   -4   -2    8     -5.93      0.00
   -3   -2    8      2.04      0.00
   -1   -2    8      3.34      0.00
   17   -2    8      1.29      0.00
  -16   -1    8     -0.63      0.00
   -5   -1    8     -9.41      0.00
   -4   -1    8      8.14      0.00
   -3   -1    8     -1.23      0.00
   17   -1    8      1.70      0.00
  -16    0    8     -0.34      0.00
   17    0    8     -2.00      0.00
   18    0    8      0.14      0.00
  -16    1    8      0.76      0.00
   -7    1    8     -5.49      0.00
    8    1    8    -13.26      0.00
   17    1    8      0.89      0.00
   18    1    8     -1.78      0.00
    8    2    8      6.98      0.00
   18    2    8      0.05      0.00
  -16    3    8      0.33      0.00
   -7    3    8      4.49      0.00
   19    3    8      3.04      0.00
  -16    4    8      0.00      0.00
   19    4    8      2.85      0.00
  -16    5    8      2.35      0.00
   19    5    8     -0.15      0.00
   -4    6    8     -2.64      0.00
   19    6    8     -2.21      0.00
   19    7    8     -1.83      0.00
  -15    8    8      1.32      0.00
   -5    8    8     -0.41      0.00
   -3    8    8      6.05      0.00
   19    8    8      1.50      0.00
  -14   10    8     -0.80      0.00
   -2   10    8      2.45      0.00
    2   10    8     10.50      0.00
   16   11    8      0.59      0.00
   18   11    8      1.65      0.00
  -13   12    8     -1.89      0.00
  -12   13    8     -0.34      0.00
   17   13    8     -0.05      0.00
  -11   14    8     -2.10      0.00
  -10   15    8      1.67      0.00
   -9   16    8      0.49      0.00
   15   16    8     -1.84      0.00
   -8   17    8     -0.63      0.00
   14   17    8     -1.63      0.00
   -6   18    8     -1.25      0.00
   12   18    8     -1.57      0.00
   -4   19    8      1.09      0.00
   10   19    8      0.02      0.00
   -1   20    8      0.03      0.00
    0   20    8     -0.03      0.00
    1   20    8     -0.63      0.00
    7   20    8     -0.77      0.00
    8   20    8     -0.41      0.00
   -3  -12    9      0.31      0.00
   -2  -12    9      1.14      0.00
   -1  -12    9      0.22      0.00
    0  -12    9      0.77      0.00
    1  -12    9     -0.30      0.00
    2  -12    9      0.72      0.00
    3  -12    9      0.06      0.00
   -7  -11    9      0.00      0.00
   -6  -11    9      0.82      0.00
    6  -11    9     -1.77      0.00
   -9  -10    9     -0.15      0.00
   -8  -10    9      0.36      0.00
    8  -10    9     -1.12      0.00
  -10   -9    9     -0.92      0.00
   10   -9    9     -0.93      0.00
  -11   -8    9     -0.64      0.00
  -12   -7    9      0.64      0.00
  -13   -6    9      0.95      0.00
  -14   -4    9     -0.65      0.00
   15   -4    9      1.15      0.00
   16   -3    9     -0.70      0.00
  -15   -2    9      0.04      0.00
    0   -2    9     -0.73      0.00
    2   -2    9     -6.26      0.00
   16   -2    9     -2.41      0.00
   -5   -1    9    -11.72      0.00
   17   -1    9     -1.10      0.00
   -6    0    9     -3.53      0.00
   -3    0    9     -5.99      0.00
   17    0    9      0.30      0.00
   -6    1    9      5.55      0.00
   -4    1    9     -5.39      0.00
   17    1    9     -1.50      0.00
   18    1    9     -1.61      0.00
   -6    2    9      0.17      0.00
    7    2    9     -6.80      0.00
   17    2    9     -0.44      0.00
   18    2    9     -0.32      0.00
   -6    3    9      2.12      0.00
   -5    3    9     -2.37      0.00
   -2    3    9      3.45      0.00
   18    3    9     -1.10      0.00
   -6    4    9     -8.56      0.00
   -6    5    9     -3.61      0.00
  -15    6    9     -2.20      0.00
   -2    6    9     -0.46      0.00
   19    6    9     -0.59      0.00
  -15    7    9      0.17      0.00
   -2    7    9     -0.09      0.00
   -3    8    9      0.99      0.00
   -2    8    9     -3.92      0.00
   -1    8    9     -4.39      0.00
    0    8    9      6.07      0.00
    1    8    9      3.40      0.00
  -14    9    9     -0.05      0.00
   -1    9    9     -2.28      0.00
    3    9    9     -2.69      0.00
    5    9    9      4.09      0.00
  -13   11    9      0.10      0.00
   18   11    9      4.33      0.00
  -12   13    9      1.03      0.00
   17   13    9      1.80      0.00
  -11   14    9      2.02      0.00
  -10   15    9      0.34      0.00
   16   15    9      1.41      0.00
   -9   16    9     -1.29      0.00
   15   16    9      0.89      0.00
   14   17    9     -2.29      0.00
   -6   18    9     -0.36      0.00
   12   18    9      0.80      0.00
   -4   19    9      0.65      0.00
   10   19    9     -0.08      0.00
   11   19    9     -0.03      0.00
   -1   20    9     -0.88      0.00
    0   20    9      0.79      0.00
    7   20    9      0.22      0.00
    8   20    9      0.11      0.00
   -4  -11   10      0.17      0.00
   -3  -11   10     -0.53      0.00
   -2  -11   10      0.37      0.00
    0  -11   10      1.18      0.00
    1  -11   10     -0.50      0.00
    2  -11   10      0.77      0.00
    3  -11   10      0.45      0.00
   -6  -10   10     -0.34      0.00
    6  -10   10      0.23      0.00
   -8   -9   10      0.22      0.00
    9   -9   10      0.59      0.00
  -10   -8   10      1.33      0.00
   10   -8   10     -1.54      0.00
  -11   -7   10     -0.86      0.00
  -12   -6   10      0.85      0.00
   13   -6   10      1.15      0.00
   14   -5   10      2.12      0.00
  -13   -4   10      1.43      0.00
  -14   -3   10     -0.19      0.00
   15   -3   10     -0.16      0.00
   16   -2   10     -0.79      0.00
   16   -1   10      1.32      0.00
    0    0   10     -6.32      0.00
   17    0   10      1.11      0.00
  -15    1   10     -1.74      0.00
   -4    1   10      2.04      0.00
   17    1   10      2.59      0.00
  -15    2   10      0.10      0.00
   -5    2   10      1.35      0.00
   17    2   10      1.62      0.00
   18    2   10     -0.64      0.00
  -15    3   10      0.87      0.00
   -3    3   10      1.75      0.00
    7    3   10      1.93      0.00
   17    3   10      2.42      0.00
   18    3   10     -3.02      0.00
  -15    4   10      1.30      0.00
   -5    4   10      5.44      0.00
   -3    4   10      6.61      0.00
   18    4   10      1.79      0.00
  -15    5   10     -1.87      0.00
   -5    5   10      0.31      0.00
   -3    5   10     -1.61      0.00
   -2    5   10      0.08      0.00
   18    5   10      0.24      0.00
   -5    6   10     -3.15      0.00
   -3    6   10     -5.56      0.00
   -1    6   10     -9.46      0.00
   18    6   10      0.19      0.00
   -3    7   10     -4.10      0.00
   -1    7   10    -11.92      0.00
    4    7   10     -3.55      0.00
    6    7   10      1.51      0.00
    7    7   10     -0.47      0.00
  -14    8   10      2.04      0.00
   -2    8   10      6.67      0.00
    2    8   10     -5.09      0.00
    3    8   10      6.08      0.00
   18    8   10      0.73      0.00
    2    9   10      4.55      0.00
    4    9   10      0.40      0.00
   18    9   10     -0.31      0.00
   18   10   10      0.55      0.00
   18   11   10     -2.29      0.00
  -12   12   10     -0.22      0.00
   17   13   10     -1.88      0.00
   15   16   10     -1.07      0.00
   -7   17   10      0.88      0.00
   14   17   10      0.53      0.00
   -6   18   10     -0.62      0.00
   12   18   10      0.62      0.00
   -4   19   10     -0.50      0.00
   11   19   10      0.01      0.00
   -1   20   10      0.64      0.00
    0   20   10     -0.69      0.00
    7   20   10      0.29      0.00
    8   20   10     -0.61      0.00
   -3  -10   11     -0.36      0.00
   -2  -10   11     -0.54      0.00
    2  -10   11      0.14      0.00
    3  -10   11     -0.12      0.00
    4  -10   11      1.17      0.00
   -6   -9   11     -1.72      0.00
    7   -9   11     -1.95      0.00
   -8   -8   11     -0.57      0.00
    9   -8   11      1.20      0.00
   -9   -7   11     -0.75      0.00
   12   -6   11     -1.85      0.00
   13   -5   11     -0.92      0.00
  -12   -4   11     -0.22      0.00
   14   -4   11     -0.87      0.00
  -13   -3   11     -0.68      0.00
  -13   -2   11      1.36      0.00
   15   -2   11     -0.94      0.00
   15   -1   11      0.14      0.00
   16   -1   11      0.96      0.00
  -14    0   11     -1.19      0.00
   16    0   11      0.32      0.00
  -14    1   11      1.09      0.00
    3    1   11      1.12      0.00
    4    1   11      4.20      0.00
   16    1   11     -1.35      0.00
   17    1   11      1.17      0.00
    1    2   11     -0.44      0.00
    2    2   11     -5.82      0.00
    4    2   11      1.63      0.00
   16    2   11      0.40      0.00
   17    2   11     -0.86      0.00
    1    3   11      5.50      0.00
   17    3   11     -1.54      0.00
   18    4   11      0.63      0.00
  -14    5   11      2.55      0.00
   -4    5   11      2.86      0.00
    1    5   11      8.81      0.00
   18    5   11     -2.60      0.00
  -14    6   11     -3.64      0.00
   18    6   11     -0.83      0.00
  -14    7   11     -1.98      0.00
    3    7   11      1.89      0.00
   18    7   11     -1.55      0.00
    3    8   11      0.43      0.00
   18    8   11      1.54      0.00
  -13    9   11     -0.90      0.00
   18    9   11     -0.30      0.00
  -13   10   11     -0.54      0.00
   18   10   11      1.14      0.00
   17   12   11      1.43      0.00
  -11   13   11      0.08      0.00
  -10   14   11      0.96      0.00
   16   14   11     -2.29      0.00
   -9   15   11     -1.19      0.00
   -8   16   11     -2.23      0.00
   -7   17   11     -0.24      0.00
   12   18   11     -0.12      0.00
   -3   19   11     -0.01      0.00
   10   19   11     -0.46      0.00
   11   19   11      1.06      0.00
   -1   20   11     -0.20      0.00
    0   20   11      0.87      0.00
    7   20   11     -0.76      0.00
    8   20   11     -0.69      0.00
   -3   -9   12     -1.12      0.00
   -2   -9   12      0.71      0.00
   -1   -9   12     -1.13      0.00
    0   -9   12      0.38      0.00
    1   -9   12      0.59      0.00
    2   -9   12      0.15      0.00
    3   -9   12      0.34      0.00
    4   -9   12     -0.07      0.00
   -6   -8   12      0.25      0.00
    6   -8   12      1.04      0.00
    7   -8   12      0.42      0.00
   -8   -7   12     -1.88      0.00
    9   -7   12      0.82      0.00
   -9   -6   12     -0.88      0.00
   10   -6   12     -0.67      0.00
  -10   -5   12     -0.58      0.00
  -11   -4   12      0.66      0.00
   13   -4   12      0.80      0.00
  -12   -2   12      2.01      0.00
   14   -2   12      0.94      0.00
   15   -1   12      1.16      0.00
  -13    0   12      0.52      0.00
   15    0   12     -0.53      0.00
   16    0   12     -0.20      0.00
  -13    1   12     -0.38      0.00
   15    1   12      0.31      0.00
   16    1   12     -1.98      0.00
    2    2   12      3.96      0.00
   16    2   12     -0.68      0.00
    3    3   12      3.88      0.00
   17    3   12      0.40      0.00
    4    4   12     -4.75      0.00
   17    4   12     -0.02      0.00
  -13    7   12      0.11      0.00
  -13    8   12      1.84      0.00
  -12   10   12      0.71      0.00
   17   11   12      2.22      0.00
  -11   12   12     -0.58      0.00
   17   12   12     -0.33      0.00
   16   14   12      2.83      0.00
   -9   15   12      0.23      0.00
   15   15   12      1.76      0.00
   -8   16   12      1.09      0.00
   13   17   12      1.05      0.00
   -5   18   12      0.90      0.00
   12   18   12      0.14      0.00
   -3   19   12      0.43      0.00
   10   19   12     -0.16      0.00
    0   20   12      0.01      0.00
    1   20   12      1.39      0.00
    7   20   12     -0.78      0.00
    8   20   12     -0.91      0.00
   -2   -8   13     -0.57      0.00
   -1   -8   13     -1.43      0.00
    0   -8   13      1.61      0.00
    1   -8   13      0.07      0.00
    2   -8   13     -0.68      0.00
    3   -8   13     -0.92      0.00
   -5   -7   13      1.05      0.00
    6   -7   13      0.49      0.00
    7   -7   13      0.02      0.00
   -7   -6   13     -1.12      0.00
    9   -6   13     -1.13      0.00
   -8   -5   13      0.13      0.00
   10   -5   13      1.83      0.00
   -9   -4   13     -1.43      0.00
  -10   -3   13     -0.85      0.00
  -11   -2   13     -2.35      0.00
   14   -1   13      0.53      0.00
  -12    0   13     -1.22      0.00
   15    0   13      1.58      0.00
  -12    1   13      0.00      0.00
   15    1   13      0.66      0.00
   15    2   13     -0.98      0.00
   16    2   13      1.22      0.00
   16    3   13     -0.20      0.00
   16    4   13     -0.39      0.00
   17    5   13      1.67      0.00
   17    6   13     -0.28      0.00
   17    7   13     -0.71      0.00
  -12    8   13     -0.22      0.00
   17    8   13     -0.15      0.00
  -12    9   13      0.69      0.00
   17    9   13      0.34      0.00
   17   10   13     -0.59      0.00
  -11   11   13     -1.52      0.00
   17   11   13      0.39      0.00
  -10   13   13     -0.01      0.00
   16   13   13     -1.89      0.00
   -9   14   13      0.31      0.00
   15   14   13     -0.26      0.00
   -8   15   13     -0.64      0.00
   15   15   13      1.56      0.00
   -7   16   13     -1.03      0.00
   14   16   13      0.80      0.00
   -6   17   13      0.51      0.00
   13   17   13     -2.10      0.00
   -4   18   13     -1.44      0.00
   12   18   13     -0.33      0.00
   -2   19   13      2.01      0.00
   10   19   13     -1.38      0.00
    1   20   13      0.39      0.00
    2   20   13      0.39      0.00
    3   20   13     -0.10      0.00
    5   20   13     -2.22      0.00
    6   20   13     -0.35      0.00
    7   20   13      0.84      0.00
   -1   -7   14     -0.07      0.00
    0   -7   14      0.01      0.00
    1   -7   14     -0.16      0.00
    2   -7   14      0.47      0.00
   -4   -6   14     -1.06      0.00
    5   -6   14     -0.44      0.00
    6   -6   14     -1.23      0.00
   -6   -5   14      0.38      0.00
    8   -5   14     -0.84      0.00
   10   -4   14      1.57      0.00
   10   -3   14     -1.34      0.00
   11   -3   14     -0.25      0.00
   -9   -2   14     -0.59      0.00
   12   -2   14     -1.27      0.00
  -10   -1   14     -2.30      0.00
   13   -1   14      2.63      0.00
   14    0   14      0.23      0.00
  -11    1   14     -0.74      0.00
   14    1   14     -0.49      0.00
   15    2   14     -0.40      0.00
   15    3   14     -0.47      0.00
   16    4   14     -1.57      0.00
   16    5   14      1.32      0.00
   16    6   14     -1.33      0.00
  -11    9   14      0.27      0.00
  -10   11   14     -1.49      0.00
   16   11   14      2.88      0.00
  -10   12   14     -0.55      0.00
   16   12   14      1.03      0.00
   -9   13   14     -1.17      0.00
   15   14   14      0.56      0.00
   -6   15   14      1.09      0.00
   14   15   14     -0.94      0.00
   -6   16   14     -0.82      0.00
   13   16   14     -0.49      0.00
   -5   17   14     -0.66      0.00
   12   17   14      2.03      0.00
   -4   18   14      0.34      0.00
   -3   18   14     -0.03      0.00
   11   18   14      0.55      0.00
   -1   19   14     -2.28      0.00
    9   19   14      0.88      0.00
    2   20   14      1.34      0.00
    3   20   14      0.33      0.00
    4   20   14      2.29      0.00
    5   20   14     -0.34      0.00
    6   20   14      1.29      0.00
   -3   -5   15     -0.65      0.00
   -2   -5   15      0.08      0.00
    4   -5   15     -0.32      0.00
    5   -5   15      0.27      0.00
   -5   -4   15     -1.61      0.00
    7   -4   15     -0.77      0.00
    8   -4   15     -1.48      0.00
   -7   -3   15      0.17      0.00
   -8   -2   15     -0.84      0.00
   11   -2   15      1.04      0.00
   12   -1   15     -2.22      0.00
   -9    0   15      0.37      0.00
   13    0   15     -0.20      0.00
  -10    1   15      0.95      0.00
   13    1   15      2.27      0.00
  -10    2   15      0.61      0.00
   14    2   15     -0.56      0.00
   14    3   15     -1.63      0.00
   15    4   15      1.15      0.00
   15    5   15     -1.75      0.00
   16    7   15      0.39      0.00
   16    8   15     -0.26      0.00
  -10    9   15      0.20      0.00
   16    9   15     -0.20      0.00
  -10   10   15     -0.47      0.00
   16   10   15      0.78      0.00
   -9   12   15     -0.81      0.00
   15   12   15      2.23      0.00
   -8   13   15      1.61      0.00
   15   13   15     -0.62      0.00
   14   14   15      0.21      0.00
   13   15   15      2.20      0.00
   14   15   15     -0.94      0.00
   -5   16   15     -2.10      0.00
   13   16   15     -0.18      0.00
   -4   17   15      0.25      0.00
   12   17   15      0.65      0.00
   -3   18   15     -0.35      0.00
   -2   18   15     -0.69      0.00
   10   18   15     -0.15      0.00
    0   19   15     -1.97      0.00
    1   19   15      0.02      0.00
    5   19   15     -0.90      0.00
    7   19   15     -0.28      0.00
    8   19   15      0.02      0.00
   -1   -4   16     -0.60      0.00
    0   -4   16      1.36      0.00
    1   -4   16      0.32      0.00
    2   -4   16      0.85      0.00
    3   -4   16     -0.99      0.00
    4   -4   16     -0.48      0.00
   -4   -3   16      0.39      0.00
   -3   -3   16     -0.17      0.00
    6   -3   16      0.43      0.00
    7   -3   16     -1.48      0.00
   -5   -2   16      0.37      0.00
    9   -2   16     -1.13      0.00
   10   -1   16      0.52      0.00
   11    0   16     -2.06      0.00
   -8    1   16     -0.49      0.00
   12    1   16      0.71      0.00
   13    2   16     -1.33      0.00
   -9    3   16      0.73      0.00
   -9    4   16      0.45      0.00
   14    4   16     -0.28      0.00
   -9    5   16     -1.48      0.00
   14    5   16      0.35      0.00
   15    7   16      0.77      0.00
   -9    8   16      1.57      0.00
   15    8   16     -2.17      0.00
   -9    9   16      0.47      0.00
   15    9   16      0.01      0.00
   -9   10   16     -1.25      0.00
   15   10   16      0.10      0.00
   15   11   16     -1.47      0.00
   -8   12   16     -1.34      0.00
   -7   13   16      2.42      0.00
   14   13   16      0.09      0.00
   -6   14   16      1.21      0.00
   14   14   16     -0.01      0.00
   13   15   16     -0.86      0.00
   -4   16   16      1.23      0.00
   12   16   16     -0.19      0.00
   -3   17   16     -1.50      0.00
   11   17   16      1.01      0.00
   -1   18   16      2.02      0.00
    9   18   16      0.73      0.00
    2   19   16     -0.62      0.00
    3   19   16     -1.38      0.00
    4   19   16      0.78      0.00
    5   19   16     -0.09      0.00
    6   19   16      0.10      0.00
    7   19   16     -0.28      0.00
   -2   -2   17     -0.37      0.00
   -1   -2   17      0.52      0.00
    4   -2   17      1.45      0.00
    5   -2   17      1.09      0.00
    6   -2   17     -1.79      0.00
   -4   -1   17     -1.11      0.00
    7   -1   17     -2.16      0.00
    8   -1   17     -2.07      0.00
   -5    0   17     -1.60      0.00
    9    0   17      0.59      0.00
   -6    1   17      2.88      0.00
   10    1   17      0.67      0.00
   -7    2   17      0.19      0.00
   -7    3   17      0.61      0.00
   12    3   17     -0.95      0.00
   -8    4   17     -2.09      0.00
   12    4   17     -0.07      0.00
   13    4   17     -0.09      0.00
   -8    5   17     -1.51      0.00
   13    5   17     -1.45      0.00
   -8    6   17      0.91      0.00
   -8    7   17     -0.95      0.00
   14    7   17     -0.48      0.00
   -8    8   17      1.54      0.00
   14    8   17     -0.79      0.00
   -8    9   17     -0.16      0.00
   14    9   17      1.17      0.00
   -7   10   17      0.11      0.00
   14   10   17      0.24      0.00
   -7   11   17      1.10      0.00
   14   11   17      0.50      0.00
   -7   12   17      0.07      0.00
   -6   12   17      0.78      0.00
   -6   13   17     -0.78      0.00
   13   13   17      0.84      0.00
   -5   14   17      0.35      0.00
   13   14   17      2.09      0.00
   -4   15   17     -0.78      0.00
   12   15   17     -1.23      0.00
   -3   16   17      0.25      0.00
   11   16   17     -0.53      0.00
   -2   17   17      0.70      0.00
   -1   17   17      0.56      0.00
    9   17   17      0.57      0.00
   10   17   17     -1.18      0.00
    0   18   17      0.11      0.00
    1   18   17     -2.33      0.00
    2   18   17      1.34      0.00
    6   18   17     -0.66      0.00
    7   18   17     -0.80      0.00
    8   18   17     -0.34      0.00
    1   -1   18     -0.08      0.00
    2   -1   18     -0.14      0.00
    3   -1   18      2.03      0.00
   -2    0   18     -0.77      0.00
    4    0   18      1.39      0.00
    5    0   18     -0.41      0.00
    6    0   18     -1.38      0.00
   -4    1   18      0.26      0.00
   -3    1   18      0.29      0.00
    7    1   18      0.10      0.00
    8    1   18      1.24      0.00
   -5    2   18      1.44      0.00
   -4    2   18      1.49      0.00
    9    2   18     -0.15      0.00
   -5    3   18      0.91      0.00
   10    3   18     -0.48      0.00
   -6    4   18      0.49      0.00
   11    4   18     -0.36      0.00
   -6    5   18     -1.31      0.00
   12    5   18     -0.13      0.00
   -6    6   18     -0.14      0.00
   12    6   18      0.62      0.00
   13    8   18     -0.44      0.00
   -6    9   18      1.22      0.00
   13    9   18      1.65      0.00
   -6   10   18     -0.79      0.00
   13   10   18     -1.36      0.00
   -6   11   18      0.63      0.00
   13   11   18      0.95      0.00
   -5   12   18      0.44      0.00
   -5   13   18      0.83      0.00
   12   13   18      1.83      0.00
   -4   14   18     -2.18      0.00
   -3   15   18      0.12      0.00
   11   15   18      0.17      0.00
   -1   16   18     -0.81      0.00
    9   16   18     -0.01      0.00
   10   16   18      1.17      0.00
    0   17   18     -0.21      0.00
    1   17   18      0.00      0.00
    2   17   18     -0.04      0.00
    6   17   18      0.42      0.00
    7   17   18      0.24      0.00
    8   17   18      0.61      0.00
    2    1   19     -0.57      0.00
    3    1   19     -1.62      0.00
   -1    2   19      1.46      0.00
    0    2   19     -1.23      0.00
    1    2   19      0.18      0.00
    4    2   19     -1.25      0.00
    5    2   19     -0.67      0.00
    6    2   19      0.21      0.00
   -2    3   19      0.36      0.00
    7    3   19      0.32      0.00
    8    3   19     -1.65      0.00
   -3    4   19      1.82      0.00
    8    4   19      1.30      0.00
    9    4   19     -0.98      0.00
   -4    5   19     -1.65      0.00
    9    5   19      0.28      0.00
   10    5   19     -0.68      0.00
   -4    6   19      1.44      0.00
   10    6   19      0.84      0.00
   11    7   19     -0.06      0.00
   -5    8   19     -1.01      0.00
   11    8   19      0.92      0.00
   11    9   19      0.76      0.00
   -4   10   19      2.55      0.00
   11   10   19     -0.08      0.00
   -4   11   19     -1.93      0.00
   11   11   19     -2.37      0.00
   -3   12   19     -0.47      0.00
   11   12   19      1.05      0.00
   -3   13   19      0.56      0.00
   -2   13   19     -0.19      0.00
   10   13   19     -1.20      0.00
   -2   14   19      0.21      0.00
   -1   14   19     -0.37      0.00
   10   14   19      0.21      0.00
   -1   15   19      2.56      0.00
    0   15   19      0.08      0.00
    8   15   19     -2.72      0.00
    9   15   19      1.82      0.00
    1   16   19     -0.78      0.00
    2   16   19      2.29      0.00
    3   16   19     -0.40      0.00
    4   16   19      0.46      0.00
    5   16   19      1.92      0.00
    6   16   19     -0.69      0.00
    7   16   19      1.48      0.00
    1    4   20      0.46      0.00
    2    4   20      1.67      0.00
    3    4   20      0.88      0.00
    4    4   20     -0.47      0.00
    5    4   20     -0.76      0.00
   -1    5   20      0.08      0.00
    0    5   20      0.41      0.00
    1    5   20      0.10      0.00
    2    5   20      1.44      0.00
    4    5   20      1.44      0.00
    5    5   20     -1.14      0.00
    6    5   20     -0.48      0.00
   -1    6   20      1.73      0.00
    0    6   20      0.84      0.00
    5    6   20     -0.60      0.00
    7    6   20      0.43      0.00
    8    6   20      0.65      0.00
   -2    7   20     -2.42      0.00
   -1    7   20      0.02      0.00
    8    7   20     -0.96      0.00
   -2    8   20      1.84      0.00
    8    8   20     -0.55      0.00
    9    8   20      0.64      0.00
   -2    9   20      0.52      0.00
    8    9   20      0.16      0.00
    9    9   20      1.04      0.00
   -2   10   20     -0.94      0.00
   -1   10   20      0.02      0.00
    7   10   20      0.47      0.00
    9   10   20     -0.75      0.00
   -2   11   20     -0.77      0.00
   -1   11   20      0.34      0.00
    8   11   20      0.00      0.00
    9   11   20      1.86      0.00
   -1   12   20      0.22      0.00
    0   12   20      0.16      0.00
    8   12   20      0.67      0.00
    9   12   20     -0.37      0.00
    0   13   20      0.33      0.00
    1   13   20      0.85      0.00
    7   13   20     -0.49      0.00
    8   13   20     -1.55      0.00
    1   14   20     -0.60      0.00
    2   14   20      0.15      0.00
    3   14   20      2.04      0.00
    4   14   20     -0.40      0.00
    5   14   20     -0.14      0.00
    6   14   20     -2.28      0.00
    7   14   20     -1.15      0.00
    3   15   20     -2.55      0.00
    4   15   20      1.86      0.00
    5   15   20      0.00      0.00
    0    0    0      0.00      0.00
loop_
  _platon_squeeze_void_nr
  _platon_squeeze_void_average_x
  _platon_squeeze_void_average_y
  _platon_squeeze_void_average_z
  _platon_squeeze_void_volume
  _platon_squeeze_void_count_electrons
  _platon_squeeze_void_content
   1 -0.154  0.078  0.928      2043       636 ' '
_platon_squeeze_details
(replace by semicolon in column 1 when used as .sqf)
TITL Prosp14mz0P -1m        R = 0.22
CELL   16.1748   17.1245   17.3765     61.70     79.19     79.17
SPGR P-1
C101 0.658 0.803 0.936 !       6.69 eA-3
C102 0.536 0.873 0.899 !       6.60 eA-3
C103 0.604 0.864 0.927 !       5.72 eA-3
C104 0.373 0.807 0.809 !       5.50 eA-3
C105 0.520 0.220 0.283 !       5.14 eA-3
C106 0.234 0.937 0.280 !       4.99 eA-3
C107 0.206 0.077 0.358 !       4.92 eA-3
C108 0.090 0.015 0.441 !       4.82 eA-3
C109 0.328 0.516 0.286 !       4.77 eA-3
C110 0.659 0.126 0.629 !       4.61 eA-3
C111 0.737 0.798 0.962 !       4.41 eA-3
C112 0.728 0.436 0.673 !       4.09 eA-3
C113 0.646 0.719 0.939 !       4.05 eA-3
C114 0.769 0.512 0.874 !       3.66 eA-3
C115 0.323 0.610 0.246 !       3.66 eA-3
C116 0.717 0.157 0.553 !       3.59 eA-3
C117 0.982 0.750 0.198 !       3.57 eA-3
C118 0.138 0.069 0.366 !       3.52 eA-3
C119 0.281 0.646 0.308 !       3.49 eA-3
C120 0.751 0.938 0.562 !       3.44 eA-3
C121 0.312 0.909 0.302 !       3.44 eA-3
C122 0.800 0.435 0.880 !       3.28 eA-3
C123 0.554 0.191 0.220 !       3.23 eA-3
C124 0.224 0.627 0.061 !       3.14 eA-3
C125 0.405 0.042 0.654 !       3.08 eA-3
C126 0.856 0.795 0.266 !       3.08 eA-3
C127 0.341 0.047 0.625 !       3.05 eA-3
C128 0.088 0.623 0.284 !       2.78 eA-3
C129 0.579 0.213 0.342 !       2.72 eA-3
C130 0.985 0.347 0.752 !       2.69 eA-3
C131 0.266 0.649 0.967 !       2.59 eA-3
C132 0.686 0.297 0.748 !       2.52 eA-3
C133 0.437 0.234 0.314 !       2.49 eA-3
C134 0.745 0.879 0.717 !       2.38 eA-3
Q135 0.395 0.498 0.250 !       2.37 eA-3
C136 0.804 0.295 0.936 !       2.33 eA-3
Q137 0.385 0.565 0.217 !       2.33 eA-3
C138 1.001 0.816 0.239 !       2.32 eA-3
C139 0.248 0.739 0.436 !       2.28 eA-3
C140 0.901 0.750 0.097 !       2.25 eA-3
C141 0.450 0.263 0.294 !       2.25 eA-3
C142 0.812 0.334 0.907 !       2.22 eA-3
C143 0.089 0.248 0.846 !       2.22 eA-3
C144 0.909 0.829 0.238 !       2.19 eA-3
C145 0.301 0.802 0.403 !       2.18 eA-3
C146 0.974 0.187 0.812 !       2.17 eA-3
C147 0.625 0.949 0.393 !       2.13 eA-3
C148 0.276 0.546 0.063 !       2.12 eA-3
C149 0.343 0.820 0.469 !       2.08 eA-3
C150 0.683 0.941 0.350 !       2.06 eA-3
C151 0.219 0.677 0.391 !       2.03 eA-3
C152 0.986 0.738 0.093 !       2.01 eA-3
C153 0.573 0.147 0.611 !       1.94 eA-3
C154 0.383 0.016 0.586 !       1.87 eA-3
C155 0.919 0.375 0.806 !       1.86 eA-3
C156 0.784 0.303 0.595 !       1.84 eA-3
C157 0.984 0.345 0.825 !       1.80 eA-3
C158 0.286 0.705 0.185 !       1.74 eA-3
C159 0.165 0.027 0.425 !       1.73 eA-3
C160 0.541 0.266 0.290 !       1.72 eA-3
C161 0.261 0.137 0.304 !       1.72 eA-3
Q162 0.548 0.392 0.936 !       1.63 eA-3
C163 0.232 0.083 0.301 !       1.62 eA-3
C164 0.864 0.906 0.713 !       1.61 eA-3
C165 0.346 0.473 0.081 !       1.61 eA-3
C166 0.705 0.484 0.941 !       1.60 eA-3
C167 0.284 0.718 0.278 !       1.59 eA-3
C168 0.055 0.785 0.031 !       1.56 eA-3
C169 0.905 0.761 0.205 !       1.55 eA-3
C170 0.690 0.602 0.855 !       1.53 eA-3
C171 0.483 0.732 0.003 !       1.53 eA-3
Q172 0.252 0.490 0.798 !       1.53 eA-3
C173 0.442 0.266 0.020 !       1.52 eA-3
Q174 0.611 0.441 0.062 !       1.51 eA-3
C175 0.730 0.122 0.626 !       1.50 eA-3
C176 0.546 1.005 0.454 !       1.49 eA-3
Q177 0.018 0.475 0.552 !       1.49 eA-3
C178 0.599 0.364 0.975 !       1.49 eA-3
C179 0.040 0.779 0.143 !       1.49 eA-3
C180 0.793 0.326-0.006 !       1.47 eA-3
Q181 0.981 0.861 0.391 !       1.46 eA-3
C182 0.552 0.800 0.643 !       1.45 eA-3
Q183 0.924 0.434 0.405 !       1.43 eA-3
C184 0.523 0.982 0.322 !       1.43 eA-3
Q185 0.509 0.514 0.080 !       1.42 eA-3
C186 0.408 0.636 0.152 !       1.40 eA-3
C187 0.513 0.767 0.958 !       1.40 eA-3
C188 0.745 0.950 0.690 !       1.39 eA-3
C189 0.779 0.428 0.611 !       1.35 eA-3
C190 0.977 0.270 0.691 !       1.33 eA-3
C191 0.087 0.153 0.849 !       1.32 eA-3
Q192 0.298 0.549 0.714 !       1.32 eA-3
Q193 0.951 0.501 0.345 !       1.30 eA-3
Q194 0.082 0.402 0.597 !       1.30 eA-3
C195 0.671 0.154 0.691 !       1.30 eA-3
C196 0.366 0.606 0.981 !       1.29 eA-3
Q197 0.788 0.859 0.583 !       1.28 eA-3
C198 0.535 1.001 0.549 !       1.28 eA-3
C199 0.238 0.031 0.259 !       1.28 eA-3
(replace by semicolon in column 1 when used as .sqf)
;
_shelx_fab_checksum              94742
#END Tags that were not found in dictionaries
loop_
_space_group_symop_operation_xyz
'x, y, z'
'-x, -y, -z'
loop_
_atom_site_label
_atom_site_type_symbol
_atom_site_fract_x
_atom_site_fract_y
_atom_site_fract_z
_atom_site_U_iso_or_equiv
_atom_site_adp_type
_atom_site_occupancy
_atom_site_site_symmetry_order
_atom_site_calc_flag
_atom_site_refinement_flags_posn
_atom_site_refinement_flags_adp
_atom_site_refinement_flags_occupancy
_atom_site_disorder_assembly
_atom_site_disorder_group
C1 C 0.6664(3) 0.6498(4) 0.2001(3) 0.0213(11) Uani 1 1 d . . . . .
C2 C 0.6288(4) 0.7443(4) 0.1794(4) 0.0245(12) Uani 1 1 d . . . . .
C3 C 0.6718(5) 0.7994(4) 0.1933(4) 0.0393(16) Uani 1 1 d . . . . .
H3 H 0.7251 0.7775 0.2158 0.047 Uiso 1 1 calc R U . . .
C4 C 0.6364(5) 0.8860(5) 0.1741(5) 0.0446(18) Uani 1 1 d . . . . .
H4 H 0.6668 0.9240 0.1815 0.054 Uiso 1 1 calc R U . . .
C5 C 0.5576(5) 0.9178(5) 0.1445(5) 0.0421(17) Uani 1 1 d . . . . .
H5 H 0.5328 0.9765 0.1336 0.050 Uiso 1 1 calc R U . . .
C6 C 0.5149(4) 0.8633(4) 0.1307(4) 0.0312(13) Uani 1 1 d . . . . .
C7 C 0.5505(4) 0.7770(4) 0.1476(4) 0.0273(13) Uani 1 1 d . . . . .
H7 H 0.5211 0.7403 0.1374 0.033 Uiso 1 1 calc R U . . .
C8 C 0.4320(4) 0.8944(4) 0.0993(4) 0.0366(15) Uani 1 1 d . . . . .
C9 C 0.3634(4) 0.9180(4) 0.0739(4) 0.0360(15) Uani 1 1 d . . . . .
C10 C 0.2840(4) 0.9425(4) 0.0396(5) 0.0351(15) Uani 1 1 d . . . . .
C11 C 0.2136(5) 0.9815(6) 0.0766(6) 0.053(2) Uani 1 1 d . . . . .
H11 H 0.2188 0.9901 0.1256 0.063 Uiso 1 1 calc R U . . .
C12 C 0.1376(5) 1.0070(7) 0.0419(7) 0.068(3) Uani 1 1 d . . . . .
C13 C 0.1283(5) 0.9906(6) -0.0276(7) 0.060(2) Uani 1 1 d . . . . .
H13 H 0.0755 1.0077 -0.0508 0.072 Uiso 1 1 calc R U . . .
C14 C 0.1963(4) 0.9493(5) -0.0628(5) 0.0416(17) Uani 1 1 d . . . . .
C15 C 0.2745(4) 0.9237(4) -0.0278(5) 0.0329(14) Uani 1 1 d . . . . .
C16 C 0.0712(7) 1.0599(10) 0.1457(9) 0.107(5) Uani 1 1 d . . . . .
H16A H 0.1172 1.0966 0.1298 0.161 Uiso 1 1 calc R U . . .
H16B H 0.0830 1.0029 0.1975 0.161 Uiso 1 1 calc R U . . .
H16C H 0.0177 1.0914 0.1589 0.161 Uiso 1 1 calc R U . . .
C17 C 0.1845(4) 0.9287(5) -0.1310(5) 0.0427(18) Uani 1 1 d . . . . .
C18 C 0.1745(4) 0.9092(5) -0.1860(7) 0.055(2) Uani 1 1 d . . . . .
C19 C 0.1613(4) 0.8793(5) -0.2465(6) 0.0444(18) Uani 1 1 d . . . . .
C20 C 0.1112(5) 0.9315(5) -0.3139(6) 0.055(2) Uani 1 1 d . . . . .
H20 H 0.0857 0.9892 -0.3220 0.066 Uiso 1 1 calc R U . . .
C21 C 0.0985(6) 0.8983(6) -0.3696(6) 0.058(2) Uani 1 1 d . . . . .
H21 H 0.0652 0.9343 -0.4168 0.070 Uiso 1 1 calc R U . . .
C22 C 0.1334(4) 0.8146(5) -0.3570(5) 0.0414(16) Uani 1 1 d . . . . .
H22 H 0.1232 0.7920 -0.3944 0.050 Uiso 1 1 calc R U . . .
C23 C 0.1829(3) 0.7633(4) -0.2904(4) 0.0258(12) Uani 1 1 d . . . . .
C24 C 0.1982(4) 0.7945(5) -0.2350(5) 0.0386(16) Uani 1 1 d . . . . .
H24 H 0.2333 0.7587 -0.1895 0.046 Uiso 1 1 calc R U . . .
C25 C 0.2189(3) 0.6695(4) -0.2735(4) 0.0230(12) Uani 1 1 d . . . . .
C26 C 0.6153(3) 0.4380(4) 0.3712(4) 0.0240(12) Uani 1 1 d . . . . .
C27 C 0.5485(4) 0.4067(4) 0.4484(4) 0.0270(13) Uani 1 1 d . . . . .
C28 C 0.5595(4) 0.4004(5) 0.5294(4) 0.0394(16) Uani 1 1 d . . . . .
H28 H 0.6103 0.4154 0.5363 0.047 Uiso 1 1 calc R U . . .
C29 C 0.4960(5) 0.3721(5) 0.5994(4) 0.0473(19) Uani 1 1 d . . . . .
H29 H 0.5029 0.3690 0.6539 0.057 Uiso 1 1 calc R U . . .
C30 C 0.4234(5) 0.3487(5) 0.5900(5) 0.0459(18) Uani 1 1 d . . . . .
H30 H 0.3808 0.3282 0.6386 0.055 Uiso 1 1 calc R U . . .
C31 C 0.4113(4) 0.3546(5) 0.5093(4) 0.0324(14) Uani 1 1 d . . . . .
C32 C 0.4742(4) 0.3859(4) 0.4382(4) 0.0303(13) Uani 1 1 d . . . . .
H32 H 0.4657 0.3928 0.3826 0.036 Uiso 1 1 calc R U . . .
C33 C 0.3364(4) 0.3284(5) 0.4986(5) 0.0391(16) Uani 1 1 d . . . . .
C34 C 0.2760(4) 0.3046(5) 0.4894(5) 0.0389(16) Uani 1 1 d . . . . .
C35 C 0.2044(4) 0.2790(4) 0.4743(4) 0.0303(14) Uani 1 1 d . . . . .
C36 C 0.1483(4) 0.2264(4) 0.5464(5) 0.0353(15) Uani 1 1 d . . . . .
H36 H 0.1590 0.2076 0.6049 0.042 Uiso 1 1 calc R U . . .
C37 C 0.0781(4) 0.2027(4) 0.5315(5) 0.0399(17) Uani 1 1 d . . . . .
C38 C 0.0628(4) 0.2271(4) 0.4473(4) 0.0347(15) Uani 1 1 d . . . . .
H38 H 0.0155 0.2081 0.4381 0.042 Uiso 1 1 calc R U . . .
C39 C 0.1166(4) 0.2796(4) 0.3752(4) 0.0340(14) Uani 1 1 d D U . . .
C40 C 0.1891(4) 0.3058(4) 0.3882(4) 0.0327(14) Uani 1 1 d . . . . .
C41 C -0.0505(7) 0.1386(10) 0.5900(7) 0.134(7) Uani 1 1 d . . . . .
H41A H -0.0876 0.1951 0.5673 0.200 Uiso 1 1 calc R U . . .
H41B H -0.0785 0.0952 0.6450 0.200 Uiso 1 1 calc R U . . .
H41C H -0.0387 0.1155 0.5467 0.200 Uiso 1 1 calc R U . . .
C42_a C 0.100(3) 0.2978(17) 0.2886(15) 0.0360(19) Uani 0.361(16) 1 d D U P A 1
C43_a C 0.086(2) 0.3120(19) 0.2180(12) 0.037(3) Uani 0.361(16) 1 d D U P A 1
C44_a C 0.0683(13) 0.3369(17) 0.1307(11) 0.035(3) Uani 0.361(16) 1 d D U P A 1
C45_a C -0.0070(13) 0.3153(19) 0.1201(13) 0.049(3) Uani 0.361(16) 1 d D U P A 1
H45_a H -0.0433 0.2816 0.1706 0.059 Uiso 0.361(16) 1 calc R U P A 1
C46_a C -0.0290(13) 0.342(2) 0.0380(13) 0.055(3) Uani 0.361(16) 1 d D U P A 1
H46_a H -0.0831 0.3334 0.0315 0.066 Uiso 0.361(16) 1 calc R U P A 1
C47_a C 0.0289(13) 0.3825(18) -0.0363(13) 0.044(3) Uani 0.361(16) 1 d D U P A 1
H47_a H 0.0160 0.3972 -0.0931 0.053 Uiso 0.361(16) 1 calc R U P A 1
C48_a C 0.1050(13) 0.4010(19) -0.0266(11) 0.031(3) Uani 0.361(16) 1 d D U P A 1
C49_a C 0.1230(15) 0.3774(19) 0.0569(13) 0.028(3) Uani 0.361(16) 1 d D U P A 1
H49_a H 0.1756 0.3897 0.0632 0.034 Uiso 0.361(16) 1 calc R U P A 1
C42B_b C 0.0976(16) 0.3131(9) 0.2860(9) 0.0360(19) Uani 0.639(16) 1 d D . P A 2
C43B_b C 0.0815(11) 0.3398(9) 0.2132(7) 0.037(3) Uani 0.639(16) 1 d D . P A 2
C44B_b C 0.0621(7) 0.3680(9) 0.1260(7) 0.035(3) Uani 0.639(16) 1 d D . P A 2
C45B_b C -0.0185(8) 0.3565(11) 0.1166(8) 0.049(3) Uani 0.639(16) 1 d D . P A 2
H45B_b H -0.0570 0.3278 0.1671 0.059 Uiso 0.639(16) 1 calc R U P A 2
C46B_b C -0.0414(8) 0.3867(12) 0.0345(8) 0.055(3) Uani 0.639(16) 1 d D . P A 2
H46B_b H -0.0978 0.3850 0.0276 0.066 Uiso 0.639(16) 1 calc R U P A 2
C47B_b C 0.0190(7) 0.4205(10) -0.0402(8) 0.044(3) Uani 0.639(16) 1 d D . P A 2
H47B_b H 0.0046 0.4383 -0.0972 0.053 Uiso 0.639(16) 1 calc R U P A 2
C48B_b C 0.0982(7) 0.4270(9) -0.0291(7) 0.031(3) Uani 0.639(16) 1 d D . P A 2
C49B_b C 0.1194(8) 0.4025(9) 0.0530(7) 0.028(3) Uani 0.639(16) 1 d D . P A 2
H49B_b H 0.1743 0.4097 0.0591 0.034 Uiso 0.639(16) 1 calc R U P A 2
C50 C 0.1641(4) 0.4563(4) -0.1083(4) 0.0308(13) Uani 1 1 d D U . . .
C51 C 0.4959(7) 0.4805(11) 0.1520(8) 0.129(6) Uani 1 1 d . U . . .
H51A H 0.4678 0.4511 0.1292 0.193 Uiso 1 1 calc R U . . .
H51B H 0.4668 0.5407 0.1371 0.193 Uiso 1 1 calc R U . . .
H51C H 0.4939 0.4458 0.2161 0.193 Uiso 1 1 calc R U . . .
Cu2 Cu 0.7770(3) 0.5009(2) 0.2819(3) 0.0134(4) Uani 0.5 1 d . U P B -1
N3 N 0.8631(3) 0.4965(3) 0.3649(2) 0.0190(9) Uani 0.5 1 d G U P B -1
C52 C 0.8452(3) 0.5610(4) 0.3946(4) 0.0185(15) Uani 0.5 1 d G U P B -1
H52 H 0.7970 0.6041 0.3781 0.022 Uiso 0.5 1 calc R U P B -1
C53 C 0.8980(4) 0.5623(4) 0.4485(4) 0.0192(16) Uani 0.5 1 d G U P B -1
H53 H 0.8858 0.6064 0.4688 0.023 Uiso 0.5 1 calc R U P B -1
C54 C 0.9685(4) 0.4992(4) 0.4727(3) 0.0227(11) Uani 0.5 1 d G U P B -1
C55 C 0.9863(4) 0.4347(4) 0.4431(4) 0.0146(15) Uani 0.5 1 d G U P B -1
H55 H 1.0345 0.3916 0.4596 0.018 Uiso 0.5 1 calc R U P B -1
C56 C 0.9336(4) 0.4334(3) 0.3892(4) 0.0164(14) Uani 0.5 1 d G U P B -1
H56 H 0.9458 0.3893 0.3689 0.020 Uiso 0.5 1 calc R U P B -1
Cu2B Cu 1.2228(3) 0.5193(2) 0.7053(3) 0.0134(4) Uani 0.5 1 d . U P B -1
N3B N 1.1407(4) 0.5124(2) 0.6268(3) 0.0190(9) Uani 0.5 1 d G U P B -1
C52B C 1.1705(3) 0.4771(4) 0.5680(4) 0.0185(15) Uani 0.5 1 d G U P B -1
H52B H 1.2287 0.4553 0.5622 0.022 Uiso 0.5 1 calc R U P B -1
C53B C 1.1151(4) 0.4735(4) 0.5177(4) 0.0192(16) Uani 0.5 1 d G U P B -1
H53B H 1.1355 0.4494 0.4775 0.023 Uiso 0.5 1 calc R U P B -1
C54B C 1.0300(4) 0.5053(4) 0.5262(4) 0.0227(11) Uani 0.5 1 d G U P B -1
C55B C 1.0002(3) 0.5406(4) 0.5850(4) 0.0146(15) Uani 0.5 1 d G U P B -1
H55B H 0.9421 0.5623 0.5908 0.018 Uiso 0.5 1 calc R U P B -1
C56B C 1.0556(4) 0.5441(4) 0.6353(3) 0.0164(14) Uani 0.5 1 d G U P B -1
H56B H 1.0352 0.5683 0.6754 0.020 Uiso 0.5 1 calc R U P B -1
N1 N 0.3407(3) 0.8810(4) -0.0611(5) 0.0468(16) Uani 1 1 d . . . . .
H1A H 0.3897 0.8652 -0.0398 0.056 Uiso 1 1 calc R U . . .
H1B H 0.3340 0.8694 -0.1036 0.056 Uiso 1 1 calc R U . . .
N2 N 0.2421(4) 0.3571(5) 0.3176(4) 0.0590(19) Uani 1 1 d . . . . .
H2A H 0.2865 0.3736 0.3261 0.071 Uiso 1 1 calc R U . . .
H2B H 0.2318 0.3734 0.2638 0.071 Uiso 1 1 calc R U . . .
O1 O 0.7295(2) 0.6183(3) 0.2419(3) 0.0294(9) Uani 1 1 d . . . . .
O2 O 0.6288(2) 0.6092(3) 0.1745(3) 0.0296(9) Uani 1 1 d . . . . .
O3 O 0.0648(4) 1.0435(7) 0.0745(6) 0.105(3) Uani 1 1 d . . . . .
O4 O 0.2702(2) 0.6293(3) -0.2163(3) 0.0292(9) Uani 1 1 d . . . . .
O5 O 0.1951(3) 0.6365(3) -0.3162(3) 0.0340(10) Uani 1 1 d . . . . .
O6 O 0.6817(3) 0.4600(3) 0.3812(3) 0.0298(9) Uani 1 1 d . . . . .
O7 O 0.6008(2) 0.4401(3) 0.3013(3) 0.0272(9) Uani 1 1 d . . . . .
O8 O 0.0258(3) 0.1529(4) 0.6060(3) 0.0592(17) Uani 1 1 d . . . . .
O9 O 0.2365(3) 0.4623(3) -0.0950(3) 0.0313(10) Uani 1 1 d . . . . .
O10 O 0.1419(3) 0.4781(3) -0.1831(3) 0.0354(10) Uani 1 1 d . . . . .
O11 O 0.5862(4) 0.4866(4) 0.1119(5) 0.079(2) Uani 1 1 d . U . . .
H11A H 0.6008 0.4520 0.0888 0.118 Uiso 1 1 d R U . . .
Cu1 Cu 0.67314(5) 0.48942(5) 0.18908(5) 0.0203(2) Uani 1 1 d . . . . .
loop_
_atom_site_aniso_label
_atom_site_aniso_U_11
_atom_site_aniso_U_22
_atom_site_aniso_U_33
_atom_site_aniso_U_23
_atom_site_aniso_U_13
_atom_site_aniso_U_12
C1 0.018(3) 0.032(3) 0.015(2) -0.009(2) -0.003(2) -0.008(2)
C2 0.023(3) 0.028(3) 0.022(3) -0.009(2) -0.003(2) -0.009(2)
C3 0.048(4) 0.034(4) 0.041(4) -0.015(3) -0.009(3) -0.017(3)
C4 0.050(5) 0.042(4) 0.048(4) -0.018(3) -0.015(3) -0.015(3)
C5 0.052(5) 0.032(3) 0.045(4) -0.018(3) -0.010(3) -0.003(3)
C6 0.034(3) 0.030(3) 0.030(3) -0.015(3) -0.003(3) -0.002(3)
C7 0.022(3) 0.036(3) 0.031(3) -0.019(3) -0.005(2) -0.008(3)
C8 0.034(4) 0.035(4) 0.042(4) -0.019(3) -0.009(3) -0.002(3)
C9 0.040(4) 0.028(3) 0.039(4) -0.015(3) -0.005(3) -0.003(3)
C10 0.024(3) 0.029(3) 0.053(4) -0.020(3) -0.008(3) 0.003(3)
C11 0.040(4) 0.070(5) 0.062(5) -0.045(4) 0.000(4) -0.005(4)
C12 0.025(4) 0.091(7) 0.114(8) -0.077(6) -0.007(4) 0.018(4)
C13 0.021(4) 0.079(6) 0.114(8) -0.073(6) -0.020(4) 0.016(4)
C14 0.024(3) 0.037(4) 0.075(5) -0.034(4) -0.016(3) 0.007(3)
C15 0.025(3) 0.021(3) 0.060(4) -0.025(3) -0.011(3) 0.008(2)
C16 0.060(7) 0.188(14) 0.121(10) -0.122(11) -0.012(6) 0.028(8)
C17 0.024(3) 0.038(4) 0.077(5) -0.035(4) -0.022(3) 0.014(3)
C18 0.021(4) 0.060(5) 0.116(7) -0.067(5) -0.024(4) 0.016(3)
C19 0.024(3) 0.047(4) 0.079(5) -0.042(4) -0.018(3) 0.007(3)
C20 0.033(4) 0.047(4) 0.084(6) -0.031(4) -0.021(4) 0.015(3)
C21 0.059(5) 0.057(5) 0.058(5) -0.027(4) -0.029(4) 0.019(4)
C22 0.028(4) 0.051(4) 0.051(4) -0.026(4) -0.016(3) 0.002(3)
C23 0.011(3) 0.033(3) 0.039(3) -0.021(3) -0.004(2) 0.001(2)
C24 0.016(3) 0.049(4) 0.062(5) -0.033(4) -0.018(3) 0.007(3)
C25 0.009(3) 0.039(3) 0.029(3) -0.021(3) -0.007(2) -0.004(2)
C26 0.015(3) 0.031(3) 0.033(3) -0.020(3) -0.008(2) 0.003(2)
C27 0.021(3) 0.035(3) 0.028(3) -0.016(3) 0.000(2) -0.007(2)
C28 0.032(4) 0.064(5) 0.034(3) -0.029(3) 0.000(3) -0.018(3)
C29 0.049(5) 0.069(5) 0.026(3) -0.022(3) 0.004(3) -0.019(4)
C30 0.039(4) 0.064(5) 0.034(4) -0.021(3) 0.011(3) -0.024(4)
C31 0.019(3) 0.048(4) 0.037(3) -0.025(3) 0.008(3) -0.013(3)
C32 0.021(3) 0.045(4) 0.033(3) -0.023(3) 0.002(2) -0.011(3)
C33 0.021(3) 0.057(4) 0.047(4) -0.032(4) 0.015(3) -0.017(3)
C34 0.025(3) 0.047(4) 0.048(4) -0.027(3) 0.010(3) -0.008(3)
C35 0.011(3) 0.031(3) 0.046(4) -0.018(3) 0.005(2) -0.002(2)
C36 0.022(3) 0.027(3) 0.042(4) -0.005(3) -0.004(3) -0.002(3)
C37 0.025(3) 0.027(3) 0.046(4) 0.002(3) -0.005(3) -0.004(3)
C38 0.016(3) 0.031(3) 0.044(4) -0.007(3) -0.004(3) -0.004(2)
C39 0.020(3) 0.037(3) 0.042(3) -0.019(3) 0.002(2) 0.004(3)
C40 0.024(3) 0.033(3) 0.040(4) -0.021(3) 0.013(3) -0.006(3)
C41 0.055(7) 0.196(14) 0.070(7) 0.030(8) -0.025(5) -0.073(8)
C42_a 0.026(3) 0.039(5) 0.041(3) -0.021(3) 0.004(2) 0.001(4)
C43_a 0.030(4) 0.039(8) 0.038(3) -0.019(4) 0.009(3) -0.003(6)
C44_a 0.024(3) 0.038(7) 0.035(3) -0.017(4) 0.006(2) 0.005(5)
C45_a 0.030(4) 0.057(8) 0.047(4) -0.016(5) 0.009(3) -0.013(5)
C46_a 0.025(4) 0.073(8) 0.050(4) -0.018(5) 0.007(3) -0.011(5)
C47_a 0.023(4) 0.058(8) 0.045(4) -0.021(5) 0.001(3) -0.004(5)
C48_a 0.021(3) 0.036(8) 0.034(3) -0.019(3) 0.005(2) 0.001(4)
C49_a 0.023(3) 0.027(8) 0.034(3) -0.017(3) 0.003(2) 0.003(4)
C42B_b 0.026(3) 0.039(5) 0.041(3) -0.021(3) 0.004(2) 0.001(4)
C43B_b 0.030(4) 0.039(8) 0.038(3) -0.019(4) 0.009(3) -0.003(6)
C44B_b 0.024(3) 0.038(7) 0.035(3) -0.017(4) 0.006(2) 0.005(5)
C45B_b 0.030(4) 0.057(8) 0.047(4) -0.016(5) 0.009(3) -0.013(5)
C46B_b 0.025(4) 0.073(8) 0.050(4) -0.018(5) 0.007(3) -0.011(5)
C47B_b 0.023(4) 0.058(8) 0.045(4) -0.021(5) 0.001(3) -0.004(5)
C48B_b 0.021(3) 0.036(8) 0.034(3) -0.019(3) 0.005(2) 0.001(4)
C49B_b 0.023(3) 0.027(8) 0.034(3) -0.017(3) 0.003(2) 0.003(4)
C50 0.022(3) 0.044(4) 0.029(3) -0.018(3) -0.003(2) -0.003(3)
C51 0.077(7) 0.228(14) 0.081(7) -0.041(8) -0.047(6) -0.062(8)
Cu2 0.0100(4) 0.0169(11) 0.0152(8) -0.0052(8) -0.0087(5) -0.0044(8)
N3 0.0191(16) 0.0190(16) 0.0237(17) -0.0131(13) -0.0069(13) 0.0010(13)
C52 0.016(2) 0.022(2) 0.021(2) -0.0117(18) -0.0070(16) -0.0006(16)
C53 0.019(2) 0.021(2) 0.021(2) -0.0115(19) -0.0071(16) -0.0014(16)
C54 0.0218(18) 0.0287(19) 0.0260(18) -0.0178(15) -0.0107(14) 0.0009(14)
C55 0.014(2) 0.018(2) 0.014(2) -0.0060(19) -0.0054(16) -0.0029(16)
C56 0.015(2) 0.019(2) 0.018(2) -0.0084(18) -0.0066(16) -0.0023(15)
Cu2B 0.0100(4) 0.0169(11) 0.0152(8) -0.0052(8) -0.0087(5) -0.0044(8)
N3B 0.0191(16) 0.0190(16) 0.0237(17) -0.0131(13) -0.0069(13) 0.0010(13)
C52B 0.016(2) 0.022(2) 0.021(2) -0.0117(18) -0.0070(16) -0.0006(16)
C53B 0.019(2) 0.021(2) 0.021(2) -0.0115(19) -0.0071(16) -0.0014(16)
C54B 0.0218(18) 0.0287(19) 0.0260(18) -0.0178(15) -0.0107(14) 0.0009(14)
C55B 0.014(2) 0.018(2) 0.014(2) -0.0060(19) -0.0054(16) -0.0029(16)
C56B 0.015(2) 0.019(2) 0.018(2) -0.0084(18) -0.0066(16) -0.0023(15)
N1 0.023(3) 0.055(4) 0.094(5) -0.061(4) -0.023(3) 0.018(3)
N2 0.044(4) 0.089(5) 0.049(4) -0.036(4) 0.024(3) -0.036(4)
O1 0.021(2) 0.043(2) 0.035(2) -0.0214(19) -0.0134(17) -0.0051(18)
O2 0.0137(19) 0.040(2) 0.040(2) -0.020(2) -0.0127(17) 0.0022(17)
O3 0.043(4) 0.175(8) 0.160(8) -0.137(7) -0.015(4) 0.020(5)
O4 0.021(2) 0.046(2) 0.035(2) -0.027(2) -0.0105(17) -0.0023(18)
O5 0.021(2) 0.055(3) 0.041(2) -0.033(2) -0.0169(18) 0.006(2)
O6 0.024(2) 0.047(3) 0.033(2) -0.026(2) -0.0067(17) -0.0115(19)
O7 0.0130(19) 0.046(2) 0.034(2) -0.026(2) -0.0035(16) -0.0082(17)
O8 0.038(3) 0.066(4) 0.039(3) 0.015(2) -0.010(2) -0.030(3)
O9 0.020(2) 0.053(3) 0.028(2) -0.023(2) -0.0055(17) -0.0056(19)
O10 0.016(2) 0.061(3) 0.035(2) -0.025(2) -0.0024(17) -0.008(2)
O11 0.083(4) 0.079(4) 0.097(5) -0.039(3) -0.063(4) -0.007(3)
Cu1 0.0100(4) 0.0366(5) 0.0234(4) -0.0186(4) -0.0084(3) -0.0033(3)
loop_
_atom_type_symbol
_atom_type_description
_atom_type_scat_dispersion_real
_atom_type_scat_dispersion_imag
_atom_type_scat_source
C C 0.0181 0.0091 'International Tables Vol C Tables 4.2.6.8 and 6.1.1.4'
H H 0.0000 0.0000 'International Tables Vol C Tables 4.2.6.8 and 6.1.1.4'
N N 0.0311 0.0180 'International Tables Vol C Tables 4.2.6.8 and 6.1.1.4'
O O 0.0492 0.0322 'International Tables Vol C Tables 4.2.6.8 and 6.1.1.4'
Cu Cu -1.9646 0.5888 'International Tables Vol C Tables 4.2.6.8 and 6.1.1.4'
loop_
_geom_angle_atom_site_label_1
_geom_angle_atom_site_label_2
_geom_angle_atom_site_label_3
_geom_angle
_geom_angle_site_symmetry_1
_geom_angle_site_symmetry_3
O1 C1 O2 126.3(5) . .
O1 C1 C2 118.0(5) . .
O2 C1 C2 115.7(5) . .
C7 C2 C3 119.2(6) . .
C7 C2 C1 120.3(5) . .
C3 C2 C1 120.4(5) . .
C4 C3 C2 119.8(7) . .
C4 C3 H3 120.1 . .
C2 C3 H3 120.1 . .
C5 C4 C3 120.8(6) . .
C5 C4 H4 119.6 . .
C3 C4 H4 119.6 . .
C4 C5 C6 119.4(6) . .
C4 C5 H5 120.3 . .
C6 C5 H5 120.3 . .
C5 C6 C7 120.4(6) . .
C5 C6 C8 121.0(6) . .
C7 C6 C8 118.6(6) . .
C2 C7 C6 120.3(5) . .
C2 C7 H7 119.8 . .
C6 C7 H7 119.8 . .
C9 C8 C6 178.5(7) . .
C8 C9 C10 175.5(7) . .
C15 C10 C11 119.8(6) . .
C15 C10 C9 119.8(6) . .
C11 C10 C9 120.4(7) . .
C12 C11 C10 120.1(7) . .
C12 C11 H11 119.9 . .
C10 C11 H11 119.9 . .
C11 C12 O3 124.6(9) . .
C11 C12 C13 120.2(7) . .
O3 C12 C13 115.0(7) . .
C14 C13 C12 120.3(7) . .
C14 C13 H13 119.8 . .
C12 C13 H13 119.8 . .
C13 C14 C15 119.6(7) . .
C13 C14 C17 119.6(6) . .
C15 C14 C17 120.6(6) . .
N1 C15 C10 120.7(6) . .
N1 C15 C14 119.5(6) . .
C10 C15 C14 119.8(6) . .
O3 C16 H16A 109.5 . .
O3 C16 H16B 109.5 . .
H16A C16 H16B 109.5 . .
O3 C16 H16C 109.5 . .
H16A C16 H16C 109.5 . .
H16B C16 H16C 109.5 . .
C18 C17 C14 178.2(9) . .
C17 C18 C19 175.7(10) . .
C20 C19 C24 119.9(7) . .
C20 C19 C18 121.4(7) . .
C24 C19 C18 118.6(7) . .
C19 C20 C21 119.2(7) . .
C19 C20 H20 120.4 . .
C21 C20 H20 120.4 . .
C22 C21 C20 120.5(7) . .
C22 C21 H21 119.7 . .
C20 C21 H21 119.7 . .
C21 C22 C23 120.0(7) . .
C21 C22 H22 120.0 . .
C23 C22 H22 120.0 . .
C22 C23 C24 121.0(6) . .
C22 C23 C25 120.5(5) . .
C24 C23 C25 118.4(5) . .
C23 C24 C19 119.3(6) . .
C23 C24 H24 120.4 . .
C19 C24 H24 120.4 . .
O4 C25 O5 125.1(5) . .
O4 C25 C23 116.7(5) . .
O5 C25 C23 118.2(5) . .
O7 C26 O6 125.2(5) . .
O7 C26 C27 117.1(5) . .
O6 C26 C27 117.7(5) . .
C32 C27 C28 119.8(6) . .
C32 C27 C26 118.9(5) . .
C28 C27 C26 121.3(5) . .
C29 C28 C27 119.9(6) . .
C29 C28 H28 120.0 . .
C27 C28 H28 120.0 . .
C30 C29 C28 120.1(6) . .
C30 C29 H29 119.9 . .
C28 C29 H29 119.9 . .
C29 C30 C31 120.7(6) . .
C29 C30 H30 119.6 . .
C31 C30 H30 119.6 . .
C32 C31 C30 118.9(6) . .
C32 C31 C33 119.4(6) . .
C30 C31 C33 121.7(6) . .
C27 C32 C31 120.4(6) . .
C27 C32 H32 119.8 . .
C31 C32 H32 119.8 . .
C34 C33 C31 178.0(7) . .
C33 C34 C35 177.4(8) . .
C40 C35 C36 120.0(6) . .
C40 C35 C34 120.0(6) . .
C36 C35 C34 120.1(6) . .
C37 C36 C35 119.9(6) . .
C37 C36 H36 120.0 . .
C35 C36 H36 120.0 . .
C38 C37 C36 120.9(6) . .
C38 C37 O8 123.2(6) . .
C36 C37 O8 115.9(6) . .
C37 C38 C39 120.1(6) . .
C37 C38 H38 119.9 . .
C39 C38 H38 119.9 . .
C38 C39 C40 120.4(6) . .
C38 C39 C42B_b 121.2(12) . .
C40 C39 C42B_b 118.3(12) . .
C38 C39 C42_a 117(2) . .
C40 C39 C42_a 122(2) . .
N2 C40 C35 120.9(6) . .
N2 C40 C39 120.5(6) . .
C35 C40 C39 118.6(6) . .
O8 C41 H41A 109.5 . .
O8 C41 H41B 109.5 . .
H41A C41 H41B 109.5 . .
O8 C41 H41C 109.5 . .
H41A C41 H41C 109.5 . .
H41B C41 H41C 109.5 . .
C43_a C42_a C39 179(4) . .
C42_a C43_a C44_a 175(2) . .
C49_a C44_a C45_a 117.7(14) . .
C49_a C44_a C43_a 123.1(17) . .
C45_a C44_a C43_a 119.2(16) . .
C46_a C45_a C44_a 121.1(15) . .
C46_a C45_a H45_a 119.5 . .
C44_a C45_a H45_a 119.5 . .
C45_a C46_a C47_a 119.5(16) . .
C45_a C46_a H46_a 120.2 . .
C47_a C46_a H46_a 120.2 . .
C48_a C47_a C46_a 119.8(16) . .
C48_a C47_a H47_a 120.1 . .
C46_a C47_a H47_a 120.1 . .
C49_a C48_a C47_a 119.0(14) . .
C49_a C48_a C50 120.3(15) . .
C47_a C48_a C50 120.3(15) . .
C44_a C49_a C48_a 122.6(15) . .
C44_a C49_a H49_a 118.7 . .
C48_a C49_a H49_a 118.7 . .
C43B_b C42B_b C39 179(2) . .
C42B_b C43B_b C44B_b 177.4(11) . .
C49B_b C44B_b C45B_b 119.3(9) . .
C49B_b C44B_b C43B_b 122.8(10) . .
C45B_b C44B_b C43B_b 117.8(10) . .
C46B_b C45B_b C44B_b 119.9(10) . .
C46B_b C45B_b H45B_b 120.1 . .
C44B_b C45B_b H45B_b 120.1 . .
C45B_b C46B_b C47B_b 119.9(10) . .
C45B_b C46B_b H46B_b 120.0 . .
C47B_b C46B_b H46B_b 120.0 . .
C48B_b C47B_b C46B_b 119.0(10) . .
C48B_b C47B_b H47B_b 120.5 . .
C46B_b C47B_b H47B_b 120.5 . .
C47B_b C48B_b C49B_b 121.0(9) . .
C47B_b C48B_b C50 118.5(9) . .
C49B_b C48B_b C50 120.3(9) . .
C44B_b C49B_b C48B_b 120.5(10) . .
C44B_b C49B_b H49B_b 119.7 . .
C48B_b C49B_b H49B_b 119.7 . .
O9 C50 O10 125.2(6) . .
O9 C50 C48B_b 116.3(7) . .
O10 C50 C48B_b 118.3(7) . .
O9 C50 C48_a 116.8(10) . .
O10 C50 C48_a 116.7(10) . .
O11 C51 H51A 109.5 . .
O11 C51 H51B 109.5 . .
H51A C51 H51B 109.5 . .
O11 C51 H51C 109.5 . .
H51A C51 H51C 109.5 . .
H51B C51 H51C 109.5 . .
O1 Cu2 O6 91.2(3) . .
O1 Cu2 N3 99.8(3) . .
O6 Cu2 N3 93.6(2) . .
O1 Cu2 Cu1 85.4(2) . .
O6 Cu2 Cu1 84.39(19) . .
N3 Cu2 Cu1 174.46(19) . .
C52 N3 C56 120.0 . .
C52 N3 Cu2 116.7(3) . .
C56 N3 Cu2 123.3(3) . .
C53 C52 N3 120.0 . .
C53 C52 H52 120.0 . .
N3 C52 H52 120.0 . .
C52 C53 C54 120.0 . .
C52 C53 H53 120.0 . .
C54 C53 H53 120.0 . .
C55 C54 C53 120.0 . .
C55 C54 C54B 120.1(4) . .
C53 C54 C54B 119.7(4) . .
C56 C55 C54 120.0 . .
C56 C55 H55 120.0 . .
C54 C55 H55 120.0 . .
C55 C56 N3 120.0 . .
C55 C56 H56 120.0 . .
N3 C56 H56 120.0 . .
C52B N3B C56B 120.0 . .
C52B N3B Cu2B 121.5(3) . .
C56B N3B Cu2B 118.5(3) . .
N3B C52B C53B 120.0 . .
N3B C52B H52B 120.0 . .
C53B C52B H52B 120.0 . .
C52B C53B C54B 120.0 . .
C52B C53B H53B 120.0 . .
C54B C53B H53B 120.0 . .
C55B C54B C53B 120.0 . .
C55B C54B C54 119.9(4) . .
C53B C54B C54 120.1(4) . .
C54B C55B C56B 120.0 . .
C54B C55B H55B 120.0 . .
C56B C55B H55B 120.0 . .
C55B C56B N3B 120.0 . .
C55B C56B H56B 120.0 . .
N3B C56B H56B 120.0 . .
C15 N1 H1A 120.0 . .
C15 N1 H1B 120.0 . .
H1A N1 H1B 120.0 . .
C40 N2 H2A 120.0 . .
C40 N2 H2B 120.0 . .
H2A N2 H2B 120.0 . .
C1 O1 Cu2 123.6(4) . .
C1 O2 Cu1 121.1(4) . .
C12 O3 C16 116.9(8) . .
C25 O4 Cu1 122.8(4) . 2_665
C26 O6 Cu2 121.0(4) . .
C26 O7 Cu1 124.3(4) . .
C37 O8 C41 115.4(6) . .
C50 O9 Cu1 123.1(4) . 2_665
C51 O11 Cu1 115.9(6) . .
C51 O11 H11A 110.5 . .
Cu1 O11 H11A 117.2 . .
O4 Cu1 O9 88.79(18) 2_665 2_665
O4 Cu1 O2 170.23(16) 2_665 .
O9 Cu1 O2 90.36(18) 2_665 .
O4 Cu1 O7 89.52(18) 2_665 .
O9 Cu1 O7 166.46(16) 2_665 .
O2 Cu1 O7 89.03(18) . .
O4 Cu1 O11 95.1(2) 2_665 .
O9 Cu1 O11 97.7(2) 2_665 .
O2 Cu1 O11 94.6(2) . .
O7 Cu1 O11 95.8(2) . .
O4 Cu1 Cu2 87.64(13) 2_665 .
O9 Cu1 Cu2 82.09(14) 2_665 .
O2 Cu1 Cu2 82.61(14) . .
O7 Cu1 Cu2 84.42(14) . .
O11 Cu1 Cu2 177.2(2) . .
loop_
_geom_bond_atom_site_label_1
_geom_bond_atom_site_label_2
_geom_bond_distance
_geom_bond_site_symmetry_2
C1 O1 1.249(7) .
C1 O2 1.266(6) .
C1 C2 1.511(8) .
C2 C7 1.386(8) .
C2 C3 1.399(8) .
C3 C4 1.387(10) .
C3 H3 0.9500 .
C4 C5 1.381(10) .
C4 H4 0.9500 .
C5 C6 1.386(9) .
C5 H5 0.9500 .
C6 C7 1.390(9) .
C6 C8 1.453(9) .
C7 H7 0.9500 .
C8 C9 1.197(9) .
C9 C10 1.424(9) .
C10 C15 1.394(9) .
C10 C11 1.417(10) .
C11 C12 1.375(11) .
C11 H11 0.9500 .
C12 O3 1.381(10) .
C12 C13 1.402(12) .
C13 C14 1.397(10) .
C13 H13 0.9500 .
C14 C15 1.409(9) .
C14 C17 1.439(10) .
C15 N1 1.375(8) .
C16 O3 1.417(12) .
C16 H16A 0.9800 .
C16 H16B 0.9800 .
C16 H16C 0.9800 .
C17 C18 1.196(11) .
C18 C19 1.432(10) .
C19 C20 1.385(11) .
C19 C24 1.396(9) .
C20 C21 1.394(12) .
C20 H20 0.9500 .
C21 C22 1.366(11) .
C21 H21 0.9500 .
C22 C23 1.368(9) .
C22 H22 0.9500 .
C23 C24 1.378(9) .
C23 C25 1.507(8) .
C24 H24 0.9500 .
C25 O4 1.263(7) .
C25 O5 1.267(6) .
C26 O7 1.263(7) .
C26 O6 1.269(7) .
C26 C27 1.498(8) .
C27 C32 1.381(8) .
C27 C28 1.402(8) .
C28 C29 1.389(9) .
C28 H28 0.9500 .
C29 C30 1.370(10) .
C29 H29 0.9500 .
C30 C31 1.405(9) .
C30 H30 0.9500 .
C31 C32 1.397(8) .
C31 C33 1.440(9) .
C32 H32 0.9500 .
C33 C34 1.189(9) .
C34 C35 1.421(9) .
C35 C40 1.398(9) .
C35 C36 1.420(8) .
C36 C37 1.381(9) .
C36 H36 0.9500 .
C37 C38 1.377(10) .
C37 O8 1.391(8) .
C38 C39 1.398(9) .
C38 H38 0.9500 .
C39 C40 1.421(9) .
C39 C42B_b 1.448(11) .
C39 C42_a 1.449(15) .
C40 N2 1.371(8) .
C41 O8 1.402(11) .
C41 H41A 0.9800 .
C41 H41B 0.9800 .
C41 H41C 0.9800 .
C42_a C43_a 1.190(15) .
C43_a C44_a 1.441(15) .
C44_a C49_a 1.368(15) .
C44_a C45_a 1.404(17) .
C45_a C46_a 1.371(18) .
C45_a H45_a 0.9500 .
C46_a C47_a 1.402(17) .
C46_a H46_a 0.9500 .
C47_a C48_a 1.384(16) .
C47_a H47_a 0.9500 .
C48_a C49_a 1.383(15) .
C48_a C50 1.543(14) .
C49_a H49_a 0.9500 .
C42B_b C43B_b 1.186(12) .
C43B_b C44B_b 1.433(12) .
C44B_b C49B_b 1.367(11) .
C44B_b C45B_b 1.405(13) .
C45B_b C46B_b 1.365(14) .
C45B_b H45B_b 0.9500 .
C46B_b C47B_b 1.414(13) .
C46B_b H46B_b 0.9500 .
C47B_b C48B_b 1.362(12) .
C47B_b H47B_b 0.9500 .
C48B_b C49B_b 1.377(11) .
C48B_b C50 1.509(10) .
C49B_b H49B_b 0.9500 .
C50 O9 1.266(7) .
C50 O10 1.275(7) .
C51 O11 1.496(14) .
C51 H51A 0.9800 .
C51 H51B 0.9800 .
C51 H51C 0.9800 .
Cu2 O1 1.847(5) .
Cu2 O6 2.026(6) .
Cu2 N3 2.153(7) .
Cu2 Cu1 2.628(5) .
N3 C52 1.3900 .
N3 C56 1.3900 .
C52 C53 1.3900 .
C52 H52 0.9500 .
C53 C54 1.3900 .
C53 H53 0.9500 .
C54 C55 1.3900 .
C54 C54B 1.531(4) .
C55 C56 1.3900 .
C55 H55 0.9500 .
C56 H56 0.9500 .
Cu2B N3B 2.128(7) .
N3B C52B 1.3900 .
N3B C56B 1.3900 .
C52B C53B 1.3900 .
C52B H52B 0.9500 .
C53B C54B 1.3900 .
C53B H53B 0.9500 .
C54B C55B 1.3900 .
C55B C56B 1.3900 .
C55B H55B 0.9500 .
C56B H56B 0.9500 .
N1 H1A 0.8800 .
N1 H1B 0.8800 .
N2 H2A 0.8800 .
N2 H2B 0.8800 .
O2 Cu1 1.952(4) .
O4 Cu1 1.937(4) 2_665
O7 Cu1 1.959(4) .
O9 Cu1 1.942(4) 2_665
O11 Cu1 2.139(5) .
O11 H11A 0.8400 .
Cu1 O4 1.937(4) 2_665
Cu1 O9 1.942(4) 2_665
loop_
_geom_torsion_atom_site_label_1
_geom_torsion_atom_site_label_2
_geom_torsion_atom_site_label_3
_geom_torsion_atom_site_label_4
_geom_torsion
_geom_torsion_site_symmetry_4
O1 C1 C2 C7 -168.2(5) .
O2 C1 C2 C7 10.2(8) .
O1 C1 C2 C3 10.7(8) .
O2 C1 C2 C3 -170.9(5) .
C7 C2 C3 C4 -0.9(10) .
C1 C2 C3 C4 -179.9(6) .
C2 C3 C4 C5 2.4(11) .
C3 C4 C5 C6 -2.3(11) .
C4 C5 C6 C7 0.8(10) .
C4 C5 C6 C8 -179.8(7) .
C3 C2 C7 C6 -0.6(9) .
C1 C2 C7 C6 178.3(5) .
C5 C6 C7 C2 0.7(9) .
C8 C6 C7 C2 -178.7(6) .
C15 C10 C11 C12 -4.9(12) .
C9 C10 C11 C12 178.4(8) .
C10 C11 C12 O3 178.3(10) .
C10 C11 C12 C13 3.1(15) .
C11 C12 C13 C14 -0.8(16) .
O3 C12 C13 C14 -176.5(9) .
C12 C13 C14 C15 0.3(13) .
C12 C13 C14 C17 176.8(9) .
C11 C10 C15 N1 -176.1(7) .
C9 C10 C15 N1 0.6(10) .
C11 C10 C15 C14 4.3(10) .
C9 C10 C15 C14 -178.9(6) .
C13 C14 C15 N1 178.3(7) .
C17 C14 C15 N1 1.9(11) .
C13 C14 C15 C10 -2.1(11) .
C17 C14 C15 C10 -178.5(6) .
C24 C19 C20 C21 -0.2(13) .
C18 C19 C20 C21 -178.2(8) .
C19 C20 C21 C22 1.5(13) .
C20 C21 C22 C23 -1.5(13) .
C21 C22 C23 C24 0.3(11) .
C21 C22 C23 C25 177.6(7) .
C22 C23 C24 C19 0.9(10) .
C25 C23 C24 C19 -176.4(6) .
C20 C19 C24 C23 -1.0(11) .
C18 C19 C24 C23 177.1(7) .
C22 C23 C25 O4 173.7(6) .
C24 C23 C25 O4 -8.9(8) .
C22 C23 C25 O5 -7.2(9) .
C24 C23 C25 O5 170.1(6) .
O7 C26 C27 C32 -2.8(8) .
O6 C26 C27 C32 177.4(6) .
O7 C26 C27 C28 178.7(6) .
O6 C26 C27 C28 -1.1(9) .
C32 C27 C28 C29 0.8(11) .
C26 C27 C28 C29 179.3(6) .
C27 C28 C29 C30 1.3(12) .
C28 C29 C30 C31 -1.3(13) .
C29 C30 C31 C32 -0.8(11) .
C29 C30 C31 C33 178.5(7) .
C28 C27 C32 C31 -2.9(10) .
C26 C27 C32 C31 178.6(6) .
C30 C31 C32 C27 2.9(10) .
C33 C31 C32 C27 -176.4(6) .
C40 C35 C36 C37 -0.8(9) .
C34 C35 C36 C37 179.1(6) .
C35 C36 C37 C38 1.9(10) .
C35 C36 C37 O8 -178.6(6) .
C36 C37 C38 C39 -2.6(10) .
O8 C37 C38 C39 178.0(6) .
C37 C38 C39 C40 2.0(10) .
C37 C38 C39 C42B_b -174.1(8) .
C37 C38 C39 C42_a 175.9(10) .
C36 C35 C40 N2 179.5(6) .
C34 C35 C40 N2 -0.4(10) .
C36 C35 C40 C39 0.3(9) .
C34 C35 C40 C39 -179.6(6) .
C38 C39 C40 N2 179.8(6) .
C42B_b C39 C40 N2 -3.9(10) .
C42_a C39 C40 N2 6.3(12) .
C38 C39 C40 C35 -0.9(9) .
C42B_b C39 C40 C35 175.3(7) .
C42_a C39 C40 C35 -174.4(10) .
C49_a C44_a C45_a C46_a -7(4) .
C43_a C44_a C45_a C46_a 176(3) .
C44_a C45_a C46_a C47_a 8(4) .
C45_a C46_a C47_a C48_a -5(4) .
C46_a C47_a C48_a C49_a 1(4) .
C46_a C47_a C48_a C50 -172(2) .
C45_a C44_a C49_a C48_a 3(4) .
C43_a C44_a C49_a C48_a -180(3) .
C47_a C48_a C49_a C44_a -1(4) .
C50 C48_a C49_a C44_a 173(2) .
C49B_b C44B_b C45B_b C46B_b -5.6(19) .
C43B_b C44B_b C45B_b C46B_b 176.5(12) .
C44B_b C45B_b C46B_b C47B_b 7(2) .
C45B_b C46B_b C47B_b C48B_b -4(2) .
C46B_b C47B_b C48B_b C49B_b -1.0(19) .
C46B_b C47B_b C48B_b C50 175.3(11) .
C45B_b C44B_b C49B_b C48B_b 0.9(18) .
C43B_b C44B_b C49B_b C48B_b 178.7(11) .
C47B_b C48B_b C49B_b C44B_b 2.4(19) .
C50 C48B_b C49B_b C44B_b -173.9(10) .
C47B_b C48B_b C50 O9 179.3(9) .
C49B_b C48B_b C50 O9 -4.3(14) .
C47B_b C48B_b C50 O10 3.4(14) .
C49B_b C48B_b C50 O10 179.8(9) .
C47B_b C48B_b C50 C48_a -85(4) .
C49B_b C48B_b C50 C48_a 91(4) .
C49_a C48_a C50 O9 14(3) .
C47_a C48_a C50 O9 -172(2) .
C49_a C48_a C50 O10 -178(2) .
C47_a C48_a C50 O10 -4(3) .
C49_a C48_a C50 C48B_b -78(5) .
C47_a C48_a C50 C48B_b 95(5) .
C56 N3 C52 C53 0.0 .
Cu2 N3 C52 C53 180.0 .
N3 C52 C53 C54 0.0 .
C52 C53 C54 C55 0.0 .
C52 C53 C54 C54B 175.4(4) .
C53 C54 C55 C56 0.0 .
C54B C54 C55 C56 -175.3(4) .
C54 C55 C56 N3 0.0 .
C52 N3 C56 C55 0.0 .
Cu2 N3 C56 C55 180.0 .
C56B N3B C52B C53B 0.0 .
Cu2B N3B C52B C53B 180.0 .
N3B C52B C53B C54B 0.0 .
C52B C53B C54B C55B 0.0 .
C52B C53B C54B C54 -178.4(4) .
C55 C54 C54B C55B -153.6(3) .
C53 C54 C54B C55B 31.1(4) .
C55 C54 C54B C53B 24.8(5) .
C53 C54 C54B C53B -150.6(3) .
C53B C54B C55B C56B 0.0 .
C54 C54B C55B C56B 178.4(4) .
C54B C55B C56B N3B 0.0 .
C52B N3B C56B C55B 0.0 .
Cu2B N3B C56B C55B 180.0 .
O2 C1 O1 Cu2 -4.3(8) .
C2 C1 O1 Cu2 173.9(4) .
O6 Cu2 O1 C1 -76.0(5) .
N3 Cu2 O1 C1 -169.8(4) .
Cu1 Cu2 O1 C1 8.3(5) .
O1 C1 O2 Cu1 -5.7(8) .
C2 C1 O2 Cu1 176.0(3) .
C11 C12 O3 C16 3.6(18) .
C13 C12 O3 C16 179.0(11) .
O5 C25 O4 Cu1 3.8(8) 2_665
C23 C25 O4 Cu1 -177.2(4) 2_665
O7 C26 O6 Cu2 -1.0(8) .
C27 C26 O6 Cu2 178.8(4) .
O6 C26 O7 Cu1 -6.6(8) .
C27 C26 O7 Cu1 173.7(4) .
C38 C37 O8 C41 -8.1(13) .
C36 C37 O8 C41 172.4(10) .
O10 C50 O9 Cu1 2.2(9) 2_665
C48B_b C50 O9 Cu1 -173.3(7) 2_665
C48_a C50 O9 Cu1 169.0(13) 2_665
