#------------------------------------------------------------------------------
#$Date: 2016-03-26 14:56:23 +0200 (Sat, 26 Mar 2016) $
#$Revision: 180281 $
#$URL: svn://www.crystallography.net/cod/cif/7/11/67/7116747.cif $
#------------------------------------------------------------------------------
#
# This file is available in the Crystallography Open Database (COD),
# http://www.crystallography.net/
#
# All data on this site have been placed in the public domain by the
# contributors.
#
data_7116747
loop_
_publ_author_name
'Valentina Brega'
'Matthias Zeller'
'Yufan He'
'H. Peter Lu'
'Jeremy K. Klosterman'
_publ_section_title
;
 Multi-responsive metal-organic lantern cages in solution
;
_journal_name_full               Chem.Commun.
_journal_page_first              5077
_journal_paper_doi               10.1039/C5cc00698H
_journal_volume                  51
_journal_year                    2015
_chemical_formula_sum            'C136.45 H149.05 Cu4 N16.15 O34.15'
_chemical_formula_weight         2815.82
_chemical_name_common            'MeOCage 1''
_chemical_name_systematic        Cage1'
_chemical_properties_physical    Efflorescent
_space_group_crystal_system      monoclinic
_space_group_IT_number           15
_space_group_name_Hall           '-C 2yc'
_space_group_name_H-M_alt        'C 1 2/c 1'
_symmetry_space_group_name_Hall  '-C 2yc'
_symmetry_space_group_name_H-M   'C 1 2/c 1'
_atom_sites_solution_hydrogens   mixed
_atom_sites_solution_primary     direct
_atom_sites_solution_secondary   difmap
_audit_creation_method           SHELXL-2013
_audit_update_record
;
2014-12-09 deposited with the CCDC.
2015-02-13 downloaded from the CCDC.
;
_cell_angle_alpha                90
_cell_angle_beta                 91.8800(10)
_cell_angle_gamma                90
_cell_formula_units_Z            4
_cell_length_a                   22.7256(6)
_cell_length_b                   27.9980(6)
_cell_length_c                   23.4326(5)
_cell_measurement_reflns_used    9693
_cell_measurement_temperature    100(2)
_cell_measurement_theta_max      66.7484
_cell_measurement_theta_min      3.0977
_cell_volume                     14901.5(6)
_computing_cell_refinement       'SAINT V8.34A (Bruker, 2014)'
_computing_data_collection       'Apex2 v2014.1-0 (Bruker, 2014)'
_computing_data_reduction        'SAINT V8.34A (Bruker, 2014)'
_computing_structure_refinement
;  
SHELXL-2013 (Sheldrick, 2013), 
SHELXLE Rev645 (H\"ubschle et al., 2011)
;
_computing_structure_solution    'SHELXS-97 (Sheldrick, 2008)'
_diffrn_ambient_temperature      100(2)
_diffrn_measured_fraction_theta_full 0.965
_diffrn_measured_fraction_theta_max 0.982
_diffrn_measurement_device_type  'Bruker AXS Prospector CCD diffractometer'
_diffrn_measurement_method       'omega and phi scans'
_diffrn_radiation_monochromator  'laterally graded multilayer (Goebel) mirror'
_diffrn_radiation_type           CuK\a
_diffrn_radiation_wavelength     1.54178
_diffrn_reflns_av_R_equivalents  0.0225
_diffrn_reflns_av_unetI/netI     0.0216
_diffrn_reflns_Laue_measured_fraction_full 0.965
_diffrn_reflns_Laue_measured_fraction_max 0.982
_diffrn_reflns_limit_h_max       26
_diffrn_reflns_limit_h_min       -26
_diffrn_reflns_limit_k_max       33
_diffrn_reflns_limit_k_min       -32
_diffrn_reflns_limit_l_max       27
_diffrn_reflns_limit_l_min       -27
_diffrn_reflns_number            53517
_diffrn_reflns_point_group_measured_fraction_full 0.965
_diffrn_reflns_point_group_measured_fraction_max 0.982
_diffrn_reflns_theta_full        67.679
_diffrn_reflns_theta_max         66.911
_diffrn_reflns_theta_min         3.157
_diffrn_source                   'I-mu-S microsource X-ray tube'
_exptl_absorpt_coefficient_mu    1.273
_exptl_absorpt_correction_T_max  0.7529
_exptl_absorpt_correction_T_min  0.6731
_exptl_absorpt_correction_type   multi-scan
_exptl_absorpt_process_details   'Apex2 v2014.1-0 (Bruker, 2014)'
_exptl_crystal_colour            green
_exptl_crystal_density_diffrn    1.255
_exptl_crystal_description       block
_exptl_crystal_F_000             5880
_exptl_crystal_recrystallization_method
'Re-crystallisation from solvent: DMF/Et2O'
_exptl_crystal_size_max          0.180
_exptl_crystal_size_mid          0.140
_exptl_crystal_size_min          0.120
_refine_diff_density_max         0.952
_refine_diff_density_min         -0.439
_refine_diff_density_rms         0.073
_refine_ls_extinction_method     none
_refine_ls_goodness_of_fit_ref   1.066
_refine_ls_hydrogen_treatment    constr
_refine_ls_matrix_type           full
_refine_ls_number_parameters     1323
_refine_ls_number_reflns         13021
_refine_ls_number_restraints     2459
_refine_ls_restrained_S_all      1.129
_refine_ls_R_factor_all          0.0611
_refine_ls_R_factor_gt           0.0584
_refine_ls_shift/su_max          0.008
_refine_ls_shift/su_mean         0.000
_refine_ls_structure_factor_coef Fsqd
_refine_ls_weighting_details
'w=1/[\s^2^(Fo^2^)+(0.0722P)^2^+59.1573P] where P=(Fo^2^+2Fc^2^)/3'
_refine_ls_weighting_scheme      calc
_refine_ls_wR_factor_gt          0.1550
_refine_ls_wR_factor_ref         0.1574
_reflns_Friedel_coverage         0.000
_reflns_number_gt                12202
_reflns_number_total             13021
_reflns_threshold_expression     'I > 2\s(I)'
_cod_data_source_file            c5cc00698h2-6.cif
_cod_data_source_block           prosp14mz030_0m_sq_s
_cod_database_code               7116747
#BEGIN Tags that were not found in dictionaries:
_shelx_space_group_comment
;
The symmetry employed for this shelxl refinement is uniquely defined
by the following loop, which should always be used as a source of
symmetry information in preference to the above space-group names.
They are only intended as comments.
;
_shelx_estimated_absorpt_t_min   0.803
_shelx_estimated_absorpt_t_max   0.862
_shelxl_version_number           2013-4
_shelx_res_file
;
TITL Prosp14mz030_0m in C2/c
CELL 1.54178  22.7256  27.9980  23.4326  90.000  91.880  90.000
ZERR    4.00   0.0006   0.0006   0.0005   0.000   0.001   0.000
LATT  7
SYMM -X, Y, 0.5-Z
SFAC C H N O CU
UNIT 545.8 596.2 64.6 136.6 16
LIST 4 ! automatically inserted. Change 6 to 4 for CHECKCIF!!
TEMP -173.150
SIZE 0.12 0.14 0.18

L.S. 14
BOND $H
ACTA
CONF
FMAP 2
PLAN 30
SIMU O14 C57 N5 C58 C59 O14B C57B N5B C58B C59B
SIMU O15 C60 N6 C61 C62 O15B C60B N6B C61B C62B O15C C60C N6C C61C C62C =
     O17 C66 N8 C67 C68 O17B C66B N8B C67B C68B O17C C66C N8C C67C C68C O17D =
     C66D N8D C67D C68D O17E C66E N8E C67E C68E O15D C60D N6D C61D C62D =
     O15E C60E N6E C61E C62E
FLAT 0.01 C66E C67E C68E N8E
RIGU O16 C63 N7 C64 C65
RIGU O13 C54 N4 C55 C56
RIGU O13B C54B N4B C55B C56B
ISOR 0.005 O15D
ISOR 0.01 O15 > C68E
DFIX 0.84 O12 H12A O12 H12B O12 H12C O12 H12D
DFIX 1.36 H12A H12B H12C H12D
OMIT -1 1 1
OMIT 2 2 1
OMIT 0 2 1
OMIT 1 1 0
OMIT 0 0 2
BUMP -0.02

ABIN
WGHT    0.072200   59.157265
FVAR       0.11061   0.54890   0.53177   0.35839   0.31256   0.22902   0.28812
FVAR       0.32124   0.27582   0.29146   0.35278   0.16341   0.13902   0.29468
C1    1    0.286891    0.468615    0.477741    11.00000    0.02378    0.02843 =
         0.02221   -0.00195   -0.00054   -0.00072
C2    1    0.277219    0.484155    0.416679    11.00000    0.02877    0.03212 =
         0.02022    0.00023   -0.00233   -0.00125
C3    1    0.285710    0.531423    0.401052    11.00000    0.03572    0.03368 =
         0.02583   -0.00138   -0.00271   -0.00349
AFIX  43
H3    2    0.296038    0.554550    0.429307    11.00000   -1.20000
AFIX   0
C4    1    0.279142    0.544929    0.344286    11.00000    0.05351    0.03591 =
         0.02758    0.00639   -0.00300   -0.00837
AFIX  43
H4    2    0.285603    0.577201    0.333647    11.00000   -1.20000
AFIX   0
C5    1    0.263193    0.511521    0.303048    11.00000    0.05375    0.04410 =
         0.02169    0.00448   -0.00393   -0.00344
AFIX  43
H5    2    0.258855    0.520918    0.264182    11.00000   -1.20000
AFIX   0
C6    1    0.253465    0.464050    0.318419    11.00000    0.03953    0.03720 =
         0.02190   -0.00274   -0.00567    0.00115
C7    1    0.261009    0.450360    0.375390    11.00000    0.03580    0.02984 =
         0.02278   -0.00155   -0.00426    0.00055
AFIX  43
H7    2    0.255108    0.418024    0.386070    11.00000   -1.20000
AFIX   0
C8    1    0.235679    0.429349    0.275410    11.00000    0.04846    0.03946 =
         0.02232    0.00056   -0.00698    0.00360
C9    1    0.219857    0.402097    0.239021    11.00000    0.04851    0.04076 =
         0.02163    0.00040   -0.00539    0.00180
C10   1    0.201499    0.370745    0.193259    11.00000    0.04434    0.03853 =
         0.02261   -0.00321   -0.00548   -0.00005
C11   1    0.203221    0.387194    0.136995    11.00000    0.04647    0.03336 =
         0.02450   -0.00186   -0.00282   -0.00659
AFIX  43
H11   2    0.217333    0.418433    0.129486    11.00000   -1.20000
AFIX   0
C12   1    0.184502    0.358232    0.092318    11.00000    0.04824    0.03560 =
         0.01904    0.00138   -0.00039   -0.00773
C13   1    0.163912    0.312518    0.103522    11.00000    0.04913    0.03319 =
         0.02150    0.00030   -0.00509   -0.00605
AFIX  43
H13   2    0.150279    0.292818    0.072840    11.00000   -1.20000
AFIX   0
C14   1    0.163072    0.295317    0.159273    11.00000    0.05236    0.03422 =
         0.02396    0.00581   -0.00336   -0.00347
C15   1    0.181642    0.324417    0.205671    11.00000    0.05597    0.04168 =
         0.02128    0.00478   -0.00414   -0.00068
C16   1    0.143145    0.247660    0.170267    11.00000    0.06328    0.04211 =
         0.02338    0.00873   -0.00722   -0.00364
C17   1    0.128409    0.207428    0.180924    11.00000    0.07072    0.04106 =
         0.02659    0.01123   -0.00938   -0.00593
C18   1    0.114089    0.159480    0.196938    11.00000    0.06510    0.03902 =
         0.02687    0.01134   -0.00544   -0.00670
C19   1    0.138476    0.141525    0.247913    11.00000    0.04740    0.03419 =
         0.02297    0.00361   -0.00137   -0.00386
AFIX  43
H19   2    0.164725    0.160734    0.270414    11.00000   -1.20000
AFIX   0
C20   1    0.124725    0.095879    0.266010    11.00000    0.04197    0.03214 =
         0.01875    0.00493   -0.00044   -0.00042
C21   1    0.086179    0.067632    0.233638    11.00000    0.06159    0.03606 =
         0.02860    0.00832   -0.00820   -0.00960
AFIX  43
H21   2    0.076868    0.036303    0.246030    11.00000   -1.20000
AFIX   0
C22   1    0.061193    0.085405    0.182893    11.00000    0.08601    0.05112 =
         0.03386    0.00910   -0.02488   -0.02272
AFIX  43
H22   2    0.034350    0.066386    0.160819    11.00000   -1.20000
AFIX   0
C23   1    0.075528    0.130749    0.164731    11.00000    0.09225    0.05301 =
         0.03016    0.01494   -0.02206   -0.01549
AFIX  43
H23   2    0.058855    0.142512    0.129778    11.00000   -1.20000
AFIX   0
C24   1    0.151284    0.078253    0.321769    11.00000    0.03277    0.02708 =
         0.02209    0.00134    0.00354    0.00120
C25   1    0.207969    0.417100    0.023735    11.00000    0.08860    0.04206 =
         0.02650    0.00493    0.00040   -0.02729
AFIX 137
H25A  2    0.209145    0.421454   -0.017710    11.00000   -1.50000
H25B  2    0.247965    0.419341    0.040463    11.00000   -1.50000
H25C  2    0.183292    0.441979    0.040076    11.00000   -1.50000
AFIX   0
C26   1    0.415221    0.421762    0.548683    11.00000    0.03208    0.02919 =
         0.01901    0.00482   -0.00175   -0.00113
C27   1    0.477623    0.411247    0.534227    11.00000    0.03050    0.03339 =
         0.01954    0.00509   -0.00173    0.00046
C28   1    0.518725    0.448612    0.536303    11.00000    0.03337    0.03095 =
         0.02864    0.00867   -0.00251    0.00194
AFIX  43
H28   2    0.507209    0.479589    0.548150    11.00000   -1.20000
AFIX   0
C29   1    0.576030    0.440227    0.521061    11.00000    0.02892    0.03708 =
         0.03773    0.01223   -0.00141   -0.00454
AFIX  43
H29   2    0.603740    0.465644    0.522017    11.00000   -1.20000
AFIX   0
C30   1    0.593231    0.395422    0.504537    11.00000    0.02785    0.04250 =
         0.03415    0.00418    0.00310    0.00251
AFIX  43
H30   2    0.632692    0.390219    0.493879    11.00000   -1.20000
AFIX   0
C31   1    0.553084    0.357113    0.503205    11.00000    0.03057    0.04080 =
         0.02801   -0.00049    0.00084    0.00306
C32   1    0.494904    0.365892    0.517899    11.00000    0.03006    0.03525 =
         0.02833   -0.00007    0.00117   -0.00189
AFIX  43
H32   2    0.467029    0.340597    0.516682    11.00000   -1.20000
AFIX   0
C33   1    0.571685    0.310440    0.485306    11.00000    0.02691    0.04436 =
         0.03835   -0.00497    0.00381   -0.00127
C34   1    0.588952    0.272620    0.468480    11.00000    0.02959    0.04516 =
         0.03630   -0.00530    0.00587   -0.00204
C35   1    0.606571    0.227632    0.445813    11.00000    0.03199    0.03812 =
         0.03360   -0.00458    0.00331   -0.00151
C36   1    0.666217    0.217310    0.438753    11.00000    0.02775    0.03114 =
         0.02940    0.00047   -0.00136   -0.00424
AFIX  43
H36   2    0.695364    0.240189    0.449585    11.00000   -1.20000
AFIX   0
C37   1    0.682842    0.173873    0.416042    11.00000    0.02556    0.03076 =
         0.03280    0.00090   -0.00280   -0.00046
C38   1    0.640444    0.140735    0.399316    11.00000    0.03445    0.03301 =
         0.02893   -0.00209   -0.00218   -0.00285
AFIX  43
H38   2    0.652084    0.111207    0.383205    11.00000   -1.20000
AFIX   0
C39   1    0.581176    0.150243    0.405861    11.00000    0.02925    0.04626 =
         0.03623   -0.00613    0.00350   -0.00996
C40   1    0.562766    0.194238    0.429824    11.00000    0.02900    0.05593 =
         0.05636   -0.01937    0.01024   -0.00827
C41   1    0.537424    0.116009    0.388774    11.00000    0.03178    0.05339 =
         0.05098   -0.01595    0.00701   -0.00827
C42   1    0.498330    0.089232    0.374302    11.00000    0.03141    0.05795 =
         0.05354   -0.01676    0.00810   -0.00813
C43   1    0.451036    0.058029    0.357477    11.00000    0.03208    0.05326 =
         0.04984   -0.01460    0.00414   -0.01113
C44   1    0.459887    0.021624    0.318587    11.00000    0.03914    0.08362 =
         0.07750   -0.04307    0.02514   -0.01999
AFIX  43
H44   2    0.497803    0.016726    0.303710    11.00000   -1.20000
AFIX   0
C45   1    0.413380   -0.007632    0.301415    11.00000    0.04607    0.08834 =
         0.07965   -0.05343    0.02238   -0.02304
AFIX  43
H45   2    0.419446   -0.032321    0.274427    11.00000   -1.20000
AFIX   0
C46   1    0.358334   -0.001089    0.323304    11.00000    0.03847    0.05458 =
         0.04585   -0.01998    0.00804   -0.01828
AFIX  43
H46   2    0.326557   -0.021109    0.311217    11.00000   -1.20000
AFIX   0
C47   1    0.349495    0.034503    0.362704    11.00000    0.03069    0.03602 =
         0.02736   -0.00070    0.00098   -0.00605
C48   1    0.395634    0.064567    0.379215    11.00000    0.03179    0.03732 =
         0.03467   -0.00721    0.00079   -0.00494
AFIX  43
H48   2    0.389169    0.089704    0.405511    11.00000   -1.20000
AFIX   0
C49   1    0.289566    0.041925    0.386443    11.00000    0.03030    0.02982 =
         0.02185    0.00198   -0.00239   -0.00414
C50   1    0.784351    0.185778    0.439755    11.00000    0.02601    0.04379 =
         0.07423   -0.00803   -0.00785   -0.00399
AFIX 137
H50A  2    0.822805    0.171187    0.433508    11.00000   -1.50000
H50B  2    0.776084    0.184717    0.480519    11.00000   -1.50000
H50C  2    0.784740    0.219070    0.426859    11.00000   -1.50000
AFIX   0
N1    3    0.179873    0.307745    0.260579    11.00000    0.11879    0.05328 =
         0.02023    0.00907   -0.01344   -0.01457
AFIX  93
H1A   2    0.191356    0.326177    0.289255    11.00000   -1.20000
H1B   2    0.167254    0.278608    0.267160    11.00000   -1.20000
AFIX   0
N2    3    0.504686    0.204030    0.436075    11.00000    0.03116    0.08263 =
         0.14887   -0.06577    0.02027   -0.01128
AFIX  93
H2A   2    0.493947    0.231647    0.450333    11.00000   -1.20000
H2B   2    0.477863    0.182747    0.425861    11.00000   -1.20000
AFIX   0
O1    4    0.298800    0.501167    0.513664    11.00000    0.03119    0.02435 =
         0.02033   -0.00166   -0.00245   -0.00076
O2    4    0.283606    0.424475    0.488346    11.00000    0.04360    0.02507 =
         0.02153   -0.00251   -0.00455   -0.00536
O3    4    0.183889    0.371157    0.035959    11.00000    0.08384    0.03841 =
         0.01889    0.00267   -0.00294   -0.02649
O4    4    0.180272    0.107972    0.351583    11.00000    0.03907    0.02745 =
         0.02357    0.00432   -0.00297   -0.00590
O5    4    0.141802    0.035307    0.334682    11.00000    0.04191    0.02414 =
         0.02531    0.00347   -0.00473   -0.00196
O6    4    0.402904    0.464573    0.559647    11.00000    0.02967    0.02634 =
         0.03428    0.00231    0.00207    0.00065
O7    4    0.379738    0.387095    0.548789    11.00000    0.03046    0.02827 =
         0.03342   -0.00064    0.00297   -0.00139
O8    4    0.739992    0.160187    0.408386    11.00000    0.02554    0.03843 =
         0.06732   -0.01471   -0.00453    0.00029
O9    4    0.281324    0.080528    0.412811    11.00000    0.02814    0.03100 =
         0.03339   -0.00415   -0.00099   -0.00537
O10   4    0.252208    0.009182    0.377909    11.00000    0.02744    0.02712 =
         0.03082   -0.00086    0.00203   -0.00522
O11   4    0.344564    0.561753    0.612405    11.00000    0.03774    0.02148 =
         0.02379   -0.00176   -0.00099   -0.00520
C51   1    0.351861    0.574564    0.662816    11.00000    0.04232    0.02614 =
         0.03018   -0.00045   -0.00160   -0.00584
AFIX  43
H51   2    0.355997    0.550236    0.690924    11.00000   -1.20000
AFIX   0
N3    3    0.354335    0.619208    0.680494    11.00000    0.05669    0.02889 =
         0.02925   -0.00756    0.00259   -0.00886
C52   1    0.346636    0.658823    0.640756    11.00000    0.07611    0.02567 =
         0.04226   -0.00407    0.00748   -0.00855
AFIX 137
H52A  2    0.340219    0.646364    0.601967    11.00000   -1.50000
H52B  2    0.381988    0.678887    0.642218    11.00000   -1.50000
H52C  2    0.312514    0.677899    0.651319    11.00000   -1.50000
AFIX   0
C53   1    0.364133    0.631543    0.740397    11.00000    0.08123    0.04858 =
         0.03316   -0.01363    0.00002   -0.01325
AFIX 137
H53A  2    0.398851    0.652166    0.744576    11.00000   -1.50000
H53B  2    0.370541    0.602325    0.762777    11.00000   -1.50000
H53C  2    0.329604    0.648443    0.754170    11.00000   -1.50000
AFIX   0
O12   4    0.269495    0.326442    0.554334    11.00000    0.09285    0.03182 =
         0.07617   -0.01824    0.02373   -0.02578
AFIX   3
PART 1
H12A  2    0.265443    0.301284    0.575551    10.50000   -1.50000
H12B  2    0.235327    0.328299    0.537755    10.50000   -1.50000
PART 2
H12C  2    0.249707    0.303286    0.567888    10.50000   -1.50000
H12D  2    0.295206    0.313734    0.534300    10.50000   -1.50000
PART 1
AFIX   0
SAME O11 > C53
O13   4    0.252068    0.209141    0.332216    21.00000    0.18564    0.09066 =
         0.12374   -0.00050    0.05283   -0.04644
C54   1    0.285799    0.175440    0.317140    21.00000    0.17259    0.08510 =
         0.07297    0.00983    0.03279   -0.03650
AFIX  43
H54   2    0.294920    0.150317    0.343206    21.00000   -1.20000
AFIX   0
N4    3    0.308038    0.174786    0.266600    21.00000    0.10330    0.08338 =
         0.05285    0.02277    0.00187   -0.02084
C55   1    0.296005    0.212120    0.225430    21.00000    0.07911    0.10220 =
         0.08800    0.04172    0.00160   -0.00767
AFIX  33
H55A  2    0.330551    0.216874    0.202126    21.00000   -1.50000
H55B  2    0.287081    0.241857    0.245439    21.00000   -1.50000
H55C  2    0.262207    0.202992    0.200756    21.00000   -1.50000
AFIX   0
C56   1    0.333899    0.130236    0.246642    21.00000    0.32421    0.11346 =
         0.07572    0.02837    0.03569    0.07246
AFIX  33
H56A  2    0.309354    0.117202    0.215194    21.00000   -1.50000
H56B  2    0.336098    0.107151    0.278077    21.00000   -1.50000
H56C  2    0.373578    0.136496    0.233279    21.00000   -1.50000
AFIX   0
PART 2
SAME O11 > C53
O13B  4    0.395584    0.181540    0.356170   -21.00000    0.08264    0.08974 =
         0.12206    0.00745   -0.03698   -0.01488
C54B  1    0.368185    0.206700    0.320864   -21.00000    0.11593    0.10800 =
         0.11549   -0.00924   -0.03459    0.02427
AFIX  43
H54B  2    0.375350    0.240022    0.324281   -21.00000   -1.20000
AFIX   0
N4B   3    0.330929    0.194614    0.279600   -21.00000    0.09863    0.08215 =
         0.09439    0.02234   -0.02407   -0.01243
C55B  1    0.313402    0.144390    0.270339   -21.00000    0.12907    0.09892 =
         0.09231    0.02725   -0.00366   -0.01580
AFIX  33
H55D  2    0.292529    0.141361    0.233252   -21.00000   -1.50000
H55E  2    0.287454    0.134322    0.300687   -21.00000   -1.50000
H55F  2    0.348582    0.124131    0.270929   -21.00000   -1.50000
AFIX   0
C56B  1    0.309302    0.231328    0.241241   -21.00000    0.24301    0.14473 =
         0.20960    0.07974   -0.11309   -0.02037
AFIX  33
H56D  2    0.336377    0.234991    0.209835   -21.00000   -1.50000
H56E  2    0.306579    0.261600    0.261983   -21.00000   -1.50000
H56F  2    0.270246    0.222357    0.225822   -21.00000   -1.50000
AFIX   0
PART 1
SAME O11 > C53
O14   4    0.044288    0.254124    0.456084    21.00000    0.28142    0.10605 =
         0.20374   -0.00565    0.18229   -0.00803
C57   1    0.023752    0.261120    0.406818    21.00000    0.08485    0.13661 =
         0.20692    0.01787    0.05555   -0.00126
AFIX  43
H57   2   -0.010801    0.279501    0.399429    21.00000   -1.20000
AFIX   0
N5    3    0.053146    0.241372    0.366112    21.00000    0.09890    0.07851 =
         0.13439    0.05245    0.06179    0.00871
C58   1    0.111651    0.222607    0.376535    21.00000    0.18361    0.11186 =
         0.17474    0.06681    0.08504    0.06155
AFIX  33
H58A  2    0.137667    0.234255    0.347039    21.00000   -1.50000
H58B  2    0.110375    0.187630    0.375512    21.00000   -1.50000
H58C  2    0.126646    0.233194    0.414131    21.00000   -1.50000
AFIX   0
C59   1    0.034823    0.236109    0.309915    21.00000    0.10484    0.11491 =
         0.18969   -0.03476    0.07834   -0.00954
AFIX  33
H59A  2    0.067818    0.242595    0.285155    21.00000   -1.50000
H59B  2    0.002772    0.258605    0.301058    21.00000   -1.50000
H59C  2    0.020827    0.203377    0.303505    21.00000   -1.50000
AFIX   0
PART 2
SAME O11 > C53
O14B  4    0.144802    0.235262    0.341931    51.00000    0.20329    0.14852 =
         0.17324   -0.09970    0.14154   -0.08909
C57B  1    0.107471    0.258730    0.370607    51.00000    0.18768    0.11180 =
         0.17225   -0.01886    0.06791   -0.00954
AFIX  43
H57B  2    0.114327    0.291370    0.379691    51.00000   -1.20000
AFIX   0
N5B   3    0.059125    0.237045    0.387519    51.00000    0.10742    0.05004 =
         0.20137    0.00211    0.08669   -0.00525
C58B  1    0.057201    0.193563    0.353518    51.00000    0.25693    0.09495 =
         0.11332   -0.01924    0.00824    0.04971
AFIX  33
H58D  2    0.065103    0.201294    0.313706    51.00000   -1.50000
H58E  2    0.018137    0.178959    0.355566    51.00000   -1.50000
H58F  2    0.087068    0.171145    0.368379    51.00000   -1.50000
AFIX   0
C59B  1    0.003788    0.257411    0.399618    51.00000    0.10139    0.07315 =
         0.06856   -0.00190   -0.01609   -0.01470
AFIX  33
H59D  2    0.002422    0.290482    0.385937    51.00000   -1.50000
H59E  2   -0.001666    0.256896    0.440926    51.00000   -1.50000
H59F  2   -0.027639    0.238932    0.380353    51.00000   -1.50000
AFIX   0
PART 1
SAME O11 > C53
O15   4    0.139016    0.365585    0.375376    41.00000    0.14777    0.10275 =
         0.11268    0.00510    0.01115   -0.00294
C60   1    0.121835    0.407091    0.374201    41.00000    0.10882    0.10911 =
         0.12043   -0.02141    0.00839   -0.00477
AFIX  43
H60   2    0.097830    0.412323    0.340831    41.00000   -1.20000
AFIX   0
N6    3    0.125855    0.446238    0.403857    41.00000    0.13580    0.15514 =
         0.14406   -0.01695    0.00993   -0.00325
C61   1    0.130916    0.448994    0.465871    41.00000    0.06312    0.15695 =
         0.05090   -0.01418   -0.00852    0.01527
AFIX  33
H61A  2    0.102932    0.472647    0.479631    41.00000   -1.50000
H61B  2    0.171052    0.458504    0.477462    41.00000   -1.50000
H61C  2    0.122169    0.417685    0.482261    41.00000   -1.50000
AFIX   0
C62   1    0.113282    0.492981    0.379862    41.00000    0.07415    0.09521 =
         0.12957    0.01615    0.00329    0.03948
AFIX  33
H62A  2    0.137067    0.497953    0.346234    41.00000   -1.50000
H62B  2    0.122858    0.517587    0.408425    41.00000   -1.50000
H62C  2    0.071420    0.495014    0.368699    41.00000   -1.50000
AFIX   0
PART 2
SAME O11 > C53
O15B  4    0.145362    0.359893    0.422048    61.00000    0.10145    0.13188 =
         0.05578   -0.03345   -0.00552   -0.02612
C60B  1    0.133617    0.401725    0.436948    61.00000    0.12328    0.13229 =
         0.13768   -0.00054   -0.00305   -0.00699
AFIX  43
H60B  2    0.132608    0.404775    0.477282    61.00000   -1.20000
AFIX   0
N6B   3    0.122540    0.441728    0.411353    61.00000    0.05211    0.08982 =
         0.05319   -0.01078    0.00737   -0.01770
C61B  1    0.107000    0.442790    0.350776    61.00000    0.10722    0.14243 =
         0.10215    0.01403    0.01232    0.02160
AFIX  33
H61D  2    0.104953    0.410064    0.336007    61.00000   -1.50000
H61E  2    0.136927    0.460708    0.330532    61.00000   -1.50000
H61F  2    0.068629    0.458315    0.344896    61.00000   -1.50000
AFIX   0
C62B  1    0.101906    0.487165    0.434527    61.00000    0.14149    0.12574 =
         0.09606   -0.02836    0.03969    0.01584
AFIX  33
H62D  2    0.111768    0.513206    0.408581    61.00000   -1.50000
H62E  2    0.121023    0.492773    0.472024    61.00000   -1.50000
H62F  2    0.059137    0.485883    0.438463    61.00000   -1.50000
AFIX   0
PART 6
SAME O11 > C53
O15C  4    0.270481    0.324966    0.353856   121.00000    0.10737    0.09643 =
         0.07682   -0.00066   -0.03436    0.00449
C60C  1    0.221311    0.325366    0.377559   121.00000    0.06042    0.05070 =
         0.02436    0.00300   -0.02437   -0.01192
AFIX  43
H60C  2    0.217288    0.295699    0.396715   121.00000   -1.20000
AFIX   0
N6C   3    0.174122    0.350100    0.386192   121.00000    0.10159    0.11034 =
         0.09641    0.00142    0.00157   -0.01200
C61C  1    0.114953    0.336727    0.364452   121.00000    0.17485    0.17320 =
         0.16351    0.00313    0.01322   -0.00709
AFIX  33
H61G  2    0.118222    0.312025    0.335095   121.00000   -1.50000
H61H  2    0.095247    0.364862    0.347883   121.00000   -1.50000
H61I  2    0.091963    0.324382    0.395891   121.00000   -1.50000
AFIX   0
C62C  1    0.163024    0.376169    0.439051   121.00000    0.12676    0.11831 =
         0.12912   -0.01942   -0.00255    0.00695
AFIX  33
H62G  2    0.121524    0.385646    0.439367   121.00000   -1.50000
H62H  2    0.187940    0.404724    0.441153   121.00000   -1.50000
H62I  2    0.172192    0.355555    0.471954   121.00000   -1.50000
AFIX   0
PART 7
SAME O11 > C53
O15D  4    0.142071    0.329733    0.530776   131.00000    0.06035    0.06450 =
         0.05786   -0.01904   -0.00470   -0.03722
C60D  1    0.137490    0.358058    0.488178   131.00000    0.10439    0.10577 =
         0.11191   -0.00687    0.00080    0.00147
AFIX  43
H60D  2    0.125660    0.390057    0.494895   131.00000   -1.20000
AFIX   0
N6D   3    0.148373    0.345222    0.434901   131.00000    0.10339    0.10616 =
         0.09896    0.00617   -0.00335   -0.00728
C61D  1    0.171798    0.297277    0.427859   131.00000    0.13744    0.14161 =
         0.12517   -0.01672    0.00138   -0.02070
AFIX  33
H61J  2    0.142382    0.277355    0.407701   131.00000   -1.50000
H61K  2    0.181220    0.283412    0.465458   131.00000   -1.50000
H61L  2    0.207565    0.298781    0.405675   131.00000   -1.50000
AFIX   0
C62D  1    0.116493    0.364906    0.386287   131.00000    0.09924    0.08694 =
         0.10485    0.00594    0.01447   -0.02431
AFIX  33
H62J  2    0.133944    0.353470    0.351118   131.00000   -1.50000
H62K  2    0.118594    0.399849    0.387669   131.00000   -1.50000
H62L  2    0.075236    0.354798    0.386978   131.00000   -1.50000
AFIX   0
PART 8
SAME  O11 > C53
O15E  4    0.180986    0.261547    0.538053   141.00000    0.26546    0.23032 =
         0.25897    0.00236    0.07772    0.02310
C60E  1    0.154790    0.301410    0.533494   141.00000    0.12304    0.12533 =
         0.12811    0.01278   -0.00215   -0.00198
AFIX  43
H60E  2    0.130872    0.310423    0.564199   141.00000   -1.20000
AFIX   0
N6E   3    0.157308    0.331211    0.491109   141.00000    0.14545    0.15923 =
         0.15039   -0.00489   -0.00821   -0.02825
C61E  1    0.196714    0.326151    0.443787   141.00000    0.15882    0.13935 =
         0.18699   -0.05151   -0.02488   -0.02794
AFIX  33
H61M  2    0.233042    0.310281    0.457173   141.00000   -1.50000
H61N  2    0.206140    0.357802    0.428744   141.00000   -1.50000
H61O  2    0.177504    0.306960    0.413568   141.00000   -1.50000
AFIX   0
C62E  1    0.113382    0.369055    0.482931   141.00000    0.18494    0.12355 =
         0.12342   -0.00825   -0.03273   -0.02512
AFIX  33
H62M  2    0.132942    0.400243    0.484551   141.00000   -1.50000
H62N  2    0.084642    0.367126    0.513124   141.00000   -1.50000
H62O  2    0.093159    0.365129    0.445643   141.00000   -1.50000
AFIX   0
PART -1
SAME O11 > C53
O16   4    0.522237    0.297657    0.277801    10.50000    0.17235    0.12603 =
         0.16628   -0.01601    0.01724   -0.04968
C63   1    0.519838    0.252727    0.279721    10.50000    0.14307    0.12765 =
         0.12420   -0.00777    0.00424   -0.03153
AFIX  43
H63   2    0.538484    0.237957    0.312024    10.50000   -1.20000
AFIX   0
N7    3    0.494387    0.223992    0.241970    10.50000    0.12500    0.09351 =
         0.12430   -0.00008   -0.00946   -0.00048
C64   1    0.456149    0.244082    0.196246    10.50000    0.21408    0.16229 =
         0.18933    0.01358   -0.06617    0.00293
AFIX  33
H64A  2    0.473651    0.273600    0.182059    10.50000   -1.50000
H64B  2    0.417319    0.251070    0.211220    10.50000   -1.50000
H64C  2    0.451970    0.220977    0.164959    10.50000   -1.50000
AFIX   0
C65   1    0.483652    0.173208    0.243429    10.50000    0.14126    0.10291 =
         0.13458   -0.00466    0.00671    0.00000
AFIX  33
H65A  2    0.450114    0.165420    0.217752    10.50000   -1.50000
H65B  2    0.474871    0.163563    0.282441    10.50000   -1.50000
H65C  2    0.518682    0.156158    0.231085    10.50000   -1.50000
AFIX   0
PART 1
SAME O11 > C53
O17   4    0.429391    0.307402    0.386486    71.00000    0.11308    0.07584 =
         0.12264    0.00106   -0.00769   -0.02622
C66   1    0.407593    0.348255    0.394267    71.00000    0.12060    0.12609 =
         0.10754   -0.00424    0.00162   -0.00476
AFIX  43
H66   2    0.369358    0.352371    0.408734    71.00000   -1.20000
AFIX   0
N8    3    0.441405    0.385323    0.380982    71.00000    0.07254    0.08767 =
         0.04546    0.00010   -0.00211    0.01810
C67   1    0.493410    0.371624    0.352817    71.00000    0.07430    0.07007 =
         0.04285   -0.00702   -0.00394    0.02060
AFIX  33
H67A  2    0.484639    0.344481    0.327538    71.00000   -1.50000
H67B  2    0.523874    0.362443    0.381296    71.00000   -1.50000
H67C  2    0.507482    0.398527    0.330248    71.00000   -1.50000
AFIX   0
C68   1    0.422427    0.434053    0.387792    71.00000    0.10582    0.06649 =
         0.05738   -0.01225   -0.01044    0.02832
AFIX  33
H68A  2    0.388732    0.440407    0.361725    71.00000   -1.50000
H68B  2    0.454780    0.455714    0.379030    71.00000   -1.50000
H68C  2    0.410867    0.439172    0.427250    71.00000   -1.50000
AFIX   0
PART -2
SAME O11 > C53
O17B  4    0.496028    0.425411    0.283006    81.00000    0.11477    0.12374 =
         0.10944    0.00176   -0.02420   -0.03952
C66B  1    0.486438    0.418403    0.335362    81.00000    0.10105    0.06944 =
         0.05711   -0.00503   -0.03092   -0.01568
AFIX  43
H66B  2    0.509771    0.439910    0.357826    81.00000   -1.20000
AFIX   0
N8B   3    0.455709    0.391957    0.368887    81.00000    0.11094    0.14328 =
         0.10778   -0.00894    0.00024   -0.00259
C67B  1    0.466358    0.340520    0.371604    81.00000    0.12890    0.14535 =
         0.09984   -0.03228   -0.03181   -0.01465
AFIX  33
H67D  2    0.464580    0.327187    0.332917    81.00000   -1.50000
H67E  2    0.436261    0.325353    0.394514    81.00000   -1.50000
H67F  2    0.505373    0.334526    0.389204    81.00000   -1.50000
AFIX   0
C68B  1    0.399451    0.404053    0.392978    81.00000    0.09700    0.16326 =
         0.09395   -0.00204   -0.00353    0.03304
AFIX  33
H68D  2    0.376220    0.423210    0.365442    81.00000   -1.50000
H68E  2    0.406216    0.422420    0.428186    81.00000   -1.50000
H68F  2    0.378011    0.374680    0.401539    81.00000   -1.50000
AFIX   0
PART 3
SAME O11 > C53
O17C  4    0.367949    0.328140    0.413920    91.00000    0.19678    0.19512 =
         0.19428   -0.02286   -0.02332   -0.05928
C66C  1    0.327892    0.303269    0.438513    91.00000    0.13406    0.13899 =
         0.14492   -0.01589    0.00241   -0.00084
AFIX  43
H66C  2    0.334253    0.293317    0.476981    91.00000   -1.20000
AFIX   0
N8C   3    0.277790    0.291408    0.410603    91.00000    0.13707    0.15408 =
         0.14640    0.00358    0.00326    0.00048
C67C  1    0.278340    0.245991    0.381498    91.00000    0.25856    0.24337 =
         0.28530   -0.02397    0.00395   -0.02595
AFIX  33
H67G  2    0.239949    0.240492    0.362357    91.00000   -1.50000
H67H  2    0.286392    0.220454    0.409271    91.00000   -1.50000
H67I  2    0.309054    0.246187    0.353103    91.00000   -1.50000
AFIX   0
C68C  1    0.238012    0.323871    0.384487    91.00000    0.09496    0.08856 =
         0.11091   -0.00927    0.03283   -0.03038
AFIX  33
H68G  2    0.254992    0.336738    0.349787    91.00000   -1.50000
H68H  2    0.230323    0.350067    0.410961    91.00000   -1.50000
H68I  2    0.201028    0.307409    0.374531    91.00000   -1.50000
AFIX   0
PART 6
SAME O11 > C53
O17D  4    0.408433    0.260881    0.475155   101.00000    0.08308    0.12286 =
         0.17889   -0.03376    0.01108    0.01401
C66D  1    0.367883    0.285529    0.455912   101.00000    0.11091    0.10000 =
         0.09448   -0.00825   -0.01636    0.01816
AFIX  43
H66D  2    0.344427    0.301593    0.482703   101.00000   -1.20000
AFIX   0
N8D   3    0.353617    0.291876    0.400373   101.00000    0.11212    0.09391 =
         0.09275   -0.01664    0.00957    0.00776
C67D  1    0.380989    0.267237    0.354188   101.00000    0.17635    0.14417 =
         0.16940   -0.01868    0.00953    0.00996
AFIX  33
H67J  2    0.353352    0.265526    0.321257   101.00000   -1.50000
H67K  2    0.391803    0.234847    0.366429   101.00000   -1.50000
H67L  2    0.416418    0.284586    0.343483   101.00000   -1.50000
AFIX   0
C68D  1    0.306027    0.322289    0.383792   101.00000    0.13509    0.13138 =
         0.13978    0.01118   -0.00140    0.00049
AFIX  33
H68J  2    0.307616    0.289852    0.399485   101.00000   -1.50000
H68K  2    0.300581    0.345225    0.414766   101.00000   -1.50000
H68L  2    0.342901    0.329301    0.364932   101.00000   -1.50000
AFIX   0
PART -5
SAME O11 > C53
O17E  4    0.515471    0.457563    0.255525   111.00000    0.10268    0.07243 =
         0.10783   -0.01397    0.00996   -0.03598
C66E  1    0.505039    0.466289    0.305989   111.00000    0.17246    0.16291 =
         0.17440    0.00126    0.00342    0.00610
AFIX  43
H66E  2    0.520788    0.495968    0.318865   111.00000   -1.20000
AFIX   0
N8E   3    0.477277    0.443591    0.344850   111.00000    0.16420    0.16099 =
         0.17162   -0.00509    0.02089    0.02611
C67E  1    0.506140    0.404675    0.372538   111.00000    0.07408    0.18445 =
         0.09961    0.02166    0.00516    0.00825
AFIX  33
H67M  2    0.536451    0.391956    0.347910   111.00000   -1.50000
H67N  2    0.477382    0.379588    0.380202   111.00000   -1.50000
H67O  2    0.524536    0.415583    0.408637   111.00000   -1.50000
AFIX   0
C68E  1    0.419427    0.452989    0.364101   111.00000    0.13082    0.13205 =
         0.15821   -0.02947   -0.01604    0.01464
AFIX  33
H68M  2    0.395488    0.467143    0.332931   111.00000   -1.50000
H68N  2    0.421783    0.475231    0.396387   111.00000   -1.50000
H68O  2    0.401317    0.423040    0.376192   111.00000   -1.50000
AFIX   0
PART 0

CU1   5    0.297205    0.398756    0.566220    11.00000    0.02794    0.02028 =
         0.02068   -0.00085   -0.00080   -0.00407
CU2   5    0.328435    0.487766    0.591450    11.00000    0.02699    0.01871 =
         0.01908   -0.00008   -0.00214   -0.00307
HKLF 4

REM  Prosp14mz030_0m in C2/c
REM R1 =  0.0584 for   12202 Fo > 4sig(Fo)  and  0.0611 for all   13021 data
REM   1323 parameters refined using   2459 restraints

END

WGHT      0.0728     57.6913

REM Highest difference peak  0.952,  deepest hole -0.439,  1-sigma level  0.073
Q1    1   0.2818  0.4893  0.5917  11.00000  0.05    0.95
Q2    1   0.2803  0.2404  0.4304  11.00000  0.05    0.87
Q3    1   0.2545  0.4014  0.5658  11.00000  0.05    0.84
Q4    1   0.3595  0.2731  0.4999  11.00000  0.05    0.74
Q5    1   0.3427  0.1754  0.3337  11.00000  0.05    0.69
Q6    1   0.3444  0.3966  0.5625  11.00000  0.05    0.61
Q7    1   0.4987  0.4586  0.3727  11.00000  0.05    0.61
Q8    1   0.2036  0.2280  0.3427  11.00000  0.05    0.58
Q9    1   0.0792  0.3788  0.4925  11.00000  0.05    0.56
Q10   1   0.0993  0.2352  0.4444  11.00000  0.05    0.55
Q11   1   0.0834  0.2044  0.3584  11.00000  0.05    0.49
Q12   1   0.3807  0.4826  0.5891  11.00000  0.05    0.49
Q13   1   0.4597  0.4241  0.3492  11.00000  0.05    0.46
Q14   1   0.1592  0.3106  0.5420  11.00000  0.05    0.44
Q15   1   0.0596  0.4593  0.4136  11.00000  0.05    0.43
Q16   1   0.2339  0.3226  0.3688  11.00000  0.05    0.40
Q17   1   0.2061  0.3334  0.4191  11.00000  0.05    0.39
Q18   1   0.1802  0.3145  0.4836  11.00000  0.05    0.38
Q19   1   0.0889  0.4964  0.4270  11.00000  0.05    0.37
Q20   1   0.1226  0.3274  0.5620  11.00000  0.05    0.36
Q21   1   0.1003  0.5054  0.4354  11.00000  0.05    0.36
Q22   1   0.4562  0.2310  0.3179  11.00000  0.05    0.36
Q23   1   0.3860  0.2937  0.4592  11.00000  0.05    0.36
Q24   1   0.3132  0.3004  0.3515  11.00000  0.05    0.35
Q25   1   0.2916  0.3329  0.3454  11.00000  0.05    0.35
Q26   1   0.4013  0.3216  0.4105  11.00000  0.05    0.34
Q27   1   0.0364  0.2522  0.4423  11.00000  0.05    0.32
Q28   1   0.2534  0.3135  0.4199  11.00000  0.05    0.32
Q29   1   0.0611  0.4319  0.3231  11.00000  0.05    0.32
Q30   1   0.1441  0.2192  0.3602  11.00000  0.05    0.32
;
_shelx_res_checksum              16734
_shelx_fab_file
;
    2    0    0    241.72      0.00
    4    0    0    156.55      0.00
    6    0    0     72.85      0.00
    8    0    0     17.62      0.00
   10    0    0     -9.93      0.00
   12    0    0    -18.06      0.00
   14    0    0    -14.28      0.00
   16    0    0     -6.62      0.00
   18    0    0     -0.35      0.00
   20    0    0      3.85      0.00
   22    0    0      6.13      0.00
   24    0    0      6.02      0.00
   26    0    0      4.04      0.00
    1    1    0   -215.35      0.00
    3    1    0   -159.03      0.00
    5    1    0    -85.46      0.00
    7    1    0    -29.79      0.00
    9    1    0      0.99      0.00
   11    1    0     13.87      0.00
   13    1    0     14.65      0.00
   15    1    0      9.02      0.00
   17    1    0      2.93      0.00
   19    1    0     -1.39      0.00
   21    1    0     -4.33      0.00
   23    1    0     -5.53      0.00
   25    1    0     -4.65      0.00
    0    2    0     93.01      0.00
    2    2    0     75.59      0.00
    4    2    0     39.45      0.00
    6    2    0     11.23      0.00
    8    2    0     -1.72      0.00
   10    2    0     -7.04      0.00
   12    2    0     -8.84      0.00
   14    2    0     -6.96      0.00
   16    2    0     -3.52      0.00
   18    2    0     -0.90      0.00
   20    2    0      1.18      0.00
   22    2    0      2.98      0.00
   24    2    0      3.58      0.00
   26    2    0      2.79      0.00
    1    3    0     35.32      0.00
    3    3    0     39.70      0.00
    5    3    0     35.65      0.00
    7    3    0     20.73      0.00
    9    3    0      6.87      0.00
   11    3    0      1.49      0.00
   13    3    0      0.78      0.00
   15    3    0      0.46      0.00
   17    3    0      0.49      0.00
   19    3    0      0.60      0.00
   21    3    0     -0.18      0.00
   23    3    0     -1.32      0.00
   25    3    0     -1.76      0.00
    0    4    0    -93.79      0.00
    2    4    0    -89.92      0.00
    4    4    0    -73.86      0.00
    6    4    0    -44.37      0.00
    8    4    0    -14.58      0.00
   10    4    0      1.87      0.00
   12    4    0      5.67      0.00
   14    4    0      4.74      0.00
   16    4    0      2.82      0.00
   18    4    0      0.61      0.00
   20    4    0     -0.61      0.00
   22    4    0     -0.41      0.00
   24    4    0      0.22      0.00
   26    4    0      0.60      0.00
    1    5    0     74.61      0.00
    3    5    0     66.99      0.00
    5    5    0     46.69      0.00
    7    5    0     19.04      0.00
    9    5    0     -1.59      0.00
   11    5    0     -9.08      0.00
   13    5    0     -8.95      0.00
   15    5    0     -6.78      0.00
   17    5    0     -3.82      0.00
   19    5    0     -1.05      0.00
   21    5    0      0.35      0.00
   23    5    0      0.62      0.00
   25    5    0      0.42      0.00
    0    6    0    -17.30      0.00
    2    6    0    -19.16      0.00
    4    6    0    -18.65      0.00
    6    6    0     -9.30      0.00
    8    6    0      3.14      0.00
   10    6    0      9.71      0.00
   12    6    0     10.19      0.00
   14    6    0      8.73      0.00
   16    6    0      6.51      0.00
   18    6    0      3.56      0.00
   20    6    0      1.08      0.00
   22    6    0     -0.31      0.00
   24    6    0     -0.90      0.00
   26    6    0     -0.79      0.00
    1    7    0    -29.04      0.00
    3    7    0    -18.91      0.00
    5    7    0    -10.32      0.00
    7    7    0     -8.93      0.00
    9    7    0     -9.76      0.00
   11    7    0     -8.90      0.00
   13    7    0     -7.67      0.00
   15    7    0     -6.74      0.00
   17    7    0     -4.94      0.00
   19    7    0     -2.53      0.00
   21    7    0     -0.57      0.00
   23    7    0      0.69      0.00
   25    7    0      1.16      0.00
    0    8    0     42.61      0.00
    2    8    0     35.80      0.00
    4    8    0     22.52      0.00
    6    8    0     13.46      0.00
    8    8    0      9.59      0.00
   10    8    0      6.85      0.00
   12    8    0      4.84      0.00
   14    8    0      4.48      0.00
   16    8    0      4.28      0.00
   18    8    0      2.98      0.00
   20    8    0      1.26      0.00
   22    8    0     -0.19      0.00
   24    8    0     -1.07      0.00
   26    8    0     -1.07      0.00
    1    9    0    -22.17      0.00
    3    9    0    -15.07      0.00
    5    9    0     -8.70      0.00
    7    9    0     -6.41      0.00
    9    9    0     -4.86      0.00
   11    9    0     -2.63      0.00
   13    9    0     -1.76      0.00
   15    9    0     -2.33      0.00
   17    9    0     -2.40      0.00
   19    9    0     -1.48      0.00
   21    9    0     -0.26      0.00
   23    9    0      0.75      0.00
   25    9    0      1.06      0.00
    0   10    0     -5.59      0.00
    2   10    0     -6.40      0.00
    4   10    0     -6.06      0.00
    6   10    0     -2.20      0.00
    8   10    0      1.58      0.00
   10   10    0      1.92      0.00
   12   10    0      0.85      0.00
   14   10    0      0.97      0.00
   16   10    0      1.56      0.00
   18   10    0      1.32      0.00
   20   10    0      0.47      0.00
   22   10    0     -0.45      0.00
   24   10    0     -0.97      0.00
    1   11    0     24.59      0.00
    3   11    0     21.28      0.00
    5   11    0     13.43      0.00
    7   11    0      4.20      0.00
    9   11    0     -0.98      0.00
   11   11    0     -1.64      0.00
   13   11    0     -1.29      0.00
   15   11    0     -1.40      0.00
   17   11    0     -1.14      0.00
   19   11    0     -0.36      0.00
   21   11    0      0.46      0.00
   23   11    0      0.99      0.00
   25   11    0      0.88      0.00
    0   12    0    -27.36      0.00
    2   12    0    -25.63      0.00
    4   12    0    -19.52      0.00
    6   12    0     -9.87      0.00
    8   12    0     -1.63      0.00
   10   12    0      1.81      0.00
   12   12    0      2.11      0.00
   14   12    0      1.78      0.00
   16   12    0      1.11      0.00
   18   12    0      0.04      0.00
   20   12    0     -0.83      0.00
   22   12    0     -1.26      0.00
   24   12    0     -1.19      0.00
    1   13    0     16.95      0.00
    3   13    0     15.23      0.00
    5   13    0     10.30      0.00
    7   13    0      3.84      0.00
    9   13    0     -0.38      0.00
   11   13    0     -1.55      0.00
   13   13    0     -1.43      0.00
   15   13    0     -0.80      0.00
   17   13    0      0.32      0.00
   19   13    0      1.29      0.00
   21   13    0      1.63      0.00
   23   13    0      1.48      0.00
    0   14    0     -3.71      0.00
    2   14    0     -4.23      0.00
    4   14    0     -4.28      0.00
    6   14    0     -2.49      0.00
    8   14    0     -0.53      0.00
   10   14    0      0.00      0.00
   12   14    0     -0.20      0.00
   14   14    0     -0.36      0.00
   16   14    0     -0.81      0.00
   18   14    0     -1.44      0.00
   20   14    0     -1.66      0.00
   22   14    0     -1.46      0.00
   24   14    0     -1.05      0.00
    1   15    0     -4.39      0.00
    3   15    0     -2.80      0.00
    5   15    0     -1.47      0.00
    7   15    0     -0.70      0.00
    9   15    0      0.49      0.00
   11   15    0      1.70      0.00
   13   15    0      1.90      0.00
   15   15    0      1.49      0.00
   17   15    0      1.25      0.00
   19   15    0      1.11      0.00
   21   15    0      0.90      0.00
   23   15    0      0.71      0.00
    2   16    0      5.14      0.00
    4   16    0      3.70      0.00
    6   16    0      2.25      0.00
    8   16    0      0.33      0.00
   10   16    0     -1.78      0.00
   12   16    0     -2.64      0.00
   14   16    0     -1.99      0.00
   16   16    0     -0.97      0.00
   18   16    0     -0.31      0.00
   20   16    0      0.01      0.00
   22   16    0      0.02      0.00
    3   17    0     -2.58      0.00
    5   17    0     -1.83      0.00
    7   17    0     -0.61      0.00
    9   17    0      1.18      0.00
   11   17    0      2.35      0.00
   13   17    0      1.98      0.00
   15   17    0      0.79      0.00
   17   17    0     -0.14      0.00
   19   17    0     -0.60      0.00
   21   17    0     -0.65      0.00
   23   17    0     -0.37      0.00
    4   18    0      0.42      0.00
    6   18    0     -0.21      0.00
    8   18    0     -1.19      0.00
   10   18    0     -1.99      0.00
   12   18    0     -1.76      0.00
   14   18    0     -0.80      0.00
   16   18    0     -0.03      0.00
   18   18    0      0.36      0.00
   20   18    0      0.57      0.00
   22   18    0      0.55      0.00
    3   19    0     -0.15      0.00
    5   19    0      0.67      0.00
    7   19    0      1.45      0.00
    9   19    0      1.96      0.00
   11   19    0      1.77      0.00
   13   19    0      1.05      0.00
   15   19    0      0.56      0.00
   17   19    0      0.46      0.00
   19   19    0      0.27      0.00
   21   19    0     -0.08      0.00
    0   20    0      0.77      0.00
    2   20    0      0.43      0.00
    4   20    0     -0.35      0.00
    6   20    0     -1.15      0.00
    8   20    0     -1.71      0.00
   10   20    0     -1.76      0.00
   12   20    0     -1.34      0.00
   14   20    0     -1.04      0.00
   16   20    0     -1.15      0.00
   18   20    0     -1.19      0.00
   20   20    0     -0.78      0.00
    1   21    0      0.43      0.00
    3   21    0      0.59      0.00
    5   21    0      0.84      0.00
    7   21    0      1.15      0.00
    9   21    0      1.41      0.00
   11   21    0      1.39      0.00
   13   21    0      1.23      0.00
   15   21    0      1.28      0.00
   17   21    0      1.43      0.00
   19   21    0      1.27      0.00
    0   22    0     -1.65      0.00
    2   22    0     -1.50      0.00
    4   22    0     -1.17      0.00
    6   22    0     -0.93      0.00
    8   22    0     -1.00      0.00
   10   22    0     -1.19      0.00
   12   22    0     -1.20      0.00
   14   22    0     -1.06      0.00
   16   22    0     -0.97      0.00
   18   22    0     -0.95      0.00
   20   22    0     -0.82      0.00
    1   23    0      1.24      0.00
    3   23    0      1.10      0.00
    5   23    0      0.90      0.00
    7   23    0      0.85      0.00
    9   23    0      0.99      0.00
   11   23    0      1.06      0.00
   13   23    0      0.83      0.00
   15   23    0      0.43      0.00
   17   23    0      0.22      0.00
   19   23    0      0.32      0.00
    0   24    0      0.50      0.00
    2   24    0      0.26      0.00
    4   24    0     -0.25      0.00
    6   24    0     -0.66      0.00
    8   24    0     -0.85      0.00
   10   24    0     -0.86      0.00
   12   24    0     -0.65      0.00
   14   24    0     -0.18      0.00
   16   24    0      0.26      0.00
   18   24    0      0.29      0.00
    1   25    0     -1.41      0.00
    3   25    0     -0.55      0.00
    5   25    0      0.40      0.00
    7   25    0      0.80      0.00
    9   25    0      0.68      0.00
   11   25    0      0.40      0.00
   13   25    0      0.08      0.00
   15   25    0     -0.29      0.00
   17   25    0     -0.50      0.00
    0   26    0      0.47      0.00
    2   26    0      0.04      0.00
    4   26    0     -0.76      0.00
    6   26    0     -1.10      0.00
    8   26    0     -0.78      0.00
   10   26    0     -0.29      0.00
   12   26    0     -0.04      0.00
   14   26    0      0.10      0.00
   16   26    0      0.30      0.00
    1   27    0      1.78      0.00
    3   27    0      1.94      0.00
    5   27    0      1.82      0.00
    7   27    0      1.20      0.00
    9   27    0      0.48      0.00
   11   27    0      0.18      0.00
   13   27    0      0.20      0.00
   15   27    0      0.11      0.00
    0   28    0     -3.08      0.00
    2   28    0     -2.90      0.00
    4   28    0     -2.34      0.00
    6   28    0     -1.46      0.00
    8   28    0     -0.64      0.00
   10   28    0     -0.35      0.00
   12   28    0     -0.49      0.00
   14   28    0     -0.54      0.00
    1   29    0      2.67      0.00
    3   29    0      2.09      0.00
    5   29    0      1.17      0.00
    7   29    0      0.37      0.00
    9   29    0      0.13      0.00
   11   29    0      0.45      0.00
   13   29    0      0.74      0.00
    0   30    0     -1.61      0.00
    2   30    0     -1.34      0.00
    4   30    0     -0.66      0.00
    6   30    0      0.06      0.00
    8   30    0      0.37      0.00
   10   30    0      0.05      0.00
    1   31    0      0.68      0.00
    3   31    0      0.42      0.00
    5   31    0     -0.05      0.00
    7   31    0     -0.47      0.00
    9   31    0     -0.47      0.00
    0   32    0     -0.21      0.00
    2   32    0     -0.24      0.00
    4   32    0     -0.21      0.00
    6   32    0      0.03      0.00
  -25    1    1     -1.91      0.00
  -23    1    1     -1.92      0.00
  -21    1    1     -1.32      0.00
  -19    1    1     -0.11      0.00
  -17    1    1      1.62      0.00
  -15    1    1      3.89      0.00
  -13    1    1      6.61      0.00
  -11    1    1      8.91      0.00
   -9    1    1      8.09      0.00
   -7    1    1     -0.34      0.00
   -5    1    1    -20.07      0.00
   -3    1    1    -49.35      0.00
   -1    1    1    -78.65      0.00
    1    1    1    -94.82      0.00
    3    1    1    -89.95      0.00
    5    1    1    -67.36      0.00
    7    1    1    -38.87      0.00
    9    1    1    -16.08      0.00
   11    1    1     -3.72      0.00
   13    1    1      0.26      0.00
   15    1    1      0.23      0.00
   17    1    1     -0.65      0.00
   19    1    1     -1.15      0.00
   21    1    1     -1.18      0.00
   23    1    1     -0.95      0.00
   25    1    1     -0.60      0.00
  -26    2    1      2.62      0.00
  -24    2    1      2.90      0.00
  -22    2    1      2.30      0.00
  -20    2    1      0.76      0.00
  -18    2    1     -1.50      0.00
  -16    2    1     -4.39      0.00
  -14    2    1     -8.04      0.00
  -12    2    1    -12.08      0.00
  -10    2    1    -14.35      0.00
   -8    2    1     -9.78      0.00
   -6    2    1      8.34      0.00
   -4    2    1     43.06      0.00
   -2    2    1     87.21      0.00
    0    2    1    123.42      0.00
    2    2    1    134.14      0.00
    4    2    1    114.57      0.00
    6    2    1     76.20      0.00
    8    2    1     37.73      0.00
   10    2    1     12.03      0.00
   12    2    1      0.82      0.00
   14    2    1     -1.31      0.00
   16    2    1     -0.15      0.00
   18    2    1      1.14      0.00
   20    2    1      1.74      0.00
   22    2    1      1.79      0.00
   24    2    1      1.49      0.00
   26    2    1      0.89      0.00
  -25    3    1     -2.54      0.00
  -23    3    1     -2.11      0.00
  -21    3    1     -0.79      0.00
  -19    3    1      1.15      0.00
  -17    3    1      3.39      0.00
  -15    3    1      6.01      0.00
  -13    3    1      9.22      0.00
  -11    3    1     12.50      0.00
   -9    3    1     13.71      0.00
   -7    3    1      8.27      0.00
   -5    3    1     -9.27      0.00
   -3    3    1    -39.83      0.00
   -1    3    1    -74.75      0.00
    1    3    1    -98.30      0.00
    3    3    1    -98.34      0.00
    5    3    1    -75.86      0.00
    7    3    1    -43.87      0.00
    9    3    1    -17.01      0.00
   11    3    1     -2.08      0.00
   13    3    1      2.65      0.00
   15    3    1      2.22      0.00
   17    3    1      0.44      0.00
   19    3    1     -1.02      0.00
   21    3    1     -1.87      0.00
   23    3    1     -2.17      0.00
   25    3    1     -1.84      0.00
  -26    4    1      1.56      0.00
  -24    4    1      1.16      0.00
  -22    4    1      0.15      0.00
  -20    4    1     -1.24      0.00
  -18    4    1     -2.54      0.00
  -16    4    1     -3.57      0.00
  -14    4    1     -4.56      0.00
  -12    4    1     -5.77      0.00
  -10    4    1     -7.59      0.00
   -8    4    1    -10.05      0.00
   -6    4    1    -11.25      0.00
   -4    4    1     -7.32      0.00
   -2    4    1      3.85      0.00
    0    4    1     18.62      0.00
    2    4    1     28.97      0.00
    4    4    1     28.90      0.00
    6    4    1     19.49      0.00
    8    4    1      7.31      0.00
   10    4    1     -1.49      0.00
   12    4    1     -5.07      0.00
   14    4    1     -4.87      0.00
   16    4    1     -2.94      0.00
   18    4    1     -0.71      0.00
   20    4    1      1.11      0.00
   22    4    1      2.27      0.00
   24    4    1      2.57      0.00
   26    4    1      1.80      0.00
  -25    5    1     -0.26      0.00
  -23    5    1      0.58      0.00
  -21    5    1      1.53      0.00
  -19    5    1      2.20      0.00
  -17    5    1      2.17      0.00
  -15    5    1      1.39      0.00
  -13    5    1      0.04      0.00
  -11    5    1     -1.10      0.00
   -9    5    1      0.30      0.00
   -7    5    1      6.97      0.00
   -5    5    1     18.69      0.00
   -3    5    1     30.85      0.00
   -1    5    1     37.65      0.00
    1    5    1     36.66      0.00
    3    5    1     30.20      0.00
    5    5    1     22.65      0.00
    7    5    1     16.83      0.00
    9    5    1     12.97      0.00
   11    5    1     10.20      0.00
   13    5    1      7.78      0.00
   15    5    1      5.24      0.00
   17    5    1      2.48      0.00
   19    5    1     -0.08      0.00
   21    5    1     -1.92      0.00
   23    5    1     -2.78      0.00
   25    5    1     -2.41      0.00
  -26    6    1      0.03      0.00
  -24    6    1     -0.90      0.00
  -22    6    1     -1.68      0.00
  -20    6    1     -2.14      0.00
  -18    6    1     -1.85      0.00
  -16    6    1     -0.44      0.00
  -14    6    1      2.19      0.00
  -12    6    1      5.75      0.00
  -10    6    1      8.49      0.00
   -8    6    1      6.62      0.00
   -6    6    1     -3.24      0.00
   -4    6    1    -20.37      0.00
   -2    6    1    -39.21      0.00
    0    6    1    -52.49      0.00
    2    6    1    -55.71      0.00
    4    6    1    -49.52      0.00
    6    6    1    -38.25      0.00
    8    6    1    -26.52      0.00
   10    6    1    -17.09      0.00
   12    6    1    -10.64      0.00
   14    6    1     -6.43      0.00
   16    6    1     -3.21      0.00
   18    6    1     -0.46      0.00
   20    6    1      1.56      0.00
   22    6    1      2.56      0.00
   24    6    1      2.45      0.00
   26    6    1      1.27      0.00
  -25    7    1      0.62      0.00
  -23    7    1      1.49      0.00
  -21    7    1      2.08      0.00
  -19    7    1      2.13      0.00
  -17    7    1      1.07      0.00
  -15    7    1     -1.45      0.00
  -13    7    1     -5.48      0.00
  -11    7    1    -10.32      0.00
   -9    7    1    -13.76      0.00
   -7    7    1    -12.62      0.00
   -5    7    1     -4.94      0.00
   -3    7    1      8.37      0.00
   -1    7    1     23.58      0.00
    1    7    1     35.59      0.00
    3    7    1     40.58      0.00
    5    7    1     38.05      0.00
    7    7    1     30.36      0.00
    9    7    1     20.83      0.00
   11    7    1     12.29      0.00
   13    7    1      6.21      0.00
   15    7    1      2.41      0.00
   17    7    1     -0.03      0.00
   19    7    1     -1.55      0.00
   21    7    1     -2.17      0.00
   23    7    1     -1.99      0.00
   25    7    1     -1.12      0.00
  -26    8    1     -0.01      0.00
  -24    8    1     -0.88      0.00
  -22    8    1     -1.63      0.00
  -20    8    1     -2.19      0.00
  -18    8    1     -2.06      0.00
  -16    8    1     -0.62      0.00
  -14    8    1      2.40      0.00
  -12    8    1      6.80      0.00
  -10    8    1     11.72      0.00
   -8    8    1     15.83      0.00
   -6    8    1     17.94      0.00
   -4    8    1     16.97      0.00
   -2    8    1     11.84      0.00
    0    8    1      2.75      0.00
    2    8    1     -7.66      0.00
    4    8    1    -15.62      0.00
    6    8    1    -18.60      0.00
    8    8    1    -16.38      0.00
   10    8    1    -10.82      0.00
   12    8    1     -4.89      0.00
   14    8    1     -0.74      0.00
   16    8    1      1.31      0.00
   18    8    1      1.98      0.00
   20    8    1      1.84      0.00
   22    8    1      1.30      0.00
   24    8    1      0.65      0.00
   26    8    1     -0.12      0.00
  -25    9    1      0.19      0.00
  -23    9    1      0.71      0.00
  -21    9    1      1.34      0.00
  -19    9    1      1.92      0.00
  -17    9    1      1.88      0.00
  -15    9    1      0.68      0.00
  -13    9    1     -1.84      0.00
  -11    9    1     -5.47      0.00
   -9    9    1     -9.88      0.00
   -7    9    1    -15.16      0.00
   -5    9    1    -21.19      0.00
   -3    9    1    -25.95      0.00
   -1    9    1    -26.06      0.00
    1    9    1    -20.12      0.00
    3    9    1    -10.44      0.00
    5    9    1     -1.14      0.00
    7    9    1      4.47      0.00
    9    9    1      5.22      0.00
   11    9    1      2.58      0.00
   13    9    1     -0.57      0.00
   15    9    1     -2.27      0.00
   17    9    1     -2.40      0.00
   19    9    1     -1.64      0.00
   21    9    1     -0.70      0.00
   23    9    1     -0.11      0.00
   25    9    1      0.15      0.00
  -24   10    1      0.09      0.00
  -22   10    1      0.10      0.00
  -20   10    1     -0.26      0.00
  -18   10    1     -0.86      0.00
  -16   10    1     -1.28      0.00
  -14   10    1     -1.05      0.00
  -12   10    1      0.21      0.00
  -10   10    1      2.60      0.00
   -8   10    1      6.37      0.00
   -6   10    1     12.12      0.00
   -4   10    1     19.21      0.00
   -2   10    1     24.63      0.00
    0   10    1     25.28      0.00
    2   10    1     20.96      0.00
    4   10    1     14.02      0.00
    6   10    1      7.17      0.00
    8   10    1      2.48      0.00
   10   10    1      0.89      0.00
   12   10    1      1.41      0.00
   14   10    1      2.13      0.00
   16   10    1      2.03      0.00
   18   10    1      1.25      0.00
   20   10    1      0.30      0.00
   22   10    1     -0.26      0.00
   24   10    1     -0.20      0.00
  -25   11    1     -0.16      0.00
  -23   11    1     -0.98      0.00
  -21   11    1     -1.62      0.00
  -19   11    1     -1.62      0.00
  -17   11    1     -0.90      0.00
  -15   11    1      0.24      0.00
  -13   11    1      1.17      0.00
  -11   11    1      1.25      0.00
   -9   11    1      0.24      0.00
   -7   11    1     -2.14      0.00
   -5   11    1     -6.08      0.00
   -3   11    1    -10.33      0.00
   -1   11    1    -12.79      0.00
    1   11    1    -12.88      0.00
    3   11    1    -11.69      0.00
    5   11    1     -9.78      0.00
    7   11    1     -7.10      0.00
    9   11    1     -4.37      0.00
   11   11    1     -2.60      0.00
   13   11    1     -1.72      0.00
   15   11    1     -1.07      0.00
   17   11    1     -0.42      0.00
   19   11    1      0.17      0.00
   21   11    1      0.51      0.00
   23   11    1      0.32      0.00
   25   11    1     -0.23      0.00
  -24   12    1      0.78      0.00
  -22   12    1      2.17      0.00
  -20   12    1      3.19      0.00
  -18   12    1      3.38      0.00
  -16   12    1      2.54      0.00
  -14   12    1      0.92      0.00
  -12   12    1     -0.80      0.00
  -10   12    1     -2.13      0.00
   -8   12    1     -2.94      0.00
   -6   12    1     -2.97      0.00
   -4   12    1     -2.37      0.00
   -2   12    1     -2.05      0.00
    0   12    1     -1.99      0.00
    2   12    1     -0.73      0.00
    4   12    1      2.11      0.00
    6   12    1      4.54      0.00
    8   12    1      4.89      0.00
   10   12    1      3.69      0.00
   12   12    1      2.15      0.00
   14   12    1      0.77      0.00
   16   12    1     -0.25      0.00
   18   12    1     -0.78      0.00
   20   12    1     -0.91      0.00
   22   12    1     -0.68      0.00
   24   12    1     -0.05      0.00
  -23   13    1     -1.42      0.00
  -21   13    1     -2.74      0.00
  -19   13    1     -3.63      0.00
  -17   13    1     -3.84      0.00
  -15   13    1     -3.12      0.00
  -13   13    1     -1.50      0.00
  -11   13    1      0.70      0.00
   -9   13    1      3.26      0.00
   -7   13    1      5.73      0.00
   -5   13    1      7.60      0.00
   -3   13    1      9.17      0.00
   -1   13    1     10.73      0.00
    1   13    1     10.88      0.00
    3   13    1      7.92      0.00
    5   13    1      2.97      0.00
    7   13    1     -1.04      0.00
    9   13    1     -2.72      0.00
   11   13    1     -2.67      0.00
   13   13    1     -1.62      0.00
   15   13    1     -0.18      0.00
   17   13    1      0.92      0.00
   19   13    1      1.37      0.00
   21   13    1      1.32      0.00
   23   13    1      0.84      0.00
  -24   14    1      0.58      0.00
  -22   14    1      1.37      0.00
  -20   14    1      1.91      0.00
  -18   14    1      2.33      0.00
  -16   14    1      2.57      0.00
  -14   14    1      2.16      0.00
  -12   14    1      0.79      0.00
  -10   14    1     -1.56      0.00
   -8   14    1     -4.41      0.00
   -6   14    1     -6.73      0.00
   -4   14    1     -8.16      0.00
   -2   14    1     -9.62      0.00
    0   14    1    -11.22      0.00
    2   14    1    -11.11      0.00
    4   14    1     -8.15      0.00
    6   14    1     -3.89      0.00
    8   14    1     -0.39      0.00
   10   14    1      1.70      0.00
   12   14    1      2.30      0.00
   14   14    1      1.43      0.00
   16   14    1     -0.12      0.00
   18   14    1     -1.30      0.00
   20   14    1     -1.81      0.00
   22   14    1     -1.74      0.00
   24   14    1     -1.13      0.00
  -23   15    1     -0.58      0.00
  -21   15    1     -0.37      0.00
  -19   15    1      0.00      0.00
  -17   15    1     -0.01      0.00
  -15   15    1     -0.23      0.00
  -13   15    1     -0.08      0.00
  -11   15    1      0.77      0.00
   -9   15    1      2.24      0.00
   -7   15    1      3.45      0.00
   -5   15    1      3.57      0.00
   -3   15    1      3.33      0.00
   -1   15    1      4.31      0.00
    1   15    1      6.09      0.00
    3   15    1      6.59      0.00
    5   15    1      5.07      0.00
    7   15    1      2.59      0.00
    9   15    1      0.14      0.00
   11   15    1     -1.69      0.00
   13   15    1     -2.11      0.00
   15   15    1     -1.05      0.00
   17   15    1      0.45      0.00
   19   15    1      1.53      0.00
   21   15    1      2.05      0.00
   23   15    1      1.88      0.00
  -22   16    1      0.13      0.00
  -20   16    1     -0.85      0.00
  -18   16    1     -1.67      0.00
  -16   16    1     -1.92      0.00
  -14   16    1     -1.86      0.00
  -12   16    1     -1.70      0.00
  -10   16    1     -1.47      0.00
   -8   16    1     -0.95      0.00
   -6   16    1      0.34      0.00
   -4   16    1      2.09      0.00
   -2   16    1      2.60      0.00
    2   16    1     -1.38      0.00
    4   16    1     -2.35      0.00
    6   16    1     -1.86      0.00
    8   16    1     -0.67      0.00
   10   16    1      0.79      0.00
   12   16    1      1.78      0.00
   14   16    1      1.60      0.00
   16   16    1      0.57      0.00
   18   16    1     -0.50      0.00
   20   16    1     -1.34      0.00
   22   16    1     -1.74      0.00
  -23   17    1     -0.43      0.00
  -21   17    1      0.24      0.00
  -19   17    1      1.25      0.00
  -17   17    1      2.01      0.00
  -15   17    1      2.49      0.00
  -13   17    1      2.63      0.00
  -11   17    1      2.02      0.00
   -9   17    1      0.54      0.00
   -7   17    1     -1.61      0.00
   -5   17    1     -3.97      0.00
   -3   17    1     -5.29      0.00
    3   17    1     -0.09      0.00
    5   17    1      0.18      0.00
    7   17    1     -0.26      0.00
    9   17    1     -0.84      0.00
   11   17    1     -1.40      0.00
   13   17    1     -1.52      0.00
   15   17    1     -1.09      0.00
   17   17    1     -0.52      0.00
   19   17    1      0.08      0.00
   21   17    1      0.73      0.00
   23   17    1      0.94      0.00
  -22   18    1      0.38      0.00
  -20   18    1     -0.03      0.00
  -18   18    1     -0.56      0.00
  -16   18    1     -1.14      0.00
  -14   18    1     -1.86      0.00
  -12   18    1     -2.14      0.00
  -10   18    1     -1.27      0.00
   -8   18    1      0.62      0.00
   -6   18    1      2.85      0.00
   -4   18    1      4.37      0.00
   -2   18    1      4.00      0.00
    4   18    1     -0.16      0.00
    6   18    1      0.60      0.00
    8   18    1      1.19      0.00
   10   18    1      1.43      0.00
   12   18    1      1.41      0.00
   14   18    1      1.14      0.00
   16   18    1      0.92      0.00
   18   18    1      0.80      0.00
   20   18    1      0.41      0.00
   22   18    1     -0.08      0.00
  -21   19    1     -0.48      0.00
  -19   19    1     -0.50      0.00
  -17   19    1     -0.43      0.00
  -15   19    1      0.07      0.00
  -13   19    1      0.96      0.00
  -11   19    1      1.39      0.00
   -9   19    1      0.78      0.00
   -7   19    1     -0.63      0.00
   -5   19    1     -2.11      0.00
   -3   19    1     -2.55      0.00
    3   19    1      1.02      0.00
    5   19    1      0.22      0.00
    7   19    1     -0.76      0.00
    9   19    1     -1.24      0.00
   11   19    1     -1.32      0.00
   13   19    1     -1.07      0.00
   15   19    1     -0.80      0.00
   17   19    1     -0.82      0.00
   19   19    1     -0.84      0.00
   21   19    1     -0.53      0.00
  -20   20    1      0.44      0.00
  -18   20    1      0.70      0.00
  -16   20    1      0.90      0.00
  -14   20    1      0.48      0.00
  -12   20    1     -0.42      0.00
  -10   20    1     -1.01      0.00
   -8   20    1     -0.78      0.00
   -6   20    1      0.21      0.00
   -4   20    1      1.32      0.00
   -2   20    1      1.47      0.00
    0   20    1      0.39      0.00
    2   20    1     -0.67      0.00
    4   20    1     -0.67      0.00
    6   20    1      0.01      0.00
    8   20    1      0.61      0.00
   10   20    1      0.94      0.00
   12   20    1      0.90      0.00
   14   20    1      0.53      0.00
   16   20    1      0.32      0.00
   18   20    1      0.46      0.00
   20   20    1      0.50      0.00
  -21   21    1      0.00      0.00
  -19   21    1     -0.01      0.00
  -17   21    1     -0.45      0.00
  -15   21    1     -0.88      0.00
  -13   21    1     -0.62      0.00
  -11   21    1      0.13      0.00
   -9   21    1      0.66      0.00
   -7   21    1      0.47      0.00
   -5   21    1     -0.47      0.00
   -3   21    1     -1.39      0.00
   -1   21    1     -1.29      0.00
    1   21    1     -0.33      0.00
    3   21    1      0.36      0.00
    5   21    1      0.32      0.00
    7   21    1     -0.04      0.00
    9   21    1     -0.41      0.00
   11   21    1     -0.54      0.00
   13   21    1     -0.23      0.00
   15   21    1      0.17      0.00
   17   21    1      0.16      0.00
   19   21    1     -0.07      0.00
  -20   22    1     -0.52      0.00
  -18   22    1     -0.43      0.00
  -16   22    1      0.32      0.00
  -14   22    1      0.90      0.00
  -12   22    1      0.73      0.00
  -10   22    1      0.22      0.00
   -8   22    1     -0.03      0.00
   -6   22    1      0.25      0.00
   -4   22    1      0.82      0.00
   -2   22    1      0.91      0.00
    0   22    1      0.14      0.00
    2   22    1     -0.76      0.00
    4   22    1     -0.98      0.00
    6   22    1     -0.62      0.00
    8   22    1     -0.15      0.00
   10   22    1      0.08      0.00
   12   22    1     -0.12      0.00
   14   22    1     -0.56      0.00
   16   22    1     -0.62      0.00
   18   22    1     -0.27      0.00
   20   22    1     -0.09      0.00
  -19   23    1      0.84      0.00
  -17   23    1      0.29      0.00
  -15   23    1     -0.62      0.00
  -13   23    1     -0.96      0.00
  -11   23    1     -0.73      0.00
   -9   23    1     -0.52      0.00
   -7   23    1     -0.56      0.00
   -5   23    1     -0.63      0.00
   -3   23    1     -0.30      0.00
   -1   23    1      0.70      0.00
    1   23    1      1.87      0.00
    3   23    1      2.34      0.00
    5   23    1      1.88      0.00
    7   23    1      1.07      0.00
    9   23    1      0.53      0.00
   11   23    1      0.54      0.00
   13   23    1      0.92      0.00
   15   23    1      0.97      0.00
   17   23    1      0.44      0.00
   19   23    1      0.02      0.00
  -18   24    1     -0.55      0.00
  -16   24    1      0.33      0.00
  -14   24    1      0.88      0.00
  -12   24    1      0.70      0.00
  -10   24    1      0.50      0.00
   -8   24    1      0.72      0.00
   -6   24    1      0.98      0.00
   -4   24    1      0.73      0.00
   -2   24    1     -0.25      0.00
    0   24    1     -1.66      0.00
    2   24    1     -2.71      0.00
    4   24    1     -2.82      0.00
    6   24    1     -2.15      0.00
    8   24    1     -1.34      0.00
   10   24    1     -0.98      0.00
   12   24    1     -1.15      0.00
   14   24    1     -1.24      0.00
   16   24    1     -0.66      0.00
   18   24    1      0.07      0.00
  -17   25    1     -0.11      0.00
  -15   25    1     -0.77      0.00
  -13   25    1     -0.63      0.00
  -11   25    1     -0.21      0.00
   -9   25    1     -0.44      0.00
   -7   25    1     -1.16      0.00
   -5   25    1     -1.61      0.00
   -3   25    1     -1.37      0.00
   -1   25    1     -0.48      0.00
    1   25    1      0.75      0.00
    3   25    1      1.79      0.00
    5   25    1      2.17      0.00
    7   25    1      1.84      0.00
    9   25    1      1.26      0.00
   11   25    1      1.04      0.00
   13   25    1      1.13      0.00
   15   25    1      0.82      0.00
   17   25    1      0.06      0.00
  -16   26    1      0.54      0.00
  -14   26    1      0.65      0.00
  -12   26    1      0.16      0.00
  -10   26    1      0.10      0.00
   -8   26    1      0.88      0.00
   -6   26    1      1.80      0.00
   -4   26    1      2.30      0.00
   -2   26    1      2.33      0.00
    0   26    1      1.84      0.00
    2   26    1      0.72      0.00
    4   26    1     -0.65      0.00
    6   26    1     -1.43      0.00
    8   26    1     -1.24      0.00
   10   26    1     -0.68      0.00
   12   26    1     -0.51      0.00
   14   26    1     -0.54      0.00
   16   26    1     -0.19      0.00
  -15   27    1     -0.53      0.00
  -13   27    1     -0.25      0.00
  -11   27    1      0.04      0.00
   -9   27    1     -0.42      0.00
   -7   27    1     -1.26      0.00
   -5   27    1     -1.80      0.00
   -3   27    1     -2.11      0.00
   -1   27    1     -2.41      0.00
    1   27    1     -2.19      0.00
    3   27    1     -1.03      0.00
    5   27    1      0.43      0.00
    7   27    1      0.97      0.00
    9   27    1      0.45      0.00
   11   27    1     -0.11      0.00
   13   27    1     -0.08      0.00
   15   27    1      0.05      0.00
  -14   28    1      0.22      0.00
  -12   28    1     -0.12      0.00
  -10   28    1     -0.04      0.00
   -8   28    1      0.54      0.00
   -6   28    1      0.84      0.00
   -4   28    1      0.74      0.00
   -2   28    1      0.91      0.00
    0   28    1      1.40      0.00
    2   28    1      1.29      0.00
    4   28    1      0.24      0.00
    6   28    1     -0.70      0.00
    8   28    1     -0.57      0.00
   10   28    1      0.17      0.00
   12   28    1      0.43      0.00
   14   28    1      0.18      0.00
  -13   29    1      0.17      0.00
  -11   29    1      0.42      0.00
   -9   29    1      0.12      0.00
   -7   29    1     -0.21      0.00
   -5   29    1      0.08      0.00
   -3   29    1      0.47      0.00
   -1   29    1      0.19      0.00
    1   29    1     -0.37      0.00
    3   29    1     -0.23      0.00
    5   29    1      0.49      0.00
    7   29    1      0.72      0.00
    9   29    1      0.19      0.00
   11   29    1     -0.25      0.00
   13   29    1     -0.13      0.00
  -10   30    1     -0.56      0.00
   -8   30    1     -0.15      0.00
   -6   30    1     -0.06      0.00
   -4   30    1     -0.55      0.00
   -2   30    1     -0.82      0.00
    0   30    1     -0.42      0.00
    2   30    1     -0.07      0.00
    4   30    1     -0.32      0.00
    6   30    1     -0.61      0.00
    8   30    1     -0.35      0.00
   10   30    1      0.06      0.00
   -9   31    1      0.37      0.00
   -7   31    1     -0.07      0.00
   -5   31    1      0.00      0.00
   -3   31    1      0.47      0.00
   -1   31    1      0.58      0.00
    1   31    1      0.33      0.00
    3   31    1      0.32      0.00
    5   31    1      0.49      0.00
    7   31    1      0.28      0.00
    9   31    1     -0.18      0.00
   -6   32    1      0.22      0.00
   -4   32    1     -0.07      0.00
   -2   32    1     -0.48      0.00
    0   32    1     -0.55      0.00
    2   32    1     -0.56      0.00
    4   32    1     -0.69      0.00
    6   32    1     -0.49      0.00
   -3   33    1      0.41      0.00
  -26    0    2      0.32      0.00
  -24    0    2      2.33      0.00
  -22    0    2      3.54      0.00
  -20    0    2      3.25      0.00
  -18    0    2      1.75      0.00
  -16    0    2     -1.36      0.00
  -14    0    2     -5.48      0.00
  -12    0    2     -5.83      0.00
  -10    0    2      1.77      0.00
   -8    0    2     15.14      0.00
   -6    0    2     31.82      0.00
   -4    0    2     52.89      0.00
   -2    0    2     70.50      0.00
    0    0    2     65.03      0.00
    2    0    2     30.34      0.00
    4    0    2    -10.88      0.00
    6    0    2    -32.20      0.00
    8    0    2    -31.58      0.00
   10    0    2    -23.45      0.00
   12    0    2    -16.54      0.00
   14    0    2    -11.03      0.00
   16    0    2     -6.48      0.00
   18    0    2     -3.13      0.00
   20    0    2     -0.49      0.00
   22    0    2      1.29      0.00
   24    0    2      1.65      0.00
   26    0    2      1.04      0.00
  -25    1    2     -1.46      0.00
  -23    1    2     -3.06      0.00
  -21    1    2     -3.48      0.00
  -19    1    2     -2.72      0.00
  -17    1    2     -0.81      0.00
  -15    1    2      2.98      0.00
  -13    1    2      6.44      0.00
  -11    1    2      4.32      0.00
   -9    1    2     -4.67      0.00
   -7    1    2    -18.06      0.00
   -5    1    2    -37.30      0.00
   -3    1    2    -61.79      0.00
   -1    1    2    -75.59      0.00
    1    1    2    -59.95      0.00
    3    1    2    -21.48      0.00
    5    1    2     11.70      0.00
    7    1    2     23.17      0.00
    9    1    2     20.35      0.00
   11    1    2     15.25      0.00
   13    1    2     10.99      0.00
   15    1    2      7.02      0.00
   17    1    2      3.86      0.00
   19    1    2      1.48      0.00
   21    1    2     -0.46      0.00
   23    1    2     -1.45      0.00
   25    1    2     -1.31      0.00
  -26    2    2      1.00      0.00
  -24    2    2      2.32      0.00
  -22    2    2      3.07      0.00
  -20    2    2      2.97      0.00
  -18    2    2      2.39      0.00
  -16    2    2      0.42      0.00
  -14    2    2     -3.70      0.00
  -12    2    2     -6.90      0.00
  -10    2    2     -5.53      0.00
   -8    2    2      0.36      0.00
   -6    2    2     12.90      0.00
   -4    2    2     37.82      0.00
   -2    2    2     68.78      0.00
    0    2    2     82.45      0.00
    2    2    2     64.96      0.00
    4    2    2     31.82      0.00
    6    2    2      7.75      0.00
    8    2    2     -1.12      0.00
   10    2    2     -3.30      0.00
   12    2    2     -4.12      0.00
   14    2    2     -3.53      0.00
   16    2    2     -2.23      0.00
   18    2    2     -1.28      0.00
   20    2    2     -0.35      0.00
   22    2    2      0.63      0.00
   24    2    2      1.06      0.00
   26    2    2      1.01      0.00
  -25    3    2     -1.71      0.00
  -23    3    2     -2.23      0.00
  -21    3    2     -2.27      0.00
  -19    3    2     -2.44      0.00
  -17    3    2     -2.65      0.00
  -15    3    2     -0.82      0.00
  -13    3    2      3.54      0.00
  -11    3    2      7.73      0.00
   -9    3    2     10.30      0.00
   -7    3    2      9.48      0.00
   -5    3    2     -3.32      0.00
   -3    3    2    -34.00      0.00
   -1    3    2    -68.06      0.00
    1    3    2    -80.26      0.00
    3    3    2    -65.33      0.00
    5    3    2    -41.91      0.00
    7    3    2    -25.78      0.00
    9    3    2    -16.37      0.00
   11    3    2     -9.16      0.00
   13    3    2     -4.33      0.00
   15    3    2     -2.15      0.00
   17    3    2     -0.87      0.00
   19    3    2      0.06      0.00
   21    3    2      0.15      0.00
   23    3    2     -0.32      0.00
   25    3    2     -0.81      0.00
  -26    4    2      1.33      0.00
  -24    4    2      1.47      0.00
  -22    4    2      1.32      0.00
  -20    4    2      1.39      0.00
  -18    4    2      2.60      0.00
  -16    4    2      3.67      0.00
  -14    4    2      1.98      0.00
  -12    4    2     -2.47      0.00
  -10    4    2     -8.60      0.00
   -8    4    2    -16.57      0.00
   -6    4    2    -20.82      0.00
   -4    4    2     -8.76      0.00
   -2    4    2     21.38      0.00
    0    4    2     50.34      0.00
    2    4    2     59.07      0.00
    4    4    2     50.78      0.00
    6    4    2     39.90      0.00
    8    4    2     31.34      0.00
   10    4    2     22.31      0.00
   12    4    2     13.52      0.00
   14    4    2      7.68      0.00
   16    4    2      4.24      0.00
   18    4    2      1.66      0.00
   20    4    2      0.07      0.00
   22    4    2     -0.20      0.00
   24    4    2      0.31      0.00
   26    4    2      0.96      0.00
  -25    5    2     -0.96      0.00
  -23    5    2     -0.78      0.00
  -21    5    2     -0.56      0.00
  -19    5    2     -1.42      0.00
  -17    5    2     -3.67      0.00
  -15    5    2     -5.04      0.00
  -13    5    2     -3.62      0.00
  -11    5    2      0.42      0.00
   -9    5    2      8.59      0.00
   -7    5    2     21.51      0.00
   -5    5    2     30.10      0.00
   -3    5    2     21.86      0.00
   -1    5    2     -0.21      0.00
    1    5    2    -19.03      0.00
    3    5    2    -25.99      0.00
    5    5    2    -27.39      0.00
    7    5    2    -28.15      0.00
    9    5    2    -25.30      0.00
   11    5    2    -18.03      0.00
   13    5    2    -10.89      0.00
   15    5    2     -6.49      0.00
   17    5    2     -3.61      0.00
   19    5    2     -1.40      0.00
   21    5    2     -0.26      0.00
   23    5    2     -0.18      0.00
   25    5    2     -0.65      0.00
  -26    6    2      0.46      0.00
  -24    6    2      0.48      0.00
  -22    6    2      0.44      0.00
  -20    6    2      0.75      0.00
  -18    6    2      2.46      0.00
  -16    6    2      4.89      0.00
  -14    6    2      6.01      0.00
  -12    6    2      5.51      0.00
  -10    6    2      2.54      0.00
   -8    6    2     -7.06      0.00
   -6    6    2    -22.90      0.00
   -4    6    2    -33.94      0.00
   -2    6    2    -31.02      0.00
    0    6    2    -19.71      0.00
    2    6    2    -10.09      0.00
    4    6    2     -2.39      0.00
    6    6    2      6.72      0.00
    8    6    2     13.49      0.00
   10    6    2     13.24      0.00
   12    6    2      8.78      0.00
   14    6    2      5.36      0.00
   16    6    2      3.80      0.00
   18    6    2      2.63      0.00
   20    6    2      1.56      0.00
   22    6    2      0.88      0.00
   24    6    2      0.65      0.00
   26    6    2      0.65      0.00
  -25    7    2     -0.01      0.00
  -23    7    2     -0.27      0.00
  -21    7    2     -0.59      0.00
  -19    7    2     -1.46      0.00
  -17    7    2     -3.36      0.00
  -15    7    2     -5.21      0.00
  -13    7    2     -6.46      0.00
  -11    7    2     -7.68      0.00
   -9    7    2     -5.85      0.00
   -7    7    2      4.22      0.00
   -5    7    2     19.64      0.00
   -3    7    2     29.86      0.00
   -1    7    2     30.91      0.00
    1    7    2     28.44      0.00
    3    7    2     24.96      0.00
    5    7    2     17.04      0.00
    7    7    2      6.10      0.00
    9    7    2     -0.82      0.00
   11    7    2     -1.68      0.00
   13    7    2     -0.92      0.00
   15    7    2     -1.50      0.00
   17    7    2     -2.42      0.00
   19    7    2     -2.55      0.00
   21    7    2     -1.97      0.00
   23    7    2     -1.11      0.00
   25    7    2     -0.45      0.00
  -26    8    2     -0.37      0.00
  -24    8    2     -0.40      0.00
  -22    8    2     -0.06      0.00
  -20    8    2      0.40      0.00
  -18    8    2      1.49      0.00
  -16    8    2      3.14      0.00
  -14    8    2      4.68      0.00
  -12    8    2      6.95      0.00
  -10    8    2      9.72      0.00
   -8    8    2      8.12      0.00
   -6    8    2     -1.18      0.00
   -4    8    2    -12.60      0.00
   -2    8    2    -19.13      0.00
    0    8    2    -22.24      0.00
    2    8    2    -25.60      0.00
    4    8    2    -26.02      0.00
    6    8    2    -19.92      0.00
    8    8    2    -11.49      0.00
   10    8    2     -6.43      0.00
   12    8    2     -4.20      0.00
   14    8    2     -1.78      0.00
   16    8    2      0.91      0.00
   18    8    2      2.46      0.00
   20    8    2      2.51      0.00
   22    8    2      1.54      0.00
   24    8    2      0.37      0.00
   26    8    2     -0.33      0.00
  -25    9    2      0.93      0.00
  -23    9    2      1.21      0.00
  -21    9    2      1.20      0.00
  -19    9    2      0.79      0.00
  -17    9    2     -0.46      0.00
  -15    9    2     -2.09      0.00
  -13    9    2     -4.11      0.00
  -11    9    2     -7.55      0.00
   -9    9    2    -10.42      0.00
   -7    9    2     -8.05      0.00
   -5    9    2     -1.05      0.00
   -3    9    2      4.42      0.00
   -1    9    2      6.95      0.00
    1    9    2     11.31      0.00
    3    9    2     17.65      0.00
    5    9    2     19.83      0.00
    7    9    2     15.95      0.00
    9    9    2     10.67      0.00
   11    9    2      6.99      0.00
   13    9    2      3.82      0.00
   15    9    2      0.54      0.00
   17    9    2     -1.69      0.00
   19    9    2     -2.24      0.00
   21    9    2     -1.47      0.00
   23    9    2     -0.21      0.00
   25    9    2      0.63      0.00
  -24   10    2     -1.79      0.00
  -22   10    2     -2.58      0.00
  -20   10    2     -2.91      0.00
  -18   10    2     -2.27      0.00
  -16   10    2     -0.69      0.00
  -14   10    2      1.20      0.00
  -12   10    2      3.95      0.00
  -10   10    2      7.67      0.00
   -8   10    2      9.12      0.00
   -6   10    2      6.02      0.00
   -4   10    2      2.30      0.00
   -2   10    2      1.93      0.00
    0   10    2      1.48      0.00
    2   10    2     -3.44      0.00
    4   10    2     -9.49      0.00
    6   10    2    -11.06      0.00
    8   10    2     -8.67      0.00
   10   10    2     -5.92      0.00
   12   10    2     -3.57      0.00
   14   10    2     -1.00      0.00
   16   10    2      1.05      0.00
   18   10    2      1.71      0.00
   20   10    2      1.13      0.00
   22   10    2      0.00      0.00
   24   10    2     -0.83      0.00
  -25   11    2      1.29      0.00
  -23   11    2      2.71      0.00
  -21   11    2      3.69      0.00
  -19   11    2      3.77      0.00
  -17   11    2      2.62      0.00
  -15   11    2      0.92      0.00
  -13   11    2     -1.04      0.00
  -11   11    2     -4.09      0.00
   -9   11    2     -7.02      0.00
   -7   11    2     -6.51      0.00
   -5   11    2     -3.31      0.00
   -3   11    2     -2.38      0.00
   -1   11    2     -4.38      0.00
    1   11    2     -4.32      0.00
    3   11    2     -0.64      0.00
    5   11    2      2.40      0.00
    7   11    2      2.43      0.00
    9   11    2      1.58      0.00
   11   11    2      1.23      0.00
   13   11    2      0.53      0.00
   15   11    2     -0.63      0.00
   17   11    2     -1.28      0.00
   19   11    2     -1.01      0.00
   21   11    2     -0.14      0.00
   23   11    2      0.66      0.00
   25   11    2      0.76      0.00
  -24   12    2     -1.80      0.00
  -22   12    2     -2.90      0.00
  -20   12    2     -3.31      0.00
  -18   12    2     -2.63      0.00
  -16   12    2     -1.28      0.00
  -14   12    2     -0.09      0.00
  -12   12    2      1.56      0.00
  -10   12    2      4.25      0.00
   -8   12    2      5.50      0.00
   -6   12    2      3.08      0.00
   -4   12    2     -0.02      0.00
   -2   12    2      0.28      0.00
    0   12    2      2.47      0.00
    2   12    2      2.93      0.00
    4   12    2      2.28      0.00
    6   12    2      2.67      0.00
    8   12    2      3.12      0.00
   10   12    2      2.09      0.00
   12   12    2      0.68      0.00
   14   12    2      0.35      0.00
   16   12    2      0.77      0.00
   18   12    2      1.00      0.00
   20   12    2      0.68      0.00
   22   12    2      0.04      0.00
   24   12    2     -0.31      0.00
  -23   13    2      1.60      0.00
  -21   13    2      1.77      0.00
  -19   13    2      1.17      0.00
  -17   13    2     -0.02      0.00
  -15   13    2     -0.83      0.00
  -13   13    2     -1.09      0.00
  -11   13    2     -2.11      0.00
   -9   13    2     -3.48      0.00
   -7   13    2     -2.29      0.00
   -5   13    2      1.77      0.00
   -3   13    2      4.66      0.00
   -1   13    2      4.06      0.00
    1   13    2      2.01      0.00
    3   13    2      0.14      0.00
    5   13    2     -2.17      0.00
    7   13    2     -4.22      0.00
    9   13    2     -4.02      0.00
   11   13    2     -1.99      0.00
   13   13    2     -0.43      0.00
   15   13    2     -0.25      0.00
   17   13    2     -0.72      0.00
   19   13    2     -1.02      0.00
   21   13    2     -0.82      0.00
   23   13    2     -0.35      0.00
  -24   14    2     -0.79      0.00
  -22   14    2     -0.57      0.00
  -20   14    2      0.17      0.00
  -18   14    2      1.36      0.00
  -16   14    2      2.32      0.00
  -14   14    2      2.18      0.00
  -12   14    2      1.53      0.00
  -10   14    2      1.47      0.00
   -8   14    2      0.69      0.00
   -6   14    2     -2.75      0.00
   -4   14    2     -7.11      0.00
   -2   14    2     -8.90      0.00
    0   14    2     -7.80      0.00
    2   14    2     -5.62      0.00
    4   14    2     -2.75      0.00
    6   14    2      0.53      0.00
    8   14    2      2.35      0.00
   10   14    2      1.81      0.00
   12   14    2      0.49      0.00
   14   14    2     -0.02      0.00
   16   14    2      0.26      0.00
   18   14    2      0.73      0.00
   20   14    2      0.91      0.00
   22   14    2      0.63      0.00
   24   14    2      0.22      0.00
  -23   15    2      0.15      0.00
  -21   15    2     -0.56      0.00
  -19   15    2     -1.48      0.00
  -17   15    2     -2.45      0.00
  -15   15    2     -2.70      0.00
  -13   15    2     -1.75      0.00
  -11   15    2     -0.47      0.00
   -9   15    2      0.73      0.00
   -7   15    2      3.09      0.00
   -5   15    2      6.69      0.00
   -3   15    2      9.10      0.00
   -1   15    2      8.94      0.00
    1   15    2      7.58      0.00
    3   15    2      6.03      0.00
    5   15    2      3.90      0.00
    7   15    2      1.70      0.00
    9   15    2      0.64      0.00
   11   15    2      0.56      0.00
   13   15    2      0.47      0.00
   15   15    2      0.19      0.00
   17   15    2     -0.06      0.00
   19   15    2     -0.21      0.00
   21   15    2     -0.15      0.00
   23   15    2      0.13      0.00
  -22   16    2      0.45      0.00
  -20   16    2      0.78      0.00
  -18   16    2      1.12      0.00
  -16   16    2      1.46      0.00
  -14   16    2      1.08      0.00
  -12   16    2     -0.11      0.00
  -10   16    2     -1.36      0.00
   -8   16    2     -2.65      0.00
   -6   16    2     -4.44      0.00
   -4   16    2     -5.72      0.00
   -2   16    2     -5.23      0.00
    2   16    2     -3.59      0.00
    4   16    2     -3.85      0.00
    6   16    2     -3.72      0.00
    8   16    2     -3.20      0.00
   10   16    2     -2.55      0.00
   12   16    2     -1.69      0.00
   14   16    2     -0.90      0.00
   16   16    2     -0.63      0.00
   18   16    2     -0.67      0.00
   20   16    2     -0.72      0.00
   22   16    2     -0.79      0.00
  -23   17    2     -0.42      0.00
  -21   17    2     -0.32      0.00
  -19   17    2      0.16      0.00
  -17   17    2      0.46      0.00
  -15   17    2      0.63      0.00
  -13   17    2      1.20      0.00
  -11   17    2      1.89      0.00
   -9   17    2      2.13      0.00
   -7   17    2      2.09      0.00
   -5   17    2      1.76      0.00
   -3   17    2      0.46      0.00
   -1   17    2     -1.36      0.00
    3   17    2     -0.60      0.00
    5   17    2      1.40      0.00
    7   17    2      2.88      0.00
    9   17    2      3.45      0.00
   11   17    2      3.00      0.00
   13   17    2      2.00      0.00
   15   17    2      1.35      0.00
   17   17    2      1.26      0.00
   19   17    2      1.28      0.00
   21   17    2      1.21      0.00
   23   17    2      1.05      0.00
  -22   18    2      0.33      0.00
  -20   18    2     -0.46      0.00
  -18   18    2     -1.37      0.00
  -16   18    2     -1.90      0.00
  -14   18    2     -2.30      0.00
  -12   18    2     -2.66      0.00
  -10   18    2     -2.38      0.00
   -8   18    2     -1.24      0.00
   -6   18    2      0.25      0.00
   -4   18    2      1.97      0.00
   -2   18    2      3.88      0.00
    0   18    2      5.02      0.00
    4   18    2      2.30      0.00
    6   18    2     -0.13      0.00
    8   18    2     -2.11      0.00
   10   18    2     -3.01      0.00
   12   18    2     -2.73      0.00
   14   18    2     -2.02      0.00
   16   18    2     -1.57      0.00
   18   18    2     -1.33      0.00
   20   18    2     -1.08      0.00
   22   18    2     -0.83      0.00
  -21   19    2      0.21      0.00
  -19   19    2      1.13      0.00
  -17   19    2      1.85      0.00
  -15   19    2      2.38      0.00
  -13   19    2      2.93      0.00
  -11   19    2      3.03      0.00
   -9   19    2      2.04      0.00
   -7   19    2      0.27      0.00
   -5   19    2     -1.47      0.00
   -3   19    2     -2.93      0.00
   -1   19    2     -3.99      0.00
    1   19    2     -4.21      0.00
    3   19    2     -3.40      0.00
    5   19    2     -1.84      0.00
    7   19    2      0.09      0.00
    9   19    2      1.77      0.00
   11   19    2      2.46      0.00
   13   19    2      2.21      0.00
   15   19    2      1.68      0.00
   17   19    2      1.19      0.00
   19   19    2      0.70      0.00
   21   19    2      0.30      0.00
  -20   20    2     -0.59      0.00
  -18   20    2     -1.09      0.00
  -16   20    2     -1.51      0.00
  -14   20    2     -2.17      0.00
  -12   20    2     -2.93      0.00
  -10   20    2     -2.96      0.00
   -8   20    2     -1.91      0.00
   -6   20    2     -0.45      0.00
   -4   20    2      0.70      0.00
   -2   20    2      1.47      0.00
    0   20    2      1.94      0.00
    2   20    2      2.08      0.00
    4   20    2      1.76      0.00
    6   20    2      0.79      0.00
    8   20    2     -0.60      0.00
   10   20    2     -1.64      0.00
   12   20    2     -1.81      0.00
   14   20    2     -1.46      0.00
   16   20    2     -1.02      0.00
   18   20    2     -0.53      0.00
   20   20    2     -0.03      0.00
  -21   21    2      0.23      0.00
  -19   21    2      0.48      0.00
  -17   21    2      0.64      0.00
  -15   21    2      1.03      0.00
  -13   21    2      1.86      0.00
  -11   21    2      2.66      0.00
   -9   21    2      2.68      0.00
   -7   21    2      1.88      0.00
   -5   21    2      0.87      0.00
   -3   21    2      0.07      0.00
   -1   21    2     -0.54      0.00
    1   21    2     -1.01      0.00
    3   21    2     -1.26      0.00
    5   21    2     -0.97      0.00
    7   21    2     -0.06      0.00
    9   21    2      0.89      0.00
   11   21    2      1.19      0.00
   13   21    2      0.96      0.00
   15   21    2      0.72      0.00
   17   21    2      0.53      0.00
   19   21    2      0.21      0.00
  -20   22    2     -0.08      0.00
  -18   22    2     -0.16      0.00
  -16   22    2     -0.30      0.00
  -14   22    2     -0.71      0.00
  -12   22    2     -1.38      0.00
  -10   22    2     -1.90      0.00
   -8   22    2     -1.84      0.00
   -6   22    2     -1.26      0.00
   -4   22    2     -0.48      0.00
   -2   22    2      0.24      0.00
    0   22    2      0.84      0.00
    2   22    2      1.26      0.00
    4   22    2      1.29      0.00
    6   22    2      0.72      0.00
    8   22    2     -0.12      0.00
   10   22    2     -0.55      0.00
   12   22    2     -0.43      0.00
   14   22    2     -0.27      0.00
   16   22    2     -0.36      0.00
   18   22    2     -0.44      0.00
   20   22    2     -0.28      0.00
  -19   23    2     -0.15      0.00
  -17   23    2     -0.01      0.00
  -15   23    2      0.13      0.00
  -13   23    2      0.30      0.00
  -11   23    2      0.56      0.00
   -9   23    2      0.81      0.00
   -7   23    2      0.84      0.00
   -5   23    2      0.60      0.00
   -3   23    2      0.22      0.00
   -1   23    2     -0.17      0.00
    1   23    2     -0.55      0.00
    3   23    2     -0.88      0.00
    5   23    2     -0.89      0.00
    7   23    2     -0.49      0.00
    9   23    2     -0.05      0.00
   11   23    2      0.03      0.00
   13   23    2     -0.05      0.00
   15   23    2      0.07      0.00
   17   23    2      0.34      0.00
   19   23    2      0.48      0.00
  -18   24    2      0.23      0.00
  -16   24    2      0.07      0.00
  -14   24    2      0.08      0.00
  -12   24    2      0.16      0.00
  -10   24    2      0.03      0.00
   -8   24    2     -0.37      0.00
   -6   24    2     -0.78      0.00
   -4   24    2     -1.05      0.00
   -2   24    2     -1.24      0.00
    0   24    2     -1.31      0.00
    2   24    2     -1.05      0.00
    4   24    2     -0.49      0.00
    6   24    2     -0.03      0.00
    8   24    2      0.09      0.00
   10   24    2      0.03      0.00
   12   24    2     -0.01      0.00
   14   24    2     -0.05      0.00
   16   24    2     -0.14      0.00
   18   24    2     -0.27      0.00
  -17   25    2     -0.21      0.00
  -15   25    2     -0.16      0.00
  -13   25    2     -0.24      0.00
  -11   25    2     -0.20      0.00
   -9   25    2      0.26      0.00
   -7   25    2      1.00      0.00
   -5   25    2      1.65      0.00
   -3   25    2      2.19      0.00
   -1   25    2      2.71      0.00
    1   25    2      2.99      0.00
    3   25    2      2.66      0.00
    5   25    2      1.80      0.00
    7   25    2      0.95      0.00
    9   25    2      0.52      0.00
   11   25    2      0.46      0.00
   13   25    2      0.46      0.00
   15   25    2      0.29      0.00
   17   25    2      0.07      0.00
  -16   26    2      0.21      0.00
  -14   26    2      0.22      0.00
  -12   26    2      0.16      0.00
  -10   26    2     -0.23      0.00
   -8   26    2     -0.95      0.00
   -6   26    2     -1.63      0.00
   -4   26    2     -2.03      0.00
   -2   26    2     -2.44      0.00
    0   26    2     -3.03      0.00
    2   26    2     -3.44      0.00
    4   26    2     -3.19      0.00
    6   26    2     -2.36      0.00
    8   26    2     -1.49      0.00
   10   26    2     -1.05      0.00
   12   26    2     -0.95      0.00
   14   26    2     -0.73      0.00
   16   26    2     -0.25      0.00
  -15   27    2     -0.26      0.00
  -13   27    2     -0.28      0.00
  -11   27    2     -0.11      0.00
   -9   27    2      0.37      0.00
   -7   27    2      0.94      0.00
   -5   27    2      1.21      0.00
   -3   27    2      1.28      0.00
   -1   27    2      1.60      0.00
    1   27    2      2.28      0.00
    3   27    2      2.86      0.00
    5   27    2      2.79      0.00
    7   27    2      2.13      0.00
    9   27    2      1.43      0.00
   11   27    2      1.12      0.00
   13   27    2      0.96      0.00
   15   27    2      0.57      0.00
  -14   28    2      0.34      0.00
  -12   28    2      0.45      0.00
  -10   28    2      0.41      0.00
   -8   28    2      0.13      0.00
   -6   28    2     -0.18      0.00
   -4   28    2     -0.31      0.00
   -2   28    2     -0.41      0.00
    0   28    2     -0.83      0.00
    2   28    2     -1.51      0.00
    4   28    2     -2.00      0.00
    6   28    2     -1.88      0.00
    8   28    2     -1.34      0.00
   10   28    2     -0.90      0.00
   12   28    2     -0.78      0.00
   14   28    2     -0.63      0.00
  -13   29    2     -0.37      0.00
  -11   29    2     -0.66      0.00
   -9   29    2     -0.85      0.00
   -7   29    2     -0.69      0.00
   -5   29    2     -0.32      0.00
   -3   29    2      0.02      0.00
   -1   29    2      0.29      0.00
    1   29    2      0.60      0.00
    3   29    2      0.93      0.00
    5   29    2      1.04      0.00
    7   29    2      0.81      0.00
    9   29    2      0.51      0.00
   11   29    2      0.46      0.00
   13   29    2      0.50      0.00
  -10   30    2      0.68      0.00
   -8   30    2      0.94      0.00
   -6   30    2      0.72      0.00
   -4   30    2      0.22      0.00
   -2   30    2     -0.17      0.00
    0   30    2     -0.28      0.00
    2   30    2     -0.24      0.00
    4   30    2     -0.17      0.00
    6   30    2     -0.09      0.00
    8   30    2     -0.04      0.00
   10   30    2     -0.20      0.00
   -9   31    2     -0.52      0.00
   -7   31    2     -0.72      0.00
   -5   31    2     -0.48      0.00
   -3   31    2     -0.15      0.00
   -1   31    2     -0.06      0.00
    1   31    2     -0.23      0.00
    3   31    2     -0.43      0.00
    5   31    2     -0.53      0.00
    7   31    2     -0.47      0.00
    9   31    2     -0.16      0.00
   -6   32    2      0.47      0.00
   -4   32    2      0.39      0.00
   -2   32    2      0.40      0.00
    0   32    2      0.55      0.00
    2   32    2      0.68      0.00
    4   32    2      0.70      0.00
    6   32    2      0.67      0.00
  -25    1    3     -2.09      0.00
  -23    1    3     -2.17      0.00
  -21    1    3     -1.38      0.00
  -19    1    3      0.24      0.00
  -17    1    3      2.41      0.00
  -15    1    3      4.48      0.00
  -13    1    3      5.42      0.00
  -11    1    3      4.25      0.00
   -9    1    3      0.65      0.00
   -7    1    3     -4.83      0.00
   -5    1    3    -11.03      0.00
   -3    1    3    -16.45      0.00
   -1    1    3    -19.36      0.00
    1    1    3    -18.37      0.00
    3    1    3    -13.18      0.00
    5    1    3     -5.21      0.00
    7    1    3      2.73      0.00
    9    1    3      7.91      0.00
   11    1    3      9.28      0.00
   13    1    3      7.81      0.00
   15    1    3      5.29      0.00
   17    1    3      3.00      0.00
   19    1    3      1.33      0.00
   21    1    3      0.20      0.00
   23    1    3     -0.39      0.00
   25    1    3     -0.40      0.00
  -26    2    3      2.83      0.00
  -24    2    3      3.70      0.00
  -22    2    3      3.34      0.00
  -20    2    3      1.52      0.00
  -18    2    3     -1.67      0.00
  -16    2    3     -5.67      0.00
  -14    2    3     -9.13      0.00
  -12    2    3    -10.18      0.00
  -10    2    3     -7.17      0.00
   -8    2    3      0.49      0.00
   -6    2    3     12.09      0.00
   -4    2    3     25.41      0.00
   -2    2    3     36.63      0.00
    0    2    3     41.33      0.00
    2    2    3     36.69      0.00
    4    2    3     23.66      0.00
    6    2    3      7.08      0.00
    8    2    3     -6.82      0.00
   10    2    3    -13.95      0.00
   12    2    3    -14.42      0.00
   14    2    3    -11.15      0.00
   16    2    3     -7.13      0.00
   18    2    3     -3.77      0.00
   20    2    3     -1.25      0.00
   22    2    3      0.42      0.00
   24    2    3      1.04      0.00
   26    2    3      0.70      0.00
  -25    3    3     -3.52      0.00
  -23    3    3     -4.05      0.00
  -21    3    3     -3.25      0.00
  -19    3    3     -0.79      0.00
  -17    3    3      3.31      0.00
  -15    3    3      8.34      0.00
  -13    3    3     12.64      0.00
  -11    3    3     13.81      0.00
   -9    3    3      9.44      0.00
   -7    3    3     -2.07      0.00
   -5    3    3    -20.16      0.00
   -3    3    3    -40.72      0.00
   -1    3    3    -56.36      0.00
    1    3    3    -59.97      0.00
    3    3    3    -49.22      0.00
    5    3    3    -28.51      0.00
    7    3    3     -6.57      0.00
    9    3    3      8.76      0.00
   11    3    3     14.81      0.00
   13    3    3     14.00      0.00
   15    3    3     10.34      0.00
   17    3    3      6.42      0.00
   19    3    3      3.00      0.00
   21    3    3      0.25      0.00
   23    3    3     -1.41      0.00
   25    3    3     -1.64      0.00
  -26    4    3      2.13      0.00
  -24    4    3      2.92      0.00
  -22    4    3      3.08      0.00
  -20    4    3      2.16      0.00
  -18    4    3     -0.22      0.00
  -16    4    3     -4.20      0.00
  -14    4    3     -9.29      0.00
  -12    4    3    -13.95      0.00
  -10    4    3    -15.42      0.00
   -8    4    3    -10.23      0.00
   -6    4    3      4.19      0.00
   -4    4    3     26.52      0.00
   -2    4    3     49.84      0.00
    0    4    3     64.31      0.00
    2    4    3     63.21      0.00
    4    4    3     47.38      0.00
    6    4    3     24.58      0.00
    8    4    3      4.42      0.00
   10    4    3     -7.35      0.00
   12    4    3    -10.97      0.00
   14    4    3     -9.98      0.00
   16    4    3     -7.40      0.00
   18    4    3     -4.44      0.00
   20    4    3     -1.43      0.00
   22    4    3      1.06      0.00
   24    4    3      2.24      0.00
   26    4    3      1.90      0.00
  -25    5    3     -1.23      0.00
  -23    5    3     -1.40      0.00
  -21    5    3     -1.29      0.00
  -19    5    3     -0.67      0.00
  -17    5    3      0.79      0.00
  -15    5    3      3.58      0.00
  -13    5    3      7.74      0.00
  -11    5    3     12.09      0.00
   -9    5    3     13.65      0.00
   -7    5    3      8.44      0.00
   -5    5    3     -5.71      0.00
   -3    5    3    -25.82      0.00
   -1    5    3    -43.91      0.00
    1    5    3    -51.86      0.00
    3    5    3    -46.69      0.00
    5    5    3    -32.05      0.00
    7    5    3    -15.28      0.00
    9    5    3     -2.70      0.00
   11    5    3      3.69      0.00
   13    5    3      5.61      0.00
   15    5    3      5.42      0.00
   17    5    3      4.16      0.00
   19    5    3      2.09      0.00
   21    5    3     -0.30      0.00
   23    5    3     -2.09      0.00
   25    5    3     -2.49      0.00
  -26    6    3      0.44      0.00
  -24    6    3      0.09      0.00
  -22    6    3     -0.26      0.00
  -20    6    3     -0.43      0.00
  -18    6    3     -0.30      0.00
  -16    6    3     -0.28      0.00
  -14    6    3     -1.25      0.00
  -12    6    3     -3.76      0.00
  -10    6    3     -6.98      0.00
   -8    6    3     -8.34      0.00
   -6    6    3     -4.81      0.00
   -4    6    3      4.23      0.00
   -2    6    3     15.34      0.00
    0    6    3     23.36      0.00
    2    6    3     25.16      0.00
    4    6    3     21.06      0.00
    6    6    3     13.80      0.00
    8    6    3      6.71      0.00
   10    6    3      1.90      0.00
   12    6    3     -0.60      0.00
   14    6    3     -1.77      0.00
   16    6    3     -2.03      0.00
   18    6    3     -1.33      0.00
   20    6    3      0.11      0.00
   22    6    3      1.63      0.00
   24    6    3      2.39      0.00
   26    6    3      1.95      0.00
  -25    7    3     -0.12      0.00
  -23    7    3      0.56      0.00
  -21    7    3      1.12      0.00
  -19    7    3      1.09      0.00
  -17    7    3      0.17      0.00
  -15    7    3     -1.20      0.00
  -13    7    3     -1.99      0.00
  -11    7    3     -1.46      0.00
   -9    7    3      0.11      0.00
   -7    7    3      1.39      0.00
   -5    7    3      1.24      0.00
   -3    7    3      0.19      0.00
   -1    7    3     -0.40      0.00
    1    7    3     -0.33      0.00
    3    7    3     -0.48      0.00
    5    7    3     -1.00      0.00
    7    7    3     -1.27      0.00
    9    7    3     -1.08      0.00
   11    7    3     -0.73      0.00
   15    7    3     -0.11      0.00
   17    7    3     -0.29      0.00
   19    7    3     -0.91      0.00
   21    7    3     -1.64      0.00
   23    7    3     -2.09      0.00
   25    7    3     -1.84      0.00
  -26    8    3      0.73      0.00
  -24    8    3      0.36      0.00
  -22    8    3     -0.22      0.00
  -20    8    3     -0.70      0.00
  -18    8    3     -0.51      0.00
  -16    8    3      0.75      0.00
  -14    8    3      2.79      0.00
  -12    8    3      4.82      0.00
  -10    8    3      5.97      0.00
   -8    8    3      5.83      0.00
   -6    8    3      4.35      0.00
   -4    8    3      1.10      0.00
   -2    8    3     -4.22      0.00
    0    8    3     -9.98      0.00
    2    8    3    -12.95      0.00
    4    8    3    -11.70      0.00
    6    8    3     -8.11      0.00
    8    8    3     -4.74      0.00
   10    8    3     -2.42      0.00
   12    8    3     -0.84      0.00
   14    8    3      0.29      0.00
   16    8    3      1.16      0.00
   18    8    3      1.81      0.00
   20    8    3      2.10      0.00
   22    8    3      2.01      0.00
   24    8    3      1.60      0.00
  -25    9    3     -1.08      0.00
  -23    9    3     -1.16      0.00
  -21    9    3     -0.94      0.00
  -19    9    3     -0.52      0.00
  -17    9    3     -0.54      0.00
  -15    9    3     -1.57      0.00
  -13    9    3     -3.60      0.00
  -11    9    3     -5.97      0.00
   -9    9    3     -7.77      0.00
   -7    9    3     -8.36      0.00
   -5    9    3     -6.97      0.00
   -3    9    3     -2.42      0.00
   -1    9    3      4.94      0.00
    1    9    3     11.77      0.00
    3    9    3     14.48      0.00
    5    9    3     12.94      0.00
    7    9    3      9.74      0.00
    9    9    3      6.64      0.00
   11    9    3      3.83      0.00
   13    9    3      1.36      0.00
   15    9    3     -0.51      0.00
   17    9    3     -1.65      0.00
   19    9    3     -2.03      0.00
   21    9    3     -1.80      0.00
   23    9    3     -1.30      0.00
   25    9    3     -0.75      0.00
  -24   10    3      1.51      0.00
  -22   10    3      2.06      0.00
  -20   10    3      2.00      0.00
  -18   10    3      1.44      0.00
  -16   10    3      1.12      0.00
  -14   10    3      1.70      0.00
  -12   10    3      3.11      0.00
  -10   10    3      4.70      0.00
   -8   10    3      6.11      0.00
   -6   10    3      7.21      0.00
   -4   10    3      6.89      0.00
   -2   10    3      3.46      0.00
    0   10    3     -2.54      0.00
    2   10    3     -7.82      0.00
    4   10    3     -9.94      0.00
    6   10    3     -9.51      0.00
    8   10    3     -7.95      0.00
   10   10    3     -5.65      0.00
   12   10    3     -2.96      0.00
   14   10    3     -0.77      0.00
   16   10    3      0.47      0.00
   18   10    3      0.91      0.00
   20   10    3      0.82      0.00
   22   10    3      0.55      0.00
   24   10    3      0.43      0.00
  -25   11    3     -0.82      0.00
  -23   11    3     -1.73      0.00
  -21   11    3     -2.31      0.00
  -19   11    3     -2.09      0.00
  -17   11    3     -1.41      0.00
  -15   11    3     -0.95      0.00
  -13   11    3     -1.01      0.00
  -11   11    3     -1.30      0.00
   -9   11    3     -1.67      0.00
   -7   11    3     -2.81      0.00
   -5   11    3     -4.96      0.00
   -3   11    3     -6.30      0.00
   -1   11    3     -4.68      0.00
    1   11    3     -0.80      0.00
    3   11    3      2.67      0.00
    5   11    3      4.47      0.00
    7   11    3      5.02      0.00
    9   11    3      4.46      0.00
   11   11    3      2.89      0.00
   13   11    3      1.31      0.00
   15   11    3      0.61      0.00
   17   11    3      0.58      0.00
   19   11    3      0.72      0.00
   21   11    3      0.74      0.00
   23   11    3      0.40      0.00
   25   11    3     -0.18      0.00
  -24   12    3      0.64      0.00
  -22   12    3      1.33      0.00
  -20   12    3      1.55      0.00
  -18   12    3      1.25      0.00
  -16   12    3      0.78      0.00
  -14   12    3      0.35      0.00
  -12   12    3     -0.14      0.00
  -10   12    3     -0.77      0.00
   -8   12    3     -0.80      0.00
   -6   12    3      1.02      0.00
   -4   12    3      4.21      0.00
   -2   12    3      6.16      0.00
    0   12    3      5.31      0.00
    2   12    3      3.07      0.00
    4   12    3      1.28      0.00
    6   12    3      0.11      0.00
    8   12    3     -0.67      0.00
   10   12    3     -0.75      0.00
   12   12    3     -0.44      0.00
   14   12    3     -0.63      0.00
   16   12    3     -1.29      0.00
   18   12    3     -1.77      0.00
   20   12    3     -1.81      0.00
   22   12    3     -1.36      0.00
   24   12    3     -0.46      0.00
  -23   13    3     -0.17      0.00
  -21   13    3     -0.33      0.00
  -19   13    3     -0.37      0.00
  -17   13    3     -0.43      0.00
  -15   13    3     -0.36      0.00
  -13   13    3      0.07      0.00
  -11   13    3      0.87      0.00
   -9   13    3      1.54      0.00
   -7   13    3      0.95      0.00
   -5   13    3     -1.42      0.00
   -3   13    3     -3.97      0.00
   -1   13    3     -4.61      0.00
    1   13    3     -3.71      0.00
    3   13    3     -3.17      0.00
    5   13    3     -3.32      0.00
    7   13    3     -3.15      0.00
    9   13    3     -2.49      0.00
   11   13    3     -1.75      0.00
   13   13    3     -0.75      0.00
   15   13    3      0.53      0.00
   17   13    3      1.45      0.00
   19   13    3      1.74      0.00
   21   13    3      1.60      0.00
   23   13    3      1.04      0.00
  -24   14    3     -0.36      0.00
  -22   14    3     -0.55      0.00
  -20   14    3     -0.59      0.00
  -18   14    3     -0.16      0.00
  -16   14    3      0.46      0.00
  -14   14    3      0.61      0.00
  -12   14    3      0.09      0.00
  -10   14    3     -0.68      0.00
   -8   14    3     -1.00      0.00
   -6   14    3     -0.26      0.00
   -4   14    3      0.90      0.00
   -2   14    3      0.90      0.00
    0   14    3     -0.28      0.00
    2   14    3     -0.52      0.00
    4   14    3      1.22      0.00
    6   14    3      3.35      0.00
    8   14    3      4.25      0.00
   10   14    3      4.00      0.00
   12   14    3      3.04      0.00
   14   14    3      1.61      0.00
   16   14    3      0.33      0.00
   18   14    3     -0.35      0.00
   20   14    3     -0.72      0.00
   22   14    3     -0.92      0.00
   24   14    3     -0.69      0.00
  -23   15    3      0.68      0.00
  -21   15    3      0.97      0.00
  -19   15    3      0.65      0.00
  -17   15    3     -0.37      0.00
  -15   15    3     -1.24      0.00
  -13   15    3     -1.22      0.00
  -11   15    3     -0.49      0.00
   -9   15    3      0.40      0.00
   -7   15    3      0.99      0.00
   -5   15    3      1.42      0.00
   -3   15    3      2.69      0.00
   -1   15    3      5.10      0.00
    1   15    3      6.65      0.00
    3   15    3      5.17      0.00
    5   15    3      1.42      0.00
    7   15    3     -2.05      0.00
    9   15    3     -4.01      0.00
   11   15    3     -4.61      0.00
   13   15    3     -4.04      0.00
   15   15    3     -2.81      0.00
   17   15    3     -1.70      0.00
   19   15    3     -0.80      0.00
   21   15    3      0.13      0.00
   23   15    3      0.76      0.00
  -22   16    3     -0.64      0.00
  -20   16    3     -0.64      0.00
  -18   16    3      0.14      0.00
  -16   16    3      1.31      0.00
  -14   16    3      1.85      0.00
  -12   16    3      1.40      0.00
  -10   16    3      0.34      0.00
   -8   16    3     -0.90      0.00
   -6   16    3     -2.13      0.00
   -4   16    3     -3.80      0.00
   -2   16    3     -6.57      0.00
    0   16    3     -9.50      0.00
    2   16    3    -10.11      0.00
    4   16    3     -7.39      0.00
    6   16    3     -3.08      0.00
    8   16    3      0.83      0.00
   10   16    3      3.62      0.00
   12   16    3      4.92      0.00
   14   16    3      4.59      0.00
   16   16    3      3.39      0.00
   18   16    3      2.07      0.00
   20   16    3      0.69      0.00
   22   16    3     -0.52      0.00
  -23   17    3      0.06      0.00
  -21   17    3      0.09      0.00
  -19   17    3     -0.13      0.00
  -17   17    3     -0.89      0.00
  -15   17    3     -1.60      0.00
  -13   17    3     -1.59      0.00
  -11   17    3     -0.89      0.00
   -9   17    3      0.14      0.00
   -7   17    3      1.18      0.00
   -5   17    3      2.16      0.00
   -3   17    3      3.75      0.00
   -1   17    3      6.37      0.00
    1   17    3      8.70      0.00
    3   17    3      8.76      0.00
    5   17    3      6.41      0.00
    7   17    3      2.97      0.00
    9   17    3     -0.56      0.00
   11   17    3     -3.35      0.00
   13   17    3     -4.41      0.00
   15   17    3     -3.76      0.00
   17   17    3     -2.43      0.00
   19   17    3     -1.02      0.00
   21   17    3      0.32      0.00
   23   17    3      1.05      0.00
  -22   18    3      0.48      0.00
  -20   18    3      0.44      0.00
  -18   18    3      0.51      0.00
  -16   18    3      0.85      0.00
  -14   18    3      0.99      0.00
  -12   18    3      0.76      0.00
  -10   18    3      0.42      0.00
   -8   18    3      0.22      0.00
   -6   18    3      0.38      0.00
   -2   18    3     -0.21      0.00
    0   18    3     -2.30      0.00
    2   18    3     -4.30      0.00
    4   18    3     -4.81      0.00
    6   18    3     -3.77      0.00
    8   18    3     -1.69      0.00
   10   18    3      0.79      0.00
   12   18    3      2.49      0.00
   14   18    3      2.60      0.00
   16   18    3      1.73      0.00
   18   18    3      0.74      0.00
   20   18    3     -0.25      0.00
   22   18    3     -0.96      0.00
  -21   19    3     -0.60      0.00
  -19   19    3     -0.33      0.00
  -17   19    3     -0.24      0.00
  -15   19    3     -0.25      0.00
  -13   19    3     -0.13      0.00
  -11   19    3     -0.14      0.00
   -9   19    3     -0.59      0.00
   -7   19    3     -1.57      0.00
   -5   19    3     -2.95      0.00
   -3   19    3     -3.92      0.00
   -1   19    3     -3.35      0.00
    1   19    3     -1.41      0.00
    3   19    3      0.50      0.00
    5   19    3      1.48      0.00
    7   19    3      1.43      0.00
    9   19    3      0.54      0.00
   11   19    3     -0.52      0.00
   13   19    3     -0.82      0.00
   15   19    3     -0.43      0.00
   17   19    3     -0.07      0.00
   19   19    3      0.21      0.00
   21   19    3      0.63      0.00
  -20   20    3     -0.04      0.00
  -18   20    3     -0.22      0.00
  -16   20    3     -0.15      0.00
  -14   20    3     -0.26      0.00
  -12   20    3     -0.50      0.00
  -10   20    3     -0.27      0.00
   -8   20    3      0.71      0.00
   -6   20    3      2.27      0.00
   -4   20    3      3.93      0.00
   -2   20    3      4.65      0.00
    0   20    3      3.84      0.00
    2   20    3      2.18      0.00
    4   20    3      0.73      0.00
    6   20    3     -0.15      0.00
    8   20    3     -0.47      0.00
   10   20    3     -0.39      0.00
   12   20    3     -0.41      0.00
   14   20    3     -0.67      0.00
   16   20    3     -0.62      0.00
   18   20    3     -0.21      0.00
   20   20    3     -0.10      0.00
  -19   21    3      0.86      0.00
  -17   21    3      0.48      0.00
  -15   21    3      0.18      0.00
  -13   21    3      0.58      0.00
  -11   21    3      1.12      0.00
   -9   21    3      0.96      0.00
   -7   21    3     -0.05      0.00
   -5   21    3     -1.55      0.00
   -3   21    3     -2.82      0.00
   -1   21    3     -3.06      0.00
    1   21    3     -2.24      0.00
    3   21    3     -1.12      0.00
    5   21    3     -0.22      0.00
    7   21    3      0.43      0.00
    9   21    3      0.77      0.00
   11   21    3      0.96      0.00
   13   21    3      1.15      0.00
   15   21    3      1.00      0.00
   17   21    3      0.28      0.00
   19   21    3     -0.31      0.00
  -20   22    3     -1.40      0.00
  -18   22    3     -1.01      0.00
  -16   22    3     -0.12      0.00
  -14   22    3     -0.04      0.00
  -12   22    3     -0.95      0.00
  -10   22    3     -1.71      0.00
   -8   22    3     -1.51      0.00
   -6   22    3     -0.46      0.00
   -4   22    3      0.91      0.00
   -2   22    3      1.84      0.00
    0   22    3      1.80      0.00
    2   22    3      1.03      0.00
    4   22    3      0.10      0.00
    6   22    3     -0.71      0.00
    8   22    3     -1.20      0.00
   10   22    3     -1.30      0.00
   12   22    3     -1.25      0.00
   14   22    3     -1.04      0.00
   16   22    3     -0.38      0.00
   18   22    3      0.41      0.00
  -19   23    3      1.31      0.00
  -17   23    3      0.38      0.00
  -15   23    3     -0.39      0.00
  -13   23    3      0.07      0.00
  -11   23    3      1.13      0.00
   -9   23    3      1.49      0.00
   -7   23    3      0.83      0.00
   -5   23    3     -0.42      0.00
   -3   23    3     -1.64      0.00
   -1   23    3     -2.15      0.00
    1   23    3     -1.72      0.00
    3   23    3     -0.71      0.00
    5   23    3      0.39      0.00
    7   23    3      1.16      0.00
    9   23    3      1.37      0.00
   11   23    3      1.16      0.00
   13   23    3      0.87      0.00
   15   23    3      0.42      0.00
   17   23    3     -0.24      0.00
   19   23    3     -0.54      0.00
  -18   24    3     -0.55      0.00
  -16   24    3      0.33      0.00
  -14   24    3      0.49      0.00
  -12   24    3     -0.22      0.00
  -10   24    3     -0.67      0.00
   -8   24    3     -0.17      0.00
   -6   24    3      0.89      0.00
   -4   24    3      1.95      0.00
   -2   24    3      2.56      0.00
    0   24    3      2.41      0.00
    2   24    3      1.57      0.00
    4   24    3      0.49      0.00
    6   24    3     -0.39      0.00
    8   24    3     -0.77      0.00
   10   24    3     -0.69      0.00
   12   24    3     -0.53      0.00
   14   24    3     -0.36      0.00
   16   24    3      0.00      0.00
   18   24    3      0.34      0.00
  -17   25    3     -0.15      0.00
  -15   25    3     -0.45      0.00
  -13   25    3     -0.07      0.00
  -11   25    3      0.31      0.00
   -9   25    3     -0.12      0.00
   -7   25    3     -1.07      0.00
   -5   25    3     -1.86      0.00
   -3   25    3     -2.20      0.00
   -1   25    3     -2.07      0.00
    1   25    3     -1.51      0.00
    3   25    3     -0.77      0.00
    5   25    3     -0.21      0.00
    7   25    3     -0.01      0.00
    9   25    3     -0.04      0.00
   11   25    3     -0.01      0.00
   13   25    3      0.19      0.00
   15   25    3      0.19      0.00
   17   25    3     -0.08      0.00
  -16   26    3      0.27      0.00
  -14   26    3     -0.07      0.00
  -12   26    3     -0.59      0.00
  -10   26    3     -0.46      0.00
   -8   26    3      0.35      0.00
   -6   26    3      1.03      0.00
   -4   26    3      1.21      0.00
   -2   26    3      1.06      0.00
    0   26    3      0.73      0.00
    2   26    3      0.28      0.00
    4   26    3     -0.02      0.00
    6   26    3      0.03      0.00
    8   26    3      0.31      0.00
   10   26    3      0.37      0.00
   12   26    3      0.02      0.00
   14   26    3     -0.32      0.00
   16   26    3     -0.22      0.00
  -15   27    3      0.02      0.00
  -13   27    3      0.68      0.00
  -11   27    3      1.05      0.00
   -9   27    3      0.68      0.00
   -7   27    3      0.11      0.00
   -5   27    3     -0.11      0.00
   -3   27    3     -0.14      0.00
   -1   27    3     -0.16      0.00
    1   27    3      0.00      0.00
    3   27    3      0.39      0.00
    5   27    3      0.58      0.00
    7   27    3      0.31      0.00
    9   27    3     -0.08      0.00
   11   27    3     -0.02      0.00
   13   27    3      0.37      0.00
   15   27    3      0.47      0.00
  -14   28    3     -0.14      0.00
  -12   28    3     -0.75      0.00
  -10   28    3     -0.95      0.00
   -8   28    3     -0.71      0.00
   -6   28    3     -0.55      0.00
   -4   28    3     -0.47      0.00
   -2   28    3     -0.14      0.00
    0   28    3      0.14      0.00
    2   28    3     -0.21      0.00
    4   28    3     -0.95      0.00
    6   28    3     -1.26      0.00
    8   28    3     -0.86      0.00
   10   28    3     -0.38      0.00
   12   28    3     -0.38      0.00
   14   28    3     -0.53      0.00
  -13   29    3     -0.18      0.00
  -11   29    3      0.25      0.00
   -9   29    3      0.39      0.00
   -7   29    3      0.48      0.00
   -5   29    3      0.65      0.00
   -3   29    3      0.52      0.00
   -1   29    3      0.05      0.00
    1   29    3      0.01      0.00
    3   29    3      0.85      0.00
    5   29    3      1.79      0.00
    7   29    3      1.82      0.00
    9   29    3      1.06      0.00
   11   29    3      0.48      0.00
  -10   30    3      0.25      0.00
   -8   30    3      0.03      0.00
   -6   30    3     -0.36      0.00
   -4   30    3     -0.74      0.00
   -2   30    3     -0.65      0.00
    0   30    3     -0.39      0.00
    2   30    3     -0.77      0.00
    4   30    3     -1.74      0.00
    6   30    3     -2.20      0.00
    8   30    3     -1.61      0.00
   10   30    3     -0.70      0.00
   -9   31    3     -0.29      0.00
   -7   31    3     -0.05      0.00
   -5   31    3      0.47      0.00
   -3   31    3      0.89      0.00
   -1   31    3      0.84      0.00
    1   31    3      0.80      0.00
    3   31    3      1.28      0.00
    5   31    3      1.80      0.00
    7   31    3      1.57      0.00
    9   31    3      0.77      0.00
   -6   32    3     -0.02      0.00
   -4   32    3     -0.44      0.00
   -2   32    3     -0.67      0.00
    0   32    3     -0.56      0.00
    2   32    3     -0.59      0.00
    4   32    3     -0.89      0.00
    6   32    3     -0.90      0.00
  -26    0    4     -3.98      0.00
  -24    0    4     -2.81      0.00
  -22    0    4     -0.94      0.00
  -20    0    4      0.60      0.00
  -18    0    4      2.09      0.00
  -16    0    4      2.59      0.00
  -14    0    4      0.90      0.00
  -12    0    4      0.21      0.00
  -10    0    4      4.79      0.00
   -8    0    4     13.45      0.00
   -6    0    4     24.58      0.00
   -4    0    4     41.17      0.00
   -2    0    4     59.35      0.00
    0    0    4     62.17      0.00
    2    0    4     40.02      0.00
    4    0    4      8.10      0.00
    6    0    4    -10.66      0.00
    8    0    4    -11.06      0.00
   10    0    4     -3.73      0.00
   12    0    4      2.12      0.00
   14    0    4      4.45      0.00
   16    0    4      4.27      0.00
   18    0    4      3.02      0.00
   20    0    4      1.71      0.00
   22    0    4      0.46      0.00
   24    0    4     -0.60      0.00
   26    0    4     -0.87      0.00
  -25    1    4      2.93      0.00
  -23    1    4      1.51      0.00
  -21    1    4      0.15      0.00
  -19    1    4     -1.18      0.00
  -17    1    4     -2.58      0.00
  -15    1    4     -2.29      0.00
  -13    1    4     -0.76      0.00
  -11    1    4     -2.32      0.00
   -9    1    4     -8.23      0.00
   -7    1    4    -15.46      0.00
   -5    1    4    -25.47      0.00
   -3    1    4    -41.27      0.00
   -1    1    4    -53.29      0.00
    1    1    4    -45.52      0.00
    3    1    4    -19.57      0.00
    5    1    4      3.93      0.00
    7    1    4     10.82      0.00
    9    1    4      5.88      0.00
   11    1    4     -0.36      0.00
   13    1    4     -3.63      0.00
   15    1    4     -4.29      0.00
   17    1    4     -3.41      0.00
   19    1    4     -2.08      0.00
   21    1    4     -0.82      0.00
   23    1    4      0.32      0.00
   25    1    4      0.90      0.00
  -26    2    4     -1.45      0.00
  -24    2    4     -0.86      0.00
  -22    2    4     -0.16      0.00
  -20    2    4      0.46      0.00
  -18    2    4      1.90      0.00
  -16    2    4      3.19      0.00
  -14    2    4      2.58      0.00
  -12    2    4      2.16      0.00
  -10    2    4      4.55      0.00
   -8    2    4      7.03      0.00
   -6    2    4      7.91      0.00
   -4    2    4     13.24      0.00
   -2    2    4     24.97      0.00
    0    2    4     30.99      0.00
    2    2    4     21.11      0.00
    4    2    4      4.02      0.00
    6    2    4     -4.88      0.00
    8    2    4     -3.26      0.00
   10    2    4      0.93      0.00
   12    2    4      3.00      0.00
   14    2    4      3.45      0.00
   16    2    4      3.01      0.00
   18    2    4      1.92      0.00
   20    2    4      0.70      0.00
   22    2    4     -0.36      0.00
   24    2    4     -0.96      0.00
   26    2    4     -0.78      0.00
  -25    3    4     -0.74      0.00
  -23    3    4     -1.03      0.00
  -21    3    4     -1.01      0.00
  -19    3    4     -1.66      0.00
  -17    3    4     -3.35      0.00
  -15    3    4     -3.93      0.00
  -13    3    4     -2.75      0.00
  -11    3    4     -2.36      0.00
   -9    3    4     -1.95      0.00
   -7    3    4      2.48      0.00
   -5    3    4      7.21      0.00
   -3    3    4      2.74      0.00
   -1    3    4     -9.27      0.00
    1    3    4    -15.56      0.00
    3    3    4    -11.31      0.00
    5    3    4     -5.58      0.00
    7    3    4     -4.91      0.00
    9    3    4     -5.80      0.00
   11    3    4     -4.57      0.00
   13    3    4     -2.70      0.00
   15    3    4     -1.77      0.00
   17    3    4     -1.14      0.00
   19    3    4     -0.26      0.00
   21    3    4      0.58      0.00
   23    3    4      1.04      0.00
   25    3    4      0.84      0.00
  -26    4    4      1.83      0.00
  -24    4    4      2.32      0.00
  -22    4    4      2.46      0.00
  -20    4    4      2.57      0.00
  -18    4    4      3.69      0.00
  -16    4    4      4.72      0.00
  -14    4    4      3.43      0.00
  -12    4    4      0.91      0.00
  -10    4    4     -1.36      0.00
   -8    4    4     -6.63      0.00
   -6    4    4    -15.39      0.00
   -4    4    4    -17.87      0.00
   -2    4    4     -6.57      0.00
    0    4    4     10.02      0.00
    2    4    4     18.63      0.00
    4    4    4     18.61      0.00
    6    4    4     16.85      0.00
    8    4    4     14.59      0.00
   10    4    4      9.65      0.00
   12    4    4      3.93      0.00
   14    4    4      0.73      0.00
   16    4    4     -0.14      0.00
   18    4    4     -0.49      0.00
   20    4    4     -0.87      0.00
   22    4    4     -1.03      0.00
   24    4    4     -0.73      0.00
   26    4    4     -0.03      0.00
  -25    5    4     -2.29      0.00
  -23    5    4     -3.07      0.00
  -21    5    4     -3.49      0.00
  -19    5    4     -4.13      0.00
  -17    5    4     -5.11      0.00
  -15    5    4     -4.27      0.00
  -13    5    4     -0.82      0.00
  -11    5    4      3.03      0.00
   -9    5    4      7.71      0.00
   -7    5    4     15.79      0.00
   -5    5    4     21.81      0.00
   -3    5    4     14.64      0.00
   -1    5    4     -5.07      0.00
    1    5    4    -22.77      0.00
    3    5    4    -28.96      0.00
    5    5    4    -27.37      0.00
    7    5    4    -23.16      0.00
    9    5    4    -16.31      0.00
   11    5    4     -7.79      0.00
   13    5    4     -1.54      0.00
   15    5    4      0.86      0.00
   17    5    4      1.21      0.00
   19    5    4      1.15      0.00
   21    5    4      0.94      0.00
   23    5    4      0.48      0.00
   25    5    4     -0.21      0.00
  -26    6    4      1.03      0.00
  -24    6    4      1.97      0.00
  -22    6    4      2.92      0.00
  -20    6    4      3.52      0.00
  -18    6    4      4.30      0.00
  -16    6    4      4.34      0.00
  -14    6    4      1.79      0.00
  -12    6    4     -2.30      0.00
  -10    6    4     -6.24      0.00
   -8    6    4    -12.01      0.00
   -6    6    4    -18.93      0.00
   -4    6    4    -17.68      0.00
   -2    6    4     -2.09      0.00
    0    6    4     18.36      0.00
    2    6    4     29.52      0.00
    4    6    4     29.54      0.00
    6    6    4     25.14      0.00
    8    6    4     19.18      0.00
   10    6    4     11.34      0.00
   12    6    4      3.96      0.00
   14    6    4     -0.09      0.00
   16    6    4     -1.14      0.00
   18    6    4     -1.05      0.00
   20    6    4     -0.68      0.00
   22    6    4     -0.18      0.00
   24    6    4      0.43      0.00
   26    6    4      0.90      0.00
  -25    7    4     -0.19      0.00
  -23    7    4     -0.98      0.00
  -21    7    4     -1.46      0.00
  -19    7    4     -1.82      0.00
  -17    7    4     -2.42      0.00
  -15    7    4     -1.83      0.00
  -13    7    4      0.52      0.00
  -11    7    4      2.82      0.00
   -9    7    4      5.52      0.00
   -7    7    4     11.01      0.00
   -5    7    4     15.08      0.00
   -3    7    4      8.85      0.00
   -1    7    4     -6.59      0.00
    1    7    4    -18.84      0.00
    3    7    4    -20.82      0.00
    5    7    4    -17.38      0.00
    7    7    4    -13.91      0.00
    9    7    4     -9.92      0.00
   11    7    4     -4.86      0.00
   13    7    4     -1.04      0.00
   15    7    4      0.29      0.00
   17    7    4      0.20      0.00
   19    7    4     -0.15      0.00
   21    7    4     -0.41      0.00
   23    7    4     -0.63      0.00
   25    7    4     -0.86      0.00
  -24    8    4     -0.69      0.00
  -22    8    4     -0.81      0.00
  -20    8    4     -1.20      0.00
  -18    8    4     -0.95      0.00
  -16    8    4     -0.16      0.00
  -14    8    4     -0.05      0.00
  -12    8    4      0.07      0.00
  -10    8    4      0.92      0.00
   -8    8    4     -0.67      0.00
   -6    8    4     -6.15      0.00
   -4    8    4     -9.06      0.00
   -2    8    4     -3.75      0.00
    0    8    4      4.34      0.00
    2    8    4      6.64      0.00
    4    8    4      3.97      0.00
    6    8    4      2.26      0.00
    8    8    4      2.32      0.00
   10    8    4      1.52      0.00
   12    8    4      0.09      0.00
   14    8    4     -0.16      0.00
   16    8    4      0.72      0.00
   18    8    4      1.51      0.00
   20    8    4      1.61      0.00
   22    8    4      1.20      0.00
   24    8    4      0.78      0.00
  -25    9    4      0.95      0.00
  -23    9    4      1.82      0.00
  -21    9    4      2.99      0.00
  -19    9    4      3.67      0.00
  -17    9    4      2.87      0.00
  -15    9    4      1.27      0.00
  -13    9    4     -0.75      0.00
  -11    9    4     -4.19      0.00
   -9    9    4     -7.12      0.00
   -7    9    4     -4.78      0.00
   -5    9    4      1.94      0.00
   -3    9    4      5.87      0.00
   -1    9    4      4.78      0.00
    1    9    4      4.27      0.00
    3    9    4      6.96      0.00
    5    9    4      8.68      0.00
    7    9    4      7.03      0.00
    9    9    4      4.67      0.00
   11    9    4      3.44      0.00
   13    9    4      2.03      0.00
   15    9    4     -0.30      0.00
   17    9    4     -2.38      0.00
   19    9    4     -3.08      0.00
   21    9    4     -2.38      0.00
   23    9    4     -1.16      0.00
   25    9    4     -0.27      0.00
  -24   10    4     -1.33      0.00
  -22   10    4     -2.88      0.00
  -20   10    4     -4.25      0.00
  -18   10    4     -4.21      0.00
  -16   10    4     -2.52      0.00
  -14   10    4      0.05      0.00
  -12   10    4      4.05      0.00
  -10   10    4      9.33      0.00
   -8   10    4     11.40      0.00
   -6   10    4      6.47      0.00
   -4   10    4     -1.46      0.00
   -2   10    4     -6.04      0.00
    0   10    4     -7.81      0.00
    2   10    4    -10.51      0.00
    4   10    4    -13.02      0.00
    6   10    4    -12.27      0.00
    8   10    4     -9.39      0.00
   10   10    4     -7.01      0.00
   12   10    4     -4.88      0.00
   14   10    4     -1.77      0.00
   16   10    4      1.59      0.00
   18   10    4      3.58      0.00
   20   10    4      3.51      0.00
   22   10    4      2.09      0.00
   24   10    4      0.60      0.00
  -25   11    4      0.21      0.00
  -23   11    4      1.62      0.00
  -21   11    4      2.99      0.00
  -19   11    4      3.52      0.00
  -17   11    4      2.48      0.00
  -15   11    4      0.37      0.00
  -13   11    4     -2.61      0.00
  -11   11    4     -7.28      0.00
   -9   11    4    -11.54      0.00
   -7   11    4    -10.39      0.00
   -5   11    4     -3.46      0.00
   -3   11    4      3.21      0.00
   -1   11    4      6.09      0.00
    1   11    4      7.82      0.00
    3   11    4     10.23      0.00
    5   11    4     11.15      0.00
    7   11    4      9.73      0.00
    9   11    4      7.93      0.00
   11   11    4      6.45      0.00
   13   11    4      4.06      0.00
   15   11    4      0.68      0.00
   17   11    4     -2.21      0.00
   19   11    4     -3.36      0.00
   21   11    4     -2.74      0.00
   23   11    4     -1.36      0.00
   25   11    4     -0.32      0.00
  -24   12    4     -0.36      0.00
  -22   12    4     -1.22      0.00
  -20   12    4     -1.72      0.00
  -18   12    4     -1.31      0.00
  -16   12    4     -0.03      0.00
  -14   12    4      1.56      0.00
  -12   12    4      4.08      0.00
  -10   12    4      7.69      0.00
   -8   12    4      9.08      0.00
   -6   12    4      5.38      0.00
   -4   12    4     -0.27      0.00
   -2   12    4     -2.82      0.00
    0   12    4     -2.76      0.00
    2   12    4     -3.57      0.00
    4   12    4     -5.27      0.00
    6   12    4     -5.89      0.00
    8   12    4     -5.68      0.00
   10   12    4     -5.63      0.00
   12   12    4     -5.02      0.00
   14   12    4     -3.08      0.00
   16   12    4     -0.52      0.00
   18   12    4      1.45      0.00
   20   12    4      2.13      0.00
   22   12    4      1.73      0.00
   24   12    4      1.05      0.00
  -23   13    4      0.02      0.00
  -21   13    4      0.12      0.00
  -19   13    4     -0.02      0.00
  -17   13    4     -0.59      0.00
  -15   13    4     -1.12      0.00
  -13   13    4     -1.65      0.00
  -11   13    4     -3.22      0.00
   -9   13    4     -5.11      0.00
   -7   13    4     -4.43      0.00
   -5   13    4     -1.30      0.00
   -3   13    4      0.17      0.00
   -1   13    4     -1.54      0.00
    1   13    4     -3.07      0.00
    3   13    4     -2.13      0.00
    5   13    4     -0.17      0.00
    7   13    4      1.40      0.00
    9   13    4      2.91      0.00
   11   13    4      4.21      0.00
   13   13    4      4.33      0.00
   15   13    4      3.12      0.00
   17   13    4      1.30      0.00
   19   13    4     -0.29      0.00
   21   13    4     -1.12      0.00
   23   13    4     -1.27      0.00
  -24   14    4      0.31      0.00
  -22   14    4      0.59      0.00
  -20   14    4      0.75      0.00
  -18   14    4      0.89      0.00
  -16   14    4      0.91      0.00
  -14   14    4      0.40      0.00
  -12   14    4      0.12      0.00
  -10   14    4      1.07      0.00
   -8   14    4      1.97      0.00
   -6   14    4      1.30      0.00
   -4   14    4      0.90      0.00
   -2   14    4      3.14      0.00
    0   14    4      6.34      0.00
    2   14    4      7.18      0.00
    4   14    4      5.49      0.00
    6   14    4      3.10      0.00
    8   14    4      0.59      0.00
   10   14    4     -2.02      0.00
   12   14    4     -3.88      0.00
   14   14    4     -4.28      0.00
   16   14    4     -3.34      0.00
   18   14    4     -1.67      0.00
   20   14    4     -0.12      0.00
   22   14    4      0.77      0.00
   24   14    4      1.10      0.00
  -23   15    4     -0.48      0.00
  -21   15    4     -0.67      0.00
  -19   15    4     -0.63      0.00
  -17   15    4     -0.55      0.00
  -15   15    4     -0.01      0.00
  -13   15    4      1.07      0.00
  -11   15    4      1.47      0.00
   -9   15    4      0.70      0.00
   -7   15    4      0.10      0.00
   -5   15    4     -0.04      0.00
   -3   15    4     -1.53      0.00
   -1   15    4     -4.60      0.00
    1   15    4     -6.80      0.00
    3   15    4     -6.67      0.00
    5   15    4     -5.15      0.00
    7   15    4     -3.08      0.00
    9   15    4     -0.49      0.00
   11   15    4      2.03      0.00
   13   15    4      3.49      0.00
   15   15    4      3.56      0.00
   17   15    4      2.52      0.00
   19   15    4      1.06      0.00
   21   15    4     -0.02      0.00
   23   15    4     -0.49      0.00
  -22   16    4      0.19      0.00
  -20   16    4     -0.02      0.00
  -18   16    4     -0.12      0.00
  -16   16    4     -0.19      0.00
  -14   16    4     -0.94      0.00
  -12   16    4     -2.08      0.00
  -10   16    4     -2.40      0.00
   -8   16    4     -2.00      0.00
   -6   16    4     -1.94      0.00
   -4   16    4     -1.77      0.00
   -2   16    4     -0.38      0.00
    0   16    4      1.62      0.00
    2   16    4      2.76      0.00
    4   16    4      2.94      0.00
    6   16    4      2.56      0.00
    8   16    4      1.48      0.00
   10   16    4     -0.16      0.00
   12   16    4     -1.53      0.00
   14   16    4     -2.09      0.00
   16   16    4     -1.84      0.00
   18   16    4     -1.08      0.00
   20   16    4     -0.40      0.00
   22   16    4     -0.14      0.00
  -21   17    4      0.44      0.00
  -19   17    4      0.74      0.00
  -17   17    4      0.58      0.00
  -15   17    4      0.57      0.00
  -13   17    4      1.47      0.00
  -11   17    4      2.63      0.00
   -9   17    4      3.16      0.00
   -7   17    4      3.50      0.00
   -5   17    4      4.15      0.00
   -3   17    4      4.39      0.00
   -1   17    4      3.69      0.00
    1   17    4      2.60      0.00
    3   17    4      1.58      0.00
    5   17    4      0.62      0.00
    7   17    4      0.01      0.00
    9   17    4     -0.03      0.00
   11   17    4      0.15      0.00
   13   17    4      0.25      0.00
   15   17    4      0.33      0.00
   17   17    4      0.36      0.00
   19   17    4      0.34      0.00
   21   17    4      0.47      0.00
  -22   18    4     -0.19      0.00
  -20   18    4     -0.69      0.00
  -18   18    4     -0.80      0.00
  -16   18    4     -0.53      0.00
  -14   18    4     -0.81      0.00
  -12   18    4     -1.96      0.00
  -10   18    4     -3.10      0.00
   -8   18    4     -3.73      0.00
   -6   18    4     -4.28      0.00
   -4   18    4     -4.84      0.00
   -2   18    4     -4.91      0.00
    0   18    4     -4.46      0.00
    2   18    4     -3.80      0.00
    4   18    4     -3.00      0.00
    6   18    4     -2.13      0.00
    8   18    4     -1.30      0.00
   10   18    4     -0.42      0.00
   12   18    4      0.42      0.00
   14   18    4      0.70      0.00
   16   18    4      0.36      0.00
   18   18    4     -0.14      0.00
   20   18    4     -0.54      0.00
   22   18    4     -0.78      0.00
  -21   19    4     -0.09      0.00
  -19   19    4      0.31      0.00
  -17   19    4      0.41      0.00
  -15   19    4      0.50      0.00
  -13   19    4      1.22      0.00
  -11   19    4      2.32      0.00
   -9   19    4      2.93      0.00
   -7   19    4      2.93      0.00
   -5   19    4      2.72      0.00
   -3   19    4      2.43      0.00
   -1   19    4      2.07      0.00
    1   19    4      1.85      0.00
    3   19    4      1.86      0.00
    5   19    4      1.97      0.00
    7   19    4      1.89      0.00
    9   19    4      1.25      0.00
   11   19    4      0.14      0.00
   13   19    4     -0.61      0.00
   15   19    4     -0.43      0.00
   17   19    4      0.21      0.00
   19   19    4      0.63      0.00
   21   19    4      0.74      0.00
  -20   20    4      0.58      0.00
  -18   20    4      0.16      0.00
  -16   20    4     -0.20      0.00
  -14   20    4     -0.69      0.00
  -12   20    4     -1.44      0.00
  -10   20    4     -1.89      0.00
   -8   20    4     -1.54      0.00
   -6   20    4     -0.64      0.00
   -4   20    4      0.31      0.00
   -2   20    4      1.03      0.00
    0   20    4      1.37      0.00
    2   20    4      1.20      0.00
    4   20    4      0.51      0.00
    6   20    4     -0.41      0.00
    8   20    4     -0.90      0.00
   10   20    4     -0.57      0.00
   12   20    4      0.03      0.00
   14   20    4     -0.01      0.00
   16   20    4     -0.56      0.00
   18   20    4     -0.86      0.00
   20   20    4     -0.71      0.00
  -19   21    4     -0.70      0.00
  -17   21    4     -0.22      0.00
  -15   21    4      0.23      0.00
  -13   21    4      0.70      0.00
  -11   21    4      1.03      0.00
   -9   21    4      0.79      0.00
   -7   21    4     -0.07      0.00
   -5   21    4     -1.07      0.00
   -3   21    4     -1.84      0.00
   -1   21    4     -2.32      0.00
    1   21    4     -2.54      0.00
    3   21    4     -2.36      0.00
    5   21    4     -1.56      0.00
    7   21    4     -0.48      0.00
    9   21    4      0.13      0.00
   11   21    4      0.16      0.00
   13   21    4      0.30      0.00
   15   21    4      0.80      0.00
   17   21    4      1.04      0.00
   19   21    4      0.74      0.00
  -20   22    4      0.58      0.00
  -18   22    4      0.32      0.00
  -16   22    4      0.08      0.00
  -14   22    4     -0.11      0.00
  -12   22    4     -0.35      0.00
  -10   22    4     -0.46      0.00
   -8   22    4     -0.19      0.00
   -6   22    4      0.31      0.00
   -4   22    4      0.68      0.00
   -2   22    4      0.89      0.00
    0   22    4      1.27      0.00
    2   22    4      1.78      0.00
    4   22    4      1.89      0.00
    6   22    4      1.24      0.00
    8   22    4      0.36      0.00
   10   22    4     -0.09      0.00
   12   22    4     -0.29      0.00
   14   22    4     -0.66      0.00
   16   22    4     -0.92      0.00
   18   22    4     -0.68      0.00
  -19   23    4      0.11      0.00
  -17   23    4      0.06      0.00
  -15   23    4     -0.16      0.00
  -13   23    4     -0.21      0.00
  -11   23    4      0.08      0.00
   -9   23    4      0.43      0.00
   -7   23    4      0.55      0.00
   -5   23    4      0.58      0.00
   -3   23    4      0.67      0.00
   -1   23    4      0.53      0.00
    1   23    4     -0.08      0.00
    3   23    4     -0.74      0.00
    5   23    4     -0.71      0.00
    7   23    4     -0.02      0.00
    9   23    4      0.49      0.00
   11   23    4      0.48      0.00
   13   23    4      0.43      0.00
   15   23    4      0.50      0.00
   17   23    4      0.40      0.00
  -18   24    4     -0.50      0.00
  -16   24    4     -0.01      0.00
  -14   24    4      0.46      0.00
  -12   24    4      0.39      0.00
  -10   24    4     -0.18      0.00
   -8   24    4     -0.72      0.00
   -6   24    4     -0.96      0.00
   -4   24    4     -1.07      0.00
   -2   24    4     -1.15      0.00
    0   24    4     -0.91      0.00
    2   24    4     -0.40      0.00
    4   24    4     -0.25      0.00
    6   24    4     -0.77      0.00
    8   24    4     -1.29      0.00
   10   24    4     -1.13      0.00
   12   24    4     -0.55      0.00
   14   24    4     -0.16      0.00
   16   24    4      0.01      0.00
  -17   25    4      0.37      0.00
  -15   25    4     -0.26      0.00
  -13   25    4     -0.57      0.00
  -11   25    4     -0.23      0.00
   -9   25    4      0.36      0.00
   -7   25    4      0.67      0.00
   -5   25    4      0.70      0.00
   -3   25    4      0.81      0.00
   -1   25    4      1.00      0.00
    1   25    4      1.01      0.00
    3   25    4      0.98      0.00
    5   25    4      1.31      0.00
    7   25    4      1.77      0.00
    9   25    4      1.65      0.00
   11   25    4      0.91      0.00
   13   25    4      0.16      0.00
   15   25    4     -0.24      0.00
   17   25    4     -0.35      0.00
  -16   26    4     -0.11      0.00
  -14   26    4      0.27      0.00
  -12   26    4      0.24      0.00
  -10   26    4     -0.12      0.00
   -8   26    4     -0.36      0.00
   -6   26    4     -0.31      0.00
   -4   26    4     -0.34      0.00
   -2   26    4     -0.77      0.00
    0   26    4     -1.32      0.00
    2   26    4     -1.56      0.00
    4   26    4     -1.62      0.00
    6   26    4     -1.67      0.00
    8   26    4     -1.49      0.00
   10   26    4     -0.93      0.00
   12   26    4     -0.29      0.00
   14   26    4      0.13      0.00
   16   26    4      0.34      0.00
  -15   27    4      0.16      0.00
  -13   27    4      0.18      0.00
  -11   27    4      0.32      0.00
   -9   27    4      0.38      0.00
   -7   27    4      0.19      0.00
   -5   27    4      0.03      0.00
   -3   27    4      0.36      0.00
   -1   27    4      1.13      0.00
    1   27    4      1.70      0.00
    3   27    4      1.70      0.00
    5   27    4      1.30      0.00
    7   27    4      0.81      0.00
    9   27    4      0.40      0.00
   11   27    4      0.18      0.00
   13   27    4      0.14      0.00
   15   27    4      0.02      0.00
  -14   28    4     -0.49      0.00
  -12   28    4     -0.63      0.00
  -10   28    4     -0.54      0.00
   -8   28    4     -0.20      0.00
   -6   28    4      0.20      0.00
   -4   28    4      0.25      0.00
   -2   28    4     -0.24      0.00
    0   28    4     -0.90      0.00
    2   28    4     -1.11      0.00
    4   28    4     -0.72      0.00
    6   28    4     -0.08      0.00
    8   28    4      0.33      0.00
   10   28    4      0.23      0.00
   12   28    4     -0.22      0.00
   14   28    4     -0.47      0.00
  -11   29    4      0.49      0.00
   -9   29    4      0.06      0.00
   -7   29    4     -0.46      0.00
   -5   29    4     -0.78      0.00
   -3   29    4     -0.73      0.00
   -1   29    4     -0.37      0.00
    1   29    4     -0.05      0.00
    3   29    4     -0.07      0.00
    5   29    4     -0.41      0.00
    7   29    4     -0.73      0.00
    9   29    4     -0.59      0.00
   11   29    4      0.06      0.00
  -10   30    4      0.23      0.00
   -8   30    4      0.71      0.00
   -6   30    4      0.99      0.00
   -4   30    4      1.05      0.00
   -2   30    4      0.98      0.00
    0   30    4      0.80      0.00
    2   30    4      0.58      0.00
    4   30    4      0.46      0.00
    6   30    4      0.50      0.00
    8   30    4      0.46      0.00
   10   30    4      0.03      0.00
   -9   31    4     -0.74      0.00
   -7   31    4     -0.87      0.00
   -5   31    4     -0.75      0.00
   -3   31    4     -0.63      0.00
   -1   31    4     -0.58      0.00
    1   31    4     -0.41      0.00
    3   31    4     -0.07      0.00
    5   31    4      0.20      0.00
    7   31    4      0.22      0.00
    9   31    4      0.25      0.00
   -6   32    4      0.29      0.00
   -4   32    4      0.02      0.00
   -2   32    4     -0.03      0.00
    0   32    4     -0.05      0.00
    2   32    4     -0.32      0.00
    4   32    4     -0.74      0.00
    6   32    4     -0.88      0.00
  -25    1    5      0.00      0.00
  -23    1    5     -0.37      0.00
  -21    1    5     -0.09      0.00
  -19    1    5      1.29      0.00
  -17    1    5      3.62      0.00
  -15    1    5      6.15      0.00
  -13    1    5      7.75      0.00
  -11    1    5      6.94      0.00
   -9    1    5      1.95      0.00
   -7    1    5     -8.40      0.00
   -5    1    5    -22.70      0.00
   -3    1    5    -36.04      0.00
   -1    1    5    -42.15      0.00
    1    1    5    -37.54      0.00
    3    1    5    -24.14      0.00
    5    1    5     -8.19      0.00
    7    1    5      3.73      0.00
    9    1    5      8.45      0.00
   11    1    5      7.36      0.00
   13    1    5      4.25      0.00
   15    1    5      2.01      0.00
   17    1    5      1.16      0.00
   19    1    5      0.83      0.00
   21    1    5      0.46      0.00
   23    1    5      0.13      0.00
   25    1    5      0.06      0.00
  -26    2    5     -0.33      0.00
  -24    2    5      0.41      0.00
  -22    2    5      0.53      0.00
  -20    2    5     -0.79      0.00
  -18    2    5     -3.79      0.00
  -16    2    5     -7.77      0.00
  -14    2    5    -11.31      0.00
  -12    2    5    -12.48      0.00
  -10    2    5     -8.59      0.00
   -8    2    5      3.11      0.00
   -6    2    5     22.82      0.00
   -4    2    5     45.40      0.00
   -2    2    5     61.36      0.00
    0    2    5     62.53      0.00
    2    2    5     47.83      0.00
    4    2    5     24.09      0.00
    6    2    5      1.71      0.00
    8    2    5    -11.39      0.00
   10    2    5    -13.75      0.00
   12    2    5     -9.79      0.00
   14    2    5     -5.20      0.00
   16    2    5     -2.72      0.00
   18    2    5     -1.79      0.00
   20    2    5     -1.12      0.00
   22    2    5     -0.40      0.00
   24    2    5     -0.03      0.00
   26    2    5     -0.08      0.00
  -25    3    5     -0.29      0.00
  -23    3    5     -0.75      0.00
  -21    3    5     -0.20      0.00
  -19    3    5      1.89      0.00
  -17    3    5      5.34      0.00
  -15    3    5      9.29      0.00
  -13    3    5     12.34      0.00
  -11    3    5     12.18      0.00
   -9    3    5      5.56      0.00
   -7    3    5     -9.71      0.00
   -5    3    5    -31.33      0.00
   -3    3    5    -51.29      0.00
   -1    3    5    -60.21      0.00
    1    3    5    -53.64      0.00
    3    3    5    -34.81      0.00
    5    3    5    -12.06      0.00
    7    3    5      5.83      0.00
    9    3    5     13.95      0.00
   11    3    5     13.25      0.00
   13    3    5      8.75      0.00
   15    3    5      4.95      0.00
   17    3    5      3.00      0.00
   19    3    5      1.85      0.00
   21    3    5      0.75      0.00
   23    3    5     -0.04      0.00
   25    3    5     -0.19      0.00
  -26    4    5      0.34      0.00
  -24    4    5      0.89      0.00
  -22    4    5      0.99      0.00
  -20    4    5      0.34      0.00
  -18    4    5     -1.25      0.00
  -16    4    5     -3.77      0.00
  -14    4    5     -6.94      0.00
  -12    4    5     -9.65      0.00
  -10    4    5     -9.33      0.00
   -8    4    5     -2.78      0.00
   -6    4    5     10.77      0.00
   -4    4    5     27.10      0.00
   -2    4    5     38.83      0.00
    0    4    5     40.82      0.00
    2    4    5     33.12      0.00
    4    4    5     19.53      0.00
    6    4    5      4.93      0.00
    8    4    5     -6.07      0.00
   10    4    5    -10.78      0.00
   12    4    5    -10.07      0.00
   14    4    5     -7.22      0.00
   16    4    5     -4.68      0.00
   18    4    5     -2.82      0.00
   20    4    5     -1.19      0.00
   22    4    5      0.08      0.00
   24    4    5      0.59      0.00
   26    4    5      0.43      0.00
  -25    5    5     -1.03      0.00
  -23    5    5     -1.44      0.00
  -21    5    5     -1.90      0.00
  -19    5    5     -2.23      0.00
  -17    5    5     -1.96      0.00
  -15    5    5     -0.35      0.00
  -13    5    5      2.94      0.00
  -11    5    5      6.70      0.00
   -9    5    5      7.86      0.00
   -7    5    5      3.50      0.00
   -5    5    5     -5.90      0.00
   -3    5    5    -15.96      0.00
   -1    5    5    -22.21      0.00
    1    5    5    -23.54      0.00
    3    5    5    -20.92      0.00
    5    5    5    -14.92      0.00
    7    5    5     -6.45      0.00
    9    5    5      1.65      0.00
   11    5    5      6.38      0.00
   13    5    5      7.30      0.00
   15    5    5      6.06      0.00
   17    5    5      4.07      0.00
   19    5    5      1.93      0.00
   21    5    5      0.09      0.00
   23    5    5     -0.92      0.00
   25    5    5     -0.96      0.00
  -26    6    5      1.03      0.00
  -24    6    5      1.48      0.00
  -22    6    5      2.43      0.00
  -20    6    5      3.92      0.00
  -18    6    5      5.41      0.00
  -16    6    5      5.83      0.00
  -14    6    5      3.87      0.00
  -12    6    5     -0.76      0.00
  -10    6    5     -6.17      0.00
   -8    6    5     -8.67      0.00
   -6    6    5     -5.76      0.00
   -4    6    5      1.21      0.00
   -2    6    5      8.50      0.00
    0    6    5     14.06      0.00
    2    6    5     18.07      0.00
    4    6    5     19.75      0.00
    6    6    5     16.98      0.00
    8    6    5      9.92      0.00
   10    6    5      2.05      0.00
   12    6    5     -3.20      0.00
   14    6    5     -5.11      0.00
   16    6    5     -4.65      0.00
   18    6    5     -2.89      0.00
   20    6    5     -0.78      0.00
   22    6    5      0.79      0.00
   24    6    5      1.32      0.00
   26    6    5      1.02      0.00
  -25    7    5     -1.14      0.00
  -23    7    5     -2.11      0.00
  -21    7    5     -3.85      0.00
  -19    7    5     -5.93      0.00
  -17    7    5     -7.50      0.00
  -15    7    5     -7.28      0.00
  -13    7    5     -4.10      0.00
  -11    7    5      1.76      0.00
   -9    7    5      7.54      0.00
   -7    7    5      9.31      0.00
   -5    7    5      5.55      0.00
   -3    7    5     -1.24      0.00
   -1    7    5     -7.80      0.00
    1    7    5    -13.40      0.00
    3    7    5    -18.12      0.00
    5    7    5    -20.00      0.00
    7    7    5    -16.98      0.00
    9    7    5    -10.36      0.00
   11    7    5     -3.66      0.00
   13    7    5      0.88      0.00
   15    7    5      2.98      0.00
   17    7    5      3.04      0.00
   19    7    5      1.75      0.00
   21    7    5      0.10      0.00
   23    7    5     -1.01      0.00
   25    7    5     -1.25      0.00
  -24    8    5      1.41      0.00
  -22    8    5      2.87      0.00
  -20    8    5      4.57      0.00
  -18    8    5      5.95      0.00
  -16    8    5      6.42      0.00
  -14    8    5      5.09      0.00
  -12    8    5      1.23      0.00
  -10    8    5     -4.24      0.00
   -8    8    5     -8.12      0.00
   -6    8    5     -7.22      0.00
   -4    8    5     -2.01      0.00
   -2    8    5      3.91      0.00
    0    8    5      8.32      0.00
    2    8    5     11.89      0.00
    4    8    5     14.85      0.00
    6    8    5     15.43      0.00
    8    8    5     12.75      0.00
   10    8    5      8.35      0.00
   12    8    5      4.11      0.00
   14    8    5      0.73      0.00
   16    8    5     -1.40      0.00
   18    8    5     -1.95      0.00
   20    8    5     -1.24      0.00
   22    8    5     -0.11      0.00
   24    8    5      0.74      0.00
  -25    9    5     -0.74      0.00
  -23    9    5     -1.83      0.00
  -21    9    5     -2.87      0.00
  -19    9    5     -3.39      0.00
  -17    9    5     -3.35      0.00
  -15    9    5     -2.75      0.00
  -13    9    5     -1.06      0.00
  -11    9    5      2.06      0.00
   -9    9    5      5.33      0.00
   -7    9    5      5.95      0.00
   -5    9    5      2.75      0.00
   -3    9    5     -1.71      0.00
   -1    9    5     -4.16      0.00
    1    9    5     -4.81      0.00
    3    9    5     -5.83      0.00
    5    9    5     -7.41      0.00
    7    9    5     -8.01      0.00
    9    9    5     -7.24      0.00
   11    9    5     -5.71      0.00
   13    9    5     -3.63      0.00
   15    9    5     -1.16      0.00
   17    9    5      0.79      0.00
   19    9    5      1.55      0.00
   21    9    5      1.25      0.00
   23    9    5      0.42      0.00
   25    9    5     -0.40      0.00
  -24   10    5      1.02      0.00
  -22   10    5      1.63      0.00
  -20   10    5      1.49      0.00
  -18   10    5      0.73      0.00
  -16   10    5     -0.06      0.00
  -14   10    5     -0.70      0.00
  -12   10    5     -1.63      0.00
  -10   10    5     -3.01      0.00
   -8   10    5     -3.58      0.00
   -6   10    5     -1.87      0.00
   -4   10    5      0.98      0.00
   -2   10    5      1.82      0.00
    0   10    5     -0.10      0.00
    2   10    5     -1.93      0.00
    4   10    5     -1.49      0.00
    6   10    5      0.28      0.00
    8   10    5      1.79      0.00
   10   10    5      2.77      0.00
   12   10    5      3.11      0.00
   14   10    5      2.33      0.00
   16   10    5      0.76      0.00
   18   10    5     -0.65      0.00
   20   10    5     -1.37      0.00
   22   10    5     -1.32      0.00
   24   10    5     -0.63      0.00
  -25   11    5     -0.42      0.00
  -23   11    5     -0.73      0.00
  -21   11    5     -0.41      0.00
  -19   11    5      0.50      0.00
  -17   11    5      1.33      0.00
  -15   11    5      1.56      0.00
  -13   11    5      1.34      0.00
  -11   11    5      1.23      0.00
   -9   11    5      1.22      0.00
   -7   11    5      0.43      0.00
   -5   11    5     -1.02      0.00
   -3   11    5     -0.89      0.00
   -1   11    5      2.29      0.00
    1   11    5      6.22      0.00
    3   11    5      7.46      0.00
    5   11    5      5.86      0.00
    7   11    5      3.62      0.00
    9   11    5      1.75      0.00
   11   11    5      0.05      0.00
   13   11    5     -1.11      0.00
   15   11    5     -1.22      0.00
   17   11    5     -0.56      0.00
   19   11    5      0.34      0.00
   21   11    5      1.08      0.00
   23   11    5      1.19      0.00
  -24   12    5      0.06      0.00
  -22   12    5     -0.34      0.00
  -20   12    5     -1.01      0.00
  -18   12    5     -1.37      0.00
  -16   12    5     -1.01      0.00
  -14   12    5     -0.09      0.00
  -12   12    5      0.78      0.00
  -10   12    5      1.09      0.00
   -8   12    5      1.11      0.00
   -6   12    5      1.29      0.00
   -4   12    5      0.62      0.00
   -2   12    5     -2.56      0.00
    0   12    5     -7.21      0.00
    2   12    5     -9.80      0.00
    4   12    5     -8.85      0.00
    6   12    5     -6.46      0.00
    8   12    5     -4.57      0.00
   10   12    5     -2.90      0.00
   12   12    5     -1.04      0.00
   14   12    5      0.44      0.00
   16   12    5      1.06      0.00
   18   12    5      0.88      0.00
   20   12    5      0.10      0.00
   22   12    5     -0.72      0.00
   24   12    5     -0.88      0.00
  -23   13    5      0.80      0.00
  -21   13    5      1.35      0.00
  -19   13    5      1.31      0.00
  -17   13    5      0.31      0.00
  -15   13    5     -1.29      0.00
  -13   13    5     -2.70      0.00
  -11   13    5     -3.23      0.00
   -9   13    5     -2.78      0.00
   -7   13    5     -1.98      0.00
   -5   13    5     -1.01      0.00
   -3   13    5      1.28      0.00
   -1   13    5      5.26      0.00
    1   13    5      8.57      0.00
    3   13    5      8.75      0.00
    5   13    5      6.72      0.00
    7   13    5      4.91      0.00
    9   13    5      3.73      0.00
   11   13    5      2.21      0.00
   13   13    5      0.42      0.00
   15   13    5     -0.91      0.00
   17   13    5     -1.49      0.00
   19   13    5     -1.26      0.00
   21   13    5     -0.38      0.00
   23   13    5      0.37      0.00
  -24   14    5     -0.71      0.00
  -22   14    5     -1.31      0.00
  -20   14    5     -1.32      0.00
  -18   14    5     -0.25      0.00
  -16   14    5      1.61      0.00
  -14   14    5      3.37      0.00
  -12   14    5      4.27      0.00
  -10   14    5      4.02      0.00
   -8   14    5      3.04      0.00
   -6   14    5      2.13      0.00
   -4   14    5      1.12      0.00
   -2   14    5     -1.09      0.00
    0   14    5     -4.05      0.00
    2   14    5     -5.54      0.00
    4   14    5     -4.80      0.00
    6   14    5     -3.52      0.00
    8   14    5     -2.80      0.00
   10   14    5     -1.95      0.00
   12   14    5     -0.55      0.00
   14   14    5      0.74      0.00
   16   14    5      1.53      0.00
   18   14    5      1.77      0.00
   20   14    5      1.30      0.00
   22   14    5      0.45      0.00
  -23   15    5      0.77      0.00
  -21   15    5      0.98      0.00
  -19   15    5      0.42      0.00
  -17   15    5     -0.99      0.00
  -15   15    5     -2.59      0.00
  -13   15    5     -3.68      0.00
  -11   15    5     -4.02      0.00
   -9   15    5     -3.68      0.00
   -7   15    5     -3.30      0.00
   -5   15    5     -3.36      0.00
   -3   15    5     -3.05      0.00
   -1   15    5     -1.40      0.00
    1   15    5      0.69      0.00
    3   15    5      1.53      0.00
    5   15    5      1.28      0.00
    7   15    5      1.05      0.00
    9   15    5      0.77      0.00
   11   15    5     -0.03      0.00
   13   15    5     -0.92      0.00
   15   15    5     -1.45      0.00
   17   15    5     -1.74      0.00
   19   15    5     -1.65      0.00
   21   15    5     -1.03      0.00
   23   15    5     -0.36      0.00
  -22   16    5     -0.35      0.00
  -20   16    5     -0.32      0.00
  -18   16    5      0.30      0.00
  -16   16    5      1.29      0.00
  -14   16    5      2.16      0.00
  -12   16    5      2.80      0.00
  -10   16    5      3.27      0.00
   -8   16    5      3.61      0.00
   -6   16    5      4.18      0.00
   -4   16    5      4.78      0.00
   -2   16    5      4.30      0.00
    0   16    5      2.43      0.00
    2   16    5      0.63      0.00
    4   16    5      0.05      0.00
    6   16    5      0.17      0.00
    8   16    5      0.40      0.00
   10   16    5      0.87      0.00
   12   16    5      1.38      0.00
   14   16    5      1.53      0.00
   16   16    5      1.55      0.00
   18   16    5      1.58      0.00
   20   16    5      1.21      0.00
   22   16    5      0.52      0.00
  -21   17    5      0.13      0.00
  -19   17    5      0.16      0.00
  -17   17    5     -0.24      0.00
  -15   17    5     -0.74      0.00
  -13   17    5     -1.23      0.00
  -11   17    5     -1.95      0.00
   -9   17    5     -2.77      0.00
   -7   17    5     -3.42      0.00
   -5   17    5     -3.87      0.00
   -3   17    5     -3.59      0.00
   -1   17    5     -1.97      0.00
    1   17    5      0.18      0.00
    3   17    5      1.20      0.00
    5   17    5      0.75      0.00
    7   17    5     -0.23      0.00
    9   17    5     -1.13      0.00
   11   17    5     -1.71      0.00
   13   17    5     -1.70      0.00
   15   17    5     -1.43      0.00
   17   17    5     -1.35      0.00
   19   17    5     -1.14      0.00
   21   17    5     -0.48      0.00
  -22   18    5     -0.09      0.00
  -20   18    5     -0.52      0.00
  -18   18    5     -0.56      0.00
  -16   18    5     -0.24      0.00
  -14   18    5      0.02      0.00
  -12   18    5      0.40      0.00
  -10   18    5      1.09      0.00
   -8   18    5      1.67      0.00
   -6   18    5      1.78      0.00
   -4   18    5      1.32      0.00
   -2   18    5     -0.11      0.00
    0   18    5     -2.31      0.00
    4   18    5     -3.49      0.00
    6   18    5     -1.88      0.00
    8   18    5     -0.10      0.00
   10   18    5      1.13      0.00
   12   18    5      1.51      0.00
   14   18    5      1.25      0.00
   16   18    5      1.03      0.00
   18   18    5      0.93      0.00
   20   18    5      0.41      0.00
  -21   19    5      0.68      0.00
  -19   19    5      1.08      0.00
  -17   19    5      0.89      0.00
  -15   19    5      0.68      0.00
  -13   19    5      0.79      0.00
  -11   19    5      0.77      0.00
   -9   19    5      0.49      0.00
   -7   19    5      0.33      0.00
   -5   19    5      0.44      0.00
   -3   19    5      1.03      0.00
   -1   19    5      2.48      0.00
    1   19    5      4.23      0.00
    3   19    5      4.90      0.00
    5   19    5      4.00      0.00
    7   19    5      2.26      0.00
    9   19    5      0.56      0.00
   11   19    5     -0.48      0.00
   13   19    5     -0.68      0.00
   15   19    5     -0.57      0.00
   17   19    5     -0.59      0.00
   19   19    5     -0.36      0.00
   21   19    5      0.31      0.00
  -20   20    5     -1.09      0.00
  -18   20    5     -1.10      0.00
  -16   20    5     -0.84      0.00
  -14   20    5     -1.16      0.00
  -12   20    5     -1.91      0.00
  -10   20    5     -2.29      0.00
   -8   20    5     -2.11      0.00
   -6   20    5     -1.51      0.00
   -4   20    5     -0.66      0.00
   -2   20    5     -0.30      0.00
    0   20    5     -1.10      0.00
    2   20    5     -2.50      0.00
    4   20    5     -3.30      0.00
    6   20    5     -3.08      0.00
    8   20    5     -2.11      0.00
   10   20    5     -0.98      0.00
   12   20    5     -0.28      0.00
   14   20    5     -0.08      0.00
   16   20    5      0.12      0.00
   18   20    5      0.27      0.00
   20   20    5     -0.07      0.00
  -19   21    5      0.79      0.00
  -17   21    5      0.47      0.00
  -15   21    5      0.62      0.00
  -13   21    5      1.72      0.00
  -11   21    5      2.86      0.00
   -9   21    5      3.10      0.00
   -7   21    5      2.28      0.00
   -5   21    5      0.51      0.00
   -3   21    5     -1.59      0.00
   -1   21    5     -2.66      0.00
    1   21    5     -1.95      0.00
    3   21    5     -0.23      0.00
    5   21    5      1.28      0.00
    7   21    5      1.89      0.00
    9   21    5      1.60      0.00
   11   21    5      1.01      0.00
   13   21    5      0.66      0.00
   15   21    5      0.38      0.00
   17   21    5     -0.05      0.00
   19   21    5     -0.21      0.00
  -18   22    5      0.06      0.00
  -16   22    5      0.33      0.00
  -14   22    5     -0.46      0.00
  -12   22    5     -1.93      0.00
  -10   22    5     -2.79      0.00
   -8   22    5     -2.43      0.00
   -6   22    5     -0.90      0.00
   -4   22    5      1.54      0.00
   -2   22    5      3.85      0.00
    0   22    5      4.62      0.00
    2   22    5      3.54      0.00
    4   22    5      1.60      0.00
    6   22    5     -0.04      0.00
    8   22    5     -0.80      0.00
   10   22    5     -0.84      0.00
   12   22    5     -0.76      0.00
   14   22    5     -0.69      0.00
   16   22    5     -0.30      0.00
   18   22    5      0.23      0.00
  -19   23    5     -0.27      0.00
  -17   23    5     -0.86      0.00
  -15   23    5     -0.81      0.00
  -13   23    5      0.31      0.00
  -11   23    5      1.47      0.00
   -9   23    5      1.69      0.00
   -7   23    5      0.94      0.00
   -5   23    5     -0.61      0.00
   -3   23    5     -2.67      0.00
   -1   23    5     -4.24      0.00
    1   23    5     -4.38      0.00
    3   23    5     -3.26      0.00
    5   23    5     -1.73      0.00
    7   23    5     -0.57      0.00
    9   23    5      0.02      0.00
   11   23    5      0.34      0.00
   13   23    5      0.63      0.00
   15   23    5      0.60      0.00
   17   23    5      0.07      0.00
  -18   24    5      0.62      0.00
  -16   24    5      1.16      0.00
  -14   24    5      0.82      0.00
  -12   24    5     -0.12      0.00
  -10   24    5     -0.61      0.00
   -8   24    5     -0.38      0.00
   -6   24    5      0.29      0.00
   -4   24    5      1.35      0.00
   -2   24    5      2.64      0.00
    0   24    5      3.44      0.00
    2   24    5      3.27      0.00
    4   24    5      2.37      0.00
    6   24    5      1.34      0.00
    8   24    5      0.57      0.00
   10   24    5      0.08      0.00
   12   24    5     -0.38      0.00
   14   24    5     -0.66      0.00
   16   24    5     -0.43      0.00
  -17   25    5     -0.61      0.00
  -15   25    5     -0.90      0.00
  -13   25    5     -0.47      0.00
  -11   25    5      0.01      0.00
   -9   25    5     -0.07      0.00
   -7   25    5     -0.45      0.00
   -5   25    5     -0.87      0.00
   -3   25    5     -1.52      0.00
   -1   25    5     -2.26      0.00
    1   25    5     -2.55      0.00
    3   25    5     -2.14      0.00
    5   25    5     -1.27      0.00
    7   25    5     -0.44      0.00
    9   25    5      0.04      0.00
   11   25    5      0.30      0.00
   13   25    5      0.52      0.00
   15   25    5      0.52      0.00
  -14   26    5      0.34      0.00
  -12   26    5     -0.05      0.00
  -10   26    5     -0.12      0.00
   -8   26    5      0.22      0.00
   -6   26    5      0.51      0.00
   -4   26    5      0.75      0.00
   -2   26    5      1.15      0.00
    0   26    5      1.50      0.00
    2   26    5      1.35      0.00
    4   26    5      0.62      0.00
    6   26    5     -0.25      0.00
    8   26    5     -0.71      0.00
   10   26    5     -0.65      0.00
   12   26    5     -0.43      0.00
   14   26    5     -0.29      0.00
   16   26    5     -0.14      0.00
  -13   27    5      0.26      0.00
  -11   27    5      0.62      0.00
   -9   27    5      0.55      0.00
   -7   27    5      0.31      0.00
   -5   27    5      0.22      0.00
   -3   27    5      0.13      0.00
   -1   27    5     -0.09      0.00
    1   27    5     -0.09      0.00
    3   27    5      0.40      0.00
    5   27    5      1.15      0.00
    7   27    5      1.57      0.00
    9   27    5      1.29      0.00
   11   27    5      0.61      0.00
   13   27    5      0.08      0.00
   15   27    5     -0.14      0.00
  -12   28    5     -0.75      0.00
  -10   28    5     -1.15      0.00
   -8   28    5     -1.16      0.00
   -6   28    5     -1.14      0.00
   -4   28    5     -1.20      0.00
   -2   28    5     -1.13      0.00
    0   28    5     -1.04      0.00
    2   28    5     -1.24      0.00
    4   28    5     -1.75      0.00
    6   28    5     -2.09      0.00
    8   28    5     -1.80      0.00
   10   28    5     -0.96      0.00
   12   28    5     -0.14      0.00
  -11   29    5      0.95      0.00
   -9   29    5      1.31      0.00
   -7   29    5      1.39      0.00
   -5   29    5      1.43      0.00
   -3   29    5      1.39      0.00
   -1   29    5      1.21      0.00
    1   29    5      1.18      0.00
    3   29    5      1.48      0.00
    5   29    5      1.82      0.00
    7   29    5      1.69      0.00
    9   29    5      1.05      0.00
   11   29    5      0.32      0.00
  -10   30    5     -0.64      0.00
   -8   30    5     -0.80      0.00
   -6   30    5     -0.80      0.00
   -4   30    5     -0.73      0.00
   -2   30    5     -0.51      0.00
    0   30    5     -0.29      0.00
    2   30    5     -0.42      0.00
    4   30    5     -0.81      0.00
    6   30    5     -0.95      0.00
    8   30    5     -0.64      0.00
   10   30    5     -0.23      0.00
   -7   31    5     -0.09      0.00
   -5   31    5     -0.10      0.00
   -3   31    5     -0.20      0.00
   -1   31    5     -0.44      0.00
    1   31    5     -0.48      0.00
    3   31    5     -0.14      0.00
    5   31    5      0.19      0.00
    7   31    5      0.12      0.00
   -6   32    5      0.51      0.00
   -4   32    5      0.37      0.00
   -2   32    5      0.40      0.00
    0   32    5      0.51      0.00
    2   32    5      0.34      0.00
    4   32    5     -0.02      0.00
  -24    0    6     -2.84      0.00
  -22    0    6     -1.22      0.00
  -20    0    6      1.13      0.00
  -18    0    6      5.29      0.00
  -16    0    6     10.01      0.00
  -14    0    6     12.49      0.00
  -12    0    6     14.02      0.00
  -10    0    6     16.57      0.00
   -8    0    6     15.15      0.00
   -6    0    6      5.03      0.00
   -4    0    6     -6.79      0.00
   -2    0    6    -10.26      0.00
    0    0    6     -7.76      0.00
    2    0    6     -7.85      0.00
    4    0    6     -9.84      0.00
    6    0    6     -6.93      0.00
    8    0    6      0.86      0.00
   10    0    6      7.35      0.00
   12    0    6      9.33      0.00
   14    0    6      8.40      0.00
   16    0    6      6.90      0.00
   18    0    6      5.62      0.00
   20    0    6      4.04      0.00
   22    0    6      1.82      0.00
   24    0    6     -0.16      0.00
   26    0    6     -0.90      0.00
  -25    1    6      3.05      0.00
  -23    1    6      2.04      0.00
  -21    1    6      0.51      0.00
  -19    1    6     -2.21      0.00
  -17    1    6     -6.54      0.00
  -15    1    6     -9.90      0.00
  -13    1    6    -11.21      0.00
  -11    1    6    -13.29      0.00
   -9    1    6    -15.07      0.00
   -7    1    6    -10.13      0.00
   -5    1    6      0.68      0.00
   -3    1    6      6.86      0.00
   -1    1    6      4.52      0.00
    1    1    6      2.15      0.00
    3    1    6      4.96      0.00
    5    1    6      6.94      0.00
    7    1    6      2.66      0.00
    9    1    6     -4.35      0.00
   11    1    6     -8.51      0.00
   13    1    6     -8.86      0.00
   15    1    6     -7.47      0.00
   17    1    6     -5.89      0.00
   19    1    6     -4.33      0.00
   21    1    6     -2.37      0.00
   23    1    6     -0.30      0.00
   25    1    6      0.85      0.00
  -24    2    6     -2.10      0.00
  -22    2    6     -1.51      0.00
  -20    2    6     -0.63      0.00
  -18    2    6      1.74      0.00
  -16    2    6      4.74      0.00
  -14    2    6      6.01      0.00
  -12    2    6      6.95      0.00
  -10    2    6      9.63      0.00
   -8    2    6      9.87      0.00
   -6    2    6      3.91      0.00
   -4    2    6     -1.41      0.00
   -2    2    6      1.84      0.00
    0    2    6      8.30      0.00
    2    2    6      7.53      0.00
    4    2    6      0.87      0.00
    6    2    6     -2.22      0.00
    8    2    6      1.15      0.00
   10    2    6      6.01      0.00
   12    2    6      8.22      0.00
   14    2    6      7.71      0.00
   16    2    6      5.89      0.00
   18    2    6      3.82      0.00
   20    2    6      1.80      0.00
   22    2    6     -0.07      0.00
   24    2    6     -1.13      0.00
   26    2    6     -1.02      0.00
  -25    3    6      1.19      0.00
  -23    3    6      1.27      0.00
  -21    3    6      1.70      0.00
  -19    3    6      1.66      0.00
  -17    3    6      0.28      0.00
  -15    3    6     -0.67      0.00
  -13    3    6     -0.58      0.00
  -11    3    6     -2.19      0.00
   -9    3    6     -4.85      0.00
   -7    3    6     -3.50      0.00
   -5    3    6      0.17      0.00
   -3    3    6     -2.91      0.00
   -1    3    6    -13.11      0.00
    1    3    6    -18.57      0.00
    3    3    6    -12.90      0.00
    5    3    6     -3.93      0.00
    7    3    6     -0.76      0.00
    9    3    6     -3.09      0.00
   11    3    6     -5.97      0.00
   13    3    6     -6.78      0.00
   15    3    6     -5.57      0.00
   17    3    6     -3.29      0.00
   19    3    6     -0.92      0.00
   21    3    6      0.96      0.00
   23    3    6      1.87      0.00
   25    3    6      1.53      0.00
  -24    4    6     -0.15      0.00
  -22    4    6     -0.84      0.00
  -20    4    6     -2.21      0.00
  -18    4    6     -2.78      0.00
  -16    4    6     -2.65      0.00
  -14    4    6     -3.37      0.00
  -12    4    6     -3.45      0.00
  -10    4    6     -1.03      0.00
   -8    4    6      0.29      0.00
   -6    4    6     -2.22      0.00
   -4    4    6     -1.82      0.00
   -2    4    6      7.86      0.00
    0    4    6     19.44      0.00
    2    4    6     20.85      0.00
    4    4    6     12.51      0.00
    6    4    6      4.51      0.00
    8    4    6      2.15      0.00
   10    4    6      3.06      0.00
   12    4    6      3.99      0.00
   14    4    6      3.79      0.00
   16    4    6      2.42      0.00
   18    4    6      0.43      0.00
   20    4    6     -1.39      0.00
   22    4    6     -2.36      0.00
   24    4    6     -2.09      0.00
   26    4    6     -0.95      0.00
  -25    5    6     -0.81      0.00
  -23    5    6     -0.72      0.00
  -21    5    6      0.55      0.00
  -19    5    6      2.15      0.00
  -17    5    6      2.90      0.00
  -15    5    6      3.84      0.00
  -13    5    6      5.22      0.00
  -11    5    6      4.48      0.00
   -9    5    6      2.37      0.00
   -7    5    6      3.52      0.00
   -5    5    6      6.14      0.00
   -3    5    6      1.48      0.00
   -1    5    6    -11.12      0.00
    1    5    6    -20.30      0.00
    3    5    6    -18.49      0.00
    5    5    6    -10.72      0.00
    7    5    6     -4.65      0.00
    9    5    6     -1.77      0.00
   11    5    6     -0.46      0.00
   13    5    6     -0.04      0.00
   15    5    6     -0.04      0.00
   17    5    6      0.26      0.00
   19    5    6      0.99      0.00
   21    5    6      1.73      0.00
   23    5    6      1.84      0.00
   25    5    6      1.11      0.00
  -24    6    6      1.48      0.00
  -22    6    6      1.30      0.00
  -20    6    6      0.06      0.00
  -18    6    6     -0.92      0.00
  -16    6    6     -1.58      0.00
  -14    6    6     -3.15      0.00
  -12    6    6     -4.15      0.00
  -10    6    6     -2.81      0.00
   -8    6    6     -2.48      0.00
   -6    6    6     -5.89      0.00
   -4    6    6     -6.86      0.00
   -2    6    6      1.45      0.00
    0    6    6     13.90      0.00
    2    6    6     19.59      0.00
    4    6    6     16.27      0.00
    6    6    6      9.67      0.00
    8    6    6      3.70      0.00
   10    6    6     -1.07      0.00
   12    6    6     -3.78      0.00
   14    6    6     -3.76      0.00
   16    6    6     -2.15      0.00
   18    6    6     -0.67      0.00
   20    6    6     -0.14      0.00
   22    6    6     -0.27      0.00
   24    6    6     -0.32      0.00
  -25    7    6     -0.99      0.00
  -23    7    6     -1.67      0.00
  -21    7    6     -1.53      0.00
  -19    7    6     -1.07      0.00
  -17    7    6     -1.13      0.00
  -15    7    6     -0.58      0.00
  -13    7    6      0.87      0.00
  -11    7    6      0.89      0.00
   -9    7    6     -0.10      0.00
   -7    7    6      2.06      0.00
   -5    7    6      6.06      0.00
   -3    7    6      3.86      0.00
   -1    7    6     -6.52      0.00
    1    7    6    -16.41      0.00
    3    7    6    -18.44      0.00
    5    7    6    -14.15      0.00
    7    7    6     -7.71      0.00
    9    7    6     -0.91      0.00
   11    7    6      4.57      0.00
   13    7    6      6.46      0.00
   15    7    6      4.65      0.00
   17    7    6      1.37      0.00
   19    7    6     -1.09      0.00
   21    7    6     -1.86      0.00
   23    7    6     -1.46      0.00
   25    7    6     -0.80      0.00
  -24    8    6      0.70      0.00
  -22    8    6      1.24      0.00
  -20    8    6      1.43      0.00
  -18    8    6      2.07      0.00
  -16    8    6      2.89      0.00
  -14    8    6      2.51      0.00
  -12    8    6      2.00      0.00
  -10    8    6      2.90      0.00
   -8    8    6      2.47      0.00
   -6    8    6     -1.67      0.00
   -4    8    6     -4.30      0.00
   -2    8    6      0.89      0.00
    0    8    6     10.59      0.00
    2    8    6     16.18      0.00
    4    8    6     15.06      0.00
    6    8    6     10.39      0.00
    8    8    6      4.43      0.00
   10    8    6     -1.68      0.00
   12    8    6     -5.56      0.00
   14    8    6     -5.49      0.00
   16    8    6     -2.48      0.00
   18    8    6      0.98      0.00
   20    8    6      2.98      0.00
   22    8    6      3.09      0.00
   24    8    6      2.14      0.00
  -25    9    6      0.21      0.00
  -23    9    6     -0.13      0.00
  -21    9    6     -0.48      0.00
  -19    9    6     -1.07      0.00
  -17    9    6     -2.35      0.00
  -15    9    6     -3.26      0.00
  -13    9    6     -3.33      0.00
  -11    9    6     -4.23      0.00
   -9    9    6     -5.34      0.00
   -7    9    6     -3.07      0.00
   -5    9    6      1.58      0.00
   -3    9    6      1.83      0.00
   -1    9    6     -4.43      0.00
    1    9    6    -10.85      0.00
    3    9    6    -12.12      0.00
    5    9    6     -9.57      0.00
    7    9    6     -5.99      0.00
    9    9    6     -1.90      0.00
   11    9    6      1.90      0.00
   13    9    6      3.57      0.00
   15    9    6      2.50      0.00
   17    9    6     -0.08      0.00
   19    9    6     -2.40      0.00
   21    9    6     -3.29      0.00
   23    9    6     -2.84      0.00
   25    9    6     -1.85      0.00
  -24   10    6     -0.36      0.00
  -22   10    6     -0.26      0.00
  -20   10    6     -0.17      0.00
  -18   10    6      0.42      0.00
  -16   10    6      1.39      0.00
  -14   10    6      1.90      0.00
  -12   10    6      2.81      0.00
  -10   10    6      4.97      0.00
   -8   10    6      5.54      0.00
   -6   10    6      2.08      0.00
   -4   10    6     -1.41      0.00
   -2   10    6      0.36      0.00
    0   10    6      5.37      0.00
    2   10    6      7.78      0.00
    4   10    6      6.59      0.00
    6   10    6      4.66      0.00
    8   10    6      3.02      0.00
   10   10    6      1.05      0.00
   12   10    6     -0.78      0.00
   14   10    6     -1.39      0.00
   16   10    6     -0.62      0.00
   18   10    6      0.83      0.00
   20   10    6      1.94      0.00
   22   10    6      2.20      0.00
   24   10    6      1.90      0.00
  -23   11    6      0.01      0.00
  -21   11    6      0.21      0.00
  -19   11    6      0.56      0.00
  -17   11    6      0.59      0.00
  -15   11    6      0.60      0.00
  -13   11    6      0.35      0.00
  -11   11    6     -1.60      0.00
   -9   11    6     -4.32      0.00
   -7   11    6     -4.02      0.00
   -5   11    6     -0.61      0.00
   -3   11    6      0.91      0.00
   -1   11    6     -1.58      0.00
    1   11    6     -4.20      0.00
    3   11    6     -3.96      0.00
    5   11    6     -2.53      0.00
    7   11    6     -1.82      0.00
    9   11    6     -1.29      0.00
   11   11    6     -0.24      0.00
   13   11    6      0.83      0.00
   15   11    6      1.24      0.00
   17   11    6      0.81      0.00
   19   11    6     -0.04      0.00
   21   11    6     -0.72      0.00
   23   11    6     -1.06      0.00
  -24   12    6      0.67      0.00
  -22   12    6      0.63      0.00
  -20   12    6      0.00      0.00
  -18   12    6     -0.87      0.00
  -16   12    6     -1.69      0.00
  -14   12    6     -2.49      0.00
  -12   12    6     -2.02      0.00
  -10   12    6      0.61      0.00
   -8   12    6      2.79      0.00
   -6   12    6      1.55      0.00
   -4   12    6     -1.02      0.00
   -2   12    6     -0.97      0.00
    0   12    6      1.11      0.00
    2   12    6      1.92      0.00
    4   12    6      1.10      0.00
    6   12    6      0.37      0.00
    8   12    6      0.00      0.00
   10   12    6     -0.77      0.00
   12   12    6     -1.81      0.00
   14   12    6     -2.49      0.00
   16   12    6     -2.39      0.00
   18   12    6     -1.60      0.00
   20   12    6     -0.65      0.00
   22   12    6      0.07      0.00
   24   12    6      0.64      0.00
  -23   13    6     -1.19      0.00
  -21   13    6     -0.92      0.00
  -19   13    6     -0.02      0.00
  -17   13    6      1.00      0.00
  -15   13    6      2.16      0.00
  -13   13    6      3.10      0.00
  -11   13    6      2.35      0.00
   -9   13    6      0.20      0.00
   -7   13    6     -0.35      0.00
   -5   13    6      1.64      0.00
   -3   13    6      3.14      0.00
   -1   13    6      2.20      0.00
    1   13    6      0.64      0.00
    3   13    6      0.24      0.00
    5   13    6      0.54      0.00
    7   13    6      1.04      0.00
    9   13    6      2.02      0.00
   11   13    6      3.27      0.00
   13   13    6      4.03      0.00
   15   13    6      3.87      0.00
   17   13    6      2.86      0.00
   19   13    6      1.50      0.00
   21   13    6      0.45      0.00
   23   13    6     -0.19      0.00
  -22   14    6      1.11      0.00
  -20   14    6      0.63      0.00
  -18   14    6     -0.03      0.00
  -16   14    6     -0.64      0.00
  -14   14    6     -1.66      0.00
  -12   14    6     -2.54      0.00
  -10   14    6     -2.17      0.00
   -8   14    6     -1.59      0.00
   -6   14    6     -2.66      0.00
   -4   14    6     -4.47      0.00
   -2   14    6     -4.56      0.00
    0   14    6     -2.96      0.00
    2   14    6     -1.52      0.00
    4   14    6     -0.98      0.00
    6   14    6     -1.20      0.00
    8   14    6     -2.25      0.00
   10   14    6     -3.73      0.00
   12   14    6     -4.69      0.00
   14   14    6     -4.60      0.00
   16   14    6     -3.55      0.00
   18   14    6     -1.97      0.00
   20   14    6     -0.59      0.00
   22   14    6      0.13      0.00
  -23   15    6     -0.65      0.00
  -21   15    6     -0.54      0.00
  -19   15    6     -0.21      0.00
  -17   15    6     -0.24      0.00
  -15   15    6     -0.12      0.00
  -13   15    6      0.85      0.00
  -11   15    6      1.93      0.00
   -9   15    6      2.39      0.00
   -7   15    6      3.03      0.00
   -5   15    6      4.19      0.00
   -3   15    6      4.42      0.00
   -1   15    6      2.96      0.00
    1   15    6      1.07      0.00
    3   15    6      0.06      0.00
    5   15    6      0.14      0.00
    7   15    6      1.20      0.00
    9   15    6      2.78      0.00
   11   15    6      3.90      0.00
   13   15    6      4.01      0.00
   15   15    6      3.27      0.00
   17   15    6      1.98      0.00
   19   15    6      0.62      0.00
   21   15    6     -0.19      0.00
   23   15    6     -0.37      0.00
  -22   16    6      0.25      0.00
  -20   16    6      0.05      0.00
  -18   16    6      0.19      0.00
  -16   16    6      0.73      0.00
  -14   16    6      0.64      0.00
  -12   16    6     -0.50      0.00
  -10   16    6     -1.66      0.00
   -8   16    6     -2.28      0.00
   -6   16    6     -2.60      0.00
   -4   16    6     -2.26      0.00
   -2   16    6     -0.67      0.00
    0   16    6      1.41      0.00
    2   16    6      2.58      0.00
    4   16    6      2.35      0.00
    6   16    6      1.01      0.00
    8   16    6     -0.79      0.00
   10   16    6     -2.09      0.00
   12   16    6     -2.37      0.00
   14   16    6     -2.01      0.00
   16   16    6     -1.35      0.00
   18   16    6     -0.50      0.00
   20   16    6      0.15      0.00
   22   16    6      0.29      0.00
  -21   17    6     -0.04      0.00
  -19   17    6      0.03      0.00
  -17   17    6     -0.44      0.00
  -15   17    6     -0.97      0.00
  -13   17    6     -0.62      0.00
  -11   17    6      0.33      0.00
   -9   17    6      0.84      0.00
   -7   17    6      0.68      0.00
   -5   17    6     -0.03      0.00
   -3   17    6     -1.49      0.00
   -1   17    6     -3.37      0.00
    1   17    6     -4.63      0.00
    3   17    6     -4.53      0.00
    5   17    6     -3.22      0.00
    7   17    6     -1.37      0.00
    9   17    6      0.05      0.00
   11   17    6      0.48      0.00
   13   17    6      0.36      0.00
   15   17    6      0.29      0.00
   17   17    6      0.17      0.00
   19   17    6     -0.09      0.00
   21   17    6     -0.14      0.00
  -22   18    6      0.17      0.00
  -20   18    6     -0.02      0.00
  -18   18    6      0.03      0.00
  -16   18    6      0.53      0.00
  -14   18    6      0.82      0.00
  -12   18    6      0.56      0.00
  -10   18    6      0.40      0.00
   -8   18    6      0.81      0.00
   -6   18    6      1.43      0.00
   -4   18    6      2.03      0.00
   -2   18    6      2.75      0.00
    0   18    6      3.43      0.00
    2   18    6      3.62      0.00
    4   18    6      3.10      0.00
    6   18    6      2.05      0.00
    8   18    6      1.10      0.00
   10   18    6      0.83      0.00
   12   18    6      0.93      0.00
   14   18    6      0.68      0.00
   16   18    6      0.21      0.00
   18   18    6      0.01      0.00
   20   18    6     -0.03      0.00
  -21   19    6     -0.04      0.00
  -19   19    6      0.25      0.00
  -17   19    6      0.14      0.00
  -15   19    6     -0.28      0.00
  -13   19    6     -0.52      0.00
  -11   19    6     -0.73      0.00
   -9   19    6     -1.32      0.00
   -7   19    6     -1.88      0.00
   -5   19    6     -1.69      0.00
   -3   19    6     -0.83      0.00
   -1   19    6     -0.02      0.00
    1   19    6      0.25      0.00
    3   19    6      0.07      0.00
    5   19    6     -0.14      0.00
    7   19    6     -0.32      0.00
    9   19    6     -0.75      0.00
   11   19    6     -1.26      0.00
   13   19    6     -1.13      0.00
   15   19    6     -0.37      0.00
   17   19    6      0.20      0.00
   19   19    6      0.28      0.00
   21   19    6      0.31      0.00
  -20   20    6     -0.37      0.00
  -18   20    6     -0.69      0.00
  -16   20    6     -0.52      0.00
  -14   20    6     -0.18      0.00
  -12   20    6      0.12      0.00
  -10   20    6      0.65      0.00
   -8   20    6      1.32      0.00
   -6   20    6      1.24      0.00
   -4   20    6     -0.14      0.00
   -2   20    6     -2.13      0.00
    0   20    6     -3.46      0.00
    2   20    6     -3.53      0.00
    4   20    6     -2.79      0.00
    6   20    6     -1.85      0.00
    8   20    6     -0.77      0.00
   10   20    6      0.37      0.00
   12   20    6      0.85      0.00
   14   20    6      0.29      0.00
   16   20    6     -0.46      0.00
   18   20    6     -0.59      0.00
   20   20    6     -0.42      0.00
  -19   21    6      0.82      0.00
  -17   21    6      1.03      0.00
  -15   21    6      0.85      0.00
  -13   21    6      0.72      0.00
  -11   21    6      0.58      0.00
   -9   21    6      0.09      0.00
   -7   21    6     -0.36      0.00
   -5   21    6      0.15      0.00
   -3   21    6      1.76      0.00
   -1   21    6      3.43      0.00
    1   21    6      4.11      0.00
    3   21    6      3.79      0.00
    5   21    6      3.15      0.00
    7   21    6      2.33      0.00
    9   21    6      1.12      0.00
   11   21    6      0.03      0.00
   13   21    6     -0.07      0.00
   15   21    6      0.52      0.00
   17   21    6      0.74      0.00
   19   21    6      0.46      0.00
  -18   22    6     -0.88      0.00
  -16   22    6     -0.91      0.00
  -14   22    6     -0.94      0.00
  -12   22    6     -1.24      0.00
  -10   22    6     -1.39      0.00
   -8   22    6     -0.99      0.00
   -6   22    6     -0.55      0.00
   -4   22    6     -0.80      0.00
   -2   22    6     -1.62      0.00
    0   22    6     -2.18      0.00
    2   22    6     -2.19      0.00
    4   22    6     -2.17      0.00
    6   22    6     -2.29      0.00
    8   22    6     -1.92      0.00
   10   22    6     -0.90      0.00
   12   22    6     -0.17      0.00
   14   22    6     -0.29      0.00
   16   22    6     -0.51      0.00
   18   22    6     -0.26      0.00
  -17   23    6      0.40      0.00
  -15   23    6      0.39      0.00
  -13   23    6      0.80      0.00
  -11   23    6      1.53      0.00
   -9   23    6      1.84      0.00
   -7   23    6      1.44      0.00
   -5   23    6      0.88      0.00
   -3   23    6      0.68      0.00
   -1   23    6      0.57      0.00
    1   23    6      0.25      0.00
    3   23    6      0.17      0.00
    5   23    6      0.76      0.00
    7   23    6      1.36      0.00
    9   23    6      1.09      0.00
   11   23    6      0.29      0.00
   13   23    6     -0.02      0.00
   15   23    6      0.09      0.00
   17   23    6     -0.07      0.00
  -18   24    6      0.12      0.00
  -16   24    6      0.29      0.00
  -14   24    6      0.15      0.00
  -12   24    6     -0.59      0.00
  -10   24    6     -1.45      0.00
   -8   24    6     -1.71      0.00
   -6   24    6     -1.35      0.00
   -4   24    6     -0.88      0.00
   -2   24    6     -0.43      0.00
    0   24    6      0.23      0.00
    2   24    6      0.86      0.00
    4   24    6      0.72      0.00
    6   24    6     -0.10      0.00
    8   24    6     -0.55      0.00
   10   24    6     -0.19      0.00
   12   24    6      0.19      0.00
   14   24    6      0.16      0.00
   16   24    6      0.21      0.00
  -15   25    6     -0.67      0.00
  -13   25    6     -0.35      0.00
  -11   25    6      0.40      0.00
   -9   25    6      0.98      0.00
   -7   25    6      1.02      0.00
   -5   25    6      0.77      0.00
   -3   25    6      0.49      0.00
   -1   25    6     -0.01      0.00
    1   25    6     -0.81      0.00
    3   25    6     -1.29      0.00
    5   25    6     -0.92      0.00
    7   25    6     -0.25      0.00
    9   25    6     -0.10      0.00
   11   25    6     -0.25      0.00
   13   25    6     -0.12      0.00
   15   25    6      0.03      0.00
  -14   26    6      0.50      0.00
  -12   26    6      0.23      0.00
  -10   26    6     -0.09      0.00
   -8   26    6     -0.10      0.00
   -6   26    6      0.14      0.00
   -4   26    6      0.30      0.00
   -2   26    6      0.40      0.00
    0   26    6      0.80      0.00
    2   26    6      1.34      0.00
    4   26    6      1.39      0.00
    6   26    6      0.87      0.00
    8   26    6      0.45      0.00
   10   26    6      0.33      0.00
   12   26    6      0.05      0.00
   14   26    6     -0.34      0.00
  -13   27    6     -0.07      0.00
  -11   27    6     -0.13      0.00
   -9   27    6     -0.42      0.00
   -7   27    6     -0.93      0.00
   -5   27    6     -1.26      0.00
   -3   27    6     -1.22      0.00
   -1   27    6     -1.09      0.00
    1   27    6     -1.20      0.00
    3   27    6     -1.30      0.00
    5   27    6     -1.04      0.00
    7   27    6     -0.64      0.00
    9   27    6     -0.42      0.00
   11   27    6     -0.14      0.00
   13   27    6      0.37      0.00
  -12   28    6     -0.25      0.00
  -10   28    6      0.14      0.00
   -8   28    6      0.78      0.00
   -6   28    6      1.34      0.00
   -4   28    6      1.42      0.00
   -2   28    6      1.05      0.00
    0   28    6      0.70      0.00
    2   28    6      0.60      0.00
    4   28    6      0.54      0.00
    6   28    6      0.37      0.00
    8   28    6      0.27      0.00
   10   28    6      0.16      0.00
   12   28    6     -0.18      0.00
  -11   29    6      0.41      0.00
   -9   29    6     -0.01      0.00
   -7   29    6     -0.52      0.00
   -5   29    6     -0.75      0.00
   -3   29    6     -0.50      0.00
   -1   29    6      0.00      0.00
    1   29    6      0.31      0.00
    3   29    6      0.35      0.00
    5   29    6      0.29      0.00
    7   29    6      0.22      0.00
    9   29    6      0.13      0.00
   11   29    6      0.19      0.00
  -10   30    6     -0.52      0.00
   -8   30    6     -0.30      0.00
   -6   30    6     -0.07      0.00
   -4   30    6     -0.07      0.00
   -2   30    6     -0.35      0.00
    0   30    6     -0.67      0.00
    2   30    6     -0.79      0.00
    4   30    6     -0.74      0.00
    6   30    6     -0.65      0.00
    8   30    6     -0.54      0.00
   10   30    6     -0.46      0.00
   -7   31    6      0.36      0.00
   -5   31    6      0.23      0.00
   -3   31    6      0.17      0.00
   -1   31    6      0.25      0.00
    1   31    6      0.39      0.00
    3   31    6      0.51      0.00
    5   31    6      0.59      0.00
    7   31    6      0.62      0.00
   -4   32    6      0.15      0.00
   -2   32    6      0.29      0.00
    0   32    6      0.27      0.00
    2   32    6      0.06      0.00
  -25    1    7      0.39      0.00
  -23    1    7     -0.29      0.00
  -21    1    7     -0.76      0.00
  -19    1    7     -0.85      0.00
  -17    1    7     -0.57      0.00
  -15    1    7     -0.10      0.00
  -13    1    7      0.12      0.00
  -11    1    7     -0.61      0.00
   -9    1    7     -3.09      0.00
   -7    1    7     -7.31      0.00
   -5    1    7    -11.89      0.00
   -3    1    7    -14.80      0.00
   -1    1    7    -14.91      0.00
    1    1    7    -12.62      0.00
    3    1    7     -8.85      0.00
    5    1    7     -4.29      0.00
    7    1    7      0.19      0.00
    9    1    7      3.21      0.00
   11    1    7      3.87      0.00
   13    1    7      2.73      0.00
   15    1    7      1.07      0.00
   17    1    7     -0.25      0.00
   19    1    7     -1.06      0.00
   21    1    7     -1.37      0.00
   23    1    7     -1.11      0.00
   25    1    7     -0.49      0.00
  -24    2    7     -0.40      0.00
  -22    2    7      0.66      0.00
  -20    2    7      1.31      0.00
  -18    2    7      1.28      0.00
  -16    2    7      0.62      0.00
  -14    2    7     -0.33      0.00
  -12    2    7     -0.67      0.00
  -10    2    7      1.22      0.00
   -8    2    7      6.68      0.00
   -6    2    7     14.96      0.00
   -4    2    7     22.72      0.00
   -2    2    7     26.34      0.00
    0    2    7     24.76      0.00
    2    2    7     19.33      0.00
    4    2    7     11.79      0.00
    6    2    7      3.66      0.00
    8    2    7     -2.91      0.00
   10    2    7     -5.84      0.00
   12    2    7     -5.09      0.00
   14    2    7     -2.64      0.00
   16    2    7     -0.40      0.00
   18    2    7      1.08      0.00
   20    2    7      1.90      0.00
   22    2    7      1.95      0.00
   24    2    7      1.25      0.00
  -25    3    7      1.55      0.00
  -23    3    7      0.47      0.00
  -21    3    7     -0.76      0.00
  -19    3    7     -1.51      0.00
  -17    3    7     -1.40      0.00
  -15    3    7     -0.29      0.00
  -13    3    7      1.43      0.00
  -11    3    7      2.22      0.00
   -9    3    7     -0.54      0.00
   -7    3    7     -8.41      0.00
   -5    3    7    -19.27      0.00
   -3    3    7    -27.95      0.00
   -1    3    7    -30.36      0.00
    1    3    7    -26.46      0.00
    3    3    7    -18.68      0.00
    5    3    7     -9.39      0.00
    7    3    7     -0.92      0.00
    9    3    7      4.16      0.00
   11    3    7      4.86      0.00
   13    3    7      2.94      0.00
   15    3    7      0.88      0.00
   17    3    7     -0.37      0.00
   19    3    7     -1.13      0.00
   21    3    7     -1.53      0.00
   23    3    7     -1.32      0.00
   25    3    7     -0.62      0.00
  -24    4    7     -1.71      0.00
  -22    4    7     -0.53      0.00
  -20    4    7      0.90      0.00
  -18    4    7      1.84      0.00
  -16    4    7      1.61      0.00
  -14    4    7     -0.26      0.00
  -12    4    7     -3.26      0.00
  -10    4    7     -4.94      0.00
   -8    4    7     -1.76      0.00
   -6    4    7      7.32      0.00
   -4    4    7     18.45      0.00
   -2    4    7     25.56      0.00
    0    4    7     25.75      0.00
    2    4    7     20.64      0.00
    4    4    7     13.20      0.00
    6    4    7      5.68      0.00
    8    4    7      0.20      0.00
   10    4    7     -1.75      0.00
   12    4    7     -1.02      0.00
   14    4    7     -0.02      0.00
   16    4    7      0.03      0.00
   18    4    7     -0.26      0.00
   20    4    7     -0.22      0.00
   22    4    7     -0.02      0.00
   24    4    7      0.00      0.00
  -25    5    7      1.90      0.00
  -23    5    7      1.41      0.00
  -21    5    7     -0.03      0.00
  -19    5    7     -1.73      0.00
  -17    5    7     -2.76      0.00
  -15    5    7     -2.03      0.00
  -13    5    7      1.13      0.00
  -11    5    7      5.69      0.00
   -9    5    7      8.11      0.00
   -7    5    7      4.67      0.00
   -5    5    7     -4.21      0.00
   -3    5    7    -13.30      0.00
   -1    5    7    -17.51      0.00
    1    5    7    -16.44      0.00
    3    5    7    -12.79      0.00
    5    5    7     -8.54      0.00
    7    5    7     -4.71      0.00
    9    5    7     -2.45      0.00
   11    5    7     -2.03      0.00
   13    5    7     -1.88      0.00
   15    5    7     -0.67      0.00
   17    5    7      1.08      0.00
   19    5    7      2.14      0.00
   21    5    7      2.22      0.00
   23    5    7      1.74      0.00
   25    5    7      1.02      0.00
  -24    6    7     -1.04      0.00
  -22    6    7     -0.12      0.00
  -20    6    7      1.58      0.00
  -18    6    7      3.30      0.00
  -16    6    7      3.93      0.00
  -14    6    7      2.14      0.00
  -12    6    7     -2.53      0.00
  -10    6    7     -8.09      0.00
   -8    6    7    -10.30      0.00
   -6    6    7     -6.44      0.00
   -4    6    7      1.16      0.00
   -2    6    7      7.25      0.00
    0    6    7      9.42      0.00
    2    6    7      9.40      0.00
    4    6    7      8.93      0.00
    6    6    7      7.79      0.00
    8    6    7      5.94      0.00
   10    6    7      4.38      0.00
   12    6    7      3.21      0.00
   14    6    7      1.44      0.00
   16    6    7     -1.00      0.00
   18    6    7     -2.98      0.00
   20    6    7     -3.77      0.00
   22    6    7     -3.50      0.00
   24    6    7     -2.54      0.00
  -25    7    7     -0.07      0.00
  -23    7    7     -0.63      0.00
  -21    7    7     -1.87      0.00
  -19    7    7     -3.47      0.00
  -17    7    7     -4.73      0.00
  -15    7    7     -4.47      0.00
  -13    7    7     -1.46      0.00
  -11    7    7      4.11      0.00
   -9    7    7      9.30      0.00
   -7    7    7     10.10      0.00
   -5    7    7      5.71      0.00
   -3    7    7     -0.17      0.00
   -1    7    7     -3.93      0.00
    1    7    7     -5.95      0.00
    3    7    7     -8.00      0.00
    5    7    7     -9.34      0.00
    7    7    7     -8.34      0.00
    9    7    7     -5.67      0.00
   11    7    7     -3.18      0.00
   13    7    7     -1.20      0.00
   15    7    7      0.80      0.00
   17    7    7      2.60      0.00
   19    7    7      3.65      0.00
   21    7    7      3.83      0.00
   23    7    7      3.30      0.00
   25    7    7      2.18      0.00
  -24    8    7      1.38      0.00
  -22    8    7      2.28      0.00
  -20    8    7      3.35      0.00
  -18    8    7      4.47      0.00
  -16    8    7      5.09      0.00
  -14    8    7      4.07      0.00
  -12    8    7      0.44      0.00
  -10    8    7     -4.83      0.00
   -8    8    7     -8.37      0.00
   -6    8    7     -7.34      0.00
   -4    8    7     -2.95      0.00
   -2    8    7      1.10      0.00
    0    8    7      3.62      0.00
    2    8    7      6.31      0.00
    4    8    7      9.14      0.00
    6    8    7      9.53      0.00
    8    8    7      6.63      0.00
   10    8    7      2.85      0.00
   12    8    7      0.36      0.00
   14    8    7     -0.94      0.00
   16    8    7     -1.76      0.00
   18    8    7     -2.25      0.00
   20    8    7     -2.47      0.00
   22    8    7     -2.46      0.00
   24    8    7     -2.06      0.00
  -25    9    7     -1.20      0.00
  -23    9    7     -2.03      0.00
  -21    9    7     -2.67      0.00
  -19    9    7     -3.29      0.00
  -17    9    7     -4.08      0.00
  -15    9    7     -4.54      0.00
  -13    9    7     -3.47      0.00
  -11    9    7     -0.14      0.00
   -9    9    7      3.94      0.00
   -7    9    7      5.61      0.00
   -5    9    7      3.63      0.00
   -3    9    7      0.40      0.00
   -1    9    7     -1.70      0.00
    1    9    7     -3.56      0.00
    3    9    7     -6.46      0.00
    5    9    7     -8.43      0.00
    7    9    7     -6.99      0.00
    9    9    7     -3.29      0.00
   11    9    7     -0.35      0.00
   13    9    7      0.73      0.00
   15    9    7      0.81      0.00
   17    9    7      0.60      0.00
   19    9    7      0.45      0.00
   21    9    7      0.57      0.00
   23    9    7      0.77      0.00
  -24   10    7      0.97      0.00
  -22   10    7      1.32      0.00
  -20   10    7      1.49      0.00
  -18   10    7      2.01      0.00
  -16   10    7      3.11      0.00
  -14   10    7      4.07      0.00
  -12   10    7      3.49      0.00
  -10   10    7      0.91      0.00
   -8   10    7     -1.86      0.00
   -6   10    7     -2.36      0.00
   -4   10    7     -0.82      0.00
   -2   10    7      0.35      0.00
    0   10    7      0.73      0.00
    2   10    7      2.23      0.00
    4   10    7      4.77      0.00
    6   10    7      5.59      0.00
    8   10    7      3.72      0.00
   10   10    7      1.36      0.00
   12   10    7      0.40      0.00
   14   10    7      0.50      0.00
   16   10    7      0.82      0.00
   18   10    7      1.08      0.00
   20   10    7      1.05      0.00
   22   10    7      0.67      0.00
   24   10    7      0.30      0.00
  -23   11    7      0.12      0.00
  -21   11    7      0.28      0.00
  -19   11    7      0.14      0.00
  -17   11    7     -0.85      0.00
  -15   11    7     -2.61      0.00
  -13   11    7     -4.12      0.00
  -11   11    7     -4.02      0.00
   -9   11    7     -2.26      0.00
   -7   11    7     -0.69      0.00
   -5   11    7     -0.65      0.00
   -3   11    7     -0.91      0.00
   -1   11    7     -0.07      0.00
    1   11    7      0.52      0.00
    3   11    7     -0.82      0.00
    5   11    7     -2.73      0.00
    7   11    7     -2.95      0.00
    9   11    7     -1.95      0.00
   11   11    7     -1.50      0.00
   13   11    7     -1.74      0.00
   15   11    7     -1.92      0.00
   17   11    7     -1.87      0.00
   19   11    7     -1.71      0.00
   21   11    7     -1.32      0.00
   23   11    7     -0.88      0.00
  -24   12    7     -0.83      0.00
  -22   12    7     -1.32      0.00
  -20   12    7     -1.49      0.00
  -18   12    7     -0.89      0.00
  -16   12    7      0.60      0.00
  -14   12    7      2.62      0.00
  -12   12    7      4.23      0.00
  -10   12    7      4.47      0.00
   -8   12    7      3.71      0.00
   -6   12    7      3.31      0.00
   -4   12    7      3.26      0.00
   -2   12    7      2.09      0.00
    0   12    7     -0.02      0.00
    2   12    7     -0.82      0.00
    4   12    7      0.29      0.00
    6   12    7      1.33      0.00
    8   12    7      1.27      0.00
   10   12    7      1.21      0.00
   12   12    7      1.75      0.00
   14   12    7      2.14      0.00
   16   12    7      2.01      0.00
   18   12    7      1.68      0.00
   20   12    7      1.24      0.00
   22   12    7      0.76      0.00
   24   12    7      0.59      0.00
  -23   13    7      1.32      0.00
  -21   13    7      1.74      0.00
  -19   13    7      1.49      0.00
  -17   13    7      0.54      0.00
  -15   13    7     -0.89      0.00
  -13   13    7     -2.58      0.00
  -11   13    7     -4.00      0.00
   -9   13    7     -4.63      0.00
   -7   13    7     -4.85      0.00
   -5   13    7     -5.05      0.00
   -3   13    7     -4.27      0.00
   -1   13    7     -1.80      0.00
    1   13    7      0.68      0.00
    3   13    7      1.18      0.00
    5   13    7      0.43      0.00
    7   13    7      0.22      0.00
    9   13    7      0.37      0.00
   11   13    7     -0.12      0.00
   13   13    7     -0.95      0.00
   15   13    7     -1.35      0.00
   17   13    7     -1.33      0.00
   19   13    7     -1.05      0.00
   21   13    7     -0.54      0.00
   23   13    7     -0.22      0.00
  -22   14    7     -1.19      0.00
  -20   14    7     -1.24      0.00
  -18   14    7     -0.70      0.00
  -16   14    7      0.10      0.00
  -14   14    7      1.04      0.00
  -12   14    7      2.24      0.00
  -10   14    7      3.39      0.00
   -8   14    7      4.10      0.00
   -6   14    7      4.45      0.00
   -4   14    7      4.06      0.00
   -2   14    7      1.95      0.00
    0   14    7     -1.24      0.00
    2   14    7     -3.10      0.00
    4   14    7     -2.85      0.00
    6   14    7     -2.21      0.00
    8   14    7     -2.24      0.00
   10   14    7     -2.05      0.00
   12   14    7     -1.13      0.00
   14   14    7     -0.08      0.00
   16   14    7      0.64      0.00
   18   14    7      0.94      0.00
   20   14    7      0.68      0.00
   22   14    7      0.19      0.00
  -23   15    7      0.33      0.00
  -21   15    7      0.61      0.00
  -19   15    7      0.47      0.00
  -17   15    7      0.02      0.00
  -15   15    7     -0.39      0.00
  -13   15    7     -0.90      0.00
  -11   15    7     -1.64      0.00
   -9   15    7     -2.15      0.00
   -7   15    7     -2.17      0.00
   -5   15    7     -1.72      0.00
   -3   15    7     -0.17      0.00
   -1   15    7      2.78      0.00
    1   15    7      5.44      0.00
    3   15    7      5.85      0.00
    5   15    7      4.68      0.00
    7   15    7      3.85      0.00
    9   15    7      3.54      0.00
   11   15    7      2.81      0.00
   13   15    7      1.57      0.00
   15   15    7      0.31      0.00
   17   15    7     -0.66      0.00
   19   15    7     -0.97      0.00
   21   15    7     -0.59      0.00
  -22   16    7      0.11      0.00
  -20   16    7     -0.11      0.00
  -18   16    7     -0.04      0.00
  -16   16    7      0.16      0.00
  -14   16    7      0.31      0.00
  -12   16    7      0.55      0.00
  -10   16    7      0.63      0.00
   -8   16    7      0.15      0.00
   -6   16    7     -0.59      0.00
   -4   16    7     -1.47      0.00
   -2   16    7     -3.23      0.00
    0   16    7     -5.67      0.00
    2   16    7     -6.93      0.00
    4   16    7     -6.10      0.00
    6   16    7     -4.63      0.00
    8   16    7     -3.81      0.00
   10   16    7     -3.24      0.00
   12   16    7     -2.28      0.00
   14   16    7     -1.05      0.00
   16   16    7      0.17      0.00
   18   16    7      0.96      0.00
   20   16    7      0.96      0.00
   22   16    7      0.50      0.00
  -21   17    7     -0.35      0.00
  -19   17    7     -0.03      0.00
  -17   17    7      0.02      0.00
  -15   17    7     -0.01      0.00
  -13   17    7     -0.06      0.00
  -11   17    7     -0.01      0.00
   -9   17    7      0.57      0.00
   -7   17    7      1.44      0.00
   -5   17    7      1.75      0.00
   -3   17    7      1.73      0.00
   -1   17    7      2.53      0.00
    3   17    7      4.14      0.00
    5   17    7      3.31      0.00
    7   17    7      2.56      0.00
    9   17    7      2.29      0.00
   11   17    7      1.92      0.00
   13   17    7      1.20      0.00
   15   17    7      0.24      0.00
   17   17    7     -0.65      0.00
   19   17    7     -0.97      0.00
   21   17    7     -0.64      0.00
  -20   18    7      0.24      0.00
  -18   18    7     -0.06      0.00
  -16   18    7     -0.16      0.00
  -14   18    7     -0.21      0.00
  -12   18    7     -0.20      0.00
  -10   18    7     -0.42      0.00
   -8   18    7     -1.03      0.00
   -6   18    7     -1.10      0.00
   -4   18    7      0.12      0.00
   -2   18    7      1.47      0.00
    0   18    7      1.49      0.00
    2   18    7      0.65      0.00
    4   18    7      0.19      0.00
    6   18    7      0.06      0.00
    8   18    7     -0.29      0.00
   10   18    7     -0.70      0.00
   12   18    7     -0.74      0.00
   14   18    7     -0.36      0.00
   16   18    7      0.29      0.00
   18   18    7      0.73      0.00
   20   18    7      0.56      0.00
  -21   19    7     -0.24      0.00
  -19   19    7      0.08      0.00
  -17   19    7      0.19      0.00
  -15   19    7      0.31      0.00
  -13   19    7      0.40      0.00
  -11   19    7      0.31      0.00
   -9   19    7      0.37      0.00
   -7   19    7      0.35      0.00
   -5   19    7     -0.84      0.00
   -3   19    7     -3.16      0.00
   -1   19    7     -4.77      0.00
    1   19    7     -4.56      0.00
    3   19    7     -3.47      0.00
    5   19    7     -2.49      0.00
    7   19    7     -1.59      0.00
    9   19    7     -0.67      0.00
   11   19    7      0.01      0.00
   13   19    7      0.23      0.00
   15   19    7     -0.01      0.00
   17   19    7     -0.42      0.00
   19   19    7     -0.43      0.00
  -20   20    7     -0.35      0.00
  -18   20    7     -0.32      0.00
  -16   20    7     -0.28      0.00
  -14   20    7     -0.50      0.00
  -12   20    7     -0.56      0.00
  -10   20    7     -0.28      0.00
   -8   20    7     -0.01      0.00
   -6   20    7      0.64      0.00
   -4   20    7      2.40      0.00
   -2   20    7      4.45      0.00
    0   20    7      5.09      0.00
    2   20    7      4.17      0.00
    4   20    7      2.88      0.00
    6   20    7      1.88      0.00
    8   20    7      1.05      0.00
   10   20    7      0.34      0.00
   12   20    7     -0.13      0.00
   14   20    7     -0.23      0.00
   16   20    7      0.03      0.00
   18   20    7      0.21      0.00
   20   20    7     -0.06      0.00
  -19   21    7      0.67      0.00
  -17   21    7      0.32      0.00
  -15   21    7      0.37      0.00
  -13   21    7      0.78      0.00
  -11   21    7      0.77      0.00
   -9   21    7      0.33      0.00
   -7   21    7     -0.17      0.00
   -5   21    7     -1.10      0.00
   -3   21    7     -2.61      0.00
   -1   21    7     -3.55      0.00
    1   21    7     -3.00      0.00
    3   21    7     -1.62      0.00
    5   21    7     -0.52      0.00
    7   21    7      0.04      0.00
    9   21    7      0.27      0.00
   11   21    7      0.41      0.00
   13   21    7      0.50      0.00
   15   21    7      0.40      0.00
   17   21    7      0.14      0.00
   19   21    7      0.14      0.00
  -18   22    7     -0.48      0.00
  -16   22    7     -0.12      0.00
  -14   22    7     -0.52      0.00
  -12   22    7     -1.10      0.00
  -10   22    7     -1.00      0.00
   -8   22    7     -0.45      0.00
   -6   22    7      0.25      0.00
   -4   22    7      1.32      0.00
   -2   22    7      2.33      0.00
    0   22    7      2.20      0.00
    2   22    7      0.86      0.00
    4   22    7     -0.64      0.00
    6   22    7     -1.45      0.00
    8   22    7     -1.48      0.00
   10   22    7     -1.13      0.00
   12   22    7     -0.83      0.00
   14   22    7     -0.68      0.00
   16   22    7     -0.45      0.00
   18   22    7     -0.24      0.00
  -17   23    7     -0.08      0.00
  -15   23    7     -0.10      0.00
  -13   23    7      0.70      0.00
  -11   23    7      1.30      0.00
   -9   23    7      1.10      0.00
   -7   23    7      0.43      0.00
   -5   23    7     -0.52      0.00
   -3   23    7     -1.65      0.00
   -1   23    7     -2.17      0.00
    1   23    7     -1.38      0.00
    3   23    7      0.24      0.00
    5   23    7      1.62      0.00
    7   23    7      2.10      0.00
    9   23    7      1.74      0.00
   11   23    7      1.10      0.00
   13   23    7      0.69      0.00
   15   23    7      0.48      0.00
   17   23    7      0.22      0.00
  -16   24    7      0.60      0.00
  -14   24    7      0.14      0.00
  -12   24    7     -0.88      0.00
  -10   24    7     -1.37      0.00
   -8   24    7     -1.11      0.00
   -6   24    7     -0.44      0.00
   -4   24    7      0.54      0.00
   -2   24    7      1.52      0.00
    0   24    7      1.71      0.00
    2   24    7      0.81      0.00
    4   24    7     -0.56      0.00
    6   24    7     -1.55      0.00
    8   24    7     -1.68      0.00
   10   24    7     -1.13      0.00
   12   24    7     -0.53      0.00
   14   24    7     -0.22      0.00
   16   24    7     -0.01      0.00
  -15   25    7     -0.69      0.00
  -13   25    7      0.17      0.00
  -11   25    7      1.15      0.00
   -9   25    7      1.50      0.00
   -7   25    7      1.35      0.00
   -5   25    7      0.91      0.00
   -3   25    7      0.13      0.00
   -1   25    7     -0.68      0.00
    1   25    7     -0.91      0.00
    3   25    7     -0.38      0.00
    5   25    7      0.47      0.00
    7   25    7      1.01      0.00
    9   25    7      0.89      0.00
   11   25    7      0.38      0.00
   13   25    7     -0.01      0.00
   15   25    7     -0.21      0.00
  -14   26    7      0.23      0.00
  -12   26    7     -0.77      0.00
  -10   26    7     -1.49      0.00
   -8   26    7     -1.70      0.00
   -6   26    7     -1.71      0.00
   -4   26    7     -1.48      0.00
   -2   26    7     -0.77      0.00
    0   26    7      0.10      0.00
    2   26    7      0.56      0.00
    4   26    7      0.34      0.00
    6   26    7     -0.24      0.00
    8   26    7     -0.54      0.00
   10   26    7     -0.32      0.00
   12   26    7      0.04      0.00
   14   26    7      0.23      0.00
  -13   27    7      0.44      0.00
  -11   27    7      1.21      0.00
   -9   27    7      1.48      0.00
   -7   27    7      1.49      0.00
   -5   27    7      1.52      0.00
   -3   27    7      1.24      0.00
   -1   27    7      0.41      0.00
    1   27    7     -0.50      0.00
    3   27    7     -0.81      0.00
    5   27    7     -0.39      0.00
    7   27    7      0.18      0.00
    9   27    7      0.30      0.00
   11   27    7      0.03      0.00
   13   27    7     -0.15      0.00
  -12   28    7     -0.73      0.00
  -10   28    7     -0.98      0.00
   -8   28    7     -0.79      0.00
   -6   28    7     -0.67      0.00
   -4   28    7     -0.64      0.00
   -2   28    7     -0.21      0.00
    0   28    7      0.59      0.00
    2   28    7      1.09      0.00
    4   28    7      0.83      0.00
    6   28    7      0.13      0.00
    8   28    7     -0.23      0.00
   10   28    7     -0.06      0.00
   12   28    7      0.18      0.00
  -11   29    7      0.40      0.00
   -9   29    7      0.22      0.00
   -7   29    7     -0.07      0.00
   -5   29    7     -0.08      0.00
   -3   29    7     -0.11      0.00
   -1   29    7     -0.53      0.00
    1   29    7     -1.00      0.00
    3   29    7     -0.89      0.00
    5   29    7     -0.25      0.00
    7   29    7      0.23      0.00
    9   29    7      0.10      0.00
   11   29    7     -0.25      0.00
   -8   30    7      0.26      0.00
   -6   30    7      0.27      0.00
   -4   30    7      0.08      0.00
   -2   30    7      0.13      0.00
    0   30    7      0.46      0.00
    2   30    7      0.53      0.00
    4   30    7      0.10      0.00
    6   30    7     -0.36      0.00
    8   30    7     -0.30      0.00
   -7   31    7     -0.03      0.00
   -5   31    7      0.19      0.00
   -3   31    7      0.31      0.00
   -1   31    7      0.10      0.00
    1   31    7     -0.13      0.00
    3   31    7      0.04      0.00
    5   31    7      0.43      0.00
   -2   32    7     -0.29      0.00
    0   32    7      0.01      0.00
    2   32    7      0.06      0.00
  -24    0    8     -1.59      0.00
  -22    0    8     -1.75      0.00
  -20    0    8     -1.70      0.00
  -18    0    8      0.37      0.00
  -16    0    8      4.17      0.00
  -14    0    8      7.14      0.00
  -12    0    8      9.70      0.00
  -10    0    8     13.04      0.00
   -8    0    8     12.34      0.00
   -6    0    8      2.92      0.00
   -4    0    8     -8.87      0.00
   -2    0    8    -13.04      0.00
    0    0    8    -11.03      0.00
    2    0    8    -11.47      0.00
    4    0    8    -14.76      0.00
    6    0    8    -13.43      0.00
    8    0    8     -4.87      0.00
   10    0    8      5.11      0.00
   12    0    8     10.26      0.00
   14    0    8      9.77      0.00
   16    0    8      6.78      0.00
   18    0    8      3.98      0.00
   20    0    8      1.68      0.00
   22    0    8     -0.39      0.00
   24    0    8     -1.56      0.00
  -25    1    8      1.18      0.00
  -23    1    8      1.46      0.00
  -21    1    8      1.96      0.00
  -19    1    8      1.43      0.00
  -17    1    8     -1.58      0.00
  -15    1    8     -5.18      0.00
  -13    1    8     -7.87      0.00
  -11    1    8    -11.38      0.00
   -9    1    8    -14.08      0.00
   -7    1    8     -9.33      0.00
   -5    1    8      2.62      0.00
   -3    1    8     11.31      0.00
   -1    1    8     11.09      0.00
    1    1    8      8.80      0.00
    3    1    8     10.73      0.00
    5    1    8     12.71      0.00
    7    1    8      8.49      0.00
    9    1    8     -0.32      0.00
   11    1    8     -7.42      0.00
   13    1    8     -9.40      0.00
   15    1    8     -7.65      0.00
   17    1    8     -5.06      0.00
   19    1    8     -2.86      0.00
   21    1    8     -0.78      0.00
   23    1    8      0.90      0.00
   25    1    8      1.40      0.00
  -24    2    8     -0.66      0.00
  -22    2    8     -1.52      0.00
  -20    2    8     -2.57      0.00
  -18    2    8     -1.57      0.00
  -16    2    8      1.61      0.00
  -14    2    8      4.70      0.00
  -12    2    8      8.17      0.00
  -10    2    8     12.94      0.00
   -8    2    8     13.71      0.00
   -6    2    8      5.36      0.00
   -4    2    8     -5.81      0.00
   -2    2    8     -9.10      0.00
    0    2    8     -5.13      0.00
    2    2    8     -3.05      0.00
    4    2    8     -5.35      0.00
    6    2    8     -6.34      0.00
    8    2    8     -2.67      0.00
   10    2    8      2.72      0.00
   12    2    8      5.97      0.00
   14    2    8      6.28      0.00
   16    2    8      5.12      0.00
   18    2    8      3.74      0.00
   20    2    8      2.20      0.00
   22    2    8      0.49      0.00
   24    2    8     -0.62      0.00
  -25    3    8     -0.24      0.00
  -23    3    8      0.42      0.00
  -21    3    8      2.15      0.00
  -19    3    8      3.36      0.00
  -17    3    8      2.11      0.00
  -15    3    8     -0.38      0.00
  -13    3    8     -3.09      0.00
  -11    3    8     -7.79      0.00
   -9    3    8    -12.59      0.00
   -7    3    8    -10.47      0.00
   -5    3    8     -1.14      0.00
   -3    3    8      5.00      0.00
   -1    3    8      1.65      0.00
    1    3    8     -4.50      0.00
    3    3    8     -5.23      0.00
    5    3    8     -1.69      0.00
    7    3    8      0.57      0.00
    9    3    8     -0.05      0.00
   11    3    8     -1.71      0.00
   13    3    8     -2.89      0.00
   15    3    8     -3.42      0.00
   17    3    8     -3.56      0.00
   19    3    8     -3.18      0.00
   21    3    8     -2.10      0.00
   23    3    8     -0.85      0.00
   25    3    8     -0.14      0.00
  -24    4    8      0.31      0.00
  -22    4    8     -0.79      0.00
  -20    4    8     -2.87      0.00
  -18    4    8     -3.80      0.00
  -16    4    8     -2.99      0.00
  -14    4    8     -1.87      0.00
  -12    4    8      0.66      0.00
  -10    4    8      5.96      0.00
   -8    4    8      9.16      0.00
   -6    4    8      5.08      0.00
   -4    4    8     -0.98      0.00
   -2    4    8      0.60      0.00
    0    4    8      8.81      0.00
    2    4    8     13.87      0.00
    4    4    8     11.43      0.00
    6    4    8      5.76      0.00
    8    4    8      1.62      0.00
   10    4    8     -0.09      0.00
   12    4    8     -0.16      0.00
   14    4    8      0.70      0.00
   16    4    8      1.95      0.00
   18    4    8      2.95      0.00
   20    4    8      3.07      0.00
   22    4    8      2.32      0.00
   24    4    8      1.43      0.00
  -25    5    8      0.05      0.00
  -23    5    8      0.03      0.00
  -21    5    8      1.21      0.00
  -19    5    8      2.89      0.00
  -17    5    8      3.60      0.00
  -15    5    8      4.05      0.00
  -13    5    8      4.31      0.00
  -11    5    8      1.72      0.00
   -9    5    8     -3.02      0.00
   -7    5    8     -4.01      0.00
   -5    5    8     -0.50      0.00
   -1    5    8     -8.37      0.00
    1    5    8    -16.79      0.00
    3    5    8    -17.75      0.00
    5    5    8    -12.21      0.00
    7    5    8     -5.80      0.00
    9    5    8     -1.52      0.00
   11    5    8      0.59      0.00
   13    5    8      1.04      0.00
   15    5    8      0.20      0.00
   17    5    8     -1.31      0.00
   19    5    8     -2.58      0.00
   21    5    8     -2.83      0.00
   23    5    8     -2.28      0.00
   25    5    8     -1.56      0.00
  -24    6    8     -0.48      0.00
  -22    6    8     -0.15      0.00
  -20    6    8     -0.88      0.00
  -18    6    8     -1.81      0.00
  -16    6    8     -2.81      0.00
  -14    6    8     -4.72      0.00
  -12    6    8     -5.55      0.00
  -10    6    8     -2.79      0.00
   -8    6    8      0.47      0.00
   -6    6    8     -0.10      0.00
   -4    6    8     -0.94      0.00
   -2    6    8      4.49      0.00
    0    6    8     13.84      0.00
    2    6    8     18.44      0.00
    4    6    8     15.38      0.00
    6    6    8      9.24      0.00
    8    6    8      4.32      0.00
   10    6    8      1.22      0.00
   12    6    8     -0.68      0.00
   14    6    8     -1.40      0.00
   16    6    8     -0.77      0.00
   18    6    8      0.73      0.00
   20    6    8      1.88      0.00
   22    6    8      2.02      0.00
   24    6    8      1.59      0.00
  -25    7    8      1.23      0.00
  -23    7    8      0.19      0.00
  -21    7    8     -0.52      0.00
  -19    7    8     -0.48      0.00
  -17    7    8     -0.05      0.00
  -15    7    8      1.69      0.00
  -13    7    8      4.37      0.00
  -11    7    8      4.67      0.00
   -9    7    8      1.96      0.00
   -7    7    8      0.56      0.00
   -5    7    8      1.54      0.00
   -3    7    8     -0.63      0.00
   -1    7    8     -8.24      0.00
    1    7    8    -15.05      0.00
    3    7    8    -15.23      0.00
    5    7    8    -10.63      0.00
    7    7    8     -6.02      0.00
    9    7    8     -2.96      0.00
   11    7    8     -0.61      0.00
   13    7    8      1.31      0.00
   15    7    8      2.11      0.00
   17    7    8      1.39      0.00
   19    7    8      0.00      0.00
   21    7    8     -0.74      0.00
   23    7    8     -0.68      0.00
   25    7    8     -0.52      0.00
  -24    8    8     -0.46      0.00
  -22    8    8      0.94      0.00
  -20    8    8      1.85      0.00
  -18    8    8      2.28      0.00
  -16    8    8      1.75      0.00
  -14    8    8     -0.65      0.00
  -12    8    8     -2.93      0.00
  -10    8    8     -2.12      0.00
   -8    8    8     -0.07      0.00
   -6    8    8     -0.41      0.00
   -4    8    8     -0.86      0.00
   -2    8    8      3.31      0.00
    0    8    8     10.20      0.00
    2    8    8     13.32      0.00
    4    8    8     10.93      0.00
    6    8    8      6.72      0.00
    8    8    8      3.52      0.00
   10    8    8      1.19      0.00
   12    8    8     -0.96      0.00
   14    8    8     -2.53      0.00
   16    8    8     -2.72      0.00
   18    8    8     -1.68      0.00
   20    8    8     -0.68      0.00
   22    8    8     -0.48      0.00
   24    8    8     -0.51      0.00
  -23    9    8     -1.01      0.00
  -21    9    8     -2.25      0.00
  -19    9    8     -3.01      0.00
  -17    9    8     -3.39      0.00
  -15    9    8     -2.36      0.00
  -13    9    8      0.05      0.00
  -11    9    8      0.98      0.00
   -9    9    8     -0.49      0.00
   -7    9    8     -0.98      0.00
   -5    9    8      0.65      0.00
   -3    9    8      0.11      0.00
   -1    9    8     -4.84      0.00
    1    9    8     -9.81      0.00
    3    9    8    -10.33      0.00
    5    9    8     -7.29      0.00
    7    9    8     -3.83      0.00
    9    9    8     -1.18      0.00
   11    9    8      0.92      0.00
   13    9    8      2.51      0.00
   15    9    8      3.10      0.00
   17    9    8      2.51      0.00
   19    9    8      1.49      0.00
   21    9    8      1.08      0.00
   23    9    8      1.14      0.00
  -24   10    8      1.07      0.00
  -22   10    8      2.22      0.00
  -20   10    8      2.78      0.00
  -18   10    8      3.11      0.00
  -16   10    8      3.09      0.00
  -14   10    8      1.75      0.00
  -12   10    8      0.19      0.00
  -10   10    8      0.51      0.00
   -8   10    8      1.26      0.00
   -6   10    8     -0.40      0.00
   -4   10    8     -2.55      0.00
   -2   10    8     -0.85      0.00
    0   10    8      4.09      0.00
    2   10    8      7.46      0.00
    4   10    8      7.01      0.00
    6   10    8      4.42      0.00
    8   10    8      1.67      0.00
   10   10    8     -0.51      0.00
   12   10    8     -2.04      0.00
   14   10    8     -2.81      0.00
   16   10    8     -2.63      0.00
   18   10    8     -1.76      0.00
   20   10    8     -1.05      0.00
   22   10    8     -0.94      0.00
   24   10    8     -0.84      0.00
  -23   11    8     -1.93      0.00
  -21   11    8     -2.35      0.00
  -19   11    8     -2.14      0.00
  -17   11    8     -2.10      0.00
  -15   11    8     -1.76      0.00
  -13   11    8     -0.66      0.00
  -11   11    8     -0.18      0.00
   -9   11    8     -0.65      0.00
   -7   11    8      0.46      0.00
   -5   11    8      3.72      0.00
   -3   11    8      5.18      0.00
   -1   11    8      2.23      0.00
    1   11    8     -2.46      0.00
    3   11    8     -4.97      0.00
    5   11    8     -4.60      0.00
    7   11    8     -2.77      0.00
    9   11    8     -0.78      0.00
   11   11    8      0.79      0.00
   13   11    8      1.87      0.00
   15   11    8      2.34      0.00
   17   11    8      1.98      0.00
   19   11    8      1.10      0.00
   21   11    8      0.48      0.00
   23   11    8      0.25      0.00
  -24   12    8      1.24      0.00
  -22   12    8      1.82      0.00
  -20   12    8      1.43      0.00
  -18   12    8      0.88      0.00
  -16   12    8      0.77      0.00
  -14   12    8      0.37      0.00
  -12   12    8     -0.24      0.00
  -10   12    8     -0.12      0.00
   -8   12    8     -0.41      0.00
   -6   12    8     -2.95      0.00
   -4   12    8     -5.90      0.00
   -2   12    8     -5.48      0.00
    0   12    8     -1.50      0.00
    2   12    8      2.62      0.00
    4   12    8      4.41      0.00
    6   12    8      3.96      0.00
    8   12    8      2.46      0.00
   10   12    8      0.87      0.00
   12   12    8     -0.52      0.00
   14   12    8     -1.71      0.00
   16   12    8     -2.23      0.00
   18   12    8     -1.65      0.00
   20   12    8     -0.57      0.00
   22   12    8      0.20      0.00
  -23   13    8     -1.02      0.00
  -21   13    8     -0.96      0.00
  -19   13    8     -0.28      0.00
  -17   13    8      0.01      0.00
  -15   13    8      0.05      0.00
  -13   13    8      0.50      0.00
  -11   13    8      0.70      0.00
   -9   13    8      0.36      0.00
   -7   13    8      1.04      0.00
   -5   13    8      3.15      0.00
   -3   13    8      4.05      0.00
   -1   13    8      1.72      0.00
    1   13    8     -2.24      0.00
    3   13    8     -4.97      0.00
    5   13    8     -5.33      0.00
    7   13    8     -3.99      0.00
    9   13    8     -2.16      0.00
   11   13    8     -0.53      0.00
   13   13    8      1.00      0.00
   15   13    8      2.22      0.00
   17   13    8      2.31      0.00
   19   13    8      1.22      0.00
   21   13    8     -0.02      0.00
   23   13    8     -0.68      0.00
  -22   14    8      0.38      0.00
  -20   14    8      0.04      0.00
  -18   14    8     -0.24      0.00
  -16   14    8     -0.10      0.00
  -14   14    8     -0.29      0.00
  -12   14    8     -0.83      0.00
  -10   14    8     -0.56      0.00
   -8   14    8      0.26      0.00
   -6   14    8      0.19      0.00
   -4   14    8     -0.35      0.00
   -2   14    8      0.60      0.00
    0   14    8      3.33      0.00
    2   14    8      5.89      0.00
    4   14    8      6.53      0.00
    6   14    8      5.09      0.00
    8   14    8      2.76      0.00
   10   14    8      0.78      0.00
   12   14    8     -0.66      0.00
   14   14    8     -1.88      0.00
   16   14    8     -2.44      0.00
   18   14    8     -1.74      0.00
   20   14    8     -0.45      0.00
   22   14    8      0.39      0.00
  -21   15    8      0.28      0.00
  -19   15    8      0.37      0.00
  -17   15    8     -0.01      0.00
  -15   15    8     -0.29      0.00
  -13   15    8      0.26      0.00
  -11   15    8      0.66      0.00
   -9   15    8     -0.25      0.00
   -7   15    8     -1.60      0.00
   -5   15    8     -2.09      0.00
   -3   15    8     -2.25      0.00
   -1   15    8     -3.25      0.00
    1   15    8     -4.84      0.00
    3   15    8     -5.62      0.00
    5   15    8     -4.65      0.00
    7   15    8     -2.39      0.00
    9   15    8     -0.28      0.00
   11   15    8      0.86      0.00
   13   15    8      1.49      0.00
   15   15    8      1.91      0.00
   17   15    8      1.61      0.00
   19   15    8      0.60      0.00
   21   15    8     -0.15      0.00
  -22   16    8     -0.51      0.00
  -20   16    8     -0.58      0.00
  -18   16    8     -0.17      0.00
  -16   16    8      0.59      0.00
  -14   16    8      0.58      0.00
  -12   16    8     -0.20      0.00
  -10   16    8     -0.22      0.00
   -8   16    8      1.02      0.00
   -6   16    8      2.05      0.00
   -4   16    8      1.86      0.00
   -2   16    8      1.18      0.00
    2   16    8      1.51      0.00
    4   16    8      1.49      0.00
    6   16    8      0.41      0.00
    8   16    8     -0.97      0.00
   10   16    8     -1.52      0.00
   12   16    8     -1.31      0.00
   14   16    8     -1.16      0.00
   16   16    8     -1.00      0.00
   18   16    8     -0.39      0.00
   20   16    8      0.19      0.00
  -21   17    8      0.49      0.00
  -19   17    8      0.43      0.00
  -17   17    8     -0.29      0.00
  -15   17    8     -0.91      0.00
  -13   17    8     -0.51      0.00
  -11   17    8      0.24      0.00
   -9   17    8      0.04      0.00
   -7   17    8     -0.72      0.00
   -5   17    8     -0.51      0.00
   -3   17    8      1.03      0.00
   -1   17    8      2.72      0.00
    1   17    8      3.37      0.00
    3   17    8      3.05      0.00
    5   17    8      2.75      0.00
    7   17    8      2.81      0.00
    9   17    8      2.47      0.00
   11   17    8      1.47      0.00
   13   17    8      0.66      0.00
   15   17    8      0.45      0.00
   17   17    8      0.21      0.00
   19   17    8     -0.22      0.00
   21   17    8     -0.28      0.00
  -20   18    8     -0.20      0.00
  -18   18    8     -0.10      0.00
  -16   18    8      0.52      0.00
  -14   18    8      0.75      0.00
  -12   18    8      0.15      0.00
  -10   18    8     -0.40      0.00
   -8   18    8     -0.31      0.00
   -6   18    8     -0.42      0.00
   -4   18    8     -1.72      0.00
   -2   18    8     -3.84      0.00
    0   18    8     -5.41      0.00
    2   18    8     -5.59      0.00
    4   18    8     -4.87      0.00
    6   18    8     -4.09      0.00
    8   18    8     -3.15      0.00
   10   18    8     -1.74      0.00
   12   18    8     -0.51      0.00
   14   18    8     -0.21      0.00
   16   18    8     -0.32      0.00
   18   18    8     -0.05      0.00
   20   18    8      0.26      0.00
  -19   19    8      0.02      0.00
  -17   19    8      0.01      0.00
  -15   19    8     -0.36      0.00
  -13   19    8     -0.34      0.00
  -11   19    8      0.13      0.00
   -9   19    8      0.42      0.00
   -7   19    8      0.53      0.00
   -5   19    8      1.19      0.00
   -3   19    8      2.65      0.00
   -1   19    8      4.15      0.00
    1   19    8      4.70      0.00
    3   19    8      4.23      0.00
    5   19    8      3.45      0.00
    7   19    8      2.64      0.00
    9   19    8      1.50      0.00
   11   19    8      0.36      0.00
   13   19    8      0.10      0.00
   15   19    8      0.52      0.00
   17   19    8      0.53      0.00
   19   19    8     -0.01      0.00
  -20   20    8      0.32      0.00
  -18   20    8     -0.22      0.00
  -16   20    8     -0.23      0.00
  -14   20    8      0.04      0.00
  -12   20    8      0.09      0.00
  -10   20    8      0.00      0.00
   -8   20    8     -0.06      0.00
   -6   20    8     -0.34      0.00
   -4   20    8     -1.12      0.00
   -2   20    8     -2.06      0.00
    0   20    8     -2.43      0.00
    2   20    8     -2.00      0.00
    4   20    8     -1.34      0.00
    6   20    8     -0.92      0.00
    8   20    8     -0.45      0.00
   10   20    8      0.18      0.00
   12   20    8      0.24      0.00
   14   20    8     -0.46      0.00
   16   20    8     -0.85      0.00
   18   20    8     -0.33      0.00
  -19   21    8      0.23      0.00
  -17   21    8      0.59      0.00
  -15   21    8      0.45      0.00
  -13   21    8      0.10      0.00
  -11   21    8     -0.18      0.00
   -9   21    8     -0.38      0.00
   -7   21    8     -0.34      0.00
   -5   21    8      0.15      0.00
   -3   21    8      0.85      0.00
   -1   21    8      1.08      0.00
    1   21    8      0.50      0.00
    3   21    8     -0.36      0.00
    5   21    8     -0.73      0.00
    7   21    8     -0.74      0.00
    9   21    8     -0.85      0.00
   11   21    8     -0.77      0.00
   13   21    8      0.00      0.00
   15   21    8      0.76      0.00
   17   21    8      0.54      0.00
   19   21    8     -0.22      0.00
  -18   22    8     -0.67      0.00
  -16   22    8     -0.68      0.00
  -14   22    8     -0.40      0.00
  -12   22    8     -0.05      0.00
  -10   22    8      0.32      0.00
   -8   22    8      0.58      0.00
   -6   22    8      0.41      0.00
   -4   22    8     -0.17      0.00
   -2   22    8     -0.55      0.00
    0   22    8     -0.12      0.00
    2   22    8      0.81      0.00
    4   22    8      1.31      0.00
    6   22    8      1.14      0.00
    8   22    8      0.95      0.00
   10   22    8      0.93      0.00
   12   22    8      0.48      0.00
   14   22    8     -0.34      0.00
   16   22    8     -0.54      0.00
   18   22    8      0.05      0.00
  -17   23    8      0.53      0.00
  -15   23    8      0.33      0.00
  -13   23    8      0.18      0.00
  -11   23    8      0.02      0.00
   -9   23    8     -0.29      0.00
   -7   23    8     -0.56      0.00
   -5   23    8     -0.46      0.00
   -3   23    8     -0.16      0.00
   -1   23    8     -0.28      0.00
    1   23    8     -0.91      0.00
    3   23    8     -1.28      0.00
    5   23    8     -0.88      0.00
    7   23    8     -0.33      0.00
    9   23    8     -0.33      0.00
   11   23    8     -0.45      0.00
   13   23    8     -0.04      0.00
   15   23    8      0.37      0.00
   17   23    8      0.12      0.00
  -16   24    8      0.06      0.00
  -14   24    8      0.13      0.00
  -12   24    8     -0.06      0.00
  -10   24    8     -0.10      0.00
   -8   24    8      0.22      0.00
   -6   24    8      0.63      0.00
   -4   24    8      0.82      0.00
   -2   24    8      0.96      0.00
    0   24    8      1.28      0.00
    2   24    8      1.40      0.00
    4   24    8      0.73      0.00
    6   24    8     -0.31      0.00
    8   24    8     -0.63      0.00
   10   24    8     -0.17      0.00
   12   24    8      0.07      0.00
   14   24    8     -0.17      0.00
   16   24    8     -0.21      0.00
  -15   25    8     -0.51      0.00
  -13   25    8     -0.27      0.00
  -11   25    8      0.16      0.00
   -9   25    8      0.26      0.00
   -7   25    8     -0.13      0.00
   -5   25    8     -0.66      0.00
   -3   25    8     -1.03      0.00
   -1   25    8     -1.29      0.00
    1   25    8     -1.35      0.00
    3   25    8     -0.75      0.00
    5   25    8      0.43      0.00
    7   25    8      1.19      0.00
    9   25    8      0.86      0.00
   11   25    8      0.22      0.00
   13   25    8      0.12      0.00
   15   25    8      0.25      0.00
  -14   26    8      0.39      0.00
  -12   26    8     -0.07      0.00
  -10   26    8     -0.53      0.00
   -8   26    8     -0.56      0.00
   -6   26    8     -0.17      0.00
   -4   26    8      0.27      0.00
   -2   26    8      0.52      0.00
    0   26    8      0.63      0.00
    2   26    8      0.44      0.00
    4   26    8     -0.28      0.00
    6   26    8     -1.05      0.00
    8   26    8     -1.06      0.00
   10   26    8     -0.49      0.00
   12   26    8     -0.21      0.00
   14   26    8     -0.33      0.00
  -13   27    8      0.24      0.00
  -11   27    8      0.70      0.00
   -9   27    8      1.00      0.00
   -7   27    8      0.88      0.00
   -5   27    8      0.54      0.00
   -3   27    8      0.32      0.00
   -1   27    8      0.24      0.00
    1   27    8      0.16      0.00
    3   27    8      0.21      0.00
    5   27    8      0.50      0.00
    7   27    8      0.63      0.00
    9   27    8      0.39      0.00
   11   27    8      0.24      0.00
   13   27    8      0.44      0.00
  -12   28    8     -0.91      0.00
  -10   28    8     -1.16      0.00
   -8   28    8     -1.09      0.00
   -6   28    8     -0.74      0.00
   -4   28    8     -0.44      0.00
   -2   28    8     -0.40      0.00
    0   28    8     -0.35      0.00
    2   28    8     -0.11      0.00
    4   28    8      0.08      0.00
    6   28    8      0.11      0.00
    8   28    8      0.12      0.00
   10   28    8      0.02      0.00
   12   28    8     -0.34      0.00
  -11   29    8      1.06      0.00
   -9   29    8      0.92      0.00
   -7   29    8      0.46      0.00
   -5   29    8      0.00      0.00
   -3   29    8     -0.11      0.00
   -1   29    8     -0.01      0.00
    1   29    8     -0.12      0.00
    3   29    8     -0.44      0.00
    5   29    8     -0.66      0.00
    7   29    8     -0.66      0.00
    9   29    8     -0.49      0.00
   -8   30    8     -0.14      0.00
   -6   30    8      0.37      0.00
   -4   30    8      0.56      0.00
   -2   30    8      0.39      0.00
    0   30    8      0.25      0.00
    2   30    8      0.41      0.00
    4   30    8      0.65      0.00
    6   30    8      0.75      0.00
    8   30    8      0.71      0.00
   -5   31    8     -0.51      0.00
   -3   31    8     -0.34      0.00
   -1   31    8     -0.11      0.00
    1   31    8     -0.10      0.00
    3   31    8     -0.25      0.00
  -25    1    9      0.65      0.00
  -23    1    9      0.10      0.00
  -21    1    9     -0.63      0.00
  -19    1    9     -1.21      0.00
  -17    1    9     -1.44      0.00
  -15    1    9     -1.37      0.00
  -13    1    9     -1.21      0.00
  -11    1    9     -1.36      0.00
   -9    1    9     -2.51      0.00
   -7    1    9     -5.23      0.00
   -5    1    9     -9.03      0.00
   -3    1    9    -11.96      0.00
   -1    1    9    -11.86      0.00
    1    1    9     -8.30      0.00
    3    1    9     -3.01      0.00
    5    1    9      1.36      0.00
    7    1    9      2.96      0.00
    9    1    9      1.79      0.00
   11    1    9     -0.47      0.00
   13    1    9     -1.91      0.00
   15    1    9     -1.88      0.00
   17    1    9     -1.08      0.00
   19    1    9     -0.35      0.00
   21    1    9      0.10      0.00
   23    1    9      0.39      0.00
   25    1    9      0.50      0.00
  -24    2    9     -0.85      0.00
  -22    2    9      0.11      0.00
  -20    2    9      1.24      0.00
  -18    2    9      2.18      0.00
  -16    2    9      2.76      0.00
  -14    2    9      3.02      0.00
  -12    2    9      3.17      0.00
  -10    2    9      3.94      0.00
   -8    2    9      6.57      0.00
   -6    2    9     11.46      0.00
   -4    2    9     16.66      0.00
   -2    2    9     18.63      0.00
    0    2    9     15.26      0.00
    2    2    9      7.90      0.00
    4    2    9      0.20      0.00
    6    2    9     -4.39      0.00
    8    2    9     -4.46      0.00
   10    2    9     -1.28      0.00
   12    2    9      2.12      0.00
   14    2    9      3.42      0.00
   16    2    9      2.62      0.00
   18    2    9      1.15      0.00
   20    2    9      0.01      0.00
   22    2    9     -0.69      0.00
   24    2    9     -1.02      0.00
  -25    3    9      1.34      0.00
  -23    3    9      0.92      0.00
  -21    3    9     -0.04      0.00
  -19    3    9     -1.40      0.00
  -17    3    9     -2.96      0.00
  -15    3    9     -4.39      0.00
  -13    3    9     -5.26      0.00
  -11    3    9     -5.60      0.00
   -9    3    9     -6.50      0.00
   -7    3    9     -9.39      0.00
   -5    3    9    -13.89      0.00
   -3    3    9    -17.00      0.00
   -1    3    9    -15.67      0.00
    1    3    9     -9.94      0.00
    3    3    9     -2.67      0.00
    5    3    9      3.02      0.00
    7    3    9      5.19      0.00
    9    3    9      3.53      0.00
   11    3    9     -0.21      0.00
   13    3    9     -3.16      0.00
   15    3    9     -3.65      0.00
   17    3    9     -2.28      0.00
   19    3    9     -0.53      0.00
   21    3    9      0.76      0.00
   23    3    9      1.42      0.00
   25    3    9      1.42      0.00
  -24    4    9     -1.37      0.00
  -22    4    9     -1.24      0.00
  -20    4    9     -0.30      0.00
  -18    4    9      1.59      0.00
  -16    4    9      4.03      0.00
  -14    4    9      6.05      0.00
  -12    4    9      6.67      0.00
  -10    4    9      6.06      0.00
   -8    4    9      5.93      0.00
   -6    4    9      7.66      0.00
   -4    4    9     10.09      0.00
   -2    4    9     10.40      0.00
    0    4    9      7.63      0.00
    2    4    9      3.51      0.00
    4    4    9     -0.11      0.00
    6    4    9     -2.59      0.00
    8    4    9     -3.31      0.00
   10    4    9     -1.73      0.00
   12    4    9      1.14      0.00
   14    4    9      3.09      0.00
   16    4    9      2.98      0.00
   18    4    9      1.47      0.00
   20    4    9     -0.24      0.00
   22    4    9     -1.38      0.00
   24    4    9     -1.67      0.00
  -25    5    9      1.00      0.00
  -23    5    9      1.63      0.00
  -21    5    9      1.55      0.00
  -19    5    9      0.23      0.00
  -17    5    9     -2.25      0.00
  -15    5    9     -4.87      0.00
  -13    5    9     -6.06      0.00
  -11    5    9     -4.89      0.00
   -9    5    9     -2.44      0.00
   -7    5    9     -1.20      0.00
   -5    5    9     -2.10      0.00
   -3    5    9     -3.35      0.00
   -1    5    9     -3.21      0.00
    1    5    9     -2.41      0.00
    3    5    9     -2.20      0.00
    5    5    9     -1.86      0.00
    7    5    9     -0.46      0.00
    9    5    9      0.81      0.00
   11    5    9      0.32      0.00
   13    5    9     -1.40      0.00
   15    5    9     -2.48      0.00
   17    5    9     -2.08      0.00
   19    5    9     -0.73      0.00
   21    5    9      0.61      0.00
   23    5    9      1.32      0.00
  -24    6    9     -1.27      0.00
  -22    6    9     -1.76      0.00
  -20    6    9     -1.23      0.00
  -18    6    9      0.51      0.00
  -16    6    9      2.82      0.00
  -14    6    9      4.20      0.00
  -12    6    9      3.12      0.00
  -10    6    9     -0.36      0.00
   -8    6    9     -3.81      0.00
   -6    6    9     -4.55      0.00
   -4    6    9     -2.79      0.00
   -2    6    9     -0.82      0.00
    0    6    9      0.70      0.00
    2    6    9      2.90      0.00
    4    6    9      5.28      0.00
    6    6    9      5.52      0.00
    8    6    9      3.30      0.00
   10    6    9      1.10      0.00
   12    6    9      0.71      0.00
   14    6    9      1.39      0.00
   16    6    9      1.73      0.00
   18    6    9      1.29      0.00
   20    6    9      0.41      0.00
   22    6    9     -0.38      0.00
   24    6    9     -0.73      0.00
  -23    7    9      1.38      0.00
  -21    7    9      1.27      0.00
  -19    7    9      0.23      0.00
  -17    7    9     -1.37      0.00
  -15    7    9     -2.49      0.00
  -13    7    9     -1.74      0.00
  -11    7    9      1.60      0.00
   -9    7    9      6.04      0.00
   -7    7    9      8.31      0.00
   -5    7    9      6.78      0.00
   -3    7    9      3.32      0.00
   -1    7    9      0.28      0.00
    1    7    9     -2.64      0.00
    3    7    9     -6.18      0.00
    5    7    9     -8.52      0.00
    7    7    9     -7.67      0.00
    9    7    9     -4.73      0.00
   11    7    9     -2.32      0.00
   13    7    9     -1.31      0.00
   15    7    9     -1.02      0.00
   17    7    9     -0.91      0.00
   19    7    9     -0.78      0.00
   21    7    9     -0.47      0.00
   23    7    9     -0.04      0.00
  -24    8    9     -0.94      0.00
  -22    8    9     -0.95      0.00
  -20    8    9     -0.27      0.00
  -18    8    9      0.88      0.00
  -16    8    9      1.79      0.00
  -14    8    9      1.47      0.00
  -12    8    9     -0.91      0.00
  -10    8    9     -4.98      0.00
   -8    8    9     -8.16      0.00
   -6    8    9     -7.66      0.00
   -4    8    9     -3.87      0.00
   -2    8    9      0.13      0.00
    0    8    9      2.90      0.00
    2    8    9      5.65      0.00
    4    8    9      8.47      0.00
    6    8    9      9.33      0.00
    8    8    9      7.50      0.00
   10    8    9      4.74      0.00
   12    8    9      2.57      0.00
   14    8    9      1.10      0.00
   16    8    9      0.32      0.00
   18    8    9      0.31      0.00
   20    8    9      0.56      0.00
   22    8    9      0.48      0.00
   24    8    9      0.11      0.00
  -23    9    9      0.61      0.00
  -21    9    9      0.21      0.00
  -19    9    9     -0.72      0.00
  -17    9    9     -1.70      0.00
  -15    9    9     -2.02      0.00
  -13    9    9     -1.00      0.00
  -11    9    9      1.63      0.00
   -9    9    9      4.64      0.00
   -7    9    9      5.33      0.00
   -5    9    9      2.48      0.00
   -3    9    9     -1.63      0.00
   -1    9    9     -4.16      0.00
    1    9    9     -5.40      0.00
    3    9    9     -6.93      0.00
    5    9    9     -8.12      0.00
    7    9    9     -7.47      0.00
    9    9    9     -5.46      0.00
   11    9    9     -3.47      0.00
   13    9    9     -1.79      0.00
   15    9    9     -0.43      0.00
   17    9    9      0.09      0.00
   19    9    9     -0.16      0.00
   21    9    9     -0.34      0.00
   23    9    9     -0.13      0.00
  -24   10    9     -0.24      0.00
  -22   10    9     -0.16      0.00
  -20   10    9      0.36      0.00
  -18   10    9      1.36      0.00
  -16   10    9      2.35      0.00
  -14   10    9      2.76      0.00
  -12   10    9      2.05      0.00
  -10   10    9      0.24      0.00
   -8   10    9     -1.10      0.00
   -6   10    9      0.02      0.00
   -4   10    9      3.07      0.00
   -2   10    9      5.21      0.00
    0   10    9      5.31      0.00
    2   10    9      5.10      0.00
    4   10    9      5.51      0.00
    6   10    9      5.27      0.00
    8   10    9      3.90      0.00
   10   10    9      2.55      0.00
   12   10    9      1.73      0.00
   14   10    9      0.94      0.00
   16   10    9      0.28      0.00
   18   10    9      0.14      0.00
   20   10    9      0.17      0.00
   22   10    9     -0.09      0.00
  -23   11    9      0.02      0.00
  -21   11    9      0.03      0.00
  -19   11    9     -0.56      0.00
  -17   11    9     -1.76      0.00
  -15   11    9     -3.17      0.00
  -13   11    9     -4.21      0.00
  -11   11    9     -4.16      0.00
   -9   11    9     -3.08      0.00
   -7   11    9     -2.51      0.00
   -5   11    9     -3.51      0.00
   -3   11    9     -4.61      0.00
   -1   11    9     -4.00      0.00
    1   11    9     -2.59      0.00
    3   11    9     -2.16      0.00
    5   11    9     -2.17      0.00
    7   11    9     -1.34      0.00
    9   11    9     -0.32      0.00
   11   11    9     -0.27      0.00
   13   11    9     -0.74      0.00
   15   11    9     -0.88      0.00
   17   11    9     -0.75      0.00
   19   11    9     -0.49      0.00
   21   11    9      0.04      0.00
   23   11    9      0.45      0.00
  -22   12    9     -0.14      0.00
  -20   12    9     -0.15      0.00
  -18   12    9      0.60      0.00
  -16   12    9      2.11      0.00
  -14   12    9      4.05      0.00
  -12   12    9      5.55      0.00
  -10   12    9      5.55      0.00
   -8   12    9      4.22      0.00
   -6   12    9      3.09      0.00
   -4   12    9      2.59      0.00
   -2   12    9      1.41      0.00
    0   12    9     -0.58      0.00
    2   12    9     -1.58      0.00
    4   12    9     -1.17      0.00
    6   12    9     -1.04      0.00
    8   12    9     -1.70      0.00
   10   12    9     -1.69      0.00
   12   12    9     -0.51      0.00
   14   12    9      0.70      0.00
   16   12    9      1.19      0.00
   18   12    9      1.03      0.00
   20   12    9      0.39      0.00
   22   12    9     -0.29      0.00
  -23   13    9      0.02      0.00
  -21   13    9      0.30      0.00
  -19   13    9      0.20      0.00
  -17   13    9     -0.63      0.00
  -15   13    9     -2.26      0.00
  -13   13    9     -4.31      0.00
  -11   13    9     -5.49      0.00
   -9   13    9     -4.65      0.00
   -7   13    9     -2.49      0.00
   -5   13    9     -0.65      0.00
   -3   13    9      0.83      0.00
   -1   13    9      2.70      0.00
    1   13    9      4.00      0.00
    3   13    9      3.53      0.00
    5   13    9      2.49      0.00
    7   13    9      2.50      0.00
    9   13    9      2.84      0.00
   11   13    9      2.03      0.00
   13   13    9      0.44      0.00
   15   13    9     -0.71      0.00
   17   13    9     -1.04      0.00
   19   13    9     -0.71      0.00
   21   13    9     -0.08      0.00
  -22   14    9     -0.04      0.00
  -20   14    9     -0.20      0.00
  -18   14    9     -0.11      0.00
  -16   14    9      0.50      0.00
  -14   14    9      1.87      0.00
  -12   14    9      3.42      0.00
  -10   14    9      3.62      0.00
   -8   14    9      1.88      0.00
   -6   14    9     -0.30      0.00
   -4   14    9     -1.56      0.00
   -2   14    9     -2.45      0.00
    0   14    9     -3.33      0.00
    2   14    9     -3.17      0.00
    4   14    9     -2.02      0.00
    6   14    9     -1.61      0.00
    8   14    9     -2.36      0.00
   10   14    9     -2.68      0.00
   12   14    9     -1.76      0.00
   14   14    9     -0.49      0.00
   16   14    9      0.29      0.00
   18   14    9      0.49      0.00
   20   14    9      0.27      0.00
   22   14    9      0.01      0.00
  -21   15    9     -0.16      0.00
  -19   15    9      0.01      0.00
  -17   15    9      0.16      0.00
  -15   15    9     -0.08      0.00
  -13   15    9     -1.00      0.00
  -11   15    9     -1.80      0.00
   -9   15    9     -1.19      0.00
   -7   15    9      0.41      0.00
   -5   15    9      1.18      0.00
   -3   15    9      0.79      0.00
   -1   15    9      0.44      0.00
    1   15    9      0.24      0.00
    3   15    9     -0.45      0.00
    5   15    9     -0.83      0.00
    7   15    9      0.22      0.00
    9   15    9      1.78      0.00
   11   15    9      2.23      0.00
   13   15    9      1.54      0.00
   15   15    9      0.66      0.00
   17   15    9      0.03      0.00
   19   15    9     -0.22      0.00
   21   15    9     -0.16      0.00
  -22   16    9      0.32      0.00
  -20   16    9      0.23      0.00
  -18   16    9     -0.04      0.00
  -16   16    9     -0.39      0.00
  -14   16    9     -0.33      0.00
  -12   16    9      0.29      0.00
  -10   16    9      0.56      0.00
   -8   16    9     -0.11      0.00
   -6   16    9     -0.52      0.00
   -4   16    9      0.49      0.00
   -2   16    9      1.97      0.00
    0   16    9      2.67      0.00
    2   16    9      2.99      0.00
    4   16    9      3.22      0.00
    6   16    9      2.37      0.00
    8   16    9      0.31      0.00
   10   16    9     -1.40      0.00
   12   16    9     -1.72      0.00
   14   16    9     -1.13      0.00
   16   16    9     -0.37      0.00
   18   16    9      0.17      0.00
   20   16    9      0.29      0.00
  -21   17    9     -0.17      0.00
  -19   17    9      0.00      0.00
  -17   17    9      0.26      0.00
  -15   17    9      0.52      0.00
  -13   17    9      0.35      0.00
  -11   17    9     -0.16      0.00
   -9   17    9     -0.22      0.00
   -7   17    9     -0.03      0.00
   -5   17    9     -0.83      0.00
   -3   17    9     -2.54      0.00
   -1   17    9     -3.59      0.00
    1   17    9     -3.63      0.00
    3   17    9     -3.60      0.00
    5   17    9     -3.35      0.00
    7   17    9     -1.97      0.00
    9   17    9     -0.02      0.00
   11   17    9      1.09      0.00
   13   17    9      1.02      0.00
   15   17    9      0.40      0.00
   17   17    9     -0.21      0.00
   19   17    9     -0.42      0.00
  -20   18    9     -0.21      0.00
  -18   18    9     -0.28      0.00
  -16   18    9     -0.37      0.00
  -14   18    9     -0.44      0.00
  -12   18    9     -0.17      0.00
  -10   18    9      0.16      0.00
   -8   18    9      0.17      0.00
   -6   18    9      0.56      0.00
   -4   18    9      1.91      0.00
   -2   18    9      3.06      0.00
    0   18    9      2.87      0.00
    2   18    9      2.17      0.00
    4   18    9      1.99      0.00
    6   18    9      1.67      0.00
    8   18    9      0.56      0.00
   10   18    9     -0.55      0.00
   12   18    9     -0.81      0.00
   14   18    9     -0.41      0.00
   16   18    9      0.12      0.00
   18   18    9      0.36      0.00
   20   18    9      0.16      0.00
  -19   19    9      0.41      0.00
  -17   19    9      0.34      0.00
  -15   19    9      0.42      0.00
  -13   19    9      0.55      0.00
  -11   19    9      0.44      0.00
   -9   19    9      0.36      0.00
   -7   19    9      0.19      0.00
   -5   19    9     -0.80      0.00
   -3   19    9     -2.18      0.00
   -1   19    9     -2.32      0.00
    1   19    9     -1.09      0.00
    3   19    9     -0.07      0.00
    5   19    9      0.14      0.00
    7   19    9      0.38      0.00
    9   19    9      0.89      0.00
   11   19    9      1.08      0.00
   13   19    9      0.76      0.00
   15   19    9      0.31      0.00
   17   19    9      0.04      0.00
   19   19    9      0.08      0.00
  -18   20    9     -0.31      0.00
  -16   20    9     -0.36      0.00
  -14   20    9     -0.76      0.00
  -12   20    9     -1.12      0.00
  -10   20    9     -1.24      0.00
   -8   20    9     -1.23      0.00
   -6   20    9     -0.59      0.00
   -4   20    9      0.94      0.00
   -2   20    9      2.03      0.00
    0   20    9      1.31      0.00
    2   20    9     -0.40      0.00
    4   20    9     -1.47      0.00
    6   20    9     -1.76      0.00
    8   20    9     -1.86      0.00
   10   20    9     -1.79      0.00
   12   20    9     -1.41      0.00
   14   20    9     -0.95      0.00
   16   20    9     -0.63      0.00
   18   20    9     -0.47      0.00
  -19   21    9      0.20      0.00
  -17   21    9      0.20      0.00
  -15   21    9      0.59      0.00
  -13   21    9      1.27      0.00
  -11   21    9      1.70      0.00
   -9   21    9      1.85      0.00
   -7   21    9      1.67      0.00
   -5   21    9      0.61      0.00
   -3   21    9     -1.00      0.00
   -1   21    9     -1.51      0.00
    1   21    9     -0.30      0.00
    3   21    9      1.33      0.00
    5   21    9      2.19      0.00
    7   21    9      2.38      0.00
    9   21    9      2.24      0.00
   11   21    9      1.84      0.00
   13   21    9      1.39      0.00
   15   21    9      1.05      0.00
   17   21    9      0.75      0.00
  -18   22    9     -0.11      0.00
  -16   22    9     -0.21      0.00
  -14   22    9     -0.79      0.00
  -12   22    9     -1.38      0.00
  -10   22    9     -1.60      0.00
   -8   22    9     -1.69      0.00
   -6   22    9     -1.47      0.00
   -4   22    9     -0.44      0.00
   -2   22    9      0.70      0.00
    0   22    9      0.67      0.00
    2   22    9     -0.45      0.00
    4   22    9     -1.48      0.00
    6   22    9     -1.87      0.00
    8   22    9     -1.83      0.00
   10   22    9     -1.56      0.00
   12   22    9     -1.24      0.00
   14   22    9     -1.02      0.00
   16   22    9     -0.75      0.00
   18   22    9     -0.33      0.00
  -17   23    9     -0.03      0.00
  -15   23    9      0.10      0.00
  -13   23    9      0.58      0.00
  -11   23    9      0.83      0.00
   -9   23    9      0.84      0.00
   -7   23    9      1.01      0.00
   -5   23    9      0.95      0.00
   -3   23    9      0.25      0.00
   -1   23    9     -0.42      0.00
    1   23    9     -0.32      0.00
    3   23    9      0.25      0.00
    5   23    9      0.64      0.00
    7   23    9      0.74      0.00
    9   23    9      0.64      0.00
   11   23    9      0.52      0.00
   13   23    9      0.50      0.00
   15   23    9      0.43      0.00
   17   23    9      0.12      0.00
  -16   24    9      0.37      0.00
  -14   24    9      0.21      0.00
  -12   24    9     -0.11      0.00
  -10   24    9     -0.07      0.00
   -8   24    9     -0.04      0.00
   -6   24    9     -0.32      0.00
   -4   24    9     -0.32      0.00
   -2   24    9      0.28      0.00
    0   24    9      0.90      0.00
    2   24    9      1.02      0.00
    4   24    9      0.76      0.00
    6   24    9      0.46      0.00
    8   24    9      0.29      0.00
   10   24    9      0.28      0.00
   12   24    9      0.22      0.00
   14   24    9      0.09      0.00
   16   24    9      0.14      0.00
  -15   25    9     -0.72      0.00
  -13   25    9     -0.36      0.00
  -11   25    9     -0.13      0.00
   -9   25    9     -0.29      0.00
   -7   25    9     -0.28      0.00
   -5   25    9     -0.04      0.00
   -3   25    9     -0.29      0.00
   -1   25    9     -1.12      0.00
    1   25    9     -1.82      0.00
    3   25    9     -1.83      0.00
    5   25    9     -1.27      0.00
    7   25    9     -0.70      0.00
    9   25    9     -0.52      0.00
   11   25    9     -0.60      0.00
   13   25    9     -0.56      0.00
   15   25    9     -0.42      0.00
  -14   26    9      0.64      0.00
  -12   26    9      0.06      0.00
  -10   26    9     -0.08      0.00
   -8   26    9      0.07      0.00
   -6   26    9     -0.06      0.00
   -4   26    9     -0.13      0.00
   -2   26    9      0.50      0.00
    0   26    9      1.53      0.00
    2   26    9      1.99      0.00
    4   26    9      1.45      0.00
    6   26    9      0.48      0.00
    8   26    9     -0.01      0.00
   10   26    9      0.23      0.00
   12   26    9      0.59      0.00
   14   26    9      0.60      0.00
  -13   27    9     -0.10      0.00
  -11   27    9      0.48      0.00
   -9   27    9      0.55      0.00
   -7   27    9      0.61      0.00
   -5   27    9      0.89      0.00
   -3   27    9      0.71      0.00
   -1   27    9     -0.24      0.00
    1   27    9     -1.15      0.00
    3   27    9     -1.02      0.00
    5   27    9      0.02      0.00
    7   27    9      0.87      0.00
    9   27    9      0.75      0.00
   11   27    9      0.03      0.00
  -10   28    9     -0.83      0.00
   -8   28    9     -0.95      0.00
   -6   28    9     -1.26      0.00
   -4   28    9     -1.48      0.00
   -2   28    9     -0.93      0.00
    0   28    9      0.10      0.00
    2   28    9      0.51      0.00
    4   28    9     -0.21      0.00
    6   28    9     -1.27      0.00
    8   28    9     -1.55      0.00
   10   28    9     -0.90      0.00
   -9   29    9      0.75      0.00
   -7   29    9      0.93      0.00
   -5   29    9      1.21      0.00
   -3   29    9      1.05      0.00
   -1   29    9      0.24      0.00
    1   29    9     -0.45      0.00
    3   29    9     -0.18      0.00
    5   29    9      0.80      0.00
    7   29    9      1.48      0.00
    9   29    9      1.27      0.00
   -8   30    9     -0.26      0.00
   -6   30    9     -0.36      0.00
   -4   30    9     -0.36      0.00
   -2   30    9      0.08      0.00
    0   30    9      0.70      0.00
    2   30    9      0.77      0.00
    4   30    9      0.10      0.00
    6   30    9     -0.65      0.00
   -3   31    9     -0.39      0.00
   -1   31    9     -0.70      0.00
    1   31    9     -0.85      0.00
    3   31    9     -0.55      0.00
  -24    0   10      0.57      0.00
  -22    0   10     -0.78      0.00
  -20    0   10     -3.11      0.00
  -18    0   10     -3.91      0.00
  -16    0   10     -2.31      0.00
  -14    0   10     -0.33      0.00
  -12    0   10      1.81      0.00
  -10    0   10      5.06      0.00
   -8    0   10      5.39      0.00
   -6    0   10     -2.39      0.00
   -4    0   10    -14.47      0.00
   -2    0   10    -21.13      0.00
    0    0   10    -19.78      0.00
    2    0   10    -16.11      0.00
    4    0   10    -13.82      0.00
    6    0   10    -11.13      0.00
    8    0   10     -6.46      0.00
   10    0   10     -1.65      0.00
   12    0   10      0.90      0.00
   14    0   10      1.24      0.00
   16    0   10      1.21      0.00
   18    0   10      1.74      0.00
   20    0   10      2.02      0.00
   22    0   10      1.40      0.00
   24    0   10      0.50      0.00
  -25    1   10     -0.83      0.00
  -23    1   10     -0.17      0.00
  -21    1   10      1.81      0.00
  -19    1   10      3.72      0.00
  -17    1   10      3.31      0.00
  -15    1   10      1.50      0.00
  -13    1   10     -0.20      0.00
  -11    1   10     -3.08      0.00
   -9    1   10     -6.20      0.00
   -7    1   10     -3.68      0.00
   -5    1   10      6.07      0.00
   -3    1   10     15.10      0.00
   -1    1   10     16.46      0.00
    1    1   10     13.01      0.00
    3    1   10     10.70      0.00
    5    1   10      9.75      0.00
    7    1   10      7.12      0.00
    9    1   10      2.71      0.00
   11    1   10     -0.77      0.00
   13    1   10     -1.79      0.00
   15    1   10     -1.49      0.00
   17    1   10     -1.62      0.00
   19    1   10     -2.17      0.00
   21    1   10     -2.05      0.00
   23    1   10     -1.19      0.00
  -24    2   10      0.75      0.00
  -22    2   10     -0.38      0.00
  -20    2   10     -2.56      0.00
  -18    2   10     -3.60      0.00
  -16    2   10     -2.67      0.00
  -14    2   10     -1.42      0.00
  -12    2   10      0.56      0.00
  -10    2   10      4.80      0.00
   -8    2   10      7.61      0.00
   -6    2   10      3.73      0.00
   -4    2   10     -3.77      0.00
    0    2   10     -3.50      0.00
    2    2   10     -0.92      0.00
    4    2   10     -1.96      0.00
    6    2   10     -3.20      0.00
    8    2   10     -1.57      0.00
   10    2   10      1.51      0.00
   12    2   10      3.08      0.00
   14    2   10      2.60      0.00
   16    2   10      1.91      0.00
   18    2   10      2.18      0.00
   20    2   10      2.59      0.00
   22    2   10      2.17      0.00
   24    2   10      1.28      0.00
  -25    3   10     -0.86      0.00
  -23    3   10     -0.58      0.00
  -21    3   10      0.97      0.00
  -19    3   10      2.84      0.00
  -17    3   10      3.11      0.00
  -15    3   10      2.37      0.00
  -13    3   10      1.30      0.00
  -11    3   10     -2.25      0.00
   -9    3   10     -7.90      0.00
   -7    3   10     -9.89      0.00
   -5    3   10     -6.03      0.00
   -3    3   10     -2.77      0.00
   -1    3   10     -5.16      0.00
    1    3   10     -8.95      0.00
    3    3   10     -8.09      0.00
    5    3   10     -3.81      0.00
    7    3   10     -1.37      0.00
    9    3   10     -2.35      0.00
   11    3   10     -3.99      0.00
   13    3   10     -3.83      0.00
   15    3   10     -2.52      0.00
   17    3   10     -1.96      0.00
   19    3   10     -2.40      0.00
   21    3   10     -2.56      0.00
   23    3   10     -1.97      0.00
  -24    4   10      0.79      0.00
  -22    4   10      0.31      0.00
  -20    4   10     -1.38      0.00
  -18    4   10     -2.56      0.00
  -16    4   10     -2.39      0.00
  -14    4   10     -1.89      0.00
  -12    4   10      0.17      0.00
  -10    4   10      5.75      0.00
   -8    4   10     11.32      0.00
   -6    4   10     11.31      0.00
   -4    4   10      7.89      0.00
   -2    4   10      8.20      0.00
    0    4   10     12.49      0.00
    2    4   10     14.04      0.00
    4    4   10      9.95      0.00
    6    4   10      4.60      0.00
    8    4   10      2.54      0.00
   10    4   10      3.30      0.00
   12    4   10      3.77      0.00
   14    4   10      2.76      0.00
   16    4   10      1.65      0.00
   18    4   10      1.64      0.00
   20    4   10      2.03      0.00
   22    4   10      1.85      0.00
   24    4   10      1.32      0.00
  -23    5   10     -0.78      0.00
  -21    5   10     -0.10      0.00
  -19    5   10      1.23      0.00
  -17    5   10      1.62      0.00
  -15    5   10      1.39      0.00
  -13    5   10      0.71      0.00
  -11    5   10     -2.89      0.00
   -9    5   10     -9.10      0.00
   -7    5   10    -12.13      0.00
   -5    5   10     -9.43      0.00
   -3    5   10     -6.83      0.00
   -1    5   10     -9.32      0.00
    1    5   10    -13.04      0.00
    3    5   10    -11.96      0.00
    5    5   10     -6.68      0.00
    7    5   10     -2.27      0.00
    9    5   10     -1.19      0.00
   11    5   10     -1.74      0.00
   13    5   10     -1.69      0.00
   15    5   10     -1.02      0.00
   17    5   10     -0.85      0.00
   19    5   10     -1.17      0.00
   21    5   10     -1.13      0.00
   23    5   10     -0.72      0.00
  -24    6   10      0.33      0.00
  -22    6   10      0.85      0.00
  -20    6   10      0.25      0.00
  -18    6   10     -0.34      0.00
  -16    6   10     -0.30      0.00
  -14    6   10     -0.44      0.00
  -12    6   10      0.61      0.00
  -10    6   10      4.93      0.00
   -8    6   10      9.36      0.00
   -6    6   10      8.59      0.00
   -4    6   10      4.39      0.00
   -2    6   10      3.63      0.00
    0    6   10      7.36      0.00
    2    6   10      9.71      0.00
    4    6   10      7.14      0.00
    6    6   10      2.43      0.00
    8    6   10     -0.45      0.00
   10    6   10     -0.86      0.00
   12    6   10     -0.45      0.00
   14    6   10     -0.26      0.00
   16    6   10      0.08      0.00
   18    6   10      0.64      0.00
   20    6   10      0.69      0.00
   22    6   10      0.09      0.00
   24    6   10     -0.25      0.00
  -23    7   10     -0.49      0.00
  -21    7   10     -1.07      0.00
  -19    7   10     -0.92      0.00
  -17    7   10     -0.94      0.00
  -15    7   10     -0.54      0.00
  -13    7   10      0.38      0.00
  -11    7   10     -0.76      0.00
   -9    7   10     -4.34      0.00
   -7    7   10     -5.63      0.00
   -5    7   10     -2.21      0.00
   -3    7   10      0.94      0.00
   -1    7   10     -0.97      0.00
    1    7   10     -5.21      0.00
    3    7   10     -6.30      0.00
    5    7   10     -3.50      0.00
    7    7   10     -0.09      0.00
    9    7   10      1.57      0.00
   11    7   10      1.76      0.00
   13    7   10      1.47      0.00
   15    7   10      0.83      0.00
   17    7   10     -0.18      0.00
   19    7   10     -0.73      0.00
   21    7   10     -0.18      0.00
   23    7   10      0.66      0.00
  -24    8   10     -0.53      0.00
  -22    8   10      0.81      0.00
  -20    8   10      1.52      0.00
  -18    8   10      1.83      0.00
  -16    8   10      1.64      0.00
  -14    8   10     -0.05      0.00
  -12    8   10     -1.77      0.00
  -10    8   10     -0.79      0.00
   -8    8   10      1.17      0.00
   -6    8   10     -0.09      0.00
   -4    8   10     -3.52      0.00
   -2    8   10     -3.66      0.00
    0    8   10      0.61      0.00
    2    8   10      4.61      0.00
    4    8   10      4.87      0.00
    6    8   10      2.60      0.00
    8    8   10      0.51      0.00
   10    8   10     -0.54      0.00
   12    8   10     -1.08      0.00
   14    8   10     -1.24      0.00
   16    8   10     -0.59      0.00
   18    8   10      0.43      0.00
   20    8   10      0.58      0.00
   22    8   10     -0.29      0.00
  -23    9   10      0.04      0.00
  -21    9   10     -1.29      0.00
  -19    9   10     -2.07      0.00
  -17    9   10     -2.33      0.00
  -15    9   10     -0.99      0.00
  -13    9   10      2.09      0.00
  -11    9   10      3.99      0.00
   -9    9   10      3.13      0.00
   -7    9   10      2.59      0.00
   -5    9   10      4.60      0.00
   -3    9   10      5.83      0.00
   -1    9   10      2.72      0.00
    1    9   10     -2.63      0.00
    3    9   10     -5.76      0.00
    5    9   10     -5.52      0.00
    7    9   10     -3.95      0.00
    9    9   10     -2.62      0.00
   11    9   10     -1.37      0.00
   13    9   10      0.12      0.00
   15    9   10      1.06      0.00
   17    9   10      0.68      0.00
   19    9   10     -0.16      0.00
   21    9   10     -0.14      0.00
   23    9   10      0.56      0.00
  -24   10   10     -0.61      0.00
  -22   10   10      0.71      0.00
  -20   10   10      1.75      0.00
  -18   10   10      2.37      0.00
  -16   10   10      1.94      0.00
  -14   10   10     -0.76      0.00
  -12   10   10     -4.30      0.00
  -10   10   10     -5.45      0.00
   -8   10   10     -4.47      0.00
   -6   10   10     -4.60      0.00
   -4   10   10     -5.69      0.00
   -2   10   10     -4.09      0.00
    0   10   10      0.96      0.00
    2   10   10      5.84      0.00
    4   10   10      7.60      0.00
    6   10   10      6.86      0.00
    8   10   10      5.60      0.00
   10   10   10      4.31      0.00
   12   10   10      2.24      0.00
   14   10   10     -0.32      0.00
   16   10   10     -1.70      0.00
   18   10   10     -1.25      0.00
   20   10   10     -0.33      0.00
   22   10   10     -0.21      0.00
  -23   11   10     -0.34      0.00
  -21   11   10     -1.26      0.00
  -19   11   10     -1.89      0.00
  -17   11   10     -2.23      0.00
  -15   11   10     -1.02      0.00
  -13   11   10      2.21      0.00
  -11   11   10      4.83      0.00
   -9   11   10      4.67      0.00
   -7   11   10      3.61      0.00
   -5   11   10      3.85      0.00
   -3   11   10      3.55      0.00
   -1   11   10      0.18      0.00
    1   11   10     -4.88      0.00
    3   11   10     -8.10      0.00
    5   11   10     -8.27      0.00
    7   11   10     -7.01      0.00
    9   11   10     -5.80      0.00
   11   11   10     -4.18      0.00
   13   11   10     -1.36      0.00
   15   11   10      1.52      0.00
   17   11   10      2.47      0.00
   19   11   10      1.52      0.00
   21   11   10      0.46      0.00
   23   11   10      0.16      0.00
  -22   12   10      0.87      0.00
  -20   12   10      1.21      0.00
  -18   12   10      1.71      0.00
  -16   12   10      2.00      0.00
  -14   12   10      0.59      0.00
  -12   12   10     -1.92      0.00
  -10   12   10     -2.80      0.00
   -8   12   10     -1.70      0.00
   -6   12   10     -1.12      0.00
   -4   12   10     -1.62      0.00
   -2   12   10     -0.72      0.00
    0   12   10      2.69      0.00
    2   12   10      6.31      0.00
    4   12   10      7.58      0.00
    6   12   10      6.63      0.00
    8   12   10      5.32      0.00
   10   12   10      4.33      0.00
   12   12   10      2.56      0.00
   14   12   10     -0.30      0.00
   16   12   10     -2.43      0.00
   18   12   10     -2.35      0.00
   20   12   10     -1.04      0.00
   22   12   10     -0.12      0.00
  -23   13   10     -0.46      0.00
  -21   13   10     -0.58      0.00
  -19   13   10     -0.74      0.00
  -17   13   10     -1.64      0.00
  -15   13   10     -2.21      0.00
  -13   13   10     -1.25      0.00
  -11   13   10     -0.13      0.00
   -9   13   10     -0.63      0.00
   -7   13   10     -1.56      0.00
   -5   13   10     -0.92      0.00
   -3   13   10      0.33      0.00
   -1   13   10     -0.20      0.00
    1   13   10     -2.59      0.00
    3   13   10     -4.55      0.00
    5   13   10     -4.51      0.00
    7   13   10     -3.38      0.00
    9   13   10     -2.70      0.00
   11   13   10     -2.22      0.00
   13   13   10     -0.70      0.00
   15   13   10      1.41      0.00
   17   13   10      2.21      0.00
   19   13   10      1.33      0.00
   21   13   10      0.22      0.00
  -22   14   10      0.07      0.00
  -20   14   10     -0.08      0.00
  -18   14   10      0.51      0.00
  -16   14   10      1.98      0.00
  -14   14   10      2.74      0.00
  -12   14   10      2.30      0.00
  -10   14   10      2.26      0.00
   -8   14   10      3.07      0.00
   -6   14   10      2.90      0.00
   -4   14   10      0.91      0.00
   -2   14   10     -1.02      0.00
    0   14   10     -0.96      0.00
    2   14   10      0.50      0.00
    4   14   10      1.30      0.00
    6   14   10      0.75      0.00
    8   14   10      0.15      0.00
   10   14   10      0.38      0.00
   12   14   10      0.46      0.00
   14   14   10     -0.53      0.00
   16   14   10     -1.50      0.00
   18   14   10     -1.20      0.00
   20   14   10     -0.27      0.00
   22   14   10      0.22      0.00
  -21   15   10      0.41      0.00
  -19   15   10      0.32      0.00
  -17   15   10     -0.83      0.00
  -15   15   10     -2.30      0.00
  -13   15   10     -2.69      0.00
  -11   15   10     -2.42      0.00
   -9   15   10     -2.77      0.00
   -7   15   10     -3.14      0.00
   -5   15   10     -1.89      0.00
   -3   15   10      0.66      0.00
   -1   15   10      2.40      0.00
    1   15   10      2.24      0.00
    3   15   10      1.36      0.00
    5   15   10      1.40      0.00
    7   15   10      2.09      0.00
    9   15   10      1.95      0.00
   11   15   10      0.96      0.00
   13   15   10      0.54      0.00
   15   15   10      0.94      0.00
   17   15   10      0.95      0.00
   19   15   10      0.28      0.00
   21   15   10     -0.14      0.00
  -20   16   10     -0.40      0.00
  -18   16   10      0.04      0.00
  -16   16   10      1.18      0.00
  -14   16   10      1.90      0.00
  -12   16   10      1.61      0.00
  -10   16   10      1.37      0.00
   -8   16   10      1.74      0.00
   -6   16   10      1.56      0.00
   -4   16   10     -0.08      0.00
   -2   16   10     -2.12      0.00
    0   16   10     -2.87      0.00
    2   16   10     -2.30      0.00
    4   16   10     -2.02      0.00
    6   16   10     -2.78      0.00
    8   16   10     -3.31      0.00
   10   16   10     -2.47      0.00
   12   16   10     -1.19      0.00
   14   16   10     -0.77      0.00
   16   16   10     -0.76      0.00
   18   16   10     -0.32      0.00
   20   16   10      0.11      0.00
  -21   17   10      0.05      0.00
  -19   17   10      0.05      0.00
  -17   17   10     -0.46      0.00
  -15   17   10     -1.09      0.00
  -13   17   10     -0.97      0.00
  -11   17   10     -0.40      0.00
   -9   17   10     -0.32      0.00
   -7   17   10     -0.52      0.00
   -5   17   10      0.13      0.00
   -3   17   10      1.65      0.00
   -1   17   10      2.67      0.00
    1   17   10      2.30      0.00
    3   17   10      1.53      0.00
    5   17   10      1.81      0.00
    7   17   10      2.76      0.00
    9   17   10      2.72      0.00
   11   17   10      1.54      0.00
   13   17   10      0.66      0.00
   15   17   10      0.56      0.00
   17   17   10      0.34      0.00
   19   17   10     -0.12      0.00
  -20   18   10      0.10      0.00
  -18   18   10      0.15      0.00
  -16   18   10      0.60      0.00
  -14   18   10      0.86      0.00
  -12   18   10      0.54      0.00
  -10   18   10      0.21      0.00
   -8   18   10      0.23      0.00
   -6   18   10     -0.08      0.00
   -4   18   10     -1.24      0.00
   -2   18   10     -2.49      0.00
    0   18   10     -2.51      0.00
    2   18   10     -1.35      0.00
    4   18   10     -0.55      0.00
    6   18   10     -0.94      0.00
    8   18   10     -1.41      0.00
   10   18   10     -0.88      0.00
   12   18   10     -0.16      0.00
   14   18   10     -0.18      0.00
   16   18   10     -0.32      0.00
   18   18   10      0.06      0.00
   20   18   10      0.35      0.00
  -19   19   10      0.09      0.00
  -17   19   10     -0.13      0.00
  -15   19   10     -0.70      0.00
  -13   19   10     -1.01      0.00
  -11   19   10     -0.96      0.00
   -9   19   10     -0.90      0.00
   -7   19   10     -0.68      0.00
   -5   19   10      0.25      0.00
   -3   19   10      1.72      0.00
   -1   19   10      2.50      0.00
    1   19   10      1.72      0.00
    3   19   10      0.20      0.00
    5   19   10     -0.52      0.00
    7   19   10     -0.37      0.00
    9   19   10     -0.40      0.00
   11   19   10     -0.69      0.00
   13   19   10     -0.38      0.00
   15   19   10      0.26      0.00
   17   19   10      0.22      0.00
   19   19   10     -0.34      0.00
  -18   20   10     -0.39      0.00
  -16   20   10      0.11      0.00
  -14   20   10      0.83      0.00
  -12   20   10      1.22      0.00
  -10   20   10      1.32      0.00
   -8   20   10      1.28      0.00
   -6   20   10      0.84      0.00
   -4   20   10     -0.25      0.00
   -2   20   10     -1.41      0.00
    0   20   10     -1.53      0.00
    2   20   10     -0.39      0.00
    4   20   10      0.85      0.00
    6   20   10      1.23      0.00
    8   20   10      1.20      0.00
   10   20   10      1.23      0.00
   12   20   10      0.80      0.00
   14   20   10     -0.18      0.00
   16   20   10     -0.64      0.00
   18   20   10     -0.12      0.00
  -17   21   10      0.50      0.00
  -15   21   10     -0.05      0.00
  -13   21   10     -0.53      0.00
  -11   21   10     -0.68      0.00
   -9   21   10     -0.71      0.00
   -7   21   10     -0.76      0.00
   -5   21   10     -0.58      0.00
   -3   21   10      0.02      0.00
   -1   21   10      0.53      0.00
    1   21   10      0.26      0.00
    3   21   10     -0.52      0.00
    5   21   10     -0.92      0.00
    7   21   10     -0.84      0.00
    9   21   10     -0.80      0.00
   11   21   10     -0.60      0.00
   13   21   10      0.20      0.00
   15   21   10      0.96      0.00
   17   21   10      0.74      0.00
  -18   22   10     -0.64      0.00
  -16   22   10     -0.55      0.00
  -14   22   10     -0.37      0.00
  -12   22   10     -0.41      0.00
  -10   22   10     -0.59      0.00
   -8   22   10     -0.52      0.00
   -6   22   10     -0.13      0.00
   -4   22   10      0.19      0.00
   -2   22   10      0.13      0.00
    0   22   10     -0.01      0.00
    2   22   10      0.06      0.00
    4   22   10      0.04      0.00
    6   22   10     -0.28      0.00
    8   22   10     -0.43      0.00
   10   22   10     -0.30      0.00
   12   22   10     -0.51      0.00
   14   22   10     -1.07      0.00
   16   22   10     -1.11      0.00
  -17   23   10      0.54      0.00
  -15   23   10      0.69      0.00
  -13   23   10      0.94      0.00
  -11   23   10      1.33      0.00
   -9   23   10      1.59      0.00
   -7   23   10      1.35      0.00
   -5   23   10      0.69      0.00
   -3   23   10      0.19      0.00
   -1   23   10      0.16      0.00
    1   23   10      0.39      0.00
    3   23   10      0.74      0.00
    5   23   10      1.26      0.00
    7   23   10      1.58      0.00
    9   23   10      1.34      0.00
   11   23   10      0.99      0.00
   13   23   10      1.07      0.00
   15   23   10      1.14      0.00
  -16   24   10     -0.45      0.00
  -14   24   10     -0.70      0.00
  -12   24   10     -1.04      0.00
  -10   24   10     -1.44      0.00
   -8   24   10     -1.60      0.00
   -6   24   10     -1.22      0.00
   -4   24   10     -0.59      0.00
   -2   24   10     -0.30      0.00
    0   24   10     -0.47      0.00
    2   24   10     -0.87      0.00
    4   24   10     -1.39      0.00
    6   24   10     -1.79      0.00
    8   24   10     -1.67      0.00
   10   24   10     -1.17      0.00
   12   24   10     -0.94      0.00
   14   24   10     -0.98      0.00
  -15   25   10      0.24      0.00
  -13   25   10      0.35      0.00
  -11   25   10      0.56      0.00
   -9   25   10      0.81      0.00
   -7   25   10      0.76      0.00
   -5   25   10      0.29      0.00
   -3   25   10     -0.14      0.00
   -1   25   10     -0.17      0.00
    1   25   10      0.11      0.00
    3   25   10      0.51      0.00
    5   25   10      0.89      0.00
    7   25   10      0.96      0.00
    9   25   10      0.64      0.00
   11   25   10      0.44      0.00
   13   25   10      0.61      0.00
  -12   26   10      0.04      0.00
  -10   26   10     -0.07      0.00
   -8   26   10     -0.11      0.00
   -6   26   10      0.21      0.00
   -4   26   10      0.72      0.00
   -2   26   10      0.97      0.00
    0   26   10      0.90      0.00
    2   26   10      0.70      0.00
    4   26   10      0.46      0.00
    6   26   10      0.30      0.00
    8   26   10      0.39      0.00
   10   26   10      0.44      0.00
   12   26   10      0.06      0.00
  -11   27   10      0.08      0.00
   -9   27   10      0.13      0.00
   -7   27   10     -0.07      0.00
   -5   27   10     -0.54      0.00
   -3   27   10     -0.91      0.00
   -1   27   10     -1.05      0.00
    1   27   10     -1.12      0.00
    3   27   10     -1.18      0.00
    5   27   10     -1.15      0.00
    7   27   10     -1.15      0.00
    9   27   10     -1.14      0.00
   11   27   10     -0.77      0.00
  -10   28   10     -0.68      0.00
   -8   28   10     -0.65      0.00
   -6   28   10     -0.38      0.00
   -4   28   10     -0.08      0.00
   -2   28   10      0.10      0.00
    0   28   10      0.34      0.00
    2   28   10      0.74      0.00
    4   28   10      1.03      0.00
    6   28   10      1.09      0.00
    8   28   10      1.10      0.00
   10   28   10      0.94      0.00
   -9   29   10      1.16      0.00
   -7   29   10      1.13      0.00
   -5   29   10      1.02      0.00
   -3   29   10      0.94      0.00
   -1   29   10      0.71      0.00
    1   29   10      0.16      0.00
    3   29   10     -0.39      0.00
    5   29   10     -0.55      0.00
    7   29   10     -0.47      0.00
   -6   30   10     -1.12      0.00
   -4   30   10     -1.13      0.00
   -2   30   10     -0.97      0.00
    0   30   10     -0.47      0.00
    2   30   10      0.11      0.00
    4   30   10      0.28      0.00
   -3   31   10      0.48      0.00
   -1   31   10      0.11      0.00
    1   31   10     -0.36      0.00
  -23    1   11     -0.06      0.00
  -21    1   11      0.14      0.00
  -19    1   11      0.43      0.00
  -17    1   11      0.59      0.00
  -15    1   11      0.29      0.00
  -13    1   11     -0.50      0.00
  -11    1   11     -1.31      0.00
   -9    1   11     -1.65      0.00
   -7    1   11     -1.55      0.00
   -5    1   11     -1.18      0.00
   -3    1   11     -0.08      0.00
   -1    1   11      2.40      0.00
    1    1   11      5.89      0.00
    3    1   11      8.92      0.00
    5    1   11     10.20      0.00
    7    1   11      9.43      0.00
    9    1   11      7.14      0.00
   11    1   11      4.23      0.00
   13    1   11      1.73      0.00
   15    1   11      0.34      0.00
   17    1   11      0.05      0.00
   19    1   11      0.32      0.00
   21    1   11      0.62      0.00
   23    1   11      0.72      0.00
  -24    2   11     -0.03      0.00
  -22    2   11     -0.37      0.00
  -20    2   11     -0.79      0.00
  -18    2   11     -1.03      0.00
  -16    2   11     -0.70      0.00
  -14    2   11      0.42      0.00
  -12    2   11      1.81      0.00
  -10    2   11      2.53      0.00
   -8    2   11      2.46      0.00
   -6    2   11      2.32      0.00
   -4    2   11      1.99      0.00
   -2    2   11     -0.06      0.00
    0    2   11     -4.64      0.00
    2    2   11    -10.13      0.00
    4    2   11    -13.89      0.00
    6    2   11    -14.49      0.00
    8    2   11    -12.17      0.00
   10    2   11     -8.06      0.00
   12    2   11     -3.74      0.00
   14    2   11     -0.69      0.00
   16    2   11      0.51      0.00
   18    2   11      0.35      0.00
   20    2   11     -0.25      0.00
   22    2   11     -0.69      0.00
   24    2   11     -0.86      0.00
  -23    3   11      0.77      0.00
  -21    3   11      1.42      0.00
  -19    3   11      1.60      0.00
  -17    3   11      1.04      0.00
  -15    3   11     -0.33      0.00
  -13    3   11     -2.04      0.00
  -11    3   11     -2.96      0.00
   -9    3   11     -2.61      0.00
   -7    3   11     -2.23      0.00
   -5    3   11     -2.94      0.00
   -3    3   11     -3.40      0.00
   -1    3   11     -1.16      0.00
    1    3   11      3.83      0.00
    3    3   11      8.84      0.00
    5    3   11     11.35      0.00
    7    3   11     10.81      0.00
    9    3   11      7.94      0.00
   11    3   11      3.98      0.00
   13    3   11      0.49      0.00
   15    3   11     -1.40      0.00
   17    3   11     -1.65      0.00
   19    3   11     -1.07      0.00
   21    3   11     -0.37      0.00
   23    3   11      0.15      0.00
  -24    4   11     -0.87      0.00
  -22    4   11     -2.01      0.00
  -20    4   11     -2.39      0.00
  -18    4   11     -1.63      0.00
  -16    4   11      0.14      0.00
  -14    4   11      2.29      0.00
  -12    4   11      3.58      0.00
  -10    4   11      3.02      0.00
   -8    4   11      1.67      0.00
   -6    4   11      1.93      0.00
   -4    4   11      4.16      0.00
   -2    4   11      5.55      0.00
    0    4   11      3.87      0.00
    2    4   11      0.30      0.00
    4    4   11     -2.57      0.00
    6    4   11     -3.60      0.00
    8    4   11     -3.03      0.00
   10    4   11     -1.31      0.00
   12    4   11      0.81      0.00
   14    4   11      2.30      0.00
   16    4   11      2.67      0.00
   18    4   11      2.29      0.00
   20    4   11      1.68      0.00
   22    4   11      1.07      0.00
   24    4   11      0.45      0.00
  -23    5   11      1.91      0.00
  -21    5   11      2.85      0.00
  -19    5   11      2.35      0.00
  -17    5   11      0.45      0.00
  -15    5   11     -2.12      0.00
  -13    5   11     -4.12      0.00
  -11    5   11     -4.09      0.00
   -9    5   11     -2.10      0.00
   -7    5   11     -0.72      0.00
   -5    5   11     -2.29      0.00
   -3    5   11     -5.61      0.00
   -1    5   11     -7.45      0.00
    1    5   11     -6.89      0.00
    3    5   11     -5.55      0.00
    5    5   11     -4.55      0.00
    7    5   11     -3.67      0.00
    9    5   11     -2.96      0.00
   11    5   11     -2.81      0.00
   13    5   11     -2.99      0.00
   15    5   11     -2.91      0.00
   17    5   11     -2.54      0.00
   19    5   11     -2.14      0.00
   21    5   11     -1.77      0.00
   23    5   11     -1.30      0.00
  -24    6   11     -0.94      0.00
  -22    6   11     -2.32      0.00
  -20    6   11     -2.53      0.00
  -18    6   11     -1.15      0.00
  -16    6   11      1.30      0.00
  -14    6   11      3.81      0.00
  -12    6   11      4.89      0.00
  -10    6   11      3.50      0.00
   -8    6   11      0.98      0.00
   -6    6   11      0.49      0.00
   -4    6   11      3.13      0.00
   -2    6   11      6.50      0.00
    0    6   11      8.28      0.00
    2    6   11      8.78      0.00
    4    6   11      8.86      0.00
    6    6   11      8.03      0.00
    8    6   11      6.08      0.00
   10    6   11      4.13      0.00
   12    6   11      3.00      0.00
   14    6   11      2.40      0.00
   16    6   11      1.95      0.00
   18    6   11      1.65      0.00
   20    6   11      1.51      0.00
   22    6   11      1.35      0.00
  -23    7   11      1.02      0.00
  -21    7   11      1.80      0.00
  -19    7   11      1.34      0.00
  -17    7   11     -0.33      0.00
  -15    7   11     -2.62      0.00
  -13    7   11     -4.53      0.00
  -11    7   11     -4.58      0.00
   -9    7   11     -2.44      0.00
   -7    7   11     -0.39      0.00
   -5    7   11     -1.05      0.00
   -3    7   11     -3.88      0.00
   -1    7   11     -6.33      0.00
    1    7   11     -7.58      0.00
    3    7   11     -8.33      0.00
    5    7   11     -8.22      0.00
    7    7   11     -6.44      0.00
    9    7   11     -3.83      0.00
   11    7   11     -2.02      0.00
   13    7   11     -1.33      0.00
   15    7   11     -1.13      0.00
   17    7   11     -1.04      0.00
   19    7   11     -0.99      0.00
   21    7   11     -0.88      0.00
   23    7   11     -0.72      0.00
  -24    8   11      0.13      0.00
  -22    8   11     -0.69      0.00
  -20    8   11     -0.93      0.00
  -18    8   11     -0.24      0.00
  -16    8   11      1.25      0.00
  -14    8   11      3.17      0.00
  -12    8   11      4.46      0.00
  -10    8   11      3.74      0.00
   -8    8   11      1.54      0.00
   -6    8   11      0.49      0.00
   -4    8   11      1.84      0.00
   -2    8   11      3.81      0.00
    0    8   11      4.72      0.00
    2    8   11      5.09      0.00
    4    8   11      5.34      0.00
    6    8   11      4.49      0.00
    8    8   11      2.40      0.00
   10    8   11      0.60      0.00
   12    8   11      0.11      0.00
   14    8   11      0.45      0.00
   16    8   11      0.87      0.00
   18    8   11      1.06      0.00
   20    8   11      0.85      0.00
   22    8   11      0.40      0.00
  -23    9   11     -0.02      0.00
  -21    9   11      0.47      0.00
  -19    9   11      0.43      0.00
  -17    9   11     -0.24      0.00
  -15    9   11     -1.59      0.00
  -13    9   11     -3.29      0.00
  -11    9   11     -3.99      0.00
   -9    9   11     -2.71      0.00
   -7    9   11     -0.88      0.00
   -5    9   11     -0.73      0.00
   -3    9   11     -1.87      0.00
   -1    9   11     -2.28      0.00
    1    9   11     -1.80      0.00
    3    9   11     -1.68      0.00
    5    9   11     -1.70      0.00
    7    9   11     -0.86      0.00
    9    9   11      0.31      0.00
   11    9   11      0.58      0.00
   13    9   11     -0.09      0.00
   15    9   11     -0.98      0.00
   17    9   11     -1.57      0.00
   19    9   11     -1.52      0.00
   21    9   11     -0.76      0.00
   23    9   11      0.05      0.00
  -22   10   11     -0.32      0.00
  -20   10   11     -0.54      0.00
  -18   10   11     -0.31      0.00
  -16   10   11      0.41      0.00
  -14   10   11      1.75      0.00
  -12   10   11      3.09      0.00
  -10   10   11      2.97      0.00
   -8   10   11      1.28      0.00
   -6   10   11      0.07      0.00
   -4   10   11      0.42      0.00
   -2   10   11      0.78      0.00
    0   10   11     -0.01      0.00
    2   10   11     -0.73      0.00
    4   10   11     -0.45      0.00
    6   10   11     -0.13      0.00
    8   10   11     -0.40      0.00
   10   10   11     -0.48      0.00
   12   10   11      0.15      0.00
   14   10   11      1.05      0.00
   16   10   11      1.80      0.00
   18   10   11      2.08      0.00
   20   10   11      1.47      0.00
   22   10   11      0.30      0.00
  -23   11   11      0.32      0.00
  -21   11   11      0.58      0.00
  -19   11   11      0.50      0.00
  -17   11   11      0.14      0.00
  -15   11   11     -0.57      0.00
  -13   11   11     -1.67      0.00
  -11   11   11     -2.21      0.00
   -9   11   11     -1.14      0.00
   -7   11   11      0.54      0.00
   -5   11   11      0.90      0.00
   -3   11   11      0.24      0.00
   -1   11   11      0.31      0.00
    1   11   11      0.99      0.00
    3   11   11      0.87      0.00
    5   11   11      0.10      0.00
    7   11   11     -0.16      0.00
    9   11   11     -0.05      0.00
   11   11   11     -0.36      0.00
   13   11   11     -0.96      0.00
   15   11   11     -1.48      0.00
   17   11   11     -1.81      0.00
   19   11   11     -1.63      0.00
   21   11   11     -0.71      0.00
  -22   12   11     -0.38      0.00
  -20   12   11     -0.34      0.00
  -18   12   11     -0.09      0.00
  -16   12   11      0.18      0.00
  -14   12   11      0.65      0.00
  -12   12   11      1.16      0.00
  -10   12   11      0.68      0.00
   -8   12   11     -0.97      0.00
   -6   12   11     -2.00      0.00
   -4   12   11     -1.31      0.00
   -2   12   11     -0.21      0.00
    0   12   11      0.09      0.00
    2   12   11      0.36      0.00
    4   12   11      1.11      0.00
    6   12   11      1.38      0.00
    8   12   11      0.83      0.00
   10   12   11      0.47      0.00
   12   12   11      0.67      0.00
   14   12   11      0.89      0.00
   16   12   11      0.98      0.00
   18   12   11      0.98      0.00
   20   12   11      0.62      0.00
   22   12   11     -0.07      0.00
  -21   13   11     -0.03      0.00
  -19   13   11     -0.25      0.00
  -17   13   11     -0.41      0.00
  -15   13   11     -0.47      0.00
  -13   13   11     -0.70      0.00
  -11   13   11     -0.63      0.00
   -9   13   11      0.61      0.00
   -7   13   11      2.16      0.00
   -5   13   11      2.14      0.00
   -3   13   11      0.58      0.00
   -1   13   11     -0.84      0.00
    1   13   11     -1.68      0.00
    3   13   11     -2.56      0.00
    5   13   11     -2.90      0.00
    7   13   11     -2.00      0.00
    9   13   11     -0.76      0.00
   11   13   11     -0.33      0.00
   13   13   11     -0.39      0.00
   15   13   11     -0.29      0.00
   17   13   11     -0.17      0.00
   19   13   11     -0.14      0.00
   21   13   11      0.03      0.00
  -22   14   11      0.31      0.00
  -20   14   11      0.47      0.00
  -18   14   11      0.65      0.00
  -16   14   11      0.70      0.00
  -14   14   11      0.87      0.00
  -12   14   11      1.17      0.00
  -10   14   11      0.70      0.00
   -8   14   11     -0.82      0.00
   -6   14   11     -1.78      0.00
   -4   14   11     -0.90      0.00
   -2   14   11      0.77      0.00
    0   14   11      1.93      0.00
    2   14   11      2.85      0.00
    4   14   11      3.56      0.00
    6   14   11      3.06      0.00
    8   14   11      1.49      0.00
   10   14   11      0.34      0.00
   12   14   11      0.11      0.00
   14   14   11      0.02      0.00
   16   14   11     -0.21      0.00
   18   14   11     -0.24      0.00
   20   14   11     -0.09      0.00
  -21   15   11     -0.40      0.00
  -19   15   11     -0.53      0.00
  -17   15   11     -0.67      0.00
  -15   15   11     -0.94      0.00
  -13   15   11     -1.57      0.00
  -11   15   11     -2.00      0.00
   -9   15   11     -1.22      0.00
   -7   15   11      0.14      0.00
   -5   15   11      0.31      0.00
   -3   15   11     -0.82      0.00
   -1   15   11     -1.74      0.00
    1   15   11     -2.14      0.00
    3   15   11     -2.73      0.00
    5   15   11     -2.99      0.00
    7   15   11     -2.03      0.00
    9   15   11     -0.65      0.00
   11   15   11     -0.02      0.00
   13   15   11      0.06      0.00
   15   15   11      0.23      0.00
   17   15   11      0.33      0.00
   19   15   11      0.14      0.00
   21   15   11     -0.13      0.00
  -20   16   11      0.22      0.00
  -18   16   11      0.30      0.00
  -16   16   11      0.54      0.00
  -14   16   11      1.15      0.00
  -12   16   11      2.05      0.00
  -10   16   11      2.26      0.00
   -8   16   11      1.37      0.00
   -6   16   11      0.72      0.00
   -4   16   11      1.36      0.00
   -2   16   11      2.15      0.00
    0   16   11      1.95      0.00
    2   16   11      1.60      0.00
    4   16   11      1.79      0.00
    6   16   11      1.62      0.00
    8   16   11      0.63      0.00
   10   16   11     -0.22      0.00
   12   16   11     -0.38      0.00
   14   16   11     -0.35      0.00
   16   16   11     -0.37      0.00
   18   16   11     -0.22      0.00
   20   16   11      0.02      0.00
  -19   17   11     -0.03      0.00
  -17   17   11     -0.04      0.00
  -15   17   11     -0.24      0.00
  -13   17   11     -0.85      0.00
  -11   17   11     -1.50      0.00
   -9   17   11     -1.37      0.00
   -7   17   11     -0.87      0.00
   -5   17   11     -1.36      0.00
   -3   17   11     -2.51      0.00
   -1   17   11     -2.59      0.00
    1   17   11     -1.52      0.00
    3   17   11     -0.78      0.00
    5   17   11     -0.57      0.00
    7   17   11      0.02      0.00
    9   17   11      0.85      0.00
   11   17   11      1.10      0.00
   13   17   11      0.85      0.00
   15   17   11      0.61      0.00
   17   17   11      0.41      0.00
   19   17   11      0.22      0.00
  -20   18   11      0.12      0.00
  -18   18   11     -0.06      0.00
  -16   18   11     -0.32      0.00
  -14   18   11     -0.41      0.00
  -12   18   11     -0.11      0.00
  -10   18   11      0.14      0.00
   -8   18   11     -0.03      0.00
   -6   18   11      0.25      0.00
   -4   18   11      1.58      0.00
   -2   18   11      2.57      0.00
    0   18   11      1.95      0.00
    2   18   11      0.64      0.00
    4   18   11     -0.14      0.00
    6   18   11     -0.73      0.00
    8   18   11     -1.53      0.00
   10   18   11     -1.92      0.00
   12   18   11     -1.56      0.00
   14   18   11     -1.02      0.00
   16   18   11     -0.65      0.00
   18   18   11     -0.45      0.00
  -19   19   11     -0.14      0.00
  -17   19   11      0.23      0.00
  -15   19   11      0.77      0.00
  -13   19   11      1.05      0.00
  -11   19   11      0.89      0.00
   -9   19   11      0.82      0.00
   -7   19   11      0.86      0.00
   -5   19   11      0.12      0.00
   -3   19   11     -1.18      0.00
   -1   19   11     -1.55      0.00
    1   19   11     -0.69      0.00
    3   19   11      0.26      0.00
    5   19   11      0.89      0.00
    7   19   11      1.61      0.00
    9   19   11      2.16      0.00
   11   19   11      1.96      0.00
   13   19   11      1.32      0.00
   15   19   11      0.84      0.00
   17   19   11      0.59      0.00
   19   19   11      0.50      0.00
  -18   20   11      0.04      0.00
  -16   20   11     -0.34      0.00
  -14   20   11     -0.82      0.00
  -12   20   11     -0.89      0.00
  -10   20   11     -0.66      0.00
   -8   20   11     -0.74      0.00
   -6   20   11     -0.84      0.00
   -4   20   11     -0.25      0.00
   -2   20   11      0.48      0.00
    0   20   11      0.44      0.00
    2   20   11     -0.09      0.00
    4   20   11     -0.49      0.00
    6   20   11     -0.94      0.00
    8   20   11     -1.50      0.00
   10   20   11     -1.60      0.00
   12   20   11     -1.19      0.00
   14   20   11     -0.83      0.00
   16   20   11     -0.66      0.00
   18   20   11     -0.48      0.00
  -17   21   11     -0.08      0.00
  -15   21   11      0.02      0.00
  -13   21   11      0.12      0.00
  -11   21   11     -0.11      0.00
   -9   21   11     -0.25      0.00
   -7   21   11      0.13      0.00
   -5   21   11      0.40      0.00
   -3   21   11      0.06      0.00
   -1   21   11     -0.31      0.00
    1   21   11     -0.30      0.00
    3   21   11     -0.22      0.00
    5   21   11     -0.09      0.00
    7   21   11      0.30      0.00
    9   21   11      0.62      0.00
   11   21   11      0.58      0.00
   13   21   11      0.49      0.00
   15   21   11      0.60      0.00
   17   21   11      0.54      0.00
  -16   22   11      0.52      0.00
  -14   22   11      0.67      0.00
  -12   22   11      0.74      0.00
  -10   22   11      0.93      0.00
   -8   22   11      0.75      0.00
   -6   22   11      0.21      0.00
   -4   22   11      0.06      0.00
   -2   22   11      0.45      0.00
    0   22   11      0.79      0.00
    2   22   11      0.91      0.00
    4   22   11      0.92      0.00
    6   22   11      0.71      0.00
    8   22   11      0.34      0.00
   10   22   11      0.15      0.00
   12   22   11      0.03      0.00
   14   22   11     -0.30      0.00
   16   22   11     -0.54      0.00
  -15   23   11     -1.01      0.00
  -13   23   11     -0.95      0.00
  -11   23   11     -0.83      0.00
   -9   23   11     -0.73      0.00
   -7   23   11     -0.32      0.00
   -5   23   11      0.04      0.00
   -3   23   11     -0.19      0.00
   -1   23   11     -0.73      0.00
    1   23   11     -1.05      0.00
    3   23   11     -1.10      0.00
    5   23   11     -0.96      0.00
    7   23   11     -0.66      0.00
    9   23   11     -0.43      0.00
   11   23   11     -0.33      0.00
   13   23   11     -0.07      0.00
   15   23   11      0.32      0.00
  -14   24   11      0.89      0.00
  -12   24   11      0.41      0.00
  -10   24   11      0.07      0.00
   -8   24   11     -0.22      0.00
   -6   24   11     -0.65      0.00
   -4   24   11     -0.70      0.00
   -2   24   11     -0.20      0.00
    0   24   11      0.34      0.00
    2   24   11      0.53      0.00
    4   24   11      0.44      0.00
    6   24   11      0.20      0.00
    8   24   11      0.04      0.00
   10   24   11      0.10      0.00
   12   24   11      0.14      0.00
   14   24   11     -0.06      0.00
  -13   25   11     -0.18      0.00
  -11   25   11      0.40      0.00
   -9   25   11      0.68      0.00
   -7   25   11      1.04      0.00
   -5   25   11      1.38      0.00
   -3   25   11      1.18      0.00
   -1   25   11      0.56      0.00
    1   25   11      0.17      0.00
    3   25   11      0.23      0.00
    5   25   11      0.51      0.00
    7   25   11      0.68      0.00
    9   25   11      0.54      0.00
   11   25   11      0.22      0.00
   13   25   11      0.05      0.00
  -12   26   11     -0.39      0.00
  -10   26   11     -0.62      0.00
   -8   26   11     -0.74      0.00
   -6   26   11     -1.10      0.00
   -4   26   11     -1.24      0.00
   -2   26   11     -0.76      0.00
    0   26   11     -0.19      0.00
    2   26   11     -0.18      0.00
    4   26   11     -0.66      0.00
    6   26   11     -1.10      0.00
    8   26   11     -1.09      0.00
   10   26   11     -0.67      0.00
   12   26   11     -0.25      0.00
  -11   27   11      0.33      0.00
   -9   27   11      0.17      0.00
   -7   27   11      0.24      0.00
   -5   27   11      0.48      0.00
   -3   27   11      0.24      0.00
   -1   27   11     -0.41      0.00
    1   27   11     -0.62      0.00
    3   27   11     -0.03      0.00
    5   27   11      0.80      0.00
    7   27   11      1.13      0.00
    9   27   11      0.83      0.00
   11   27   11      0.32      0.00
  -10   28   11      0.04      0.00
   -8   28   11      0.29      0.00
   -6   28   11      0.20      0.00
   -4   28   11      0.19      0.00
   -2   28   11      0.70      0.00
    0   28   11      1.18      0.00
    2   28   11      0.85      0.00
    4   28   11     -0.09      0.00
    6   28   11     -0.76      0.00
    8   28   11     -0.66      0.00
   -7   29   11     -0.20      0.00
   -5   29   11     -0.07      0.00
   -3   29   11     -0.24      0.00
   -1   29   11     -0.78      0.00
    1   29   11     -0.95      0.00
    3   29   11     -0.39      0.00
    5   29   11      0.32      0.00
    7   29   11      0.46      0.00
   -4   30   11     -0.44      0.00
   -2   30   11     -0.14      0.00
    0   30   11      0.36      0.00
    2   30   11      0.43      0.00
    4   30   11      0.03      0.00
  -24    0   12      1.34      0.00
  -22    0   12      1.29      0.00
  -20    0   12     -0.09      0.00
  -18    0   12     -0.90      0.00
  -16    0   12     -0.21      0.00
  -14    0   12     -0.11      0.00
  -12    0   12     -1.10      0.00
  -10    0   12     -0.61      0.00
   -8    0   12      0.96      0.00
   -6    0   12     -0.48      0.00
   -4    0   12     -5.09      0.00
   -2    0   12     -7.36      0.00
    0    0   12     -3.99      0.00
    2    0   12      2.00      0.00
    4    0   12      6.37      0.00
    6    0   12      8.26      0.00
    8    0   12      8.80      0.00
   10    0   12      8.14      0.00
   12    0   12      5.79      0.00
   14    0   12      2.77      0.00
   16    0   12      1.28      0.00
   18    0   12      1.89      0.00
   20    0   12      2.71      0.00
   22    0   12      2.25      0.00
  -23    1   12     -1.62      0.00
  -21    1   12     -0.74      0.00
  -19    1   12      0.86      0.00
  -17    1   12      1.08      0.00
  -15    1   12      0.55      0.00
  -13    1   12      1.02      0.00
  -11    1   12      0.96      0.00
   -9    1   12     -1.19      0.00
   -7    1   12     -2.14      0.00
   -5    1   12      1.34      0.00
   -3    1   12      5.92      0.00
   -1    1   12      5.97      0.00
    1    1   12      1.49      0.00
    3    1   12     -3.07      0.00
    5    1   12     -5.25      0.00
    7    1   12     -5.98      0.00
    9    1   12     -6.28      0.00
   11    1   12     -5.53      0.00
   13    1   12     -3.31      0.00
   15    1   12     -1.20      0.00
   17    1   12     -0.91      0.00
   19    1   12     -1.85      0.00
   21    1   12     -2.15      0.00
   23    1   12     -1.42      0.00
  -24    2   12      1.77      0.00
  -22    2   12      1.63      0.00
  -20    2   12     -0.20      0.00
  -18    2   12     -1.89      0.00
  -16    2   12     -2.12      0.00
  -14    2   12     -2.12      0.00
  -12    2   12     -1.77      0.00
  -10    2   12      1.08      0.00
   -8    2   12      4.76      0.00
   -6    2   12      4.17      0.00
   -4    2   12     -0.96      0.00
   -2    2   12     -4.75      0.00
    0    2   12     -3.75      0.00
    2    2   12     -0.91      0.00
    4    2   12      0.11      0.00
    6    2   12     -0.30      0.00
    8    2   12      0.08      0.00
   10    2   12      1.33      0.00
   12    2   12      1.68      0.00
   14    2   12      0.62      0.00
   16    2   12     -0.23      0.00
   18    2   12      0.20      0.00
   20    2   12      0.95      0.00
   22    2   12      0.97      0.00
  -23    3   12     -2.06      0.00
  -21    3   12     -0.89      0.00
  -19    3   12      1.60      0.00
  -17    3   12      3.22      0.00
  -15    3   12      3.70      0.00
  -13    3   12      3.51      0.00
  -11    3   12      0.84      0.00
   -9    3   12     -4.64      0.00
   -7    3   12     -7.96      0.00
   -5    3   12     -5.13      0.00
   -3    3   12      0.31      0.00
   -1    3   12      2.64      0.00
    1    3   12      2.01      0.00
    3    3   12      2.43      0.00
    5    3   12      4.80      0.00
    7    3   12      6.14      0.00
    9    3   12      4.57      0.00
   11    3   12      1.86      0.00
   13    3   12      0.58      0.00
   15    3   12      0.79      0.00
   17    3   12      0.82      0.00
   19    3   12      0.21      0.00
   21    3   12     -0.24      0.00
   23    3   12     -0.26      0.00
  -24    4   12      1.61      0.00
  -22    4   12      1.51      0.00
  -20    4   12     -0.48      0.00
  -18    4   12     -2.86      0.00
  -16    4   12     -4.15      0.00
  -14    4   12     -4.66      0.00
  -12    4   12     -3.39      0.00
  -10    4   12      1.57      0.00
   -8    4   12      7.51      0.00
   -6    4   12      8.61      0.00
   -4    4   12      4.40      0.00
   -2    4   12      0.50      0.00
    0    4   12     -0.25      0.00
    2    4   12     -0.91      0.00
    4    4   12     -4.10      0.00
    6    4   12     -7.57      0.00
    8    4   12     -7.79      0.00
   10    4   12     -4.85      0.00
   12    4   12     -1.91      0.00
   14    4   12     -0.86      0.00
   16    4   12     -0.76      0.00
   18    4   12     -0.35      0.00
   20    4   12      0.15      0.00
   22    4   12      0.20      0.00
  -23    5   12     -1.03      0.00
  -21    5   12     -0.37      0.00
  -19    5   12      1.50      0.00
  -17    5   12      2.96      0.00
  -15    5   12      3.85      0.00
  -13    5   12      4.20      0.00
  -11    5   12      1.75      0.00
   -9    5   12     -3.92      0.00
   -7    5   12     -8.01      0.00
   -5    5   12     -6.66      0.00
   -3    5   12     -2.94      0.00
   -1    5   12     -1.64      0.00
    1    5   12     -2.02      0.00
    3    5   12     -0.32      0.00
    5    5   12      3.48      0.00
    7    5   12      5.79      0.00
    9    5   12      4.67      0.00
   11    5   12      2.05      0.00
   13    5   12      0.55      0.00
   15    5   12      0.27      0.00
   17    5   12     -0.14      0.00
   19    5   12     -0.77      0.00
   21    5   12     -0.81      0.00
   23    5   12     -0.35      0.00
  -24    6   12     -0.21      0.00
  -22    6   12      0.25      0.00
  -20    6   12     -0.27      0.00
  -18    6   12     -1.02      0.00
  -16    6   12     -1.51      0.00
  -14    6   12     -2.48      0.00
  -12    6   12     -2.73      0.00
  -10    6   12      0.32      0.00
   -8    6   12      4.98      0.00
   -6    6   12      6.26      0.00
   -4    6   12      3.67      0.00
   -2    6   12      1.93      0.00
    0    6   12      3.20      0.00
    2    6   12      4.32      0.00
    4    6   12      2.64      0.00
    6    6   12     -0.14      0.00
    8    6   12     -1.12      0.00
   10    6   12     -0.26      0.00
   12    6   12      0.40      0.00
   14    6   12      0.18      0.00
   16    6   12      0.25      0.00
   18    6   12      1.07      0.00
   20    6   12      1.49      0.00
   22    6   12      0.93      0.00
  -23    7   12      0.52      0.00
  -21    7   12     -0.19      0.00
  -19    7   12     -0.53      0.00
  -17    7   12     -0.91      0.00
  -15    7   12     -0.43      0.00
  -13    7   12      1.22      0.00
  -11    7   12      1.30      0.00
   -9    7   12     -1.76      0.00
   -7    7   12     -4.47      0.00
   -5    7   12     -3.47      0.00
   -3    7   12     -1.30      0.00
   -1    7   12     -2.17      0.00
    1    7   12     -5.33      0.00
    3    7   12     -6.84      0.00
    5    7   12     -5.50      0.00
    7    7   12     -3.53      0.00
    9    7   12     -2.60      0.00
   11    7   12     -1.98      0.00
   13    7   12     -0.80      0.00
   15    7   12      0.05      0.00
   17    7   12     -0.41      0.00
   19    7   12     -1.27      0.00
   21    7   12     -1.17      0.00
   23    7   12     -0.36      0.00
  -22    8   12      0.04      0.00
  -20    8   12      1.20      0.00
  -18    8   12      2.31      0.00
  -16    8   12      2.77      0.00
  -14    8   12      1.21      0.00
  -12    8   12     -0.99      0.00
  -10    8   12     -0.51      0.00
   -8    8   12      2.15      0.00
   -6    8   12      2.85      0.00
   -4    8   12      0.90      0.00
   -2    8   12      0.46      0.00
    0    8   12      3.65      0.00
    2    8   12      7.49      0.00
    4    8   12      8.49      0.00
    6    8   12      6.90      0.00
    8    8   12      5.00      0.00
   10    8   12      3.55      0.00
   12    8   12      1.83      0.00
   14    8   12      0.04      0.00
   16    8   12     -0.53      0.00
   18    8   12      0.16      0.00
   20    8   12      0.63      0.00
   22    8   12      0.24      0.00
  -23    9   12      0.27      0.00
  -21    9   12     -1.10      0.00
  -19    9   12     -2.48      0.00
  -17    9   12     -3.59      0.00
  -15    9   12     -3.01      0.00
  -13    9   12     -0.33      0.00
  -11    9   12      1.46      0.00
   -9    9   12      0.15      0.00
   -7    9   12     -1.65      0.00
   -5    9   12     -0.82      0.00
   -3    9   12      0.73      0.00
   -1    9   12     -0.83      0.00
    1    9   12     -5.07      0.00
    3    9   12     -8.07      0.00
    5    9   12     -7.87      0.00
    9    9   12     -4.48      0.00
   11    9   12     -3.03      0.00
   13    9   12     -1.04      0.00
   15    9   12      0.61      0.00
   17    9   12      0.84      0.00
   19    9   12      0.27      0.00
   21    9   12      0.16      0.00
  -22   10   12      0.57      0.00
  -20   10   12      1.73      0.00
  -18   10   12      2.94      0.00
  -16   10   12      3.42      0.00
  -14   10   12      1.72      0.00
  -12   10   12     -1.01      0.00
  -10   10   12     -1.56      0.00
   -8   10   12      0.15      0.00
   -6   10   12      0.64      0.00
   -4   10   12     -1.05      0.00
   -2   10   12     -1.62      0.00
    0   10   12      1.10      0.00
    2   10   12      4.80      0.00
    4   10   12      6.29      0.00
    8   10   12      4.46      0.00
   10   10   12      3.86      0.00
   12   10   12      2.57      0.00
   14   10   12      0.44      0.00
   16   10   12     -0.96      0.00
   18   10   12     -0.90      0.00
   20   10   12     -0.46      0.00
   22   10   12     -0.45      0.00
  -21   11   12     -0.62      0.00
  -19   11   12     -1.47      0.00
  -17   11   12     -2.51      0.00
  -15   11   12     -2.38      0.00
  -13   11   12     -0.31      0.00
  -11   11   12      1.47      0.00
   -9   11   12      0.83      0.00
   -7   11   12     -0.39      0.00
   -5   11   12      0.55      0.00
   -3   11   12      2.51      0.00
   -1   11   12      2.26      0.00
    1   11   12     -0.48      0.00
    3   11   12     -2.98      0.00
    5   11   12     -3.55      0.00
    7   11   12     -3.36      0.00
    9   11   12     -3.68      0.00
   11   11   12     -3.60      0.00
   13   11   12     -1.91      0.00
   15   11   12      0.31      0.00
   17   11   12      1.11      0.00
   19   11   12      0.63      0.00
   21   11   12      0.26      0.00
  -22   12   12     -0.27      0.00
  -20   12   12      0.04      0.00
  -18   12   12      0.96      0.00
  -16   12   12      1.99      0.00
  -14   12   12      1.47      0.00
  -12   12   12     -0.32      0.00
  -10   12   12     -0.91      0.00
   -8   12   12      0.18      0.00
   -6   12   12      0.35      0.00
   -4   12   12     -1.60      0.00
   -2   12   12     -3.31      0.00
    0   12   12     -2.52      0.00
    2   12   12     -0.24      0.00
    4   12   12      1.22      0.00
    6   12   12      1.59      0.00
    8   12   12      2.24      0.00
   10   12   12      3.14      0.00
   12   12   12      2.63      0.00
   14   12   12      0.50      0.00
   16   12   12     -1.09      0.00
   18   12   12     -0.90      0.00
   20   12   12     -0.13      0.00
  -21   13   12      0.72      0.00
  -19   13   12      0.31      0.00
  -17   13   12     -0.97      0.00
  -15   13   12     -1.80      0.00
  -13   13   12     -0.90      0.00
  -11   13   12      0.36      0.00
   -9   13   12      0.05      0.00
   -7   13   12     -0.84      0.00
   -5   13   12      0.01      0.00
   -3   13   12      2.23      0.00
   -1   13   12      3.18      0.00
    1   13   12      1.91      0.00
    3   13   12      0.23      0.00
    5   13   12     -0.29      0.00
    7   13   12     -0.42      0.00
    9   13   12     -1.27      0.00
   11   13   12     -1.90      0.00
   13   13   12     -0.88      0.00
   15   13   12      0.83      0.00
   17   13   12      1.18      0.00
   19   13   12      0.31      0.00
   21   13   12     -0.21      0.00
  -20   14   12     -0.77      0.00
  -18   14   12      0.07      0.00
  -16   14   12      1.41      0.00
  -14   14   12      1.59      0.00
  -12   14   12      0.42      0.00
  -10   14   12     -0.16      0.00
   -8   14   12      0.64      0.00
   -6   14   12      0.94      0.00
   -4   14   12     -0.61      0.00
   -2   14   12     -2.43      0.00
    0   14   12     -2.35      0.00
    2   14   12     -0.81      0.00
    4   14   12     -0.01      0.00
    6   14   12     -0.49      0.00
    8   14   12     -0.64      0.00
   10   14   12      0.23      0.00
   12   14   12      0.61      0.00
   14   14   12     -0.28      0.00
   16   14   12     -0.99      0.00
   18   14   12     -0.48      0.00
   20   14   12      0.25      0.00
  -21   15   12      0.62      0.00
  -19   15   12      0.33      0.00
  -17   15   12     -0.79      0.00
  -15   15   12     -1.71      0.00
  -13   15   12     -1.23      0.00
  -11   15   12     -0.24      0.00
   -9   15   12     -0.37      0.00
   -7   15   12     -1.10      0.00
   -5   15   12     -0.50      0.00
   -3   15   12      1.43      0.00
   -1   15   12      2.50      0.00
    1   15   12      1.56      0.00
    3   15   12      0.24      0.00
    5   15   12      0.41      0.00
    7   15   12      1.33      0.00
    9   15   12      1.10      0.00
   11   15   12     -0.04      0.00
   13   15   12     -0.37      0.00
   15   15   12      0.17      0.00
   17   15   12      0.21      0.00
   19   15   12     -0.31      0.00
  -20   16   12     -0.38      0.00
  -18   16   12      0.25      0.00
  -16   16   12      1.39      0.00
  -14   16   12      1.82      0.00
  -12   16   12      1.18      0.00
  -10   16   12      0.73      0.00
   -8   16   12      1.17      0.00
   -6   16   12      1.22      0.00
   -4   16   12     -0.27      0.00
   -2   16   12     -2.20      0.00
    0   16   12     -2.52      0.00
    2   16   12     -1.26      0.00
    4   16   12     -0.49      0.00
    6   16   12     -1.07      0.00
    8   16   12     -1.37      0.00
   10   16   12     -0.28      0.00
   12   16   12      0.87      0.00
   14   16   12      0.83      0.00
   16   16   12      0.38      0.00
   18   16   12      0.48      0.00
   20   16   12      0.61      0.00
  -19   17   12      0.16      0.00
  -17   17   12     -0.77      0.00
  -15   17   12     -1.83      0.00
  -13   17   12     -2.03      0.00
  -11   17   12     -1.56      0.00
   -9   17   12     -1.46      0.00
   -7   17   12     -1.69      0.00
   -5   17   12     -0.99      0.00
   -3   17   12      0.89      0.00
   -1   17   12      2.41      0.00
    1   17   12      2.23      0.00
    3   17   12      1.17      0.00
    5   17   12      0.87      0.00
    7   17   12      1.05      0.00
    9   17   12      0.31      0.00
   11   17   12     -1.04      0.00
   13   17   12     -1.42      0.00
   15   17   12     -0.82      0.00
   17   17   12     -0.49      0.00
   19   17   12     -0.60      0.00
  -18   18   12      0.06      0.00
  -16   18   12      1.16      0.00
  -14   18   12      2.04      0.00
  -12   18   12      2.03      0.00
  -10   18   12      1.63      0.00
   -8   18   12      1.60      0.00
   -6   18   12      1.58      0.00
   -4   18   12      0.67      0.00
   -2   18   12     -0.96      0.00
    0   18   12     -1.91      0.00
    2   18   12     -1.58      0.00
    4   18   12     -0.97      0.00
    6   18   12     -0.83      0.00
    8   18   12     -0.39      0.00
   10   18   12      0.72      0.00
   12   18   12      1.34      0.00
   14   18   12      0.78      0.00
   16   18   12      0.14      0.00
   18   18   12      0.22      0.00
  -19   19   12      0.41      0.00
  -17   19   12     -0.18      0.00
  -15   19   12     -1.09      0.00
  -13   19   12     -1.53      0.00
  -11   19   12     -1.22      0.00
   -9   19   12     -0.85      0.00
   -7   19   12     -0.94      0.00
   -5   19   12     -1.01      0.00
   -3   19   12     -0.31      0.00
   -1   19   12      0.79      0.00
    1   19   12      1.23      0.00
    3   19   12      0.94      0.00
    5   19   12      0.73      0.00
    7   19   12      0.60      0.00
    9   19   12     -0.04      0.00
   11   19   12     -0.67      0.00
   13   19   12     -0.35      0.00
   15   19   12      0.40      0.00
   17   19   12      0.41      0.00
  -18   20   12     -0.49      0.00
  -16   20   12     -0.17      0.00
  -14   20   12      0.25      0.00
  -12   20   12      0.22      0.00
  -10   20   12     -0.20      0.00
   -8   20   12     -0.34      0.00
   -6   20   12      0.01      0.00
   -4   20   12      0.20      0.00
   -2   20   12     -0.28      0.00
    0   20   12     -0.83      0.00
    2   20   12     -0.78      0.00
    4   20   12     -0.55      0.00
    6   20   12     -0.64      0.00
    8   20   12     -0.61      0.00
   10   20   12     -0.22      0.00
   12   20   12     -0.24      0.00
   14   20   12     -0.83      0.00
   16   20   12     -0.98      0.00
  -17   21   12      0.87      0.00
  -15   21   12      0.92      0.00
  -13   21   12      0.87      0.00
  -11   21   12      1.03      0.00
   -9   21   12      1.26      0.00
   -7   21   12      1.09      0.00
   -5   21   12      0.63      0.00
   -3   21   12      0.54      0.00
   -1   21   12      0.83      0.00
    1   21   12      0.78      0.00
    3   21   12      0.38      0.00
    5   21   12      0.38      0.00
    7   21   12      0.77      0.00
    9   21   12      0.87      0.00
   11   21   12      0.76      0.00
   13   21   12      1.02      0.00
   15   21   12      1.23      0.00
   17   21   12      0.73      0.00
  -16   22   12     -1.19      0.00
  -14   22   12     -1.31      0.00
  -12   22   12     -1.26      0.00
  -10   22   12     -1.34      0.00
   -8   22   12     -1.34      0.00
   -6   22   12     -0.98      0.00
   -4   22   12     -0.62      0.00
   -2   22   12     -0.65      0.00
    0   22   12     -0.63      0.00
    2   22   12     -0.17      0.00
    4   22   12      0.10      0.00
    6   22   12     -0.37      0.00
    8   22   12     -0.95      0.00
   10   22   12     -1.03      0.00
   12   22   12     -1.01      0.00
   14   22   12     -1.16      0.00
   16   22   12     -0.93      0.00
  -15   23   12      0.85      0.00
  -13   23   12      0.75      0.00
  -11   23   12      0.72      0.00
   -9   23   12      0.84      0.00
   -7   23   12      0.70      0.00
   -5   23   12      0.22      0.00
   -3   23   12     -0.06      0.00
   -1   23   12     -0.04      0.00
    1   23   12     -0.26      0.00
    3   23   12     -0.61      0.00
    5   23   12     -0.36      0.00
    7   23   12      0.43      0.00
    9   23   12      0.87      0.00
   11   23   12      0.84      0.00
   13   23   12      0.88      0.00
   15   23   12      0.89      0.00
  -14   24   12      0.15      0.00
  -12   24   12      0.22      0.00
  -10   24   12     -0.08      0.00
   -8   24   12     -0.34      0.00
   -6   24   12      0.00      0.00
   -4   24   12      0.59      0.00
   -2   24   12      0.76      0.00
    0   24   12      0.71      0.00
    2   24   12      0.89      0.00
    4   24   12      0.91      0.00
    6   24   12      0.35      0.00
    8   24   12     -0.28      0.00
   10   24   12     -0.45      0.00
   12   24   12     -0.48      0.00
   14   24   12     -0.65      0.00
  -13   25   12     -0.90      0.00
  -11   25   12     -0.53      0.00
   -9   25   12      0.17      0.00
   -7   25   12      0.34      0.00
   -5   25   12     -0.24      0.00
   -3   25   12     -0.76      0.00
   -1   25   12     -0.73      0.00
    1   25   12     -0.69      0.00
    3   25   12     -0.88      0.00
    5   25   12     -0.85      0.00
    7   25   12     -0.46      0.00
    9   25   12     -0.14      0.00
   11   25   12      0.04      0.00
   13   25   12      0.33      0.00
  -12   26   12      0.67      0.00
  -10   26   12     -0.14      0.00
   -8   26   12     -0.83      0.00
   -6   26   12     -0.66      0.00
   -4   26   12      0.00      0.00
   -2   26   12      0.28      0.00
    0   26   12      0.20      0.00
    2   26   12      0.40      0.00
    4   26   12      0.81      0.00
    6   26   12      0.92      0.00
    8   26   12      0.70      0.00
   10   26   12      0.37      0.00
   -9   27   12      0.98      0.00
   -7   27   12      1.27      0.00
   -5   27   12      0.79      0.00
   -3   27   12      0.23      0.00
   -1   27   12      0.08      0.00
    1   27   12     -0.05      0.00
    3   27   12     -0.49      0.00
    5   27   12     -0.91      0.00
    7   27   12     -0.94      0.00
    9   27   12     -0.64      0.00
   -8   28   12     -1.14      0.00
   -6   28   12     -1.02      0.00
   -4   28   12     -0.45      0.00
   -2   28   12     -0.05      0.00
    0   28   12      0.10      0.00
    2   28   12      0.31      0.00
    4   28   12      0.60      0.00
    6   28   12      0.72      0.00
    8   28   12      0.61      0.00
   -7   29   12      0.66      0.00
   -5   29   12      0.40      0.00
   -3   29   12     -0.01      0.00
   -1   29   12     -0.23      0.00
    1   29   12     -0.26      0.00
    3   29   12     -0.22      0.00
    5   29   12     -0.17      0.00
   -2   30   12      0.09      0.00
    0   30   12      0.10      0.00
    2   30   12     -0.10      0.00
  -23    1   13     -0.33      0.00
  -21    1   13     -0.21      0.00
  -19    1   13     -0.18      0.00
  -17    1   13     -0.46      0.00
  -15    1   13     -1.05      0.00
  -13    1   13     -1.44      0.00
  -11    1   13     -0.83      0.00
   -9    1   13      0.74      0.00
   -7    1   13      2.04      0.00
   -5    1   13      1.93      0.00
   -3    1   13      0.99      0.00
   -1    1   13      0.70      0.00
    1    1   13      1.29      0.00
    3    1   13      1.52      0.00
    5    1   13      0.58      0.00
    7    1   13     -0.90      0.00
    9    1   13     -1.79      0.00
   11    1   13     -1.78      0.00
   13    1   13     -1.41      0.00
   15    1   13     -1.29      0.00
   17    1   13     -1.54      0.00
   19    1   13     -1.71      0.00
   21    1   13     -1.41      0.00
   23    1   13     -0.70      0.00
  -24    2   13      0.65      0.00
  -22    2   13      0.31      0.00
  -20    2   13     -0.01      0.00
  -18    2   13      0.11      0.00
  -16    2   13      0.95      0.00
  -14    2   13      2.21      0.00
  -12    2   13      2.65      0.00
  -10    2   13      1.14      0.00
   -8    2   13     -1.38      0.00
   -6    2   13     -2.50      0.00
   -4    2   13     -1.52      0.00
   -2    2   13     -0.52      0.00
    0    2   13     -1.25      0.00
    2    2   13     -2.55      0.00
    4    2   13     -2.27      0.00
    6    2   13     -0.30      0.00
    8    2   13      1.67      0.00
   10    2   13      2.43      0.00
   12    2   13      2.21      0.00
   14    2   13      1.93      0.00
   16    2   13      2.06      0.00
   18    2   13      2.40      0.00
   20    2   13      2.34      0.00
   22    2   13      1.63      0.00
  -23    3   13     -0.49      0.00
  -21    3   13      0.33      0.00
  -19    3   13      0.77      0.00
  -17    3   13      0.32      0.00
  -15    3   13     -1.25      0.00
  -13    3   13     -3.15      0.00
  -11    3   13     -3.53      0.00
   -9    3   13     -1.62      0.00
   -7    3   13      0.57      0.00
   -5    3   13      0.64      0.00
   -3    3   13     -0.62      0.00
   -1    3   13     -0.49      0.00
    1    3   13      1.48      0.00
    3    3   13      2.90      0.00
    5    3   13      2.22      0.00
    7    3   13      0.45      0.00
    9    3   13     -0.88      0.00
   11    3   13     -1.42      0.00
   13    3   13     -1.60      0.00
   15    3   13     -1.74      0.00
   17    3   13     -1.90      0.00
   19    3   13     -1.97      0.00
   21    3   13     -1.75      0.00
   23    3   13     -1.18      0.00
  -22    4   13     -0.34      0.00
  -20    4   13     -1.51      0.00
  -18    4   13     -1.88      0.00
  -16    4   13     -0.95      0.00
  -14    4   13      1.34      0.00
  -12    4   13      3.64      0.00
  -10    4   13      3.84      0.00
   -8    4   13      2.04      0.00
   -6    4   13      0.96      0.00
   -4    4   13      1.96      0.00
   -2    4   13      2.92      0.00
    0    4   13      1.62      0.00
    2    4   13     -0.90      0.00
    4    4   13     -2.35      0.00
    6    4   13     -2.33      0.00
    8    4   13     -1.77      0.00
   10    4   13     -1.01      0.00
   12    4   13     -0.02      0.00
   14    4   13      0.81      0.00
   16    4   13      1.07      0.00
   18    4   13      0.98      0.00
   20    4   13      0.94      0.00
   22    4   13      1.01      0.00
  -23    5   13     -0.16      0.00
  -21    5   13      1.58      0.00
  -19    5   13      2.77      0.00
  -17    5   13      2.90      0.00
  -15    5   13      1.45      0.00
  -13    5   13     -1.31      0.00
  -11    5   13     -3.36      0.00
   -9    5   13     -2.99      0.00
   -7    5   13     -1.62      0.00
   -5    5   13     -2.04      0.00
   -3    5   13     -4.01      0.00
   -1    5   13     -4.62      0.00
    1    5   13     -2.74      0.00
    3    5   13     -0.09      0.00
    5    5   13      1.86      0.00
    7    5   13      3.04      0.00
    9    5   13      3.32      0.00
   11    5   13      2.36      0.00
   13    5   13      0.76      0.00
   15    5   13     -0.26      0.00
   17    5   13     -0.39      0.00
   19    5   13     -0.28      0.00
   21    5   13     -0.50      0.00
   23    5   13     -0.88      0.00
  -22    6   13     -1.01      0.00
  -20    6   13     -2.67      0.00
  -18    6   13     -3.58      0.00
  -16    6   13     -3.30      0.00
  -14    6   13     -1.36      0.00
  -12    6   13      1.26      0.00
  -10    6   13      2.25      0.00
   -8    6   13      1.17      0.00
   -6    6   13      0.72      0.00
   -4    6   13      2.78      0.00
   -2    6   13      5.26      0.00
    0    6   13      5.36      0.00
    2    6   13      3.20      0.00
    4    6   13      0.56      0.00
    6    6   13     -1.80      0.00
    8    6   13     -3.50      0.00
   10    6   13     -3.75      0.00
   12    6   13     -2.43      0.00
   14    6   13     -0.78      0.00
   16    6   13      0.14      0.00
   18    6   13      0.40      0.00
   20    6   13      0.57      0.00
   22    6   13      0.83      0.00
  -23    7   13      0.25      0.00
  -21    7   13      1.89      0.00
  -19    7   13      3.07      0.00
  -17    7   13      3.49      0.00
  -15    7   13      2.66      0.00
  -13    7   13      0.47      0.00
  -11    7   13     -1.37      0.00
   -9    7   13     -1.02      0.00
   -7    7   13      0.20      0.00
   -5    7   13     -0.70      0.00
   -3    7   13     -3.66      0.00
   -1    7   13     -5.57      0.00
    1    7   13     -4.85      0.00
    3    7   13     -2.80      0.00
    5    7   13     -0.63      0.00
    7    7   13      1.48      0.00
    9    7   13      2.97      0.00
   11    7   13      2.99      0.00
   13    7   13      1.77      0.00
   15    7   13      0.33      0.00
   17    7   13     -0.72      0.00
   19    7   13     -1.27      0.00
   21    7   13     -1.35      0.00
  -22    8   13     -0.94      0.00
  -20    8   13     -2.01      0.00
  -18    8   13     -2.59      0.00
  -16    8   13     -2.47      0.00
  -14    8   13     -1.11      0.00
  -12    8   13      1.00      0.00
  -10    8   13      1.78      0.00
   -8    8   13      0.65      0.00
   -6    8   13      0.09      0.00
   -4    8   13      1.97      0.00
   -2    8   13      4.42      0.00
    0    8   13      4.90      0.00
    2    8   13      3.73      0.00
    4    8   13      2.41      0.00
    8    8   13     -0.62      0.00
   10    8   13     -1.85      0.00
   12    8   13     -1.86      0.00
   14    8   13     -0.82      0.00
   16    8   13      0.62      0.00
   18    8   13      1.79      0.00
   20    8   13      2.09      0.00
   22    8   13      1.51      0.00
  -21    9   13      0.89      0.00
  -19    9   13      1.37      0.00
  -17    9   13      1.55      0.00
  -15    9   13      1.04      0.00
  -13    9   13     -0.66      0.00
  -11    9   13     -2.37      0.00
   -9    9   13     -2.31      0.00
   -7    9   13     -1.20      0.00
   -5    9   13     -1.53      0.00
   -3    9   13     -3.40      0.00
   -1    9   13     -4.44      0.00
    1    9   13     -3.89      0.00
    3    9   13     -3.14      0.00
    5    9   13     -2.71      0.00
    7    9   13     -1.76      0.00
    9    9   13     -0.27      0.00
   11    9   13      0.72      0.00
   13    9   13      0.58      0.00
   15    9   13     -0.47      0.00
   17    9   13     -1.76      0.00
   19    9   13     -2.37      0.00
   21    9   13     -1.86      0.00
  -22   10   13      0.04      0.00
  -20   10   13     -0.31      0.00
  -18   10   13     -0.53      0.00
  -16   10   13     -0.63      0.00
  -14   10   13      0.13      0.00
  -12   10   13      1.88      0.00
  -10   10   13      2.96      0.00
   -8   10   13      2.34      0.00
   -6   10   13      1.67      0.00
   -4   10   13      2.54      0.00
   -2   10   13      3.75      0.00
    0   10   13      3.74      0.00
    2   10   13      3.23      0.00
    4   10   13      3.28      0.00
    6   10   13      3.20      0.00
    8   10   13      2.22      0.00
   10   10   13      1.01      0.00
   12   10   13      0.51      0.00
   14   10   13      0.85      0.00
   16   10   13      1.64      0.00
   18   10   13      2.16      0.00
   20   10   13      1.78      0.00
  -21   11   13     -0.41      0.00
  -19   11   13     -0.27      0.00
  -17   11   13      0.03      0.00
  -15   11   13      0.12      0.00
  -13   11   13     -0.84      0.00
  -11   11   13     -2.24      0.00
   -9   11   13     -2.34      0.00
   -7   11   13     -1.31      0.00
   -5   11   13     -1.16      0.00
   -3   11   13     -2.23      0.00
   -1   11   13     -2.89      0.00
    1   11   13     -2.75      0.00
    3   11   13     -2.92      0.00
    5   11   13     -3.44      0.00
    7   11   13     -3.27      0.00
    9   11   13     -2.42      0.00
   11   11   13     -1.76      0.00
   13   11   13     -1.59      0.00
   15   11   13     -1.69      0.00
   17   11   13     -1.76      0.00
   19   11   13     -1.38      0.00
   21   11   13     -0.53      0.00
  -22   12   13      0.67      0.00
  -20   12   13      0.68      0.00
  -18   12   13      0.57      0.00
  -16   12   13      0.22      0.00
  -14   12   13      0.34      0.00
  -12   12   13      1.29      0.00
  -10   12   13      1.73      0.00
   -8   12   13      0.65      0.00
   -6   12   13     -0.48      0.00
   -4   12   13     -0.01      0.00
   -2   12   13      1.20      0.00
    0   12   13      1.70      0.00
    2   12   13      1.96      0.00
    4   12   13      2.69      0.00
    6   12   13      3.22      0.00
    8   12   13      2.95      0.00
   10   12   13      2.41      0.00
   12   12   13      2.00      0.00
   14   12   13      1.59      0.00
   16   12   13      1.17      0.00
   18   12   13      0.78      0.00
   20   12   13      0.25      0.00
  -21   13   13     -0.66      0.00
  -19   13   13     -0.87      0.00
  -17   13   13     -0.83      0.00
  -15   13   13     -0.67      0.00
  -13   13   13     -1.04      0.00
  -11   13   13     -1.46      0.00
   -9   13   13     -0.55      0.00
   -7   13   13      1.28      0.00
   -5   13   13      1.83      0.00
   -3   13   13      0.61      0.00
   -1   13   13     -0.65      0.00
    1   13   13     -1.16      0.00
    3   13   13     -1.75      0.00
    5   13   13     -2.50      0.00
    7   13   13     -2.65      0.00
    9   13   13     -2.22      0.00
   11   13   13     -1.68      0.00
   13   13   13     -1.01      0.00
   15   13   13     -0.27      0.00
   17   13   13      0.12      0.00
   19   13   13      0.19      0.00
  -20   14   13      0.77      0.00
  -18   14   13      1.14      0.00
  -16   14   13      1.18      0.00
  -14   14   13      1.24      0.00
  -12   14   13      1.52      0.00
  -10   14   13      1.04      0.00
   -8   14   13     -0.79      0.00
   -6   14   13     -2.27      0.00
   -4   14   13     -1.68      0.00
   -2   14   13      0.00      0.00
    0   14   13      1.03      0.00
    2   14   13      1.49      0.00
    4   14   13      2.00      0.00
    6   14   13      2.16      0.00
    8   14   13      1.63      0.00
   10   14   13      0.88      0.00
   12   14   13      0.13      0.00
   14   14   13     -0.68      0.00
   16   14   13     -1.09      0.00
   18   14   13     -0.82      0.00
   20   14   13     -0.33      0.00
  -19   15   13     -0.99      0.00
  -17   15   13     -1.26      0.00
  -15   15   13     -1.19      0.00
  -13   15   13     -1.26      0.00
  -11   15   13     -1.26      0.00
   -9   15   13     -0.20      0.00
   -7   15   13      1.48      0.00
   -5   15   13      1.82      0.00
   -3   15   13      0.40      0.00
   -1   15   13     -1.07      0.00
    1   15   13     -1.68      0.00
    3   15   13     -1.99      0.00
    5   15   13     -2.03      0.00
    7   15   13     -1.35      0.00
    9   15   13     -0.28      0.00
   11   15   13      0.54      0.00
   13   15   13      1.17      0.00
   15   15   13      1.54      0.00
   17   15   13      1.25      0.00
   19   15   13      0.52      0.00
  -20   16   13      0.70      0.00
  -18   16   13      0.93      0.00
  -16   16   13      0.75      0.00
  -14   16   13      0.48      0.00
  -12   16   13      0.63      0.00
  -10   16   13      0.60      0.00
   -8   16   13     -0.33      0.00
   -6   16   13     -1.17      0.00
   -4   16   13     -0.63      0.00
   -2   16   13      0.65      0.00
    0   16   13      1.41      0.00
    2   16   13      1.72      0.00
    4   16   13      1.88      0.00
    6   16   13      1.41      0.00
    8   16   13      0.30      0.00
   10   16   13     -0.62      0.00
   12   16   13     -1.01      0.00
   14   16   13     -1.18      0.00
   16   16   13     -1.06      0.00
   18   16   13     -0.53      0.00
  -19   17   13     -0.56      0.00
  -17   17   13     -0.30      0.00
  -15   17   13      0.25      0.00
  -13   17   13      0.37      0.00
  -11   17   13     -0.17      0.00
   -9   17   13     -0.39      0.00
   -7   17   13      0.12      0.00
   -5   17   13      0.32      0.00
   -3   17   13     -0.24      0.00
   -1   17   13     -0.72      0.00
    1   17   13     -0.82      0.00
    3   17   13     -1.02      0.00
    5   17   13     -1.09      0.00
    7   17   13     -0.49      0.00
    9   17   13      0.25      0.00
   11   17   13      0.46      0.00
   13   17   13      0.38      0.00
   15   17   13      0.37      0.00
   17   17   13      0.25      0.00
   19   17   13      0.07      0.00
  -18   18   13      0.13      0.00
  -16   18   13     -0.35      0.00
  -14   18   13     -0.75      0.00
  -12   18   13     -0.34      0.00
  -10   18   13      0.55      0.00
   -8   18   13      0.83      0.00
   -6   18   13      0.56      0.00
   -4   18   13      0.53      0.00
   -2   18   13      0.59      0.00
    0   18   13      0.25      0.00
    2   18   13     -0.04      0.00
    4   18   13      0.09      0.00
    6   18   13      0.14      0.00
    8   18   13     -0.06      0.00
   10   18   13      0.00      0.00
   12   18   13      0.28      0.00
   14   18   13      0.27      0.00
   16   18   13      0.04      0.00
   18   18   13     -0.10      0.00
  -17   19   13      0.02      0.00
  -15   19   13      0.23      0.00
  -13   19   13      0.15      0.00
  -11   19   13     -0.61      0.00
   -9   19   13     -1.34      0.00
   -7   19   13     -1.39      0.00
   -5   19   13     -1.25      0.00
   -3   19   13     -1.23      0.00
   -1   19   13     -0.77      0.00
    1   19   13      0.12      0.00
    3   19   13      0.66      0.00
    5   19   13      0.62      0.00
    7   19   13      0.39      0.00
    9   19   13     -0.02      0.00
   11   19   13     -0.51      0.00
   13   19   13     -0.56      0.00
   15   19   13     -0.12      0.00
   17   19   13      0.25      0.00
  -16   20   13      0.45      0.00
  -14   20   13      0.56      0.00
  -12   20   13      0.86      0.00
  -10   20   13      1.42      0.00
   -8   20   13      1.64      0.00
   -6   20   13      1.50      0.00
   -4   20   13      1.55      0.00
   -2   20   13      1.49      0.00
    0   20   13      0.67      0.00
    2   20   13     -0.43      0.00
    4   20   13     -0.98      0.00
    6   20   13     -0.84      0.00
    8   20   13     -0.27      0.00
   10   20   13      0.41      0.00
   12   20   13      0.62      0.00
   14   20   13      0.13      0.00
   16   20   13     -0.43      0.00
  -17   21   13     -0.45      0.00
  -15   21   13     -0.93      0.00
  -13   21   13     -1.00      0.00
  -11   21   13     -1.16      0.00
   -9   21   13     -1.30      0.00
   -7   21   13     -1.08      0.00
   -5   21   13     -0.92      0.00
   -3   21   13     -1.08      0.00
   -1   21   13     -0.91      0.00
    1   21   13     -0.09      0.00
    3   21   13      0.72      0.00
    5   21   13      0.90      0.00
    7   21   13      0.48      0.00
    9   21   13     -0.21      0.00
   11   21   13     -0.61      0.00
   13   21   13     -0.28      0.00
   15   21   13      0.38      0.00
  -16   22   13      0.53      0.00
  -14   22   13      0.66      0.00
  -12   22   13      0.53      0.00
  -10   22   13      0.58      0.00
   -8   22   13      0.43      0.00
   -6   22   13     -0.03      0.00
   -4   22   13     -0.23      0.00
   -2   22   13     -0.08      0.00
    0   22   13     -0.15      0.00
    2   22   13     -0.49      0.00
    4   22   13     -0.64      0.00
    6   22   13     -0.44      0.00
    8   22   13      0.03      0.00
   10   22   13      0.48      0.00
   12   22   13      0.44      0.00
   14   22   13     -0.09      0.00
  -15   23   13     -0.06      0.00
  -13   23   13      0.18      0.00
  -11   23   13      0.24      0.00
   -9   23   13      0.14      0.00
   -7   23   13      0.50      0.00
   -5   23   13      1.13      0.00
   -3   23   13      1.29      0.00
   -1   23   13      1.00      0.00
    1   23   13      0.68      0.00
    3   23   13      0.47      0.00
    5   23   13      0.32      0.00
    7   23   13      0.16      0.00
    9   23   13     -0.10      0.00
   11   23   13     -0.29      0.00
   13   23   13     -0.13      0.00
  -14   24   13     -0.44      0.00
  -12   24   13     -0.67      0.00
  -10   24   13     -0.46      0.00
   -8   24   13     -0.42      0.00
   -6   24   13     -1.01      0.00
   -4   24   13     -1.58      0.00
   -2   24   13     -1.47      0.00
    0   24   13     -0.92      0.00
    2   24   13     -0.43      0.00
    4   24   13     -0.25      0.00
    6   24   13     -0.35      0.00
    8   24   13     -0.41      0.00
   10   24   13     -0.22      0.00
   12   24   13     -0.01      0.00
  -11   25   13      0.37      0.00
   -9   25   13      0.13      0.00
   -7   25   13      0.35      0.00
   -5   25   13      0.98      0.00
   -3   25   13      1.20      0.00
   -1   25   13      0.80      0.00
    1   25   13      0.31      0.00
    3   25   13      0.16      0.00
    5   25   13      0.41      0.00
    7   25   13      0.74      0.00
    9   25   13      0.71      0.00
   11   25   13      0.35      0.00
  -10   26   13      0.16      0.00
   -8   26   13      0.17      0.00
   -6   26   13     -0.25      0.00
   -4   26   13     -0.60      0.00
   -2   26   13     -0.43      0.00
    0   26   13     -0.05      0.00
    2   26   13      0.05      0.00
    4   26   13     -0.23      0.00
    6   26   13     -0.62      0.00
    8   26   13     -0.76      0.00
   10   26   13     -0.51      0.00
   -9   27   13     -0.26      0.00
   -7   27   13     -0.07      0.00
   -5   27   13      0.20      0.00
   -3   27   13      0.12      0.00
   -1   27   13     -0.24      0.00
    1   27   13     -0.40      0.00
    3   27   13     -0.22      0.00
    5   27   13      0.08      0.00
    7   27   13      0.28      0.00
    9   27   13      0.26      0.00
   -6   28   13     -0.16      0.00
   -4   28   13     -0.03      0.00
   -2   28   13      0.42      0.00
    0   28   13      0.81      0.00
    2   28   13      0.82      0.00
    4   28   13      0.62      0.00
    6   28   13      0.42      0.00
   -3   29   13     -0.33      0.00
   -1   29   13     -0.94      0.00
    1   29   13     -1.23      0.00
    3   29   13     -1.13      0.00
  -22    0   14      1.36      0.00
  -20    0   14      0.73      0.00
  -18    0   14     -0.30      0.00
  -16    0   14     -0.73      0.00
  -14    0   14     -1.82      0.00
  -12    0   14     -3.37      0.00
  -10    0   14     -2.12      0.00
   -8    0   14      2.26      0.00
   -6    0   14      4.67      0.00
   -4    0   14      1.91      0.00
   -2    0   14     -2.13      0.00
    0    0   14     -2.22      0.00
    2    0   14      1.03      0.00
    4    0   14      3.11      0.00
    6    0   14      2.26      0.00
    8    0   14      0.74      0.00
   10    0   14      0.40      0.00
   12    0   14      0.30      0.00
   14    0   14     -0.74      0.00
   16    0   14     -1.99      0.00
   18    0   14     -2.41      0.00
   20    0   14     -2.26      0.00
   22    0   14     -1.90      0.00
  -21    1   14     -1.32      0.00
  -19    1   14     -0.21      0.00
  -17    1   14      0.50      0.00
  -15    1   14      1.03      0.00
  -13    1   14      2.63      0.00
  -11    1   14      3.34      0.00
   -9    1   14      0.50      0.00
   -7    1   14     -3.32      0.00
   -5    1   14     -3.07      0.00
   -3    1   14      0.85      0.00
   -1    1   14      3.01      0.00
    1    1   14      0.96      0.00
    3    1   14     -2.04      0.00
    5    1   14     -2.51      0.00
    7    1   14     -1.17      0.00
    9    1   14     -0.50      0.00
   11    1   14     -0.66      0.00
   13    1   14     -0.17      0.00
   15    1   14      1.03      0.00
   17    1   14      1.68      0.00
   19    1   14      1.58      0.00
   21    1   14      1.43      0.00
  -22    2   14      1.72      0.00
  -20    2   14      1.00      0.00
  -18    2   14     -0.15      0.00
  -16    2   14     -0.55      0.00
  -14    2   14     -1.47      0.00
  -12    2   14     -3.06      0.00
  -10    2   14     -2.51      0.00
   -8    2   14      0.71      0.00
   -6    2   14      2.41      0.00
   -4    2   14      0.02      0.00
   -2    2   14     -3.13      0.00
    0    2   14     -2.90      0.00
    2    2   14     -0.19      0.00
    4    2   14      1.39      0.00
    6    2   14      0.94      0.00
    8    2   14      0.52      0.00
   10    2   14      1.07      0.00
   12    2   14      1.25      0.00
   14    2   14      0.39      0.00
   16    2   14     -0.29      0.00
   18    2   14     -0.01      0.00
   20    2   14      0.29      0.00
   22    2   14     -0.09      0.00
  -23    3   14     -1.65      0.00
  -21    3   14     -1.70      0.00
  -19    3   14     -0.44      0.00
  -17    3   14      0.35      0.00
  -15    3   14      0.64      0.00
  -13    3   14      1.75      0.00
  -11    3   14      2.41      0.00
   -9    3   14      0.51      0.00
   -7    3   14     -1.95      0.00
   -5    3   14     -1.19      0.00
   -3    3   14      2.15      0.00
   -1    3   14      3.84      0.00
    1    3   14      2.41      0.00
    3    3   14      0.50      0.00
    5    3   14      0.08      0.00
    7    3   14      0.02      0.00
    9    3   14     -1.03      0.00
   11    3   14     -2.08      0.00
   13    3   14     -1.74      0.00
   15    3   14     -0.88      0.00
   17    3   14     -1.07      0.00
   19    3   14     -1.81      0.00
   21    3   14     -1.63      0.00
  -22    4   14      1.85      0.00
  -20    4   14      1.11      0.00
  -18    4   14     -0.07      0.00
  -16    4   14     -0.40      0.00
  -14    4   14     -0.74      0.00
  -12    4   14     -1.33      0.00
  -10    4   14     -0.17      0.00
   -8    4   14      2.67      0.00
   -6    4   14      3.51      0.00
   -4    4   14      0.62      0.00
   -2    4   14     -2.76      0.00
    0    4   14     -3.28      0.00
    2    4   14     -1.85      0.00
    4    4   14     -0.99      0.00
    6    4   14     -0.78      0.00
    8    4   14      0.33      0.00
   10    4   14      2.08      0.00
   12    4   14      2.61      0.00
   14    4   14      1.71      0.00
   16    4   14      1.20      0.00
   18    4   14      1.84      0.00
   20    4   14      2.30      0.00
   22    4   14      1.61      0.00
  -23    5   14     -1.31      0.00
  -21    5   14     -1.44      0.00
  -19    5   14     -0.46      0.00
  -17    5   14      0.21      0.00
  -15    5   14      0.39      0.00
  -13    5   14      0.78      0.00
  -11    5   14      0.11      0.00
   -9    5   14     -2.87      0.00
   -7    5   14     -5.51      0.00
   -5    5   14     -4.26      0.00
   -3    5   14     -0.30      0.00
   -1    5   14      2.12      0.00
    1    5   14      1.65      0.00
    3    5   14      0.64      0.00
    5    5   14      0.61      0.00
    7    5   14      0.34      0.00
    9    5   14     -1.13      0.00
   11    5   14     -2.45      0.00
   13    5   14     -2.10      0.00
   15    5   14     -0.99      0.00
   17    5   14     -0.78      0.00
   19    5   14     -1.31      0.00
   21    5   14     -1.38      0.00
  -22    6   14      1.12      0.00
  -20    6   14      0.96      0.00
  -18    6   14      0.36      0.00
  -16    6   14      0.03      0.00
  -14    6   14     -0.57      0.00
  -12    6   14     -0.91      0.00
  -10    6   14      1.06      0.00
   -8    6   14      4.69      0.00
   -6    6   14      5.95      0.00
   -4    6   14      3.28      0.00
   -2    6   14      0.11      0.00
    0    6   14     -0.30      0.00
    2    6   14      0.94      0.00
    4    6   14      1.12      0.00
    6    6   14      0.25      0.00
    8    6   14      0.21      0.00
   10    6   14      1.26      0.00
   12    6   14      1.66      0.00
   14    6   14      0.73      0.00
   16    6   14     -0.23      0.00
   18    6   14     -0.27      0.00
   20    6   14      0.05      0.00
   22    6   14      0.23      0.00
  -21    7   14     -0.88      0.00
  -19    7   14     -0.97      0.00
  -17    7   14     -0.89      0.00
  -15    7   14     -0.24      0.00
  -13    7   14      1.23      0.00
  -11    7   14      1.47      0.00
   -9    7   14     -1.12      0.00
   -7    7   14     -4.04      0.00
   -5    7   14     -3.81      0.00
   -3    7   14     -1.43      0.00
   -1    7   14     -0.66      0.00
    1    7   14     -2.25      0.00
    3    7   14     -3.38      0.00
    5    7   14     -2.30      0.00
    7    7   14     -0.59      0.00
    9    7   14     -0.20      0.00
   11    7   14     -0.56      0.00
   13    7   14     -0.17      0.00
   15    7   14      0.84      0.00
   17    7   14      1.32      0.00
   19    7   14      1.10      0.00
   21    7   14      0.72      0.00
  -22    8   14      0.11      0.00
  -20    8   14      0.94      0.00
  -18    8   14      1.55      0.00
  -16    8   14      1.54      0.00
  -14    8   14     -0.08      0.00
  -12    8   14     -2.33      0.00
  -10    8   14     -2.31      0.00
   -8    8   14      0.23      0.00
   -6    8   14      1.93      0.00
   -4    8   14      1.13      0.00
   -2    8   14      0.36      0.00
    0    8   14      1.94      0.00
    2    8   14      4.25      0.00
    4    8   14      4.35      0.00
    6    8   14      2.26      0.00
    8    8   14      0.42      0.00
   10    8   14     -0.09      0.00
   12    8   14     -0.39      0.00
   14    8   14     -1.21      0.00
   16    8   14     -1.75      0.00
   18    8   14     -1.48      0.00
   20    8   14     -0.98      0.00
  -21    9   14     -0.15      0.00
  -19    9   14     -1.28      0.00
  -17    9   14     -2.18      0.00
  -15    9   14     -1.57      0.00
  -13    9   14      1.06      0.00
  -11    9   14      3.26      0.00
   -9    9   14      2.50      0.00
   -7    9   14      0.24      0.00
   -5    9   14     -0.44      0.00
   -3    9   14      0.22      0.00
   -1    9   14     -0.52      0.00
    1    9   14     -3.06      0.00
    3    9   14     -4.75      0.00
    5    9   14     -3.83      0.00
    7    9   14     -1.73      0.00
    9    9   14     -0.44      0.00
   11    9   14      0.13      0.00
   13    9   14      0.98      0.00
   15    9   14      1.71      0.00
   17    9   14      1.44      0.00
   19    9   14      0.62      0.00
   21    9   14      0.21      0.00
  -22   10   14     -0.78      0.00
  -20   10   14      0.19      0.00
  -18   10   14      1.50      0.00
  -16   10   14      2.15      0.00
  -14   10   14      0.66      0.00
  -12   10   14     -2.11      0.00
  -10   10   14     -3.04      0.00
   -8   10   14     -1.21      0.00
   -6   10   14      0.56      0.00
   -4   10   14      0.30      0.00
   -2   10   14     -0.27      0.00
    0   10   14      1.04      0.00
    2   10   14      3.29      0.00
    4   10   14      4.02      0.00
    6   10   14      2.88      0.00
    8   10   14      1.63      0.00
   10   10   14      1.06      0.00
   12   10   14      0.28      0.00
   14   10   14     -0.82      0.00
   16   10   14     -1.08      0.00
   18   10   14     -0.24      0.00
   20   10   14      0.46      0.00
  -21   11   14      0.87      0.00
  -19   11   14     -0.02      0.00
  -17   11   14     -1.20      0.00
  -15   11   14     -1.21      0.00
  -13   11   14      0.68      0.00
  -11   11   14      2.31      0.00
   -9   11   14      1.30      0.00
   -7   11   14     -1.11      0.00
   -5   11   14     -1.79      0.00
   -3   11   14     -0.46      0.00
   -1   11   14      0.23      0.00
    1   11   14     -1.04      0.00
    3   11   14     -2.65      0.00
    5   11   14     -2.86      0.00
    7   11   14     -2.29      0.00
    9   11   14     -2.15      0.00
   11   11   14     -2.00      0.00
   13   11   14     -0.98      0.00
   15   11   14      0.04      0.00
   17   11   14     -0.10      0.00
   19   11   14     -0.81      0.00
   21   11   14     -0.86      0.00
  -20   12   14     -1.16      0.00
  -18   12   14     -0.35      0.00
  -16   12   14      0.52      0.00
  -14   12   14      0.04      0.00
  -12   12   14     -1.35      0.00
  -10   12   14     -1.19      0.00
   -8   12   14      1.10      0.00
   -6   12   14      2.84      0.00
   -4   12   14      1.88      0.00
   -2   12   14     -0.28      0.00
    0   12   14     -0.86      0.00
    2   12   14      0.36      0.00
    4   12   14      1.48      0.00
    6   12   14      1.72      0.00
    8   12   14      2.09      0.00
   10   12   14      2.80      0.00
   12   12   14      2.66      0.00
   14   12   14      1.47      0.00
   16   12   14      0.68      0.00
   18   12   14      0.87      0.00
   20   12   14      1.02      0.00
  -21   13   14      1.45      0.00
  -19   13   14      1.35      0.00
  -17   13   14      0.42      0.00
  -15   13   14     -0.24      0.00
  -13   13   14      0.27      0.00
  -11   13   14      0.73      0.00
   -9   13   14     -0.57      0.00
   -7   13   14     -2.61      0.00
   -5   13   14     -2.70      0.00
   -3   13   14     -0.42      0.00
   -1   13   14      1.73      0.00
    1   13   14      1.79      0.00
    3   13   14      0.62      0.00
    5   13   14     -0.17      0.00
    7   13   14     -0.75      0.00
    9   13   14     -1.94      0.00
   11   13   14     -2.90      0.00
   13   13   14     -2.43      0.00
   15   13   14     -1.25      0.00
   17   13   14     -0.79      0.00
   19   13   14     -0.89      0.00
  -20   14   14     -1.41      0.00
  -18   14   14     -0.82      0.00
  -16   14   14      0.44      0.00
  -14   14   14      1.00      0.00
  -12   14   14      0.54      0.00
  -10   14   14      0.52      0.00
   -8   14   14      1.70      0.00
   -6   14   14      2.44      0.00
   -4   14   14      1.09      0.00
   -2   14   14     -1.43      0.00
    0   14   14     -2.74      0.00
    2   14   14     -2.26      0.00
    4   14   14     -1.40      0.00
    6   14   14     -0.92      0.00
    8   14   14      0.02      0.00
   10   14   14      1.51      0.00
   12   14   14      2.10      0.00
   14   14   14      1.32      0.00
   16   14   14      0.52      0.00
   18   14   14      0.54      0.00
  -19   15   14      0.59      0.00
  -17   15   14     -0.70      0.00
  -15   15   14     -2.08      0.00
  -13   15   14     -2.22      0.00
  -11   15   14     -1.43      0.00
   -9   15   14     -1.15      0.00
   -7   15   14     -1.55      0.00
   -5   15   14     -1.18      0.00
   -3   15   14      0.59      0.00
   -1   15   14      2.36      0.00
    1   15   14      2.66      0.00
    3   15   14      2.04      0.00
    5   15   14      1.75      0.00
    7   15   14      1.50      0.00
    9   15   14      0.40      0.00
   11   15   14     -0.82      0.00
   13   15   14     -0.83      0.00
   15   15   14     -0.13      0.00
   17   15   14     -0.03      0.00
   19   15   14     -0.45      0.00
  -18   16   14      0.84      0.00
  -16   16   14      2.39      0.00
  -14   16   14      3.22      0.00
  -12   16   14      2.54      0.00
  -10   16   14      1.28      0.00
   -8   16   14      0.72      0.00
   -6   16   14      0.62      0.00
   -4   16   14     -0.16      0.00
   -2   16   14     -1.58      0.00
    0   16   14     -2.29      0.00
    2   16   14     -1.86      0.00
    4   16   14     -1.44      0.00
    6   16   14     -1.61      0.00
    8   16   14     -1.40      0.00
   10   16   14     -0.37      0.00
   12   16   14      0.28      0.00
   14   16   14     -0.05      0.00
   16   16   14     -0.30      0.00
   18   16   14      0.14      0.00
  -19   17   14     -0.72      0.00
  -17   17   14     -1.84      0.00
  -15   17   14     -2.83      0.00
  -13   17   14     -2.70      0.00
  -11   17   14     -1.43      0.00
   -9   17   14     -0.24      0.00
   -7   17   14      0.13      0.00
   -5   17   14      0.37      0.00
   -3   17   14      1.25      0.00
   -1   17   14      2.11      0.00
    1   17   14      1.84      0.00
    3   17   14      0.95      0.00
    5   17   14      0.73      0.00
    7   17   14      1.03      0.00
    9   17   14      0.70      0.00
   11   17   14     -0.04      0.00
   13   17   14     -0.14      0.00
   15   17   14      0.21      0.00
   17   17   14      0.06      0.00
  -18   18   14      0.91      0.00
  -16   18   14      1.44      0.00
  -14   18   14      1.59      0.00
  -12   18   14      0.91      0.00
  -10   18   14     -0.13      0.00
   -8   18   14     -0.65      0.00
   -6   18   14     -0.69      0.00
   -4   18   14     -1.13      0.00
   -2   18   14     -2.06      0.00
    0   18   14     -2.26      0.00
    2   18   14     -1.20      0.00
    4   18   14     -0.15      0.00
    6   18   14     -0.13      0.00
    8   18   14     -0.33      0.00
   10   18   14      0.06      0.00
   12   18   14      0.37      0.00
   14   18   14      0.08      0.00
   16   18   14     -0.12      0.00
  -17   19   14     -0.12      0.00
  -15   19   14     -0.04      0.00
  -13   19   14      0.15      0.00
  -11   19   14      0.61      0.00
   -9   19   14      0.92      0.00
   -7   19   14      0.75      0.00
   -5   19   14      0.68      0.00
   -3   19   14      1.36      0.00
   -1   19   14      2.09      0.00
    1   19   14      1.63      0.00
    3   19   14      0.31      0.00
    5   19   14     -0.32      0.00
    7   19   14     -0.06      0.00
    9   19   14      0.02      0.00
   11   19   14     -0.24      0.00
   13   19   14     -0.12      0.00
   15   19   14      0.28      0.00
   17   19   14      0.27      0.00
  -16   20   14     -0.86      0.00
  -14   20   14     -0.95      0.00
  -12   20   14     -0.94      0.00
  -10   20   14     -0.97      0.00
   -8   20   14     -0.70      0.00
   -6   20   14     -0.12      0.00
   -4   20   14     -0.01      0.00
   -2   20   14     -0.66      0.00
    0   20   14     -1.02      0.00
    2   20   14     -0.38      0.00
    4   20   14      0.33      0.00
    6   20   14      0.15      0.00
    8   20   14     -0.28      0.00
   10   20   14     -0.23      0.00
   12   20   14     -0.18      0.00
   14   20   14     -0.56      0.00
   16   20   14     -0.78      0.00
  -15   21   14      0.97      0.00
  -13   21   14      0.78      0.00
  -11   21   14      0.68      0.00
   -9   21   14      0.59      0.00
   -7   21   14     -0.03      0.00
   -5   21   14     -0.93      0.00
   -3   21   14     -1.12      0.00
   -1   21   14     -0.59      0.00
    1   21   14     -0.34      0.00
    3   21   14     -0.53      0.00
    5   21   14     -0.29      0.00
    7   21   14      0.38      0.00
    9   21   14      0.60      0.00
   11   21   14      0.46      0.00
   13   21   14      0.67      0.00
   15   21   14      1.04      0.00
  -14   22   14     -0.25      0.00
  -12   22   14     -0.10      0.00
  -10   22   14     -0.31      0.00
   -8   22   14     -0.20      0.00
   -6   22   14      0.80      0.00
   -4   22   14      1.85      0.00
   -2   22   14      1.88      0.00
    0   22   14      1.27      0.00
    2   22   14      0.92      0.00
    4   22   14      0.63      0.00
    6   22   14     -0.01      0.00
    8   22   14     -0.47      0.00
   10   22   14     -0.37      0.00
   12   22   14     -0.35      0.00
   14   22   14     -0.75      0.00
  -13   23   14     -0.37      0.00
  -11   23   14     -0.08      0.00
   -9   23   14      0.38      0.00
   -7   23   14     -0.04      0.00
   -5   23   14     -1.26      0.00
   -3   23   14     -1.95      0.00
   -1   23   14     -1.54      0.00
    1   23   14     -0.97      0.00
    3   23   14     -0.79      0.00
    5   23   14     -0.53      0.00
    7   23   14     -0.10      0.00
    9   23   14     -0.04      0.00
   11   23   14     -0.16      0.00
   13   23   14      0.10      0.00
  -12   24   14      0.29      0.00
  -10   24   14     -0.34      0.00
   -8   24   14     -0.62      0.00
   -6   24   14      0.14      0.00
   -4   24   14      1.10      0.00
   -2   24   14      1.11      0.00
    0   24   14      0.55      0.00
    2   24   14      0.45      0.00
    4   24   14      0.69      0.00
    6   24   14      0.61      0.00
    8   24   14      0.40      0.00
   10   24   14      0.42      0.00
   12   24   14      0.35      0.00
  -11   25   14      0.18      0.00
   -9   25   14      0.79      0.00
   -7   25   14      0.72      0.00
   -5   25   14     -0.04      0.00
   -3   25   14     -0.41      0.00
   -1   25   14     -0.04      0.00
    1   25   14      0.13      0.00
    3   25   14     -0.31      0.00
    5   25   14     -0.63      0.00
    7   25   14     -0.46      0.00
    9   25   14     -0.28      0.00
   11   25   14     -0.27      0.00
  -10   26   14     -0.49      0.00
   -8   26   14     -0.94      0.00
   -6   26   14     -0.73      0.00
   -4   26   14     -0.28      0.00
   -2   26   14     -0.34      0.00
    0   26   14     -0.59      0.00
    2   26   14     -0.30      0.00
    4   26   14      0.20      0.00
    6   26   14      0.23      0.00
    8   26   14     -0.02      0.00
   -7   27   14      0.90      0.00
   -5   27   14      0.74      0.00
   -3   27   14      0.61      0.00
   -1   27   14      0.78      0.00
    1   27   14      0.76      0.00
    3   27   14      0.35      0.00
    5   27   14      0.09      0.00
    7   27   14      0.17      0.00
   -6   28   14     -0.76      0.00
   -4   28   14     -0.65      0.00
   -2   28   14     -0.65      0.00
    0   28   14     -0.75      0.00
    2   28   14     -0.59      0.00
    4   28   14     -0.26      0.00
  -21    1   15     -0.36      0.00
  -19    1   15     -0.19      0.00
  -17    1   15     -0.04      0.00
  -15    1   15     -0.09      0.00
  -13    1   15     -0.41      0.00
  -11    1   15     -0.78      0.00
   -9    1   15     -1.00      0.00
   -7    1   15     -1.24      0.00
   -5    1   15     -1.56      0.00
   -3    1   15     -1.47      0.00
   -1    1   15     -0.51      0.00
    1    1   15      0.77      0.00
    3    1   15      1.34      0.00
    5    1   15      0.95      0.00
    7    1   15      0.23      0.00
    9    1   15     -0.22      0.00
   11    1   15     -0.25      0.00
   13    1   15      0.09      0.00
   15    1   15      0.78      0.00
   17    1   15      1.55      0.00
   19    1   15      1.93      0.00
   21    1   15      1.68      0.00
  -22    2   15      0.61      0.00
  -20    2   15      0.22      0.00
  -18    2   15     -0.10      0.00
  -16    2   15     -0.08      0.00
  -14    2   15      0.44      0.00
  -12    2   15      1.14      0.00
  -10    2   15      1.35      0.00
   -8    2   15      1.17      0.00
   -6    2   15      1.42      0.00
   -4    2   15      2.05      0.00
   -2    2   15      1.78      0.00
    0    2   15      0.12      0.00
    2    2   15     -1.57      0.00
    4    2   15     -1.92      0.00
    6    2   15     -1.16      0.00
    8    2   15     -0.36      0.00
   10    2   15      0.01      0.00
   12    2   15     -0.05      0.00
   14    2   15     -0.56      0.00
   16    2   15     -1.45      0.00
   18    2   15     -2.24      0.00
   20    2   15     -2.38      0.00
   22    2   15     -1.77      0.00
  -21    3   15     -0.07      0.00
  -19    3   15      0.58      0.00
  -17    3   15      0.74      0.00
  -15    3   15      0.07      0.00
  -13    3   15     -1.13      0.00
  -11    3   15     -1.68      0.00
   -9    3   15     -0.88      0.00
   -7    3   15      0.01      0.00
   -5    3   15     -0.54      0.00
   -3    3   15     -1.77      0.00
   -1    3   15     -1.59      0.00
    1    3   15      0.16      0.00
    3    3   15      1.67      0.00
    5    3   15      1.89      0.00
    7    3   15      1.45      0.00
    9    3   15      1.05      0.00
   11    3   15      0.70      0.00
   13    3   15      0.43      0.00
   15    3   15      0.46      0.00
   17    3   15      0.77      0.00
   19    3   15      1.05      0.00
   21    3   15      1.08      0.00
  -22    4   15      0.12      0.00
  -20    4   15     -1.06      0.00
  -18    4   15     -1.71      0.00
  -16    4   15     -1.32      0.00
  -14    4   15      0.23      0.00
  -12    4   15      1.79      0.00
  -10    4   15      1.52      0.00
   -8    4   15     -0.38      0.00
   -6    4   15     -1.30      0.00
   -4    4   15      0.13      0.00
   -2    4   15      1.87      0.00
    0    4   15      1.60      0.00
    2    4   15     -0.15      0.00
    4    4   15     -1.53      0.00
    6    4   15     -2.04      0.00
    8    4   15     -2.15      0.00
   10    4   15     -1.88      0.00
   12    4   15     -1.08      0.00
   14    4   15     -0.06      0.00
   16    4   15      0.77      0.00
   18    4   15      1.18      0.00
   20    4   15      1.10      0.00
   22    4   15      0.55      0.00
  -21    5   15      0.95      0.00
  -19    5   15      2.26      0.00
  -17    5   15      2.70      0.00
  -15    5   15      1.64      0.00
  -13    5   15     -0.66      0.00
  -11    5   15     -2.15      0.00
   -9    5   15     -1.08      0.00
   -7    5   15      1.01      0.00
   -5    5   15      1.04      0.00
   -3    5   15     -1.10      0.00
    1    5   15     -1.60      0.00
    3    5   15      0.22      0.00
    5    5   15      1.57      0.00
    7    5   15      2.37      0.00
    9    5   15      2.65      0.00
   11    5   15      2.04      0.00
   13    5   15      0.63      0.00
   15    5   15     -1.00      0.00
   17    5   15     -2.33      0.00
   19    5   15     -2.91      0.00
   21    5   15     -2.46      0.00
  -22    6   15     -0.13      0.00
  -20    6   15     -1.79      0.00
  -18    6   15     -3.09      0.00
  -16    6   15     -3.31      0.00
  -14    6   15     -1.62      0.00
  -12    6   15      1.17      0.00
  -10    6   15      2.43      0.00
   -8    6   15      1.12      0.00
   -6    6   15     -0.23      0.00
   -4    6   15      0.72      0.00
   -2    6   15      2.60      0.00
    0    6   15      2.84      0.00
    2    6   15      1.37      0.00
    4    6   15     -0.28      0.00
    6    6   15     -1.52      0.00
    8    6   15     -2.40      0.00
   10    6   15     -2.47      0.00
   12    6   15     -1.47      0.00
   14    6   15      0.16      0.00
   16    6   15      1.77      0.00
   18    6   15      2.90      0.00
   20    6   15      3.14      0.00
  -21    7   15      0.50      0.00
  -19    7   15      2.07      0.00
  -17    7   15      3.41      0.00
  -15    7   15      3.38      0.00
  -13    7   15      1.07      0.00
  -11    7   15     -1.89      0.00
   -9    7   15     -2.70      0.00
   -7    7   15     -1.49      0.00
   -5    7   15     -1.10      0.00
   -3    7   15     -2.44      0.00
   -1    7   15     -3.41      0.00
    1    7   15     -2.69      0.00
    3    7   15     -1.25      0.00
    5    7   15      0.01      0.00
    7    7   15      1.17      0.00
    9    7   15      1.99      0.00
   11    7   15      1.86      0.00
   13    7   15      0.84      0.00
   15    7   15     -0.42      0.00
   17    7   15     -1.50      0.00
   19    7   15     -2.13      0.00
   21    7   15     -2.09      0.00
  -22    8   15      0.79      0.00
  -20    8   15     -0.34      0.00
  -18    8   15     -1.89      0.00
  -16    8   15     -3.19      0.00
  -14    8   15     -2.62      0.00
  -12    8   15      0.14      0.00
  -10    8   15      2.51      0.00
   -8    8   15      2.41      0.00
   -6    8   15      1.36      0.00
   -4    8   15      1.78      0.00
   -2    8   15      3.08      0.00
    0    8   15      3.31      0.00
    2    8   15      2.46      0.00
    4    8   15      1.53      0.00
    6    8   15      0.56      0.00
    8    8   15     -0.66      0.00
   10    8   15     -1.47      0.00
   12    8   15     -1.38      0.00
   14    8   15     -0.73      0.00
   16    8   15     -0.03      0.00
   18    8   15      0.52      0.00
   20    8   15      0.82      0.00
  -21    9   15     -1.05      0.00
  -19    9   15     -0.10      0.00
  -17    9   15      1.41      0.00
  -15    9   15      2.30      0.00
  -13    9   15      1.04      0.00
  -11    9   15     -1.42      0.00
   -9    9   15     -2.28      0.00
   -7    9   15     -1.13      0.00
   -5    9   15     -0.54      0.00
   -3    9   15     -1.70      0.00
   -1    9   15     -2.91      0.00
    1    9   15     -2.98      0.00
    3    9   15     -2.61      0.00
    5    9   15     -2.17      0.00
    7    9   15     -1.17      0.00
    9    9   15      0.21      0.00
   11    9   15      1.11      0.00
   13    9   15      1.24      0.00
   15    9   15      0.95      0.00
   17    9   15      0.57      0.00
   19    9   15      0.27      0.00
   21    9   15      0.07      0.00
  -20   10   15      1.39      0.00
  -18   10   15      0.56      0.00
  -16   10   15     -0.72      0.00
  -14   10   15     -0.97      0.00
  -12   10   15      0.50      0.00
  -10   10   15      1.72      0.00
   -8   10   15      0.87      0.00
   -6   10   15     -0.53      0.00
   -4   10   15     -0.08      0.00
   -2   10   15      1.69      0.00
    0   10   15      2.83      0.00
    2   10   15      3.12      0.00
    4   10   15      3.28      0.00
    6   10   15      2.94      0.00
    8   10   15      1.67      0.00
   10   10   15      0.11      0.00
   12   10   15     -0.87      0.00
   14   10   15     -1.13      0.00
   16   10   15     -0.93      0.00
   18   10   15     -0.63      0.00
   20   10   15     -0.48      0.00
  -21   11   15     -1.63      0.00
  -19   11   15     -1.60      0.00
  -17   11   15     -0.79      0.00
  -15   11   15      0.23      0.00
  -13   11   15      0.08      0.00
  -11   11   15     -0.91      0.00
   -9   11   15     -0.69      0.00
   -7   11   15      0.86      0.00
   -5   11   15      1.32      0.00
   -3   11   15     -0.32      0.00
   -1   11   15     -2.29      0.00
    1   11   15     -3.30      0.00
    3   11   15     -3.87      0.00
    5   11   15     -4.17      0.00
    7   11   15     -3.50      0.00
    9   11   15     -1.93      0.00
   11   11   15     -0.40      0.00
   13   11   15      0.48      0.00
   15   11   15      0.69      0.00
   17   11   15      0.48      0.00
   19   11   15      0.32      0.00
  -20   12   15      1.54      0.00
  -18   12   15      1.45      0.00
  -16   12   15      0.44      0.00
  -14   12   15     -0.48      0.00
  -12   12   15     -0.24      0.00
  -10   12   15      0.13      0.00
   -8   12   15     -0.74      0.00
   -6   12   15     -1.67      0.00
   -4   12   15     -0.73      0.00
   -2   12   15      1.50      0.00
    0   12   15      3.15      0.00
    2   12   15      4.00      0.00
    4   12   15      4.62      0.00
    6   12   15      4.60      0.00
    8   12   15      3.51      0.00
   10   12   15      1.96      0.00
   12   12   15      0.73      0.00
   14   12   15      0.07      0.00
   16   12   15     -0.05      0.00
   18   12   15      0.03      0.00
   20   12   15     -0.10      0.00
  -19   13   15     -1.17      0.00
  -17   13   15     -0.70      0.00
  -15   13   15      0.61      0.00
  -13   13   15      1.29      0.00
  -11   13   15      0.83      0.00
   -9   13   15      0.68      0.00
   -7   13   15      1.36      0.00
   -5   13   15      1.21      0.00
   -3   13   15     -0.52      0.00
   -1   13   15     -2.44      0.00
    1   13   15     -3.51      0.00
    3   13   15     -4.17      0.00
    5   13   15     -4.54      0.00
    7   13   15     -4.07      0.00
    9   13   15     -2.91      0.00
   11   13   15     -1.75      0.00
   13   13   15     -0.91      0.00
   15   13   15     -0.45      0.00
   17   13   15     -0.33      0.00
   19   13   15     -0.22      0.00
  -20   14   15      0.36      0.00
  -18   14   15      0.45      0.00
  -16   14   15     -0.46      0.00
  -14   14   15     -1.59      0.00
  -12   14   15     -1.49      0.00
  -10   14   15     -0.64      0.00
   -8   14   15     -0.58      0.00
   -6   14   15     -0.93      0.00
   -4   14   15     -0.20      0.00
   -2   14   15      1.36      0.00
    0   14   15      2.45      0.00
    2   14   15      2.95      0.00
    4   14   15      3.35      0.00
    6   14   15      3.37      0.00
    8   14   15      2.76      0.00
   10   14   15      1.92      0.00
   12   14   15      1.21      0.00
   14   14   15      0.64      0.00
   16   14   15      0.38      0.00
   18   14   15      0.37      0.00
  -19   15   15      0.08      0.00
  -17   15   15      0.28      0.00
  -15   15   15      1.11      0.00
  -13   15   15      1.30      0.00
  -11   15   15      0.29      0.00
   -9   15   15     -0.51      0.00
   -7   15   15     -0.17      0.00
   -5   15   15      0.10      0.00
   -3   15   15     -0.63      0.00
   -1   15   15     -1.45      0.00
    1   15   15     -1.63      0.00
    3   15   15     -1.65      0.00
    5   15   15     -1.78      0.00
    7   15   15     -1.67      0.00
    9   15   15     -1.28      0.00
   11   15   15     -0.84      0.00
   13   15   15     -0.37      0.00
   15   15   15     -0.07      0.00
   17   15   15     -0.16      0.00
  -18   16   15     -0.18      0.00
  -16   16   15     -0.33      0.00
  -14   16   15     -0.47      0.00
  -12   16   15      0.35      0.00
  -10   16   15      1.52      0.00
   -8   16   15      1.55      0.00
   -6   16   15      0.73      0.00
   -4   16   15      0.55      0.00
   -2   16   15      0.99      0.00
    0   16   15      0.92      0.00
    2   16   15      0.37      0.00
    4   16   15      0.13      0.00
    6   16   15      0.25      0.00
    8   16   15      0.35      0.00
   10   16   15      0.30      0.00
   12   16   15      0.04      0.00
   14   16   15     -0.31      0.00
   16   16   15     -0.26      0.00
   18   16   15      0.19      0.00
  -17   17   15     -0.29      0.00
  -15   17   15     -0.41      0.00
  -13   17   15     -0.90      0.00
  -11   17   15     -1.97      0.00
   -9   17   15     -2.42      0.00
   -7   17   15     -1.60      0.00
   -5   17   15     -0.75      0.00
   -3   17   15     -0.73      0.00
   -1   17   15     -0.64      0.00
    1   17   15      0.17      0.00
    3   17   15      0.93      0.00
    5   17   15      0.94      0.00
    7   17   15      0.44      0.00
    9   17   15     -0.04      0.00
   11   17   15     -0.15      0.00
   13   17   15      0.17      0.00
   15   17   15      0.40      0.00
   17   17   15      0.09      0.00
  -16   18   15      0.97      0.00
  -14   18   15      1.12      0.00
  -12   18   15      1.68      0.00
  -10   18   15      2.32      0.00
   -8   18   15      1.95      0.00
   -6   18   15      0.84      0.00
   -4   18   15      0.24      0.00
   -2   18   15      0.09      0.00
    0   18   15     -0.57      0.00
    2   18   15     -1.51      0.00
    4   18   15     -1.72      0.00
    6   18   15     -1.01      0.00
    8   18   15     -0.02      0.00
   10   18   15      0.61      0.00
   12   18   15      0.54      0.00
   14   18   15      0.07      0.00
   16   18   15     -0.08      0.00
  -17   19   15     -1.10      0.00
  -15   19   15     -1.07      0.00
  -13   19   15     -0.99      0.00
  -11   19   15     -1.43      0.00
   -9   19   15     -1.66      0.00
   -7   19   15     -0.89      0.00
   -5   19   15      0.20      0.00
   -3   19   15      0.78      0.00
   -1   19   15      1.27      0.00
    1   19   15      1.98      0.00
    3   19   15      2.23      0.00
    5   19   15      1.51      0.00
    7   19   15      0.24      0.00
    9   19   15     -0.84      0.00
   11   19   15     -1.18      0.00
   13   19   15     -0.76      0.00
   15   19   15     -0.21      0.00
  -16   20   15      0.83      0.00
  -14   20   15      0.38      0.00
  -12   20   15      0.34      0.00
  -10   20   15      0.92      0.00
   -8   20   15      0.93      0.00
   -6   20   15     -0.09      0.00
   -4   20   15     -1.20      0.00
   -2   20   15     -1.84      0.00
    0   20   15     -2.26      0.00
    2   20   15     -2.38      0.00
    4   20   15     -1.81      0.00
    6   20   15     -0.69      0.00
    8   20   15      0.45      0.00
   10   20   15      1.09      0.00
   12   20   15      0.96      0.00
   14   20   15      0.35      0.00
  -15   21   15     -0.07      0.00
  -13   21   15      0.36      0.00
  -11   21   15     -0.07      0.00
   -9   21   15     -0.75      0.00
   -7   21   15     -0.40      0.00
   -5   21   15      0.81      0.00
   -3   21   15      1.74      0.00
   -1   21   15      2.00      0.00
    1   21   15      1.91      0.00
    3   21   15      1.55      0.00
    5   21   15      0.92      0.00
    7   21   15      0.22      0.00
    9   21   15     -0.34      0.00
   11   21   15     -0.48      0.00
   13   21   15     -0.10      0.00
  -14   22   15     -0.48      0.00
  -12   22   15     -0.48      0.00
  -10   22   15      0.27      0.00
   -8   22   15      0.63      0.00
   -6   22   15     -0.13      0.00
   -4   22   15     -1.12      0.00
   -2   22   15     -1.37      0.00
    0   22   15     -1.07      0.00
    2   22   15     -0.74      0.00
    4   22   15     -0.58      0.00
    6   22   15     -0.50      0.00
    8   22   15     -0.34      0.00
   10   22   15     -0.15      0.00
   12   22   15     -0.24      0.00
  -13   23   15      0.53      0.00
  -11   23   15      0.25      0.00
   -9   23   15     -0.33      0.00
   -7   23   15     -0.20      0.00
   -5   23   15      0.51      0.00
   -3   23   15      0.80      0.00
   -1   23   15      0.44      0.00
    1   23   15      0.02      0.00
    3   23   15     -0.01      0.00
    5   23   15      0.23      0.00
    7   23   15      0.42      0.00
    9   23   15      0.35      0.00
   11   23   15      0.26      0.00
  -10   24   15     -0.19      0.00
   -8   24   15      0.06      0.00
   -6   24   15     -0.16      0.00
   -4   24   15     -0.37      0.00
   -2   24   15     -0.14      0.00
    0   24   15      0.23      0.00
    2   24   15      0.32      0.00
    4   24   15      0.12      0.00
    6   24   15     -0.09      0.00
    8   24   15     -0.07      0.00
   10   24   15      0.08      0.00
   -9   25   15      0.29      0.00
   -7   25   15      0.08      0.00
   -5   25   15     -0.01      0.00
   -3   25   15     -0.18      0.00
   -1   25   15     -0.37      0.00
    1   25   15     -0.38      0.00
    3   25   15     -0.26      0.00
    5   25   15     -0.19      0.00
    7   25   15     -0.25      0.00
    9   25   15     -0.37      0.00
   -8   26   15     -0.19      0.00
   -6   26   15      0.21      0.00
   -4   26   15      0.51      0.00
   -2   26   15      0.65      0.00
    0   26   15      0.57      0.00
    2   26   15      0.40      0.00
    4   26   15      0.33      0.00
    6   26   15      0.35      0.00
   -5   27   15     -0.51      0.00
   -3   27   15     -0.74      0.00
   -1   27   15     -0.74      0.00
    1   27   15     -0.59      0.00
    3   27   15     -0.46      0.00
    5   27   15     -0.37      0.00
   -2   28   15      0.46      0.00
    0   28   15      0.50      0.00
    2   28   15      0.49      0.00
  -20    0   16      0.25      0.00
  -18    0   16     -0.21      0.00
  -16    0   16     -0.16      0.00
  -14    0   16     -0.85      0.00
  -12    0   16     -3.00      0.00
  -10    0   16     -4.16      0.00
   -8    0   16     -2.66      0.00
   -6    0   16     -1.05      0.00
   -4    0   16     -1.89      0.00
   -2    0   16     -3.15      0.00
    0    0   16     -1.49      0.00
    2    0   16      2.11      0.00
    4    0   16      3.66      0.00
    6    0   16      1.99      0.00
    8    0   16     -0.24      0.00
   10    0   16     -0.87      0.00
   12    0   16     -0.38      0.00
   14    0   16      0.39      0.00
   16    0   16      1.48      0.00
   18    0   16      2.40      0.00
   20    0   16      2.11      0.00
  -21    1   16     -0.73      0.00
  -19    1   16     -0.32      0.00
  -17    1   16     -0.07      0.00
  -15    1   16      0.12      0.00
  -13    1   16      1.70      0.00
  -11    1   16      3.63      0.00
   -9    1   16      3.17      0.00
   -7    1   16      0.92      0.00
   -5    1   16      0.46      0.00
   -3    1   16      2.29      0.00
   -1    1   16      2.82      0.00
    1    1   16      0.24      0.00
    3    1   16     -2.62      0.00
    5    1   16     -2.72      0.00
    7    1   16     -0.96      0.00
    9    1   16      0.05      0.00
   11    1   16     -0.12      0.00
   13    1   16     -0.40      0.00
   15    1   16     -0.67      0.00
   17    1   16     -1.29      0.00
   19    1   16     -1.58      0.00
   21    1   16     -0.90      0.00
  -20    2   16      1.34      0.00
  -18    2   16      0.86      0.00
  -16    2   16      0.62      0.00
  -14    2   16     -0.29      0.00
  -12    2   16     -2.23      0.00
  -10    2   16     -2.77      0.00
   -8    2   16     -0.56      0.00
   -6    2   16      1.39      0.00
   -4    2   16      0.12      0.00
   -2    2   16     -2.47      0.00
    0    2   16     -2.58      0.00
    2    2   16     -0.20      0.00
    4    2   16      1.57      0.00
    6    2   16      1.56      0.00
    8    2   16      1.37      0.00
   10    2   16      1.87      0.00
   12    2   16      1.86      0.00
   14    2   16      0.80      0.00
   16    2   16     -0.20      0.00
   18    2   16     -0.42      0.00
   20    2   16     -0.39      0.00
  -21    3   16     -1.93      0.00
  -19    3   16     -1.70      0.00
  -17    3   16     -1.33      0.00
  -15    3   16     -0.98      0.00
  -13    3   16      0.37      0.00
  -11    3   16      1.63      0.00
   -9    3   16      0.42      0.00
   -7    3   16     -2.26      0.00
   -5    3   16     -2.54      0.00
   -3    3   16      0.40      0.00
   -1    3   16      3.03      0.00
    1    3   16      2.69      0.00
    3    3   16      0.77      0.00
    5    3   16     -0.53      0.00
    7    3   16     -1.48      0.00
    9    3   16     -2.92      0.00
   11    3   16     -3.72      0.00
   13    3   16     -2.44      0.00
   15    3   16      0.04      0.00
   17    3   16      1.73      0.00
   19    3   16      2.04      0.00
   21    3   16      1.55      0.00
  -20    4   16      1.86      0.00
  -18    4   16      1.54      0.00
  -16    4   16      1.61      0.00
  -14    4   16      1.32      0.00
  -12    4   16      0.14      0.00
  -10    4   16      0.00      0.00
   -8    4   16      1.99      0.00
   -6    4   16      3.48      0.00
   -4    4   16      1.72      0.00
   -2    4   16     -1.71      0.00
    0    4   16     -3.30      0.00
    2    4   16     -2.39      0.00
    4    4   16     -0.96      0.00
    6    4   16      0.21      0.00
    8    4   16      1.98      0.00
   10    4   16      3.88      0.00
   12    4   16      3.90      0.00
   14    4   16      1.61      0.00
   16    4   16     -1.00      0.00
   18    4   16     -2.22      0.00
   20    4   16     -2.11      0.00
  -21    5   16     -1.21      0.00
  -19    5   16     -1.06      0.00
  -17    5   16     -1.27      0.00
  -15    5   16     -1.93      0.00
  -13    5   16     -1.67      0.00
  -11    5   16     -0.88      0.00
   -9    5   16     -1.51      0.00
   -7    5   16     -3.11      0.00
   -5    5   16     -2.83      0.00
   -3    5   16     -0.09      0.00
   -1    5   16      2.33      0.00
    1    5   16      2.42      0.00
    3    5   16      1.39      0.00
    5    5   16      0.76      0.00
    7    5   16     -0.09      0.00
    9    5   16     -1.91      0.00
   11    5   16     -3.33      0.00
   13    5   16     -2.71      0.00
   15    5   16     -0.74      0.00
   17    5   16      0.72      0.00
   19    5   16      1.13      0.00
   21    5   16      1.02      0.00
  -20    6   16      0.28      0.00
  -18    6   16      0.42      0.00
  -16    6   16      1.35      0.00
  -14    6   16      1.97      0.00
  -12    6   16      1.36      0.00
  -10    6   16      1.01      0.00
   -8    6   16      2.15      0.00
   -6    6   16      3.04      0.00
   -4    6   16      1.68      0.00
   -2    6   16     -0.64      0.00
    0    6   16     -1.37      0.00
    2    6   16     -0.58      0.00
    4    6   16     -0.25      0.00
    6    6   16     -0.73      0.00
    8    6   16     -0.42      0.00
   10    6   16      1.00      0.00
   12    6   16      1.93      0.00
   14    6   16      1.54      0.00
   16    6   16      0.83      0.00
   18    6   16      0.55      0.00
   20    6   16      0.31      0.00
  -21    7   16      0.42      0.00
  -19    7   16      0.22      0.00
  -17    7   16     -0.51      0.00
  -15    7   16     -1.32      0.00
  -13    7   16     -0.91      0.00
  -11    7   16      0.05      0.00
   -9    7   16     -0.49      0.00
   -7    7   16     -2.26      0.00
   -5    7   16     -2.72      0.00
   -3    7   16     -1.23      0.00
   -1    7   16     -0.08      0.00
    1    7   16     -0.62      0.00
    3    7   16     -1.24      0.00
    5    7   16     -0.28      0.00
    7    7   16      1.15      0.00
    9    7   16      1.18      0.00
   11    7   16      0.05      0.00
   13    7   16     -0.75      0.00
   15    7   16     -1.03      0.00
   17    7   16     -1.33      0.00
   19    7   16     -1.44      0.00
  -20    8   16     -0.52      0.00
  -18    8   16      0.11      0.00
  -16    8   16      0.76      0.00
  -14    8   16      0.31      0.00
  -12    8   16     -1.27      0.00
  -10    8   16     -1.74      0.00
   -8    8   16      0.18      0.00
   -6    8   16      2.41      0.00
   -4    8   16      2.52      0.00
   -2    8   16      1.38      0.00
    0    8   16      1.35      0.00
    2    8   16      2.31      0.00
    4    8   16      2.02      0.00
    6    8   16     -0.01      0.00
    8    8   16     -1.68      0.00
   10    8   16     -1.59      0.00
   12    8   16     -0.66      0.00
   14    8   16      0.05      0.00
   16    8   16      0.67      0.00
   18    8   16      1.28      0.00
   20    8   16      1.33      0.00
  -21    9   16      0.73      0.00
  -19    9   16      0.03      0.00
  -17    9   16     -0.65      0.00
  -15    9   16     -0.39      0.00
  -13    9   16      1.43      0.00
  -11    9   16      3.13      0.00
   -9    9   16      2.28      0.00
   -7    9   16     -0.60      0.00
   -5    9   16     -2.41      0.00
   -3    9   16     -1.95      0.00
   -1    9   16     -1.28      0.00
    1    9   16     -2.00      0.00
    3    9   16     -2.71      0.00
    5    9   16     -1.57      0.00
    7    9   16      0.60      0.00
    9    9   16      1.69      0.00
   11    9   16      1.41      0.00
   13    9   16      0.93      0.00
   15    9   16      0.58      0.00
   17    9   16     -0.05      0.00
   19    9   16     -0.70      0.00
  -20   10   16     -0.30      0.00
  -18   10   16      0.44      0.00
  -16   10   16      0.74      0.00
  -14   10   16     -0.39      0.00
  -12   10   16     -2.49      0.00
  -10   10   16     -3.19      0.00
   -8   10   16     -1.25      0.00
   -6   10   16      1.25      0.00
   -4   10   16      1.71      0.00
   -2   10   16      0.66      0.00
    0   10   16      0.49      0.00
    2   10   16      1.57      0.00
    4   10   16      1.93      0.00
    6   10   16      0.70      0.00
    8   10   16     -0.65      0.00
   10   10   16     -0.99      0.00
   12   10   16     -0.98      0.00
   14   10   16     -1.24      0.00
   16   10   16     -1.18      0.00
   18   10   16     -0.47      0.00
   20   10   16      0.30      0.00
  -19   11   16      0.09      0.00
  -17   11   16     -0.57      0.00
  -15   11   16     -0.63      0.00
  -13   11   16      0.59      0.00
  -11   11   16      1.99      0.00
   -9   11   16      1.61      0.00
   -7   11   16     -0.30      0.00
   -5   11   16     -1.29      0.00
   -3   11   16     -0.28      0.00
   -1   11   16      0.95      0.00
    1   11   16      0.54      0.00
    3   11   16     -0.73      0.00
    5   11   16     -1.05      0.00
    7   11   16     -0.46      0.00
    9   11   16     -0.12      0.00
   11   11   16      0.04      0.00
   13   11   16      0.73      0.00
   15   11   16      1.49      0.00
   17   11   16      1.34      0.00
   19   11   16      0.46      0.00
  -20   12   16     -0.50      0.00
  -18   12   16     -0.05      0.00
  -16   12   16      0.72      0.00
  -14   12   16      0.82      0.00
  -12   12   16     -0.11      0.00
  -10   12   16     -0.73      0.00
   -8   12   16      0.07      0.00
   -6   12   16      1.15      0.00
   -4   12   16      0.62      0.00
   -2   12   16     -1.14      0.00
    0   12   16     -1.92      0.00
    2   12   16     -0.90      0.00
    4   12   16      0.45      0.00
    6   12   16      0.92      0.00
    8   12   16      1.01      0.00
   10   12   16      1.12      0.00
   12   12   16      0.60      0.00
   14   12   16     -0.60      0.00
   16   12   16     -1.29      0.00
   18   12   16     -0.91      0.00
  -19   13   16      0.41      0.00
  -17   13   16     -0.27      0.00
  -15   13   16     -1.06      0.00
  -13   13   16     -0.92      0.00
  -11   13   16     -0.06      0.00
   -9   13   16      0.08      0.00
   -7   13   16     -0.80      0.00
   -5   13   16     -1.11      0.00
   -3   13   16      0.20      0.00
   -1   13   16      1.76      0.00
    1   13   16      1.69      0.00
    3   13   16      0.25      0.00
    5   13   16     -0.88      0.00
    7   13   16     -1.29      0.00
    9   13   16     -1.64      0.00
   11   13   16     -1.71      0.00
   13   13   16     -0.87      0.00
   15   13   16      0.28      0.00
   17   13   16      0.68      0.00
   19   13   16      0.38      0.00
  -18   14   16      0.06      0.00
  -16   14   16      0.83      0.00
  -14   14   16      1.07      0.00
  -12   14   16      0.25      0.00
  -10   14   16     -0.59      0.00
   -8   14   16     -0.19      0.00
   -6   14   16      0.83      0.00
   -4   14   16      0.70      0.00
   -2   14   16     -0.70      0.00
    0   14   16     -1.46      0.00
    2   14   16     -0.54      0.00
    4   14   16      0.79      0.00
    6   14   16      1.25      0.00
    8   14   16      1.36      0.00
   10   14   16      1.74      0.00
   12   14   16      1.73      0.00
   14   14   16      0.95      0.00
   16   14   16      0.14      0.00
   18   14   16     -0.15      0.00
  -17   15   16     -0.71      0.00
  -15   15   16     -1.06      0.00
  -13   15   16     -0.40      0.00
  -11   15   16      0.86      0.00
   -9   15   16      1.22      0.00
   -7   15   16      0.19      0.00
   -5   15   16     -0.77      0.00
   -3   15   16     -0.26      0.00
   -1   15   16      0.80      0.00
    1   15   16      0.58      0.00
    3   15   16     -0.67      0.00
    5   15   16     -1.25      0.00
    7   15   16     -0.90      0.00
    9   15   16     -0.85      0.00
   11   15   16     -1.30      0.00
   13   15   16     -1.34      0.00
   15   15   16     -0.82      0.00
   17   15   16     -0.34      0.00
  -18   16   16      0.54      0.00
  -16   16   16      1.00      0.00
  -14   16   16      0.80      0.00
  -12   16   16     -0.29      0.00
  -10   16   16     -1.27      0.00
   -8   16   16     -0.92      0.00
   -6   16   16      0.32      0.00
   -4   16   16      0.75      0.00
   -2   16   16     -0.05      0.00
    0   16   16     -0.49      0.00
    2   16   16      0.36      0.00
    4   16   16      1.18      0.00
    6   16   16      0.76      0.00
    8   16   16      0.00      0.00
   10   16   16      0.11      0.00
   12   16   16      0.63      0.00
   14   16   16      0.71      0.00
   16   16   16      0.50      0.00
  -17   17   16     -0.58      0.00
  -15   17   16     -0.91      0.00
  -13   17   16     -0.61      0.00
  -11   17   16      0.26      0.00
   -9   17   16      0.69      0.00
   -7   17   16      0.01      0.00
   -5   17   16     -0.86      0.00
   -3   17   16     -0.67      0.00
   -1   17   16      0.09      0.00
    1   17   16     -0.05      0.00
    3   17   16     -0.86      0.00
    5   17   16     -0.82      0.00
    7   17   16      0.17      0.00
    9   17   16      0.70      0.00
   11   17   16      0.34      0.00
   13   17   16     -0.04      0.00
   15   17   16     -0.12      0.00
  -16   18   16      0.38      0.00
  -14   18   16      0.85      0.00
  -12   18   16      0.75      0.00
  -10   18   16      0.15      0.00
   -8   18   16     -0.01      0.00
   -6   18   16      0.62      0.00
   -4   18   16      1.02      0.00
   -2   18   16      0.50      0.00
    0   18   16     -0.02      0.00
    2   18   16      0.31      0.00
    4   18   16      0.64      0.00
    6   18   16      0.07      0.00
    8   18   16     -0.64      0.00
   10   18   16     -0.62      0.00
   12   18   16     -0.30      0.00
   14   18   16     -0.25      0.00
   16   18   16     -0.18      0.00
  -15   19   16     -0.24      0.00
  -13   19   16     -0.83      0.00
  -11   19   16     -0.70      0.00
   -9   19   16     -0.11      0.00
   -7   19   16     -0.13      0.00
   -5   19   16     -0.73      0.00
   -3   19   16     -0.77      0.00
   -1   19   16     -0.06      0.00
    1   19   16      0.30      0.00
    3   19   16      0.00      0.00
    5   19   16     -0.08      0.00
    7   19   16      0.22      0.00
    9   19   16      0.21      0.00
   11   19   16     -0.06      0.00
   13   19   16      0.02      0.00
   15   19   16      0.29      0.00
  -14   20   16      0.17      0.00
  -12   20   16      0.54      0.00
  -10   20   16      0.14      0.00
   -8   20   16     -0.28      0.00
   -6   20   16      0.11      0.00
   -4   20   16      0.58      0.00
   -2   20   16      0.13      0.00
    0   20   16     -0.72      0.00
    2   20   16     -0.84      0.00
    4   20   16     -0.38      0.00
    6   20   16     -0.08      0.00
    8   20   16      0.17      0.00
   10   20   16      0.56      0.00
   12   20   16      0.57      0.00
   14   20   16      0.07      0.00
  -13   21   16     -0.06      0.00
  -11   21   16     -0.07      0.00
   -9   21   16      0.33      0.00
   -7   21   16      0.24      0.00
   -5   21   16     -0.35      0.00
   -3   21   16     -0.29      0.00
   -1   21   16      0.66      0.00
    1   21   16      1.27      0.00
    3   21   16      0.89      0.00
    5   21   16      0.26      0.00
    7   21   16     -0.14      0.00
    9   21   16     -0.55      0.00
   11   21   16     -0.78      0.00
   13   21   16     -0.45      0.00
  -12   22   16      0.05      0.00
  -10   22   16     -0.07      0.00
   -8   22   16     -0.13      0.00
   -6   22   16      0.33      0.00
   -4   22   16      0.59      0.00
   -2   22   16     -0.11      0.00
    0   22   16     -0.98      0.00
    2   22   16     -0.91      0.00
    4   22   16     -0.27      0.00
    6   22   16      0.04      0.00
    8   22   16      0.12      0.00
   10   22   16      0.33      0.00
   12   22   16      0.35      0.00
  -11   23   16     -0.22      0.00
   -9   23   16     -0.14      0.00
   -7   23   16     -0.32      0.00
   -5   23   16     -0.67      0.00
   -3   23   16     -0.39      0.00
   -1   23   16      0.38      0.00
    1   23   16      0.57      0.00
    3   23   16      0.02      0.00
    5   23   16     -0.24      0.00
    7   23   16      0.09      0.00
    9   23   16      0.28      0.00
   11   23   16      0.11      0.00
  -10   24   16      0.22      0.00
   -8   24   16      0.10      0.00
   -6   24   16      0.26      0.00
   -4   24   16      0.32      0.00
   -2   24   16     -0.13      0.00
    0   24   16     -0.43      0.00
    2   24   16     -0.01      0.00
    4   24   16      0.41      0.00
    6   24   16      0.09      0.00
    8   24   16     -0.43      0.00
   -7   25   16      0.41      0.00
   -5   25   16      0.23      0.00
   -3   25   16      0.27      0.00
   -1   25   16      0.58      0.00
    1   25   16      0.46      0.00
    3   25   16     -0.07      0.00
    5   25   16     -0.18      0.00
    7   25   16      0.19      0.00
   -6   26   16     -0.78      0.00
   -4   26   16     -0.43      0.00
   -2   26   16     -0.48      0.00
    0   26   16     -0.71      0.00
    2   26   16     -0.52      0.00
    4   26   16     -0.15      0.00
    6   26   16     -0.07      0.00
   -3   27   16      0.00      0.00
   -1   27   16      0.22      0.00
    1   27   16      0.54      0.00
    3   27   16      0.45      0.00
  -21    1   17      0.42      0.00
  -19    1   17      0.94      0.00
  -17    1   17      1.09      0.00
  -15    1   17      0.82      0.00
  -13    1   17      0.37      0.00
  -11    1   17      0.17      0.00
   -9    1   17      0.50      0.00
   -7    1   17      1.01      0.00
   -5    1   17      1.07      0.00
   -3    1   17      0.54      0.00
   -1    1   17     -0.13      0.00
    1    1   17     -0.50      0.00
    3    1   17     -0.45      0.00
    5    1   17      0.06      0.00
    7    1   17      0.94      0.00
    9    1   17      1.82      0.00
   11    1   17      2.09      0.00
   13    1   17      1.47      0.00
   15    1   17      0.27      0.00
   17    1   17     -0.77      0.00
   19    1   17     -0.99      0.00
  -20    2   17     -0.96      0.00
  -18    2   17     -1.54      0.00
  -16    2   17     -1.54      0.00
  -14    2   17     -1.04      0.00
  -12    2   17     -0.48      0.00
  -10    2   17     -0.54      0.00
   -8    2   17     -1.26      0.00
   -6    2   17     -1.73      0.00
   -4    2   17     -1.19      0.00
   -2    2   17     -0.06      0.00
    0    2   17      0.73      0.00
    2    2   17      0.83      0.00
    4    2   17      0.35      0.00
    6    2   17     -0.67      0.00
    8    2   17     -1.99      0.00
   10    2   17     -2.91      0.00
   12    2   17     -2.73      0.00
   14    2   17     -1.42      0.00
   16    2   17      0.27      0.00
   18    2   17      1.28      0.00
   20    2   17      1.02      0.00
  -21    3   17      0.24      0.00
  -19    3   17      1.04      0.00
  -17    3   17      1.49      0.00
  -15    3   17      1.47      0.00
  -13    3   17      0.98      0.00
  -11    3   17      0.57      0.00
   -9    3   17      0.95      0.00
   -7    3   17      1.68      0.00
   -5    3   17      1.54      0.00
   -3    3   17      0.33      0.00
   -1    3   17     -0.80      0.00
    1    3   17     -1.02      0.00
    3    3   17     -0.56      0.00
    5    3   17      0.18      0.00
    7    3   17      1.12      0.00
    9    3   17      2.01      0.00
   11    3   17      2.35      0.00
   13    3   17      1.88      0.00
   15    3   17      0.77      0.00
   17    3   17     -0.36      0.00
   19    3   17     -0.83      0.00
  -20    4   17     -0.15      0.00
  -18    4   17     -0.78      0.00
  -16    4   17     -1.29      0.00
  -14    4   17     -1.26      0.00
  -12    4   17     -0.62      0.00
  -10    4   17     -0.35      0.00
   -8    4   17     -1.03      0.00
   -6    4   17     -1.58      0.00
   -4    4   17     -0.81      0.00
   -2    4   17      0.58      0.00
    0    4   17      1.12      0.00
    2    4   17      0.60      0.00
    4    4   17     -0.15      0.00
    6    4   17     -0.64      0.00
    8    4   17     -0.87      0.00
   10    4   17     -0.93      0.00
   12    4   17     -0.90      0.00
   14    4   17     -0.83      0.00
   16    4   17     -0.58      0.00
   18    4   17     -0.15      0.00
   20    4   17      0.17      0.00
  -21    5   17     -0.51      0.00
  -19    5   17      0.09      0.00
  -17    5   17      0.84      0.00
  -15    5   17      1.25      0.00
  -13    5   17      0.60      0.00
  -11    5   17     -0.49      0.00
   -9    5   17     -0.41      0.00
   -7    5   17      0.83      0.00
   -5    5   17      1.31      0.00
   -3    5   17      0.26      0.00
   -1    5   17     -0.81      0.00
    1    5   17     -0.63      0.00
    3    5   17      0.29      0.00
    5    5   17      0.88      0.00
    7    5   17      0.76      0.00
    9    5   17      0.17      0.00
   11    5   17     -0.34      0.00
   13    5   17     -0.23      0.00
   15    5   17      0.32      0.00
   17    5   17      0.64      0.00
   19    5   17      0.40      0.00
  -20    6   17      0.32      0.00
  -18    6   17     -0.53      0.00
  -16    6   17     -1.28      0.00
  -14    6   17     -0.81      0.00
  -12    6   17      1.08      0.00
  -10    6   17      2.35      0.00
   -8    6   17      1.30      0.00
   -6    6   17     -0.65      0.00
   -4    6   17     -1.07      0.00
   -2    6   17     -0.06      0.00
    0    6   17      0.46      0.00
    2    6   17     -0.20      0.00
    4    6   17     -1.07      0.00
    6    6   17     -1.27      0.00
    8    6   17     -0.61      0.00
   10    6   17      0.45      0.00
   12    6   17      1.04      0.00
   14    6   17      0.73      0.00
   16    6   17      0.03      0.00
   18    6   17     -0.28      0.00
   20    6   17     -0.10      0.00
  -21    7   17     -0.67      0.00
  -19    7   17      0.22      0.00
  -17    7   17      1.27      0.00
  -15    7   17      1.39      0.00
  -13    7   17     -0.59      0.00
  -11    7   17     -3.37      0.00
   -9    7   17     -3.93      0.00
   -7    7   17     -1.71      0.00
   -5    7   17      0.47      0.00
   -3    7   17      0.61      0.00
   -1    7   17     -0.16      0.00
    1    7   17     -0.16      0.00
    3    7   17      0.57      0.00
    5    7   17      1.16      0.00
    7    7   17      1.10      0.00
    9    7   17      0.32      0.00
   11    7   17     -0.72      0.00
   13    7   17     -1.25      0.00
   15    7   17     -1.05      0.00
   17    7   17     -0.60      0.00
   19    7   17     -0.28      0.00
  -20    8   17      0.36      0.00
  -18    8   17     -0.76      0.00
  -16    8   17     -1.65      0.00
  -14    8   17     -0.75      0.00
  -12    8   17      2.28      0.00
  -10    8   17      4.77      0.00
   -8    8   17      4.09      0.00
   -6    8   17      1.46      0.00
   -4    8   17      0.00      0.00
   -2    8   17      0.36      0.00
    0    8   17      0.87      0.00
    2    8   17      0.64      0.00
    4    8   17      0.07      0.00
    6    8   17     -0.43      0.00
    8    8   17     -0.57      0.00
   10    8   17     -0.10      0.00
   12    8   17      0.72      0.00
   14    8   17      1.26      0.00
   16    8   17      1.31      0.00
   18    8   17      0.95      0.00
  -19    9   17     -0.28      0.00
  -17    9   17      0.91      0.00
  -15    9   17      1.56      0.00
  -13    9   17      0.09      0.00
  -11    9   17     -2.80      0.00
   -9    9   17     -4.08      0.00
   -7    9   17     -2.67      0.00
   -5    9   17     -0.95      0.00
   -3    9   17     -0.92      0.00
   -1    9   17     -1.80      0.00
    1    9   17     -2.19      0.00
    3    9   17     -1.97      0.00
    5    9   17     -1.37      0.00
    7    9   17     -0.49      0.00
    9    9   17      0.18      0.00
   11    9   17      0.11      0.00
   13    9   17     -0.51      0.00
   15    9   17     -1.07      0.00
   17    9   17     -1.16      0.00
   19    9   17     -0.62      0.00
  -20   10   17      1.15      0.00
  -18   10   17      0.48      0.00
  -16   10   17     -0.95      0.00
  -14   10   17     -1.66      0.00
  -12   10   17     -0.31      0.00
  -10   10   17      1.60      0.00
   -8   10   17      1.73      0.00
   -6   10   17      0.66      0.00
   -4   10   17      0.68      0.00
   -2   10   17      2.04      0.00
    0   10   17      3.24      0.00
    2   10   17      3.58      0.00
    4   10   17      3.28      0.00
    6   10   17      2.31      0.00
    8   10   17      0.85      0.00
   10   10   17     -0.23      0.00
   12   10   17     -0.40      0.00
   14   10   17      0.06      0.00
   16   10   17      0.54      0.00
   18   10   17      0.57      0.00
  -19   11   17     -1.44      0.00
  -17   11   17     -0.43      0.00
  -15   11   17      1.43      0.00
  -13   11   17      2.15      0.00
  -11   11   17      1.11      0.00
   -9   11   17      0.27      0.00
   -7   11   17      0.71      0.00
   -5   11   17      0.77      0.00
   -3   11   17     -0.81      0.00
   -1   11   17     -2.87      0.00
    1   11   17     -4.00      0.00
    3   11   17     -4.19      0.00
    5   11   17     -3.66      0.00
    7   11   17     -2.29      0.00
    9   11   17     -0.59      0.00
   11   11   17      0.57      0.00
   13   11   17      0.86      0.00
   15   11   17      0.54      0.00
   17   11   17      0.06      0.00
  -18   12   17      1.31      0.00
  -16   12   17     -0.27      0.00
  -14   12   17     -2.07      0.00
  -12   12   17     -2.22      0.00
  -10   12   17     -1.36      0.00
   -8   12   17     -1.44      0.00
   -6   12   17     -2.04      0.00
   -4   12   17     -1.17      0.00
   -2   12   17      1.11      0.00
    0   12   17      2.99      0.00
    2   12   17      3.72      0.00
    4   12   17      3.73      0.00
    6   12   17      3.08      0.00
    8   12   17      1.74      0.00
   10   12   17      0.22      0.00
   12   12   17     -0.86      0.00
   14   12   17     -1.23      0.00
   16   12   17     -0.89      0.00
   18   12   17     -0.24      0.00
  -19   13   17     -1.17      0.00
  -17   13   17     -0.58      0.00
  -15   13   17      1.09      0.00
  -13   13   17      1.92      0.00
  -11   13   17      1.16      0.00
   -9   13   17      0.72      0.00
   -7   13   17      1.64      0.00
   -5   13   17      2.16      0.00
   -3   13   17      0.79      0.00
   -1   13   17     -1.26      0.00
    1   13   17     -2.42      0.00
    3   13   17     -2.75      0.00
    5   13   17     -2.76      0.00
    7   13   17     -2.34      0.00
    9   13   17     -1.37      0.00
   11   13   17     -0.15      0.00
   13   13   17      0.87      0.00
   15   13   17      1.19      0.00
   17   13   17      0.71      0.00
  -18   14   17      0.70      0.00
  -16   14   17     -0.21      0.00
  -14   14   17     -1.21      0.00
  -12   14   17     -0.73      0.00
  -10   14   17      0.37      0.00
   -8   14   17      0.00      0.00
   -6   14   17     -1.41      0.00
   -4   14   17     -1.56      0.00
   -2   14   17     -0.15      0.00
    0   14   17      1.11      0.00
    2   14   17      1.52      0.00
    4   14   17      1.75      0.00
    6   14   17      2.04      0.00
    8   14   17      1.99      0.00
   10   14   17      1.37      0.00
   12   14   17      0.34      0.00
   14   14   17     -0.56      0.00
   16   14   17     -0.73      0.00
  -17   15   17     -0.34      0.00
  -15   15   17      0.53      0.00
  -13   15   17      0.66      0.00
  -11   15   17     -0.51      0.00
   -9   15   17     -1.17      0.00
   -7   15   17     -0.10      0.00
   -5   15   17      1.08      0.00
   -3   15   17      0.75      0.00
   -1   15   17     -0.23      0.00
    1   15   17     -0.62      0.00
    3   15   17     -0.71      0.00
    5   15   17     -1.16      0.00
    7   15   17     -1.73      0.00
    9   15   17     -1.89      0.00
   11   15   17     -1.40      0.00
   13   15   17     -0.51      0.00
   15   15   17      0.15      0.00
   17   15   17      0.20      0.00
  -16   16   17      0.22      0.00
  -14   16   17     -0.53      0.00
  -12   16   17     -0.14      0.00
  -10   16   17      0.99      0.00
   -8   16   17      1.01      0.00
   -6   16   17     -0.11      0.00
   -4   16   17     -0.65      0.00
   -2   16   17     -0.20      0.00
    0   16   17      0.10      0.00
    2   16   17      0.00      0.00
    4   16   17      0.22      0.00
    6   16   17      0.90      0.00
    8   16   17      1.47      0.00
   10   16   17      1.53      0.00
   12   16   17      1.07      0.00
   14   16   17      0.45      0.00
   16   16   17      0.11      0.00
  -15   17   17     -0.08      0.00
  -13   17   17      0.51      0.00
  -11   17   17     -0.17      0.00
   -9   17   17     -1.00      0.00
   -7   17   17     -0.68      0.00
   -5   17   17      0.11      0.00
   -3   17   17      0.24      0.00
   -1   17   17      0.10      0.00
    1   17   17      0.31      0.00
    3   17   17      0.40      0.00
    5   17   17     -0.04      0.00
    7   17   17     -0.64      0.00
    9   17   17     -0.90      0.00
   11   17   17     -0.77      0.00
   13   17   17     -0.43      0.00
   15   17   17     -0.19      0.00
  -16   18   17      0.77      0.00
  -14   18   17     -0.14      0.00
  -12   18   17     -0.28      0.00
  -10   18   17      0.63      0.00
   -8   18   17      1.11      0.00
   -6   18   17      0.57      0.00
   -4   18   17      0.04      0.00
   -2   18   17     -0.05      0.00
    0   18   17     -0.25      0.00
    2   18   17     -0.57      0.00
    4   18   17     -0.48      0.00
    6   18   17     -0.05      0.00
    8   18   17      0.23      0.00
   10   18   17      0.18      0.00
   12   18   17     -0.03      0.00
   14   18   17     -0.14      0.00
  -15   19   17     -0.39      0.00
  -13   19   17      0.16      0.00
  -11   19   17     -0.35      0.00
   -9   19   17     -1.20      0.00
   -7   19   17     -1.09      0.00
   -5   19   17     -0.35      0.00
   -3   19   17      0.00      0.00
   -1   19   17      0.11      0.00
    1   19   17      0.42      0.00
    3   19   17      0.65      0.00
    5   19   17      0.47      0.00
    7   19   17      0.14      0.00
    9   19   17      0.05      0.00
   11   19   17      0.22      0.00
   13   19   17      0.42      0.00
  -14   20   17      0.00      0.00
  -12   20   17      0.09      0.00
  -10   20   17      0.92      0.00
   -8   20   17      1.19      0.00
   -6   20   17      0.47      0.00
   -4   20   17     -0.21      0.00
   -2   20   17     -0.31      0.00
    0   20   17     -0.40      0.00
    2   20   17     -0.72      0.00
    4   20   17     -0.78      0.00
    6   20   17     -0.40      0.00
    8   20   17      0.04      0.00
   10   20   17      0.14      0.00
   12   20   17     -0.14      0.00
  -13   21   17      0.27      0.00
  -11   21   17     -0.27      0.00
   -9   21   17     -0.84      0.00
   -7   21   17     -0.42      0.00
   -5   21   17      0.48      0.00
   -3   21   17      0.82      0.00
   -1   21   17      0.75      0.00
    1   21   17      0.89      0.00
    3   21   17      1.07      0.00
    5   21   17      0.76      0.00
    7   21   17      0.02      0.00
    9   21   17     -0.55      0.00
   11   21   17     -0.50      0.00
  -12   22   17     -0.42      0.00
  -10   22   17      0.19      0.00
   -8   22   17      0.32      0.00
   -6   22   17     -0.39      0.00
   -4   22   17     -1.03      0.00
   -2   22   17     -1.08      0.00
    0   22   17     -1.04      0.00
    2   22   17     -1.17      0.00
    4   22   17     -1.02      0.00
    6   22   17     -0.32      0.00
    8   22   17      0.52      0.00
   10   22   17      0.84      0.00
   -9   23   17     -0.18      0.00
   -7   23   17     -0.07      0.00
   -5   23   17      0.55      0.00
   -3   23   17      0.91      0.00
   -1   23   17      0.89      0.00
    1   23   17      0.87      0.00
    3   23   17      0.81      0.00
    5   23   17      0.41      0.00
    7   23   17     -0.24      0.00
    9   23   17     -0.67      0.00
   -8   24   17      0.46      0.00
   -6   24   17      0.26      0.00
   -4   24   17     -0.26      0.00
   -2   24   17     -0.49      0.00
    0   24   17     -0.41      0.00
    2   24   17     -0.23      0.00
    4   24   17     -0.02      0.00
    6   24   17      0.22      0.00
   -7   25   17     -0.71      0.00
   -5   25   17     -0.36      0.00
   -3   25   17      0.13      0.00
   -1   25   17      0.21      0.00
    1   25   17     -0.08      0.00
    3   25   17     -0.40      0.00
    5   25   17     -0.49      0.00
   -4   26   17      0.06      0.00
   -2   26   17     -0.30      0.00
    0   26   17     -0.15      0.00
    2   26   17      0.30      0.00
  -20    0   18      1.59      0.00
  -18    0   18      2.02      0.00
  -16    0   18      2.00      0.00
  -14    0   18      1.13      0.00
  -12    0   18     -0.94      0.00
  -10    0   18     -2.49      0.00
   -8    0   18     -1.74      0.00
   -6    0   18      0.01      0.00
   -4    0   18      0.20      0.00
   -2    0   18     -0.99      0.00
    0    0   18     -1.40      0.00
    2    0   18     -0.57      0.00
    4    0   18      0.05      0.00
    6    0   18      0.17      0.00
    8    0   18      0.90      0.00
   10    0   18      2.25      0.00
   12    0   18      2.86      0.00
   14    0   18      2.17      0.00
   16    0   18      1.05      0.00
   18    0   18      0.29      0.00
  -19    1   18     -1.51      0.00
  -17    1   18     -1.65      0.00
  -15    1   18     -1.52      0.00
  -13    1   18     -0.28      0.00
  -11    1   18      1.65      0.00
   -9    1   18      2.13      0.00
   -7    1   18      0.69      0.00
   -5    1   18     -0.33      0.00
   -3    1   18      0.48      0.00
   -1    1   18      1.51      0.00
    1    1   18      1.10      0.00
    3    1   18      0.11      0.00
    5    1   18     -0.19      0.00
    7    1   18     -0.38      0.00
    9    1   18     -1.35      0.00
   11    1   18     -2.37      0.00
   13    1   18     -2.33      0.00
   15    1   18     -1.48      0.00
   17    1   18     -0.66      0.00
   19    1   18     -0.17      0.00
  -20    2   18      0.67      0.00
  -18    2   18      0.59      0.00
  -16    2   18      0.88      0.00
  -14    2   18      0.96      0.00
  -12    2   18     -0.20      0.00
  -10    2   18     -1.44      0.00
   -8    2   18     -0.98      0.00
   -6    2   18      0.23      0.00
   -4    2   18      0.00      0.00
   -2    2   18     -1.37      0.00
    0    2   18     -1.69      0.00
    2    2   18     -0.58      0.00
    4    2   18      0.32      0.00
    6    2   18      0.38      0.00
    8    2   18      0.62      0.00
   10    2   18      1.37      0.00
   12    2   18      1.74      0.00
   14    2   18      1.38      0.00
   16    2   18      0.89      0.00
   18    2   18      0.49      0.00
  -19    3   18      0.22      0.00
  -17    3   18      0.20      0.00
  -15    3   18     -0.66      0.00
  -13    3   18     -0.82      0.00
  -11    3   18      0.22      0.00
   -9    3   18      0.68      0.00
   -7    3   18     -0.22      0.00
   -5    3   18     -0.62      0.00
   -3    3   18      0.65      0.00
   -1    3   18      1.88      0.00
    1    3   18      1.33      0.00
    3    3   18     -0.07      0.00
    5    3   18     -0.67      0.00
    7    3   18     -0.63      0.00
    9    3   18     -0.89      0.00
   11    3   18     -1.18      0.00
   13    3   18     -0.97      0.00
   15    3   18     -0.62      0.00
   17    3   18     -0.49      0.00
   19    3   18     -0.21      0.00
  -20    4   18     -0.32      0.00
  -18    4   18     -0.75      0.00
  -16    4   18      0.01      0.00
  -14    4   18      1.04      0.00
  -12    4   18      0.67      0.00
  -10    4   18     -0.32      0.00
   -8    4   18     -0.05      0.00
   -6    4   18      0.92      0.00
   -4    4   18      0.49      0.00
   -2    4   18     -1.13      0.00
    0    4   18     -1.67      0.00
    2    4   18     -0.54      0.00
    4    4   18      0.62      0.00
    6    4   18      0.87      0.00
    8    4   18      0.95      0.00
   10    4   18      1.19      0.00
   12    4   18      0.97      0.00
   14    4   18      0.32      0.00
   16    4   18      0.01      0.00
   18    4   18      0.04      0.00
  -19    5   18      0.59      0.00
  -17    5   18      0.23      0.00
  -15    5   18     -0.91      0.00
  -13    5   18     -1.08      0.00
  -11    5   18      0.20      0.00
   -9    5   18      0.87      0.00
   -7    5   18     -0.15      0.00
   -5    5   18     -0.99      0.00
   -3    5   18     -0.12      0.00
   -1    5   18      1.08      0.00
    1    5   18      0.82      0.00
    3    5   18     -0.26      0.00
    5    5   18     -0.72      0.00
    7    5   18     -0.72      0.00
    9    5   18     -1.06      0.00
   11    5   18     -1.23      0.00
   13    5   18     -0.57      0.00
   15    5   18      0.29      0.00
   17    5   18      0.48      0.00
   19    5   18      0.21      0.00
  -20    6   18     -0.37      0.00
  -18    6   18     -0.11      0.00
  -16    6   18      0.85      0.00
  -14    6   18      1.35      0.00
  -12    6   18      0.09      0.00
  -10    6   18     -1.61      0.00
   -8    6   18     -1.43      0.00
   -6    6   18      0.14      0.00
   -4    6   18      0.70      0.00
   -2    6   18     -0.12      0.00
    0    6   18     -0.52      0.00
    2    6   18      0.09      0.00
    4    6   18      0.40      0.00
    6    6   18      0.00      0.00
    8    6   18      0.02      0.00
   10    6   18      0.71      0.00
   12    6   18      0.85      0.00
   14    6   18      0.05      0.00
   16    6   18     -0.63      0.00
   18    6   18     -0.46      0.00
  -19    7   18      0.08      0.00
  -17    7   18     -0.76      0.00
  -15    7   18     -1.54      0.00
  -13    7   18     -0.81      0.00
  -11    7   18      1.29      0.00
   -9    7   18      2.33      0.00
   -7    7   18      1.12      0.00
   -5    7   18     -0.43      0.00
   -3    7   18     -0.48      0.00
   -1    7   18      0.12      0.00
    1    7   18     -0.04      0.00
    3    7   18     -0.30      0.00
    5    7   18      0.44      0.00
    7    7   18      1.28      0.00
    9    7   18      0.84      0.00
   11    7   18     -0.24      0.00
   13    7   18     -0.46      0.00
   15    7   18      0.10      0.00
   17    7   18      0.33      0.00
   19    7   18     -0.12      0.00
  -20    8   18     -0.35      0.00
  -18    8   18      0.42      0.00
  -16    8   18      1.38      0.00
  -14    8   18      1.51      0.00
  -12    8   18      0.01      0.00
  -10    8   18     -1.63      0.00
   -8    8   18     -1.32      0.00
   -6    8   18      0.36      0.00
   -4    8   18      1.05      0.00
   -2    8   18      0.31      0.00
    0    8   18     -0.15      0.00
    2    8   18      0.14      0.00
    4    8   18     -0.24      0.00
    6    8   18     -1.58      0.00
    8    8   18     -2.12      0.00
   10    8   18     -1.04      0.00
   12    8   18      0.26      0.00
   14    8   18      0.54      0.00
   16    8   18      0.27      0.00
   18    8   18      0.26      0.00
  -19    9   18      0.09      0.00
  -17    9   18     -0.79      0.00
  -15    9   18     -1.60      0.00
  -13    9   18     -1.25      0.00
  -11    9   18      0.07      0.00
   -9    9   18      0.40      0.00
   -7    9   18     -0.99      0.00
   -5    9   18     -2.14      0.00
   -3    9   18     -1.38      0.00
   -1    9   18      0.03      0.00
    1    9   18      0.27      0.00
    3    9   18     -0.04      0.00
    5    9   18      0.69      0.00
    7    9   18      1.85      0.00
    9    9   18      1.68      0.00
   11    9   18      0.27      0.00
   13    9   18     -0.79      0.00
   15    9   18     -0.85      0.00
   17    9   18     -0.54      0.00
  -18   10   18      0.04      0.00
  -16   10   18      1.00      0.00
  -14   10   18      1.60      0.00
  -12   10   18      1.07      0.00
  -10   10   18      0.48      0.00
   -8   10   18      1.38      0.00
   -6   10   18      2.96      0.00
   -4   10   18      2.87      0.00
   -2   10   18      0.95      0.00
    0   10   18     -0.41      0.00
    2   10   18     -0.08      0.00
    4   10   18      0.34      0.00
    6   10   18     -0.35      0.00
    8   10   18     -0.98      0.00
   10   10   18     -0.36      0.00
   12   10   18      0.71      0.00
   14   10   18      1.02      0.00
   16   10   18      0.62      0.00
   18   10   18      0.07      0.00
  -19   11   18      0.48      0.00
  -17   11   18     -0.14      0.00
  -15   11   18     -1.08      0.00
  -13   11   18     -1.25      0.00
  -11   11   18     -0.58      0.00
   -9   11   18     -0.68      0.00
   -7   11   18     -2.21      0.00
   -5   11   18     -3.27      0.00
   -3   11   18     -2.12      0.00
   -1   11   18     -0.10      0.00
    1   11   18      0.33      0.00
    3   11   18     -0.67      0.00
    5   11   18     -1.05      0.00
    7   11   18     -0.41      0.00
    9   11   18     -0.14      0.00
   11   11   18     -0.59      0.00
   13   11   18     -0.82      0.00
   15   11   18     -0.38      0.00
   17   11   18      0.26      0.00
  -18   12   18     -0.46      0.00
  -16   12   18      0.26      0.00
  -14   12   18      0.80      0.00
  -12   12   18      0.27      0.00
  -10   12   18     -0.51      0.00
   -8   12   18      0.10      0.00
   -6   12   18      1.72      0.00
   -4   12   18      2.11      0.00
   -2   12   18      0.67      0.00
    0   12   18     -0.42      0.00
    2   12   18      0.32      0.00
    4   12   18      1.49      0.00
    6   12   18      1.45      0.00
    8   12   18      0.75      0.00
   10   12   18      0.50      0.00
   12   12   18      0.45      0.00
   14   12   18     -0.02      0.00
   16   12   18     -0.65      0.00
  -17   13   18      0.26      0.00
  -15   13   18     -0.30      0.00
  -13   13   18     -0.13      0.00
  -11   13   18      1.01      0.00
   -9   13   18      1.64      0.00
   -7   13   18      0.63      0.00
   -5   13   18     -0.72      0.00
   -3   13   18     -0.59      0.00
   -1   13   18      0.40      0.00
    1   13   18      0.23      0.00
    3   13   18     -1.10      0.00
    5   13   18     -1.73      0.00
    7   13   18     -1.11      0.00
    9   13   18     -0.41      0.00
   11   13   18     -0.13      0.00
   13   13   18      0.28      0.00
   15   13   18      0.86      0.00
   17   13   18      1.08      0.00
  -16   14   18      0.10      0.00
  -14   14   18      0.32      0.00
  -12   14   18     -0.45      0.00
  -10   14   18     -1.72      0.00
   -8   14   18     -1.92      0.00
   -6   14   18     -0.78      0.00
   -4   14   18      0.03      0.00
   -2   14   18     -0.35      0.00
    0   14   18     -0.57      0.00
    2   14   18      0.46      0.00
    4   14   18      1.54      0.00
    6   14   18      1.32      0.00
    8   14   18      0.46      0.00
   10   14   18      0.04      0.00
   12   14   18     -0.15      0.00
   14   14   18     -0.58      0.00
   16   14   18     -0.86      0.00
  -17   15   18     -0.19      0.00
  -15   15   18     -0.60      0.00
  -13   15   18     -0.50      0.00
  -11   15   18      0.52      0.00
   -9   15   18      1.52      0.00
   -7   15   18      1.29      0.00
   -5   15   18      0.37      0.00
   -3   15   18      0.19      0.00
   -1   15   18      0.54      0.00
    1   15   18      0.05      0.00
    3   15   18     -1.15      0.00
    5   15   18     -1.50      0.00
    7   15   18     -0.78      0.00
    9   15   18     -0.24      0.00
   11   15   18     -0.29      0.00
   13   15   18     -0.19      0.00
   15   15   18      0.17      0.00
  -16   16   18      0.67      0.00
  -14   16   18      1.06      0.00
  -12   16   18      0.73      0.00
  -10   16   18     -0.32      0.00
   -8   16   18     -0.90      0.00
   -6   16   18     -0.43      0.00
   -4   16   18      0.05      0.00
   -2   16   18     -0.22      0.00
    0   16   18     -0.30      0.00
    2   16   18      0.61      0.00
    4   16   18      1.47      0.00
    6   16   18      1.21      0.00
    8   16   18      0.60      0.00
   10   16   18      0.65      0.00
   12   16   18      0.94      0.00
   14   16   18      0.75      0.00
  -15   17   18     -0.91      0.00
  -13   17   18     -1.16      0.00
  -11   17   18     -0.59      0.00
   -9   17   18      0.32      0.00
   -7   17   18      0.43      0.00
   -5   17   18     -0.12      0.00
   -3   17   18     -0.15      0.00
   -1   17   18      0.30      0.00
    1   17   18      0.02      0.00
    3   17   18     -0.98      0.00
    5   17   18     -1.35      0.00
    7   17   18     -0.87      0.00
    9   17   18     -0.67      0.00
   11   17   18     -1.06      0.00
   13   17   18     -1.21      0.00
  -14   18   18      0.75      0.00
  -12   18   18      0.76      0.00
  -10   18   18      0.05      0.00
   -8   18   18     -0.46      0.00
   -6   18   18     -0.07      0.00
   -4   18   18      0.37      0.00
   -2   18   18      0.01      0.00
    0   18   18     -0.37      0.00
    2   18   18      0.23      0.00
    4   18   18      1.02      0.00
    6   18   18      0.93      0.00
    8   18   18      0.45      0.00
   10   18   18      0.50      0.00
   12   18   18      0.82      0.00
   14   18   18      0.74      0.00
  -13   19   18     -0.43      0.00
  -11   19   18     -0.25      0.00
   -9   19   18      0.33      0.00
   -7   19   18      0.28      0.00
   -5   19   18     -0.39      0.00
   -3   19   18     -0.51      0.00
   -1   19   18      0.10      0.00
    1   19   18      0.20      0.00
    3   19   18     -0.49      0.00
    5   19   18     -0.81      0.00
    7   19   18     -0.30      0.00
    9   19   18      0.13      0.00
   11   19   18      0.04      0.00
   13   19   18     -0.14      0.00
  -12   20   18      0.36      0.00
  -10   20   18      0.08      0.00
   -8   20   18     -0.20      0.00
   -6   20   18      0.27      0.00
   -4   20   18      0.84      0.00
   -2   20   18      0.54      0.00
    0   20   18     -0.03      0.00
    2   20   18      0.15      0.00
    4   20   18      0.62      0.00
    6   20   18      0.37      0.00
    8   20   18     -0.32      0.00
   10   20   18     -0.60      0.00
   12   20   18     -0.46      0.00
  -11   21   18     -0.52      0.00
   -9   21   18     -0.17      0.00
   -7   21   18     -0.15      0.00
   -5   21   18     -0.73      0.00
   -3   21   18     -0.91      0.00
   -1   21   18     -0.35      0.00
    1   21   18     -0.01      0.00
    3   21   18     -0.31      0.00
    5   21   18     -0.42      0.00
    7   21   18      0.09      0.00
    9   21   18      0.56      0.00
   11   21   18      0.57      0.00
   -8   22   18      0.12      0.00
   -6   22   18      0.29      0.00
   -4   22   18      0.72      0.00
   -2   22   18      0.49      0.00
    0   22   18     -0.12      0.00
    2   22   18     -0.20      0.00
    4   22   18      0.10      0.00
    6   22   18      0.04      0.00
    8   22   18     -0.26      0.00
   -7   23   18      0.15      0.00
   -5   23   18     -0.19      0.00
   -3   23   18     -0.33      0.00
   -1   23   18      0.20      0.00
    1   23   18      0.68      0.00
    3   23   18      0.51      0.00
    5   23   18      0.20      0.00
    7   23   18      0.16      0.00
   -6   24   18     -0.30      0.00
   -4   24   18      0.07      0.00
   -2   24   18     -0.11      0.00
    0   24   18     -0.73      0.00
    2   24   18     -0.91      0.00
    4   24   18     -0.57      0.00
    6   24   18     -0.28      0.00
   -3   25   18     -0.03      0.00
   -1   25   18      0.38      0.00
    1   25   18      0.80      0.00
    3   25   18      0.65      0.00
  -19    1   19     -0.75      0.00
  -17    1   19     -0.81      0.00
  -15    1   19     -0.36      0.00
  -13    1   19      0.22      0.00
  -11    1   19      0.51      0.00
   -9    1   19      0.56      0.00
   -7    1   19      0.58      0.00
   -5    1   19      0.49      0.00
   -3    1   19      0.20      0.00
   -1    1   19      0.01      0.00
    1    1   19      0.28      0.00
    3    1   19      0.86      0.00
    5    1   19      1.22      0.00
    7    1   19      1.02      0.00
    9    1   19      0.45      0.00
   11    1   19      0.00      0.00
   13    1   19     -0.05      0.00
   15    1   19      0.12      0.00
   17    1   19      0.20      0.00
  -18    2   19      1.13      0.00
  -16    2   19      0.79      0.00
  -14    2   19     -0.05      0.00
  -12    2   19     -0.63      0.00
  -10    2   19     -0.74      0.00
   -8    2   19     -0.84      0.00
   -6    2   19     -0.96      0.00
   -4    2   19     -0.65      0.00
   -2    2   19     -0.04      0.00
    0    2   19      0.08      0.00
    2    2   19     -0.67      0.00
    4    2   19     -1.65      0.00
    6    2   19     -1.97      0.00
    8    2   19     -1.39      0.00
   10    2   19     -0.52      0.00
   12    2   19     -0.03      0.00
   14    2   19     -0.02      0.00
   16    2   19     -0.12      0.00
   18    2   19     -0.09      0.00
  -19    3   19     -0.68      0.00
  -17    3   19     -0.61      0.00
  -15    3   19      0.02      0.00
  -13    3   19      0.52      0.00
  -11    3   19      0.42      0.00
   -9    3   19      0.35      0.00
   -7    3   19      0.79      0.00
   -5    3   19      1.04      0.00
   -3    3   19      0.46      0.00
   -1    3   19     -0.29      0.00
    1    3   19     -0.12      0.00
    3    3   19      0.96      0.00
    5    3   19      1.94      0.00
    7    3   19      1.99      0.00
    9    3   19      1.25      0.00
   11    3   19      0.45      0.00
   13    3   19      0.02      0.00
   15    3   19     -0.14      0.00
   17    3   19     -0.22      0.00
  -18    4   19     -0.05      0.00
  -16    4   19     -0.46      0.00
  -14    4   19     -0.68      0.00
  -12    4   19     -0.09      0.00
  -10    4   19      0.67      0.00
   -8    4   19      0.37      0.00
   -6    4   19     -0.70      0.00
   -4    4   19     -1.02      0.00
   -2    4   19     -0.26      0.00
    0    4   19      0.35      0.00
    2    4   19     -0.09      0.00
    4    4   19     -1.10      0.00
    6    4   19     -1.66      0.00
    8    4   19     -1.37      0.00
   10    4   19     -0.65      0.00
   12    4   19     -0.07      0.00
   14    4   19      0.28      0.00
   16    4   19      0.51      0.00
   18    4   19      0.47      0.00
  -19    5   19      0.42      0.00
  -17    5   19      0.94      0.00
  -15    5   19      1.18      0.00
  -13    5   19      0.34      0.00
  -11    5   19     -1.30      0.00
   -9    5   19     -1.89      0.00
   -7    5   19     -0.58      0.00
   -5    5   19      1.06      0.00
   -3    5   19      1.25      0.00
   -1    5   19      0.41      0.00
    1    5   19      0.02      0.00
    3    5   19      0.47      0.00
    5    5   19      0.99      0.00
    7    5   19      0.88      0.00
    9    5   19      0.28      0.00
   11    5   19     -0.27      0.00
   13    5   19     -0.48      0.00
   15    5   19     -0.55      0.00
   17    5   19     -0.55      0.00
  -18    6   19     -0.88      0.00
  -16    6   19     -1.42      0.00
  -14    6   19     -0.99      0.00
  -12    6   19      0.91      0.00
  -10    6   19      2.63      0.00
   -8    6   19      2.01      0.00
   -6    6   19     -0.41      0.00
   -4    6   19     -2.00      0.00
   -2    6   19     -1.65      0.00
    0    6   19     -0.70      0.00
    2    6   19     -0.44      0.00
    4    6   19     -0.69      0.00
    6    6   19     -0.61      0.00
    8    6   19      0.05      0.00
   10    6   19      0.75      0.00
   12    6   19      0.91      0.00
   14    6   19      0.59      0.00
   16    6   19      0.32      0.00
   18    6   19      0.14      0.00
  -19    7   19      0.30      0.00
  -17    7   19      0.99      0.00
  -15    7   19      1.31      0.00
  -13    7   19      0.13      0.00
  -11    7   19     -2.06      0.00
   -9    7   19     -2.65      0.00
   -7    7   19     -0.50      0.00
   -5    7   19      2.14      0.00
   -3    7   19      2.71      0.00
   -1    7   19      1.54      0.00
    1    7   19      0.57      0.00
    3    7   19      0.53      0.00
    5    7   19      0.70      0.00
    7    7   19      0.29      0.00
    9    7   19     -0.55      0.00
   11    7   19     -1.03      0.00
   13    7   19     -0.74      0.00
   15    7   19     -0.16      0.00
   17    7   19      0.07      0.00
  -18    8   19     -0.08      0.00
  -16    8   19     -0.86      0.00
  -14    8   19     -0.91      0.00
  -12    8   19      0.67      0.00
  -10    8   19      2.21      0.00
   -8    8   19      1.24      0.00
   -6    8   19     -1.55      0.00
   -4    8   19     -3.07      0.00
   -2    8   19     -2.13      0.00
    0    8   19     -0.50      0.00
    2    8   19      0.05      0.00
    4    8   19     -0.39      0.00
    6    8   19     -0.72      0.00
    8    8   19     -0.33      0.00
   10    8   19      0.36      0.00
   12    8   19      0.56      0.00
   14    8   19      0.19      0.00
   16    8   19     -0.06      0.00
   18    8   19      0.11      0.00
  -17    9   19     -0.16      0.00
  -15    9   19      0.83      0.00
  -13    9   19      0.59      0.00
  -11    9   19     -1.01      0.00
   -9    9   19     -1.53      0.00
   -7    9   19      0.31      0.00
   -5    9   19      2.32      0.00
   -3    9   19      2.08      0.00
   -1    9   19      0.24      0.00
    1    9   19     -0.96      0.00
    3    9   19     -0.70      0.00
    5    9   19      0.21      0.00
    7    9   19      0.71      0.00
    9    9   19      0.47      0.00
   11    9   19      0.01      0.00
   13    9   19     -0.16      0.00
   15    9   19     -0.19      0.00
   17    9   19     -0.42      0.00
  -18   10   19      1.12      0.00
  -16   10   19      0.01      0.00
  -14   10   19     -1.04      0.00
  -12   10   19     -0.35      0.00
  -10   10   19      1.10      0.00
   -8   10   19      0.90      0.00
   -6   10   19     -0.70      0.00
   -4   10   19     -1.19      0.00
   -2   10   19      0.22      0.00
    0   10   19      1.79      0.00
    2   10   19      2.04      0.00
    4   10   19      1.21      0.00
    6   10   19      0.20      0.00
    8   10   19     -0.32      0.00
   10   10   19     -0.24      0.00
   12   10   19      0.09      0.00
   14   10   19      0.40      0.00
   16   10   19      0.73      0.00
  -17   11   19     -0.96      0.00
  -15   11   19      0.64      0.00
  -13   11   19      1.27      0.00
  -11   11   19      0.00      0.00
   -9   11   19     -1.20      0.00
   -7   11   19     -0.73      0.00
   -5   11   19      0.00      0.00
   -3   11   19     -0.72      0.00
   -1   11   19     -2.24      0.00
    1   11   19     -2.94      0.00
    3   11   19     -2.55      0.00
    5   11   19     -1.71      0.00
    7   11   19     -0.92      0.00
    9   11   19     -0.46      0.00
   11   11   19     -0.37      0.00
   13   11   19     -0.51      0.00
   15   11   19     -0.75      0.00
   17   11   19     -0.86      0.00
  -16   12   19      0.12      0.00
  -14   12   19     -1.43      0.00
  -12   12   19     -1.20      0.00
  -10   12   19      0.38      0.00
   -8   12   19      1.05      0.00
   -6   12   19      0.55      0.00
   -4   12   19      0.71      0.00
   -2   12   19      1.99      0.00
    0   12   19      3.02      0.00
    2   12   19      3.07      0.00
    4   12   19      2.62      0.00
    6   12   19      2.11      0.00
    8   12   19      1.55      0.00
   10   12   19      1.03      0.00
   12   12   19      0.66      0.00
   14   12   19      0.46      0.00
   16   12   19      0.37      0.00
  -17   13   19     -0.60      0.00
  -15   13   19      1.01      0.00
  -13   13   19      1.89      0.00
  -11   13   19      0.86      0.00
   -9   13   19     -0.39      0.00
   -7   13   19     -0.29      0.00
   -5   13   19      0.04      0.00
   -3   13   19     -0.84      0.00
   -1   13   19     -2.17      0.00
    1   13   19     -2.68      0.00
    3   13   19     -2.50      0.00
    5   13   19     -2.27      0.00
    7   13   19     -2.00      0.00
    9   13   19     -1.50      0.00
   11   13   19     -0.78      0.00
   13   13   19     -0.09      0.00
   15   13   19      0.33      0.00
  -16   14   19     -0.35      0.00
  -14   14   19     -1.78      0.00
  -12   14   19     -1.71      0.00
  -10   14   19     -0.46      0.00
   -8   14   19     -0.10      0.00
   -6   14   19     -0.77      0.00
   -4   14   19     -0.65      0.00
   -2   14   19      0.63      0.00
    0   14   19      1.64      0.00
    2   14   19      1.73      0.00
    4   14   19      1.55      0.00
    6   14   19      1.51      0.00
    8   14   19      1.32      0.00
   10   14   19      0.72      0.00
   12   14   19     -0.15      0.00
   14   14   19     -0.86      0.00
  -15   15   19      0.97      0.00
  -13   15   19      1.75      0.00
  -11   15   19      0.98      0.00
   -9   15   19      0.15      0.00
   -7   15   19      0.67      0.00
   -5   15   19      1.36      0.00
   -3   15   19      0.75      0.00
   -1   15   19     -0.43      0.00
    1   15   19     -0.86      0.00
    3   15   19     -0.69      0.00
    5   15   19     -0.65      0.00
    7   15   19     -0.73      0.00
    9   15   19     -0.53      0.00
   11   15   19      0.10      0.00
   13   15   19      0.84      0.00
   15   15   19      1.18      0.00
  -14   16   19     -0.94      0.00
  -12   16   19     -0.98      0.00
  -10   16   19     -0.05      0.00
   -8   16   19      0.06      0.00
   -6   16   19     -0.86      0.00
   -4   16   19     -1.15      0.00
   -2   16   19     -0.38      0.00
    0   16   19      0.24      0.00
    2   16   19      0.16      0.00
    4   16   19      0.04      0.00
    6   16   19      0.25      0.00
    8   16   19      0.44      0.00
   10   16   19      0.27      0.00
   12   16   19     -0.24      0.00
   14   16   19     -0.68      0.00
  -13   17   19      0.50      0.00
  -11   17   19      0.06      0.00
   -9   17   19     -0.57      0.00
   -7   17   19     -0.12      0.00
   -5   17   19      0.66      0.00
   -3   17   19      0.58      0.00
   -1   17   19      0.10      0.00
    1   17   19      0.08      0.00
    3   17   19      0.25      0.00
    5   17   19      0.02      0.00
    7   17   19     -0.48      0.00
    9   17   19     -0.75      0.00
   11   17   19     -0.60      0.00
   13   17   19     -0.21      0.00
  -14   18   19      0.15      0.00
  -12   18   19     -0.14      0.00
  -10   18   19      0.46      0.00
   -8   18   19      0.66      0.00
   -6   18   19      0.00      0.00
   -4   18   19     -0.45      0.00
   -2   18   19     -0.30      0.00
    0   18   19     -0.25      0.00
    2   18   19     -0.43      0.00
    4   18   19     -0.26      0.00
    6   18   19      0.38      0.00
    8   18   19      0.99      0.00
   10   18   19      1.17      0.00
   12   18   19      0.93      0.00
  -13   19   19      0.21      0.00
  -11   19   19      0.02      0.00
   -9   19   19     -0.56      0.00
   -7   19   19     -0.38      0.00
   -5   19   19      0.24      0.00
   -3   19   19      0.47      0.00
   -1   19   19      0.44      0.00
    1   19   19      0.56      0.00
    3   19   19      0.49      0.00
    5   19   19     -0.07      0.00
    7   19   19     -0.79      0.00
    9   19   19     -1.19      0.00
   11   19   19     -1.11      0.00
  -10   20   19      0.17      0.00
   -8   20   19      0.51      0.00
   -6   20   19      0.01      0.00
   -4   20   19     -0.54      0.00
   -2   20   19     -0.63      0.00
    0   20   19     -0.57      0.00
    2   20   19     -0.50      0.00
    4   20   19     -0.16      0.00
    6   20   19      0.41      0.00
    8   20   19      0.81      0.00
   10   20   19      0.83      0.00
   -9   21   19     -0.53      0.00
   -7   21   19     -0.38      0.00
   -5   21   19      0.36      0.00
   -3   21   19      0.74      0.00
   -1   21   19      0.57      0.00
    1   21   19      0.29      0.00
    3   21   19      0.03      0.00
    5   21   19     -0.26      0.00
    7   21   19     -0.46      0.00
    9   21   19     -0.45      0.00
   -8   22   19      0.72      0.00
   -6   22   19      0.07      0.00
   -4   22   19     -0.65      0.00
   -2   22   19     -0.67      0.00
    0   22   19     -0.21      0.00
    2   22   19      0.20      0.00
    4   22   19      0.38      0.00
    6   22   19      0.38      0.00
   -5   23   19      0.31      0.00
   -3   23   19      0.71      0.00
   -1   23   19      0.40      0.00
    1   23   19     -0.12      0.00
    3   23   19     -0.39      0.00
    5   23   19     -0.37      0.00
   -4   24   19     -0.44      0.00
   -2   24   19     -0.51      0.00
    0   24   19     -0.18      0.00
    2   24   19      0.10      0.00
  -18    0   20     -0.87      0.00
  -16    0   20     -0.87      0.00
  -14    0   20     -0.22      0.00
  -12    0   20     -0.37      0.00
  -10    0   20     -1.41      0.00
   -8    0   20     -1.70      0.00
   -6    0   20     -0.74      0.00
   -4    0   20     -0.06      0.00
   -2    0   20     -0.37      0.00
    0    0   20     -0.57      0.00
    2    0   20      0.12      0.00
    4    0   20      0.94      0.00
    6    0   20      1.09      0.00
    8    0   20      0.82      0.00
   10    0   20      0.62      0.00
   12    0   20      0.76      0.00
   14    0   20      1.30      0.00
   16    0   20      1.78      0.00
  -19    1   20      0.35      0.00
  -17    1   20      0.72      0.00
  -15    1   20      0.29      0.00
  -13    1   20     -0.03      0.00
  -11    1   20      0.80      0.00
   -9    1   20      1.72      0.00
   -7    1   20      1.31      0.00
   -5    1   20      0.32      0.00
   -3    1   20      0.23      0.00
   -1    1   20      0.72      0.00
    1    1   20      0.51      0.00
    3    1   20     -0.37      0.00
    5    1   20     -0.94      0.00
    7    1   20     -0.95      0.00
    9    1   20     -0.81      0.00
   11    1   20     -0.76      0.00
   13    1   20     -0.90      0.00
   15    1   20     -1.25      0.00
   17    1   20     -1.35      0.00
  -18    2   20     -0.07      0.00
  -16    2   20      0.04      0.00
  -14    2   20      0.49      0.00
  -12    2   20      0.02      0.00
  -10    2   20     -1.26      0.00
   -8    2   20     -1.64      0.00
   -6    2   20     -0.75      0.00
   -4    2   20     -0.17      0.00
   -2    2   20     -0.63      0.00
    0    2   20     -0.98      0.00
    2    2   20     -0.44      0.00
    4    2   20      0.33      0.00
    6    2   20      0.74      0.00
    8    2   20      0.95      0.00
   10    2   20      1.03      0.00
   12    2   20      0.80      0.00
   14    2   20      0.50      0.00
   16    2   20      0.41      0.00
  -19    3   20     -0.27      0.00
  -17    3   20     -0.33      0.00
  -15    3   20     -0.85      0.00
  -13    3   20     -0.87      0.00
  -11    3   20      0.37      0.00
   -9    3   20      1.50      0.00
   -7    3   20      1.09      0.00
   -5    3   20      0.04      0.00
   -3    3   20     -0.03      0.00
   -1    3   20      0.59      0.00
    1    3   20      0.65      0.00
    3    3   20      0.13      0.00
    5    3   20     -0.29      0.00
    7    3   20     -0.61      0.00
    9    3   20     -0.96      0.00
   11    3   20     -0.90      0.00
   13    3   20     -0.25      0.00
   15    3   20      0.35      0.00
   17    3   20      0.43      0.00
  -18    4   20      0.07      0.00
  -16    4   20      0.67      0.00
  -14    4   20      1.31      0.00
  -12    4   20      0.63      0.00
  -10    4   20     -0.90      0.00
   -8    4   20     -1.23      0.00
   -6    4   20     -0.01      0.00
   -4    4   20      0.94      0.00
   -2    4   20      0.63      0.00
    0    4   20      0.07      0.00
    2    4   20      0.09      0.00
    4    4   20      0.20      0.00
    6    4   20      0.17      0.00
    8    4   20      0.37      0.00
   10    4   20      0.63      0.00
   12    4   20      0.32      0.00
   14    4   20     -0.39      0.00
   16    4   20     -0.73      0.00
  -17    5   20      0.08      0.00
  -15    5   20     -0.95      0.00
  -13    5   20     -1.19      0.00
  -11    5   20      0.10      0.00
   -9    5   20      1.17      0.00
   -7    5   20      0.29      0.00
   -5    5   20     -1.40      0.00
   -3    5   20     -1.86      0.00
   -1    5   20     -1.16      0.00
    1    5   20     -0.64      0.00
    3    5   20     -0.47      0.00
    5    5   20     -0.10      0.00
    7    5   20      0.20      0.00
    9    5   20      0.01      0.00
   11    5   20     -0.23      0.00
   13    5   20     -0.02      0.00
   15    5   20      0.30      0.00
   17    5   20      0.32      0.00
  -18    6   20     -0.75      0.00
  -16    6   20      0.15      0.00
  -14    6   20      1.11      0.00
  -12    6   20      0.56      0.00
  -10    6   20     -0.86      0.00
   -8    6   20     -0.84      0.00
   -6    6   20      0.95      0.00
   -4    6   20      2.25      0.00
   -2    6   20      1.80      0.00
    0    6   20      0.82      0.00
    2    6   20      0.41      0.00
    4    6   20      0.10      0.00
    6    6   20     -0.46      0.00
    8    6   20     -0.59      0.00
   10    6   20     -0.09      0.00
   12    6   20      0.38      0.00
   14    6   20      0.44      0.00
   16    6   20      0.30      0.00
  -17    7   20      0.38      0.00
  -15    7   20     -0.76      0.00
  -13    7   20     -1.06      0.00
  -11    7   20      0.19      0.00
   -9    7   20      1.15      0.00
   -7    7   20      0.14      0.00
   -5    7   20     -1.51      0.00
   -3    7   20     -1.59      0.00
   -1    7   20     -0.40      0.00
    1    7   20      0.33      0.00
    3    7   20      0.39      0.00
    5    7   20      0.70      0.00
    7    7   20      1.05      0.00
    9    7   20      0.60      0.00
   11    7   20     -0.37      0.00
   13    7   20     -0.95      0.00
   15    7   20     -0.89      0.00
   17    7   20     -0.42      0.00
  -18    8   20     -0.46      0.00
  -16    8   20      0.52      0.00
  -14    8   20      1.47      0.00
  -12    8   20      0.92      0.00
  -10    8   20     -0.60      0.00
   -8    8   20     -0.92      0.00
   -6    8   20      0.23      0.00
   -4    8   20      0.75      0.00
   -2    8   20     -0.29      0.00
    0    8   20     -1.34      0.00
    2    8   20     -1.31      0.00
    4    8   20     -1.13      0.00
    6    8   20     -1.43      0.00
    8    8   20     -1.30      0.00
   10    8   20     -0.21      0.00
   12    8   20      0.90      0.00
   14    8   20      1.14      0.00
   16    8   20      0.63      0.00
  -17    9   20     -0.29      0.00
  -15    9   20     -1.61      0.00
  -13    9   20     -2.07      0.00
  -11    9   20     -0.85      0.00
   -9    9   20      0.53      0.00
   -7    9   20      0.50      0.00
   -5    9   20     -0.02      0.00
   -3    9   20      0.65      0.00
   -1    9   20      1.90      0.00
    1    9   20      2.10      0.00
    3    9   20      1.53      0.00
    5    9   20      1.53      0.00
    7    9   20      1.81      0.00
    9    9   20      1.17      0.00
   11    9   20     -0.19      0.00
   13    9   20     -0.93      0.00
   15    9   20     -0.67      0.00
  -16   10   20      1.13      0.00
  -14   10   20      2.47      0.00
  -12   10   20      2.32      0.00
  -10   10   20      0.83      0.00
   -8   10   20     -0.13      0.00
   -6   10   20      0.01      0.00
   -4   10   20     -0.23      0.00
   -2   10   20     -1.46      0.00
    0   10   20     -2.18      0.00
    2   10   20     -1.63      0.00
    4   10   20     -1.13      0.00
    6   10   20     -1.50      0.00
    8   10   20     -1.64      0.00
   10   10   20     -0.71      0.00
   12   10   20      0.37      0.00
   14   10   20      0.58      0.00
   16   10   20      0.19      0.00
  -17   11   20     -0.22      0.00
  -15   11   20     -1.76      0.00
  -13   11   20     -2.73      0.00
  -11   11   20     -2.02      0.00
   -9   11   20     -0.73      0.00
   -7   11   20     -0.46      0.00
   -5   11   20     -0.67      0.00
   -3   11   20      0.08      0.00
   -1   11   20      1.26      0.00
    1   11   20      1.29      0.00
    3   11   20      0.47      0.00
    5   11   20      0.37      0.00
    7   11   20      0.95      0.00
    9   11   20      0.88      0.00
   11   11   20      0.05      0.00
   13   11   20     -0.48      0.00
   15   11   20     -0.38      0.00
  -16   12   20      0.50      0.00
  -14   12   20      1.89      0.00
  -12   12   20      2.15      0.00
  -10   12   20      1.14      0.00
   -8   12   20      0.54      0.00
   -6   12   20      1.05      0.00
   -4   12   20      1.24      0.00
   -2   12   20      0.27      0.00
    0   12   20     -0.46      0.00
    2   12   20      0.13      0.00
    4   12   20      0.87      0.00
    6   12   20      0.58      0.00
    8   12   20      0.00      0.00
   10   12   20      0.13      0.00
   12   12   20      0.56      0.00
   14   12   20      0.59      0.00
  -15   13   20     -0.60      0.00
  -13   13   20     -1.38      0.00
  -11   13   20     -0.87      0.00
   -9   13   20      0.01      0.00
   -7   13   20     -0.29      0.00
   -5   13   20     -1.29      0.00
   -3   13   20     -1.31      0.00
   -1   13   20     -0.50      0.00
    1   13   20     -0.56      0.00
    3   13   20     -1.55      0.00
    5   13   20     -1.93      0.00
    7   13   20     -1.30      0.00
    9   13   20     -0.79      0.00
   11   13   20     -0.82      0.00
   13   13   20     -0.78      0.00
   15   13   20     -0.42      0.00
  -14   14   20      0.45      0.00
  -12   14   20      0.42      0.00
  -10   14   20     -0.51      0.00
   -8   14   20     -0.89      0.00
   -6   14   20      0.06      0.00
   -4   14   20      1.02      0.00
   -2   14   20      0.90      0.00
    0   14   20      0.73      0.00
    2   14   20      1.56      0.00
    4   14   20      2.44      0.00
    6   14   20      2.17      0.00
    8   14   20      1.32      0.00
   10   14   20      0.94      0.00
   12   14   20      0.82      0.00
   14   14   20      0.42      0.00
  -15   15   20      0.10      0.00
  -13   15   20     -0.16      0.00
  -11   15   20      0.41      0.00
   -9   15   20      1.30      0.00
   -7   15   20      1.15      0.00
   -5   15   20      0.08      0.00
   -3   15   20     -0.53      0.00
   -1   15   20     -0.54      0.00
    1   15   20     -1.10      0.00
    3   15   20     -2.15      0.00
    5   15   20     -2.32      0.00
    7   15   20     -1.43      0.00
    9   15   20     -0.69      0.00
   11   15   20     -0.54      0.00
   13   15   20     -0.33      0.00
  -14   16   20      0.09      0.00
  -12   16   20      0.08      0.00
  -10   16   20     -0.69      0.00
   -8   16   20     -1.30      0.00
   -6   16   20     -0.85      0.00
   -4   16   20     -0.04      0.00
   -2   16   20      0.24      0.00
    0   16   20      0.53      0.00
    2   16   20      1.41      0.00
    4   16   20      1.95      0.00
    6   16   20      1.30      0.00
    8   16   20      0.31      0.00
   10   16   20      0.02      0.00
   12   16   20      0.11      0.00
  -13   17   20     -0.45      0.00
  -11   17   20     -0.24      0.00
   -9   17   20      0.59      0.00
   -7   17   20      0.89      0.00
   -5   17   20      0.32      0.00
   -3   17   20     -0.17      0.00
   -1   17   20     -0.26      0.00
    1   17   20     -0.67      0.00
    3   17   20     -1.31      0.00
    5   17   20     -1.14      0.00
    7   17   20     -0.20      0.00
    9   17   20      0.35      0.00
   11   17   20      0.17      0.00
  -12   18   20      0.77      0.00
  -10   18   20      0.19      0.00
   -8   18   20     -0.61      0.00
   -6   18   20     -0.48      0.00
   -4   18   20      0.21      0.00
   -2   18   20      0.41      0.00
    0   18   20      0.33      0.00
    2   18   20      0.62      0.00
    4   18   20      0.85      0.00
    6   18   20      0.36      0.00
    8   18   20     -0.28      0.00
   10   18   20     -0.30      0.00
  -11   19   20     -0.61      0.00
   -9   19   20      0.33      0.00
   -7   19   20      0.75      0.00
   -5   19   20      0.04      0.00
   -3   19   20     -0.63      0.00
   -1   19   20     -0.45      0.00
    1   19   20     -0.18      0.00
    3   19   20     -0.36      0.00
    5   19   20     -0.43      0.00
    7   19   20     -0.07      0.00
    9   19   20      0.16      0.00
   -8   20   20     -0.82      0.00
   -6   20   20     -0.51      0.00
   -4   20   20      0.52      0.00
   -2   20   20      0.76      0.00
    0   20   20      0.18      0.00
    2   20   20     -0.06      0.00
    4   20   20      0.24      0.00
    6   20   20      0.37      0.00
    8   20   20      0.17      0.00
   -7   21   20      0.66      0.00
   -5   21   20     -0.17      0.00
   -3   21   20     -0.87      0.00
   -1   21   20     -0.48      0.00
    1   21   20      0.14      0.00
    3   21   20      0.00      0.00
    5   21   20     -0.46      0.00
    7   21   20     -0.51      0.00
   -6   22   20     -0.05      0.00
   -4   22   20      0.63      0.00
   -2   22   20      0.63      0.00
    0   22   20      0.00      0.00
    2   22   20     -0.12      0.00
    4   22   20      0.43      0.00
   -3   23   20     -0.37      0.00
   -1   23   20      0.02      0.00
    1   23   20      0.26      0.00
  -17    1   21      0.42      0.00
  -15    1   21      0.60      0.00
  -13    1   21      0.60      0.00
  -11    1   21      0.40      0.00
   -9    1   21      0.25      0.00
   -7    1   21      0.33      0.00
   -5    1   21      0.42      0.00
   -3    1   21      0.34      0.00
   -1    1   21      0.28      0.00
    1    1   21      0.49      0.00
    3    1   21      0.83      0.00
    5    1   21      0.96      0.00
    7    1   21      0.76      0.00
    9    1   21      0.38      0.00
   11    1   21     -0.06      0.00
   13    1   21     -0.52      0.00
   15    1   21     -0.89      0.00
   17    1   21     -0.86      0.00
  -18    2   21     -0.26      0.00
  -16    2   21     -0.65      0.00
  -14    2   21     -0.96      0.00
  -12    2   21     -0.83      0.00
  -10    2   21     -0.46      0.00
   -8    2   21     -0.47      0.00
   -6    2   21     -0.86      0.00
   -4    2   21     -1.04      0.00
   -2    2   21     -0.86      0.00
    0    2   21     -0.85      0.00
    2    2   21     -1.26      0.00
    4    2   21     -1.64      0.00
    6    2   21     -1.49      0.00
    8    2   21     -0.85      0.00
   10    2   21     -0.13      0.00
   12    2   21      0.50      0.00
   14    2   21      1.04      0.00
   16    2   21      1.30      0.00
  -17    3   21      0.09      0.00
  -15    3   21      0.68      0.00
  -13    3   21      0.94      0.00
  -11    3   21      0.53      0.00
   -9    3   21      0.26      0.00
   -7    3   21      0.84      0.00
   -5    3   21      1.68      0.00
   -3    3   21      1.80      0.00
   -1    3   21      1.40      0.00
    1    3   21      1.33      0.00
    3    3   21      1.71      0.00
    5    3   21      1.81      0.00
    7    3   21      1.21      0.00
    9    3   21      0.31      0.00
   11    3   21     -0.33      0.00
   13    3   21     -0.62      0.00
   15    3   21     -0.82      0.00
  -18    4   21      0.40      0.00
  -16    4   21     -0.03      0.00
  -14    4   21     -0.61      0.00
  -12    4   21     -0.41      0.00
  -10    4   21      0.23      0.00
   -8    4   21     -0.08      0.00
   -6    4   21     -1.46      0.00
   -4    4   21     -2.38      0.00
   -2    4   21     -1.99      0.00
    0    4   21     -1.21      0.00
    2    4   21     -1.12      0.00
    4    4   21     -1.45      0.00
    6    4   21     -1.29      0.00
    8    4   21     -0.50      0.00
   10    4   21      0.18      0.00
   12    4   21      0.22      0.00
   14    4   21     -0.03      0.00
   16    4   21      0.00      0.00
  -17    5   21     -0.24      0.00
  -15    5   21      0.26      0.00
  -13    5   21      0.32      0.00
  -11    5   21     -0.55      0.00
   -9    5   21     -0.99      0.00
   -7    5   21      0.21      0.00
   -5    5   21      1.91      0.00
   -3    5   21      2.16      0.00
   -1    5   21      1.05      0.00
    1    5   21      0.24      0.00
    3    5   21      0.46      0.00
    5    5   21      0.88      0.00
    7    5   21      0.63      0.00
    9    5   21      0.02      0.00
   11    5   21     -0.06      0.00
   13    5   21      0.50      0.00
   15    5   21      0.84      0.00
  -16    6   21     -0.33      0.00
  -14    6   21     -0.60      0.00
  -12    6   21      0.19      0.00
  -10    6   21      1.42      0.00
   -8    6   21      1.20      0.00
   -6    6   21     -0.56      0.00
   -4    6   21     -1.68      0.00
   -2    6   21     -0.95      0.00
    0    6   21      0.32      0.00
    2    6   21      0.54      0.00
    4    6   21     -0.15      0.00
    6    6   21     -0.52      0.00
    8    6   21     -0.20      0.00
   10    6   21      0.07      0.00
   12    6   21     -0.36      0.00
   14    6   21     -0.96      0.00
   16    6   21     -0.86      0.00
  -17    7   21      0.50      0.00
  -15    7   21      1.01      0.00
  -13    7   21      0.81      0.00
  -11    7   21     -0.62      0.00
   -9    7   21     -1.59      0.00
   -7    7   21     -0.67      0.00
   -5    7   21      0.86      0.00
   -3    7   21      0.94      0.00
   -1    7   21     -0.22      0.00
    1    7   21     -0.87      0.00
    3    7   21     -0.36      0.00
    5    7   21      0.33      0.00
    7    7   21      0.29      0.00
    9    7   21     -0.15      0.00
   11    7   21     -0.15      0.00
   13    7   21      0.34      0.00
   15    7   21      0.58      0.00
  -16    8   21     -0.86      0.00
  -14    8   21     -1.54      0.00
  -12    8   21     -0.86      0.00
  -10    8   21      0.64      0.00
   -8    8   21      0.91      0.00
   -6    8   21     -0.32      0.00
   -4    8   21     -1.08      0.00
   -2    8   21     -0.40      0.00
    0    8   21      0.49      0.00
    2    8   21      0.38      0.00
    4    8   21     -0.29      0.00
    6    8   21     -0.42      0.00
    8    8   21      0.13      0.00
   10    8   21      0.61      0.00
   12    8   21      0.51      0.00
   14    8   21      0.18      0.00
  -15    9   21      1.13      0.00
  -13    9   21      1.74      0.00
  -11    9   21      0.77      0.00
   -9    9   21     -0.26      0.00
   -7    9   21      0.24      0.00
   -5    9   21      1.28      0.00
   -3    9   21      1.16      0.00
   -1    9   21      0.17      0.00
    1    9   21     -0.22      0.00
    3    9   21      0.23      0.00
    5    9   21      0.58      0.00
    7    9   21      0.16      0.00
    9    9   21     -0.60      0.00
   11    9   21     -0.99      0.00
   13    9   21     -0.84      0.00
   15    9   21     -0.57      0.00
  -16   10   21      0.20      0.00
  -14   10   21     -1.29      0.00
  -12   10   21     -1.47      0.00
  -10   10   21     -0.43      0.00
   -8   10   21     -0.18      0.00
   -6   10   21     -1.14      0.00
   -4   10   21     -1.57      0.00
   -2   10   21     -0.70      0.00
    0   10   21      0.23      0.00
    2   10   21      0.17      0.00
    4   10   21     -0.39      0.00
    6   10   21     -0.47      0.00
    8   10   21      0.12      0.00
   10   10   21      0.77      0.00
   12   10   21      0.97      0.00
   14   10   21      0.78      0.00
  -15   11   21      0.07      0.00
  -13   11   21      1.17      0.00
  -11   11   21      0.64      0.00
   -9   11   21     -0.18      0.00
   -7   11   21      0.32      0.00
   -5   11   21      1.19      0.00
   -3   11   21      0.79      0.00
   -1   11   21     -0.40      0.00
    1   11   21     -0.84      0.00
    3   11   21     -0.27      0.00
    5   11   21      0.35      0.00
    7   11   21      0.33      0.00
    9   11   21     -0.17      0.00
   11   11   21     -0.56      0.00
   13   11   21     -0.60      0.00
  -14   12   21     -0.48      0.00
  -12   12   21     -0.60      0.00
  -10   12   21      0.47      0.00
   -8   12   21      0.75      0.00
   -6   12   21     -0.11      0.00
   -4   12   21     -0.38      0.00
   -2   12   21      0.56      0.00
    0   12   21      1.37      0.00
    2   12   21      1.04      0.00
    4   12   21      0.17      0.00
    6   12   21     -0.30      0.00
    8   12   21     -0.17      0.00
   10   12   21      0.14      0.00
   12   12   21      0.26      0.00
   14   12   21      0.26      0.00
  -13   13   21      0.62      0.00
  -11   13   21     -0.20      0.00
   -9   13   21     -1.18      0.00
   -7   13   21     -0.84      0.00
   -5   13   21     -0.15      0.00
   -3   13   21     -0.53      0.00
   -1   13   21     -1.41      0.00
    1   13   21     -1.44      0.00
    3   13   21     -0.68      0.00
    5   13   21     -0.07      0.00
    7   13   21     -0.02      0.00
    9   13   21     -0.20      0.00
   11   13   21     -0.21      0.00
   13   13   21     -0.10      0.00
  -14   14   21     -0.57      0.00
  -12   14   21     -0.46      0.00
  -10   14   21      0.62      0.00
   -8   14   21      0.96      0.00
   -6   14   21      0.30      0.00
   -4   14   21      0.12      0.00
   -2   14   21      0.83      0.00
    0   14   21      1.25      0.00
    2   14   21      0.86      0.00
    4   14   21      0.40      0.00
    6   14   21      0.42      0.00
    8   14   21      0.64      0.00
   10   14   21      0.59      0.00
   12   14   21      0.23      0.00
  -13   15   21      0.85      0.00
  -11   15   21      0.35      0.00
   -9   15   21     -0.37      0.00
   -7   15   21     -0.11      0.00
   -5   15   21      0.43      0.00
   -3   15   21      0.12      0.00
   -1   15   21     -0.55      0.00
    1   15   21     -0.67      0.00
    3   15   21     -0.49      0.00
    5   15   21     -0.65      0.00
    7   15   21     -1.03      0.00
    9   15   21     -1.08      0.00
   11   15   21     -0.64      0.00
  -12   16   21     -0.94      0.00
  -10   16   21     -0.34      0.00
   -8   16   21     -0.04      0.00
   -6   16   21     -0.52      0.00
   -4   16   21     -0.73      0.00
   -2   16   21     -0.24      0.00
    0   16   21      0.24      0.00
    2   16   21      0.39      0.00
    4   16   21      0.63      0.00
    6   16   21      1.05      0.00
    8   16   21      1.27      0.00
   10   16   21      0.99      0.00
  -11   17   21      0.81      0.00
   -9   17   21      0.09      0.00
   -7   17   21      0.02      0.00
   -5   17   21      0.48      0.00
   -3   17   21      0.53      0.00
   -1   17   21      0.13      0.00
    1   17   21     -0.21      0.00
    3   17   21     -0.47      0.00
    5   17   21     -0.80      0.00
    7   17   21     -1.05      0.00
    9   17   21     -1.01      0.00
  -10   18   21     -0.29      0.00
   -8   18   21      0.41      0.00
   -6   18   21      0.24      0.00
   -4   18   21     -0.21      0.00
   -2   18   21     -0.21      0.00
    0   18   21      0.05      0.00
    2   18   21      0.27      0.00
    4   18   21      0.45      0.00
    6   18   21      0.59      0.00
    8   18   21      0.66      0.00
   -7   19   21     -0.55      0.00
   -5   19   21     -0.12      0.00
   -3   19   21      0.19      0.00
   -1   19   21      0.07      0.00
    1   19   21     -0.12      0.00
    3   19   21     -0.17      0.00
    5   19   21     -0.14      0.00
    7   19   21     -0.16      0.00
   -6   20   21     -0.01      0.00
   -4   20   21     -0.37      0.00
   -2   20   21     -0.28      0.00
    0   20   21      0.00      0.00
    2   20   21      0.05      0.00
    4   20   21     -0.10      0.00
    6   20   21     -0.22      0.00
   -5   21   21      0.63      0.00
   -3   21   21      0.54      0.00
   -1   21   21      0.09      0.00
    1   21   21     -0.14      0.00
    3   21   21      0.02      0.00
  -16    0   22      0.15      0.00
  -14    0   22      0.47      0.00
  -12    0   22      0.24      0.00
  -10    0   22     -0.70      0.00
   -8    0   22     -1.11      0.00
   -6    0   22     -0.46      0.00
   -4    0   22      0.19      0.00
   -2    0   22      0.25      0.00
    0    0   22      0.46      0.00
    2    0   22      1.28      0.00
    4    0   22      1.92      0.00
    6    0   22      1.69      0.00
    8    0   22      0.76      0.00
   10    0   22     -0.33      0.00
   12    0   22     -1.01      0.00
   14    0   22     -0.96      0.00
  -17    1   22      0.16      0.00
  -15    1   22     -0.10      0.00
  -13    1   22     -0.38      0.00
  -11    1   22      0.20      0.00
   -9    1   22      1.01      0.00
   -7    1   22      0.79      0.00
   -5    1   22     -0.10      0.00
   -3    1   22     -0.46      0.00
   -1    1   22     -0.39      0.00
    1    1   22     -0.77      0.00
    3    1   22     -1.50      0.00
    5    1   22     -1.72      0.00
    7    1   22     -1.16      0.00
    9    1   22     -0.23      0.00
   11    1   22      0.58      0.00
   13    1   22      0.82      0.00
   15    1   22      0.45      0.00
  -16    2   22     -0.63      0.00
  -14    2   22     -0.03      0.00
  -12    2   22      0.11      0.00
  -10    2   22     -0.61      0.00
   -8    2   22     -0.90      0.00
   -6    2   22     -0.07      0.00
   -4    2   22      0.76      0.00
   -2    2   22      0.71      0.00
    0    2   22      0.46      0.00
    2    2   22      0.72      0.00
    4    2   22      1.11      0.00
    6    2   22      1.07      0.00
    8    2   22      0.62      0.00
   10    2   22      0.08      0.00
   12    2   22     -0.21      0.00
   14    2   22     -0.04      0.00
  -17    3   22      1.08      0.00
  -15    3   22      0.68      0.00
  -13    3   22     -0.06      0.00
  -11    3   22      0.14      0.00
   -9    3   22      0.76      0.00
   -7    3   22      0.39      0.00
   -5    3   22     -0.67      0.00
   -3    3   22     -0.99      0.00
   -1    3   22     -0.42      0.00
    1    3   22     -0.02      0.00
    3    3   22     -0.18      0.00
    5    3   22     -0.45      0.00
    7    3   22     -0.54      0.00
    9    3   22     -0.50      0.00
   11    3   22     -0.43      0.00
   13    3   22     -0.52      0.00
   15    3   22     -0.70      0.00
  -16    4   22     -0.98      0.00
  -14    4   22     -0.14      0.00
  -12    4   22      0.26      0.00
  -10    4   22     -0.34      0.00
   -8    4   22     -0.64      0.00
   -6    4   22      0.17      0.00
   -4    4   22      0.87      0.00
   -2    4   22      0.48      0.00
    0    4   22     -0.31      0.00
    2    4   22     -0.53      0.00
    4    4   22     -0.28      0.00
    6    4   22      0.04      0.00
    8    4   22      0.36      0.00
   10    4   22      0.63      0.00
   12    4   22      0.81      0.00
   14    4   22      0.92      0.00
  -15    5   22      0.19      0.00
  -13    5   22     -0.61      0.00
  -11    5   22     -0.31      0.00
   -9    5   22      0.51      0.00
   -7    5   22      0.38      0.00
   -5    5   22     -0.43      0.00
   -3    5   22     -0.52      0.00
   -1    5   22      0.19      0.00
    1    5   22      0.65      0.00
    3    5   22      0.56      0.00
    5    5   22      0.40      0.00
    7    5   22      0.22      0.00
    9    5   22     -0.13      0.00
   11    5   22     -0.49      0.00
   13    5   22     -0.68      0.00
   15    5   22     -0.66      0.00
  -16    6   22     -0.22      0.00
  -14    6   22      0.79      0.00
  -12    6   22      1.01      0.00
  -10    6   22      0.06      0.00
   -8    6   22     -0.58      0.00
   -6    6   22     -0.06      0.00
   -4    6   22      0.50      0.00
   -2    6   22      0.21      0.00
    0    6   22     -0.28      0.00
    2    6   22     -0.32      0.00
    4    6   22     -0.37      0.00
    6    6   22     -0.68      0.00
    8    6   22     -0.77      0.00
   10    6   22     -0.43      0.00
   12    6   22     -0.04      0.00
   14    6   22      0.18      0.00
  -15    7   22     -0.60      0.00
  -13    7   22     -1.43      0.00
  -11    7   22     -0.84      0.00
   -9    7   22      0.33      0.00
   -7    7   22      0.41      0.00
   -5    7   22     -0.36      0.00
   -3    7   22     -0.57      0.00
   -1    7   22     -0.11      0.00
    1    7   22      0.11      0.00
    3    7   22      0.17      0.00
    5    7   22      0.69      0.00
    7    7   22      1.37      0.00
    9    7   22      1.43      0.00
   11    7   22      0.93      0.00
   13    7   22      0.40      0.00
   15    7   22      0.05      0.00
  -14    8   22      1.32      0.00
  -12    8   22      1.48      0.00
  -10    8   22      0.28      0.00
   -8    8   22     -0.53      0.00
   -6    8   22      0.01      0.00
   -4    8   22      0.61      0.00
   -2    8   22      0.23      0.00
    0    8   22     -0.37      0.00
    2    8   22     -0.50      0.00
    4    8   22     -0.71      0.00
    6    8   22     -1.38      0.00
    8    8   22     -1.79      0.00
   10    8   22     -1.44      0.00
   12    8   22     -0.73      0.00
   14    8   22     -0.16      0.00
  -15    9   22     -0.81      0.00
  -13    9   22     -1.74      0.00
  -11    9   22     -1.06      0.00
   -9    9   22      0.26      0.00
   -7    9   22      0.44      0.00
   -5    9   22     -0.23      0.00
   -3    9   22     -0.10      0.00
   -1    9   22      0.88      0.00
    1    9   22      1.39      0.00
    3    9   22      1.22      0.00
    5    9   22      1.22      0.00
    7    9   22      1.45      0.00
    9    9   22      1.24      0.00
   11    9   22      0.57      0.00
   13    9   22     -0.04      0.00
  -14   10   22      1.55      0.00
  -12   10   22      1.75      0.00
  -10   10   22      0.45      0.00
   -8   10   22     -0.58      0.00
   -6   10   22     -0.35      0.00
   -4   10   22     -0.15      0.00
   -2   10   22     -1.06      0.00
    0   10   22     -2.02      0.00
    2   10   22     -1.88      0.00
    4   10   22     -1.20      0.00
    6   10   22     -0.86      0.00
    8   10   22     -0.61      0.00
   10   10   22     -0.06      0.00
   12   10   22      0.47      0.00
  -13   11   22     -1.92      0.00
  -11   11   22     -1.33      0.00
   -9   11   22      0.13      0.00
   -7   11   22      0.67      0.00
   -5   11   22      0.37      0.00
   -3   11   22      0.69      0.00
   -1   11   22      1.64      0.00
    1   11   22      1.82      0.00
    3   11   22      1.00      0.00
    5   11   22      0.27      0.00
    7   11   22      0.00      0.00
    9   11   22     -0.34      0.00
   11   11   22     -0.78      0.00
   13   11   22     -0.85      0.00
  -12   12   22      1.71      0.00
  -10   12   22      0.65      0.00
   -8   12   22     -0.45      0.00
   -6   12   22     -0.42      0.00
   -4   12   22     -0.10      0.00
   -2   12   22     -0.45      0.00
    0   12   22     -0.75      0.00
    2   12   22     -0.22      0.00
    4   12   22      0.46      0.00
    6   12   22      0.52      0.00
    8   12   22      0.42      0.00
   10   12   22      0.65      0.00
   12   12   22      0.83      0.00
  -11   13   22     -1.11      0.00
   -9   13   22     -0.08      0.00
   -7   13   22      0.33      0.00
   -5   13   22     -0.23      0.00
   -3   13   22     -0.66      0.00
   -1   13   22     -0.63      0.00
    1   13   22     -0.86      0.00
    3   13   22     -1.29      0.00
    5   13   22     -1.11      0.00
    7   13   22     -0.47      0.00
    9   13   22     -0.24      0.00
   11   13   22     -0.48      0.00
  -10   14   22      0.51      0.00
   -8   14   22     -0.23      0.00
   -6   14   22      0.00      0.00
   -4   14   22      0.85      0.00
   -2   14   22      1.33      0.00
    0   14   22      1.52      0.00
    2   14   22      1.77      0.00
    4   14   22      1.60      0.00
    6   14   22      0.75      0.00
    8   14   22      0.04      0.00
   10   14   22      0.06      0.00
  -11   15   22     -0.77      0.00
   -9   15   22      0.02      0.00
   -7   15   22      0.53      0.00
   -5   15   22     -0.04      0.00
   -3   15   22     -0.88      0.00
   -1   15   22     -1.28      0.00
    1   15   22     -1.51      0.00
    3   15   22     -1.61      0.00
    5   15   22     -1.12      0.00
    7   15   22     -0.30      0.00
    9   15   22      0.03      0.00
  -10   16   22      0.45      0.00
   -8   16   22     -0.69      0.00
   -6   16   22     -0.95      0.00
   -4   16   22     -0.23      0.00
   -2   16   22      0.40      0.00
    0   16   22      0.69      0.00
    2   16   22      1.02      0.00
    4   16   22      1.16      0.00
    6   16   22      0.79      0.00
    8   16   22      0.32      0.00
   -9   17   22      0.20      0.00
   -7   17   22      1.22      0.00
   -5   17   22      1.01      0.00
   -3   17   22      0.30      0.00
   -1   17   22     -0.02      0.00
    1   17   22     -0.27      0.00
    3   17   22     -0.78      0.00
    5   17   22     -1.06      0.00
    7   17   22     -0.82      0.00
   -6   18   22     -0.95      0.00
   -4   18   22     -0.28      0.00
   -2   18   22      0.11      0.00
    0   18   22      0.04      0.00
    2   18   22      0.31      0.00
    4   18   22      0.90      0.00
    6   18   22      1.10      0.00
   -5   19   22     -0.11      0.00
   -3   19   22     -0.74      0.00
   -1   19   22     -0.52      0.00
    1   19   22     -0.18      0.00
    3   19   22     -0.49      0.00
    5   19   22     -0.95      0.00
   -4   20   22      1.01      0.00
   -2   20   22      1.09      0.00
    0   20   22      0.39      0.00
    2   20   22      0.12      0.00
  -15    1   23     -0.44      0.00
  -13    1   23     -0.13      0.00
  -11    1   23      0.14      0.00
   -9    1   23      0.30      0.00
   -7    1   23      0.53      0.00
   -5    1   23      0.80      0.00
   -3    1   23      0.88      0.00
   -1    1   23      0.70      0.00
    1    1   23      0.43      0.00
    3    1   23      0.24      0.00
    5    1   23      0.15      0.00
    7    1   23      0.12      0.00
    9    1   23      0.20      0.00
   11    1   23      0.39      0.00
   13    1   23      0.55      0.00
  -14    2   23      0.33      0.00
  -12    2   23     -0.18      0.00
  -10    2   23     -0.45      0.00
   -8    2   23     -0.68      0.00
   -6    2   23     -1.05      0.00
   -4    2   23     -1.28      0.00
   -2    2   23     -1.08      0.00
    0    2   23     -0.65      0.00
    2    2   23     -0.34      0.00
    4    2   23     -0.23      0.00
    6    2   23     -0.20      0.00
    8    2   23     -0.23      0.00
   10    2   23     -0.44      0.00
   12    2   23     -0.78      0.00
   14    2   23     -0.89      0.00
  -15    3   23     -0.35      0.00
  -13    3   23      0.22      0.00
  -11    3   23      0.54      0.00
   -9    3   23      0.59      0.00
   -7    3   23      0.81      0.00
   -5    3   23      1.11      0.00
   -3    3   23      1.01      0.00
   -1    3   23      0.54      0.00
    1    3   23      0.18      0.00
    3    3   23      0.15      0.00
    5    3   23      0.20      0.00
    7    3   23      0.15      0.00
    9    3   23      0.20      0.00
   11    3   23      0.52      0.00
   13    3   23      0.85      0.00
  -14    4   23     -0.33      0.00
  -12    4   23     -0.63      0.00
  -10    4   23     -0.40      0.00
   -8    4   23     -0.24      0.00
   -6    4   23     -0.52      0.00
   -4    4   23     -0.73      0.00
   -2    4   23     -0.45      0.00
    0    4   23     -0.05      0.00
    2    4   23     -0.02      0.00
    4    4   23     -0.16      0.00
    6    4   23     -0.08      0.00
    8    4   23      0.16      0.00
   10    4   23      0.12      0.00
   12    4   23     -0.28      0.00
   14    4   23     -0.58      0.00
  -15    5   23      0.41      0.00
  -13    5   23      0.76      0.00
  -11    5   23      0.32      0.00
   -9    5   23     -0.41      0.00
   -7    5   23     -0.37      0.00
   -5    5   23      0.28      0.00
   -3    5   23      0.55      0.00
   -1    5   23      0.27      0.00
    1    5   23      0.06      0.00
    3    5   23      0.14      0.00
    5    5   23      0.08      0.00
    7    5   23     -0.35      0.00
    9    5   23     -0.72      0.00
   11    5   23     -0.54      0.00
   13    5   23      0.00      0.00
  -14    6   23     -0.85      0.00
  -12    6   23     -0.54      0.00
  -10    6   23      0.64      0.00
   -8    6   23      1.22      0.00
   -6    6   23      0.44      0.00
   -4    6   23     -0.59      0.00
   -2    6   23     -0.73      0.00
    0    6   23     -0.29      0.00
    2    6   23     -0.06      0.00
    4    6   23     -0.04      0.00
    6    6   23      0.27      0.00
    8    6   23      0.81      0.00
   10    6   23      1.00      0.00
   12    6   23      0.57      0.00
  -13    7   23      0.98      0.00
  -11    7   23     -0.10      0.00
   -9    7   23     -1.35      0.00
   -7    7   23     -1.09      0.00
   -5    7   23      0.30      0.00
   -3    7   23      1.02      0.00
   -1    7   23      0.55      0.00
    1    7   23     -0.12      0.00
    3    7   23     -0.25      0.00
    5    7   23     -0.18      0.00
    7    7   23     -0.40      0.00
    9    7   23     -0.70      0.00
   11    7   23     -0.59      0.00
   13    7   23     -0.11      0.00
  -14    8   23     -1.19      0.00
  -12    8   23     -0.94      0.00
  -10    8   23      0.42      0.00
   -8    8   23      1.03      0.00
   -6    8   23      0.06      0.00
   -4    8   23     -0.98      0.00
   -2    8   23     -0.74      0.00
    0    8   23      0.21      0.00
    2    8   23      0.60      0.00
    4    8   23      0.26      0.00
    6    8   23     -0.09      0.00
    8    8   23     -0.08      0.00
   10    8   23      0.00      0.00
   12    8   23     -0.14      0.00
  -13    9   23      1.58      0.00
  -11    9   23      0.99      0.00
   -9    9   23     -0.09      0.00
   -7    9   23     -0.01      0.00
   -5    9   23      0.82      0.00
   -3    9   23      0.86      0.00
   -1    9   23     -0.01      0.00
    1    9   23     -0.56      0.00
    3    9   23     -0.20      0.00
    5    9   23      0.46      0.00
    7    9   23      0.75      0.00
    9    9   23      0.67      0.00
   11    9   23      0.55      0.00
  -12   10   23     -1.75      0.00
  -10   10   23     -1.05      0.00
   -8   10   23     -0.46      0.00
   -6   10   23     -0.75      0.00
   -4   10   23     -0.93      0.00
   -2   10   23     -0.40      0.00
    0   10   23      0.05      0.00
    2   10   23     -0.28      0.00
    4   10   23     -0.92      0.00
    6   10   23     -1.15      0.00
    8   10   23     -0.92      0.00
   10   10   23     -0.62      0.00
   12   10   23     -0.40      0.00
  -11   11   23      1.44      0.00
   -9   11   23      0.81      0.00
   -7   11   23      0.66      0.00
   -5   11   23      0.87      0.00
   -3   11   23      0.70      0.00
   -1   11   23      0.45      0.00
    1   11   23      0.80      0.00
    3   11   23      1.41      0.00
    5   11   23      1.46      0.00
    7   11   23      0.87      0.00
    9   11   23      0.25      0.00
   11   11   23      0.01      0.00
  -12   12   23     -0.97      0.00
  -10   12   23     -0.69      0.00
   -8   12   23     -0.29      0.00
   -6   12   23     -0.46      0.00
   -4   12   23     -0.60      0.00
   -2   12   23     -0.50      0.00
    0   12   23     -0.76      0.00
    2   12   23     -1.37      0.00
    4   12   23     -1.50      0.00
    6   12   23     -0.81      0.00
    8   12   23      0.11      0.00
   10   12   23      0.52      0.00
   -9   13   23     -0.13      0.00
   -7   13   23     -0.24      0.00
   -5   13   23      0.04      0.00
   -3   13   23      0.06      0.00
   -1   13   23      0.05      0.00
    1   13   23      0.46      0.00
    3   13   23      0.86      0.00
    5   13   23      0.59      0.00
    7   13   23     -0.16      0.00
    9   13   23     -0.70      0.00
  -10   14   23      0.06      0.00
   -8   14   23      0.68      0.00
   -6   14   23      0.64      0.00
   -4   14   23      0.53      0.00
   -2   14   23      0.74      0.00
    0   14   23      0.76      0.00
    2   14   23      0.37      0.00
    4   14   23      0.05      0.00
    6   14   23      0.16      0.00
    8   14   23      0.46      0.00
   -9   15   23     -0.41      0.00
   -7   15   23     -0.89      0.00
   -5   15   23     -0.82      0.00
   -3   15   23     -0.98      0.00
   -1   15   23     -1.35      0.00
    1   15   23     -1.33      0.00
    3   15   23     -0.87      0.00
    5   15   23     -0.40      0.00
    7   15   23     -0.21      0.00
   -6   16   23      0.63      0.00
   -4   16   23      0.54      0.00
   -2   16   23      0.86      0.00
    0   16   23      1.24      0.00
    2   16   23      1.16      0.00
    4   16   23      0.70      0.00
    6   16   23      0.25      0.00
   -5   17   23      0.10      0.00
   -3   17   23      0.20      0.00
   -1   17   23     -0.22      0.00
    1   17   23     -0.60      0.00
    3   17   23     -0.61      0.00
    5   17   23     -0.39      0.00
   -4   18   23     -0.86      0.00
   -2   18   23     -0.80      0.00
    0   18   23     -0.30      0.00
    2   18   23      0.13      0.00
    4   18   23      0.32      0.00
  -14    0   24     -0.81      0.00
  -12    0   24     -0.37      0.00
  -10    0   24     -0.10      0.00
   -8    0   24      0.21      0.00
   -6    0   24      0.66      0.00
   -4    0   24      0.82      0.00
   -2    0   24      0.71      0.00
    0    0   24      0.83      0.00
    2    0   24      1.12      0.00
    4    0   24      1.03      0.00
    6    0   24      0.54      0.00
    8    0   24      0.09      0.00
   10    0   24     -0.06      0.00
   12    0   24      0.19      0.00
  -13    1   24      0.50      0.00
  -11    1   24      0.10      0.00
   -9    1   24     -0.09      0.00
   -7    1   24     -0.37      0.00
   -5    1   24     -0.55      0.00
   -3    1   24     -0.40      0.00
   -1    1   24     -0.34      0.00
    1    1   24     -0.70      0.00
    3    1   24     -0.98      0.00
    5    1   24     -0.78      0.00
    7    1   24     -0.33      0.00
    9    1   24     -0.02      0.00
   11    1   24      0.00      0.00
   13    1   24     -0.35      0.00
  -14    2   24     -0.59      0.00
  -12    2   24     -0.02      0.00
  -10    2   24      0.20      0.00
   -8    2   24      0.17      0.00
   -6    2   24      0.11      0.00
   -4    2   24     -0.16      0.00
   -2    2   24     -0.44      0.00
    0    2   24     -0.18      0.00
    2    2   24      0.46      0.00
    4    2   24      0.77      0.00
    6    2   24      0.57      0.00
    8    2   24      0.21      0.00
   10    2   24     -0.05      0.00
   12    2   24     -0.05      0.00
  -13    3   24      0.03      0.00
  -11    3   24     -0.37      0.00
   -9    3   24     -0.14      0.00
   -7    3   24      0.19      0.00
   -5    3   24      0.44      0.00
   -3    3   24      0.73      0.00
   -1    3   24      0.70      0.00
    1    3   24      0.10      0.00
    3    3   24     -0.52      0.00
    5    3   24     -0.61      0.00
    7    3   24     -0.31      0.00
    9    3   24      0.06      0.00
   11    3   24      0.33      0.00
  -12    4   24      0.44      0.00
  -10    4   24      0.20      0.00
   -8    4   24     -0.39      0.00
   -6    4   24     -0.54      0.00
   -4    4   24     -0.42      0.00
   -2    4   24     -0.33      0.00
    0    4   24     -0.05      0.00
    2    4   24      0.39      0.00
    4    4   24      0.50      0.00
    6    4   24      0.21      0.00
    8    4   24     -0.18      0.00
   10    4   24     -0.52      0.00
   12    4   24     -0.66      0.00
  -13    5   24     -0.41      0.00
  -11    5   24     -0.39      0.00
   -9    5   24      0.40      0.00
   -7    5   24      0.66      0.00
   -5    5   24      0.07      0.00
   -3    5   24     -0.49      0.00
   -1    5   24     -0.59      0.00
    1    5   24     -0.54      0.00
    3    5   24     -0.38      0.00
    5    5   24     -0.01      0.00
    7    5   24      0.38      0.00
    9    5   24      0.63      0.00
   11    5   24      0.74      0.00
  -12    6   24      0.74      0.00
  -10    6   24      0.04      0.00
   -8    6   24     -0.58      0.00
   -6    6   24     -0.02      0.00
   -4    6   24      0.97      0.00
   -2    6   24      1.20      0.00
    0    6   24      0.77      0.00
    2    6   24      0.26      0.00
    4    6   24     -0.18      0.00
    6    6   24     -0.54      0.00
    8    6   24     -0.67      0.00
   10    6   24     -0.60      0.00
   12    6   24     -0.44      0.00
  -13    7   24     -1.00      0.00
  -11    7   24     -0.86      0.00
   -9    7   24     -0.04      0.00
   -7    7   24     -0.03      0.00
   -5    7   24     -0.90      0.00
   -3    7   24     -1.28      0.00
   -1    7   24     -0.74      0.00
    1    7   24     -0.06      0.00
    3    7   24      0.30      0.00
    5    7   24      0.51      0.00
    7    7   24      0.58      0.00
    9    7   24      0.43      0.00
   11    7   24      0.16      0.00
  -12    8   24      1.53      0.00
  -10    8   24      1.04      0.00
   -8    8   24      0.44      0.00
   -6    8   24      0.63      0.00
   -4    8   24      0.89      0.00
   -2    8   24      0.41      0.00
    0    8   24     -0.26      0.00
    2    8   24     -0.38      0.00
    4    8   24     -0.25      0.00
    6    8   24     -0.27      0.00
    8    8   24     -0.28      0.00
   10    8   24     -0.10      0.00
  -11    9   24     -1.74      0.00
   -7    9   24     -0.48      0.00
   -5    9   24     -0.37      0.00
   -3    9   24      0.04      0.00
   -1    9   24      0.60      0.00
    1    9   24      0.54      0.00
    3    9   24     -0.01      0.00
    5    9   24     -0.21      0.00
    7    9   24      0.05      0.00
    9    9   24      0.23      0.00
   -8   10   24      0.37      0.00
   -6   10   24     -0.16      0.00
   -4   10   24     -0.44      0.00
   -2   10   24     -0.82      0.00
    0   10   24     -0.80      0.00
    2   10   24     -0.10      0.00
    4   10   24      0.47      0.00
    6   10   24      0.27      0.00
    8   10   24     -0.26      0.00
   -7   11   24      0.67      0.00
   -5   11   24      0.88      0.00
   -3   11   24      0.92      0.00
   -1   11   24      0.95      0.00
    1   11   24      0.53      0.00
    3   11   24     -0.15      0.00
    5   11   24     -0.33      0.00
    7   11   24      0.09      0.00
    9   11   24      0.51      0.00
   -8   12   24     -0.91      0.00
   -6   12   24     -1.37      0.00
   -4   12   24     -1.07      0.00
   -2   12   24     -0.86      0.00
    0   12   24     -0.78      0.00
    2   12   24     -0.43      0.00
    4   12   24     -0.03      0.00
    6   12   24      0.00      0.00
    8   12   24     -0.20      0.00
   -7   13   24      1.51      0.00
   -5   13   24      1.31      0.00
   -3   13   24      0.70      0.00
   -1   13   24      0.55      0.00
    1   13   24      0.59      0.00
    3   13   24      0.39      0.00
    5   13   24      0.11      0.00
    7   13   24     -0.06      0.00
   -6   14   24     -1.33      0.00
   -4   14   24     -0.61      0.00
   -2   14   24     -0.03      0.00
    0   14   24     -0.08      0.00
    2   14   24     -0.19      0.00
    4   14   24     -0.07      0.00
    6   14   24      0.15      0.00
   -5   15   24      0.54      0.00
   -3   15   24     -0.37      0.00
   -1   15   24     -0.69      0.00
    1   15   24     -0.50      0.00
    3   15   24     -0.34      0.00
    5   15   24     -0.31      0.00
   -4   16   24      0.43      0.00
   -2   16   24      1.12      0.00
    0   16   24      1.11      0.00
    2   16   24      0.84      0.00
    4   16   24      0.62      0.00
   -1   17   24     -1.20      0.00
  -11    1   25      0.21      0.00
   -9    1   25      0.37      0.00
   -7    1   25      0.22      0.00
   -5    1   25     -0.02      0.00
   -3    1   25     -0.16      0.00
   -1    1   25     -0.15      0.00
    1    1   25     -0.03      0.00
    3    1   25      0.13      0.00
    5    1   25      0.21      0.00
    7    1   25      0.13      0.00
    9    1   25     -0.07      0.00
  -12    2   25     -0.16      0.00
  -10    2   25     -0.55      0.00
   -8    2   25     -0.43      0.00
   -6    2   25     -0.18      0.00
   -4    2   25     -0.12      0.00
   -2    2   25     -0.20      0.00
    0    2   25     -0.26      0.00
    2    2   25     -0.26      0.00
    4    2   25     -0.22      0.00
    6    2   25     -0.10      0.00
    8    2   25      0.14      0.00
   10    2   25      0.40      0.00
  -11    3   25      0.52      0.00
   -9    3   25      0.36      0.00
   -7    3   25      0.13      0.00
   -5    3   25      0.41      0.00
   -3    3   25      0.93      0.00
   -1    3   25      1.08      0.00
    1    3   25      0.70      0.00
    3    3   25      0.18      0.00
    5    3   25     -0.20      0.00
    7    3   25     -0.44      0.00
    9    3   25     -0.58      0.00
  -12    4   25     -0.51      0.00
  -10    4   25     -0.20      0.00
   -8    4   25      0.26      0.00
   -6    4   25     -0.13      0.00
   -4    4   25     -1.21      0.00
   -2    4   25     -1.83      0.00
    0    4   25     -1.36      0.00
    2    4   25     -0.28      0.00
    4    4   25      0.57      0.00
    6    4   25      0.88      0.00
    8    4   25      0.82      0.00
   10    4   25      0.56      0.00
  -11    5   25      0.29      0.00
   -9    5   25     -0.53      0.00
   -7    5   25     -0.55      0.00
   -5    5   25      0.62      0.00
   -3    5   25      1.74      0.00
   -1    5   25      1.61      0.00
    1    5   25      0.40      0.00
    3    5   25     -0.76      0.00
    5    5   25     -1.19      0.00
    7    5   25     -0.99      0.00
    9    5   25     -0.51      0.00
  -10    6   25      0.24      0.00
   -8    6   25      0.88      0.00
   -6    6   25      0.30      0.00
   -4    6   25     -0.83      0.00
   -2    6   25     -1.10      0.00
    0    6   25     -0.25      0.00
    2    6   25      0.79      0.00
    4    6   25      1.17      0.00
    6    6   25      0.87      0.00
    8    6   25      0.33      0.00
   -7    7   25     -0.73      0.00
   -5    7   25     -0.16      0.00
   -3    7   25      0.22      0.00
   -1    7   25     -0.18      0.00
    1    7   25     -0.79      0.00
    3    7   25     -0.89      0.00
    5    7   25     -0.46      0.00
    7    7   25      0.04      0.00
    9    7   25      0.37      0.00
   -6    8   25      0.59      0.00
   -4    8   25      0.41      0.00
   -2    8   25      0.53      0.00
    0    8   25      0.77      0.00
    2    8   25      0.60      0.00
    4    8   25      0.04      0.00
    6    8   25     -0.44      0.00
    8    8   25     -0.54      0.00
   -7    9   25     -0.49      0.00
   -5    9   25     -0.59      0.00
   -3    9   25     -0.56      0.00
   -1    9   25     -0.59      0.00
    1    9   25     -0.37      0.00
    3    9   25      0.15      0.00
    5    9   25      0.60      0.00
    7    9   25      0.64      0.00
   -6   10   25      0.60      0.00
   -4   10   25      0.44      0.00
   -2   10   25      0.25      0.00
    0   10   25      0.08      0.00
    2   10   25     -0.21      0.00
    4   10   25     -0.48      0.00
    6   10   25     -0.51      0.00
    8   10   25     -0.29      0.00
   -7   11   25     -0.60      0.00
   -5   11   25     -0.48      0.00
   -3   11   25     -0.06      0.00
   -1   11   25      0.21      0.00
    1   11   25      0.34      0.00
    3   11   25      0.37      0.00
    5   11   25      0.31      0.00
    7   11   25      0.19      0.00
   -6   12   25      0.61      0.00
   -4   12   25      0.14      0.00
   -2   12   25     -0.29      0.00
    0   12   25     -0.47      0.00
    2   12   25     -0.44      0.00
    4   12   25     -0.29      0.00
    6   12   25     -0.12      0.00
   -5   13   25     -0.29      0.00
   -3   13   25      0.17      0.00
   -1   13   25      0.42      0.00
    1   13   25      0.47      0.00
    3   13   25      0.38      0.00
    5   13   25      0.18      0.00
   -4   14   25     -0.10      0.00
   -2   14   25     -0.28      0.00
    0   14   25     -0.28      0.00
    2   14   25     -0.27      0.00
  -10    0   26      0.45      0.00
   -8    0   26      1.16      0.00
   -6    0   26      0.78      0.00
   -4    0   26     -0.13      0.00
   -2    0   26     -0.40      0.00
    0    0   26      0.26      0.00
    2    0   26      0.83      0.00
    4    0   26      0.58      0.00
    6    0   26     -0.03      0.00
    8    0   26     -0.42      0.00
   -9    1   26     -0.84      0.00
   -7    1   26     -0.92      0.00
   -5    1   26     -0.28      0.00
   -3    1   26      0.24      0.00
   -1    1   26     -0.07      0.00
    1    1   26     -0.73      0.00
    3    1   26     -0.73      0.00
    5    1   26     -0.12      0.00
    7    1   26      0.37      0.00
   -8    2   26      0.59      0.00
   -6    2   26      0.31      0.00
   -4    2   26      0.02      0.00
   -2    2   26      0.20      0.00
    0    2   26      0.71      0.00
    2    2   26      0.76      0.00
    4    2   26      0.12      0.00
    6    2   26     -0.48      0.00
    8    2   26     -0.51      0.00
   -7    3   26      0.07      0.00
   -5    3   26      0.14      0.00
   -3    3   26     -0.10      0.00
   -1    3   26     -0.52      0.00
    1    3   26     -0.65      0.00
    3    3   26     -0.12      0.00
    5    3   26      0.56      0.00
    7    3   26      0.62      0.00
   -6    4   26     -0.52      0.00
   -4    4   26     -0.35      0.00
   -2    4   26     -0.03      0.00
    0    4   26      0.19      0.00
    2    4   26      0.03      0.00
    4    4   26     -0.43      0.00
    6    4   26     -0.55      0.00
    8    4   26     -0.11      0.00
   -7    5   26      0.55      0.00
   -5    5   26      0.64      0.00
   -3    5   26      0.60      0.00
   -1    5   26      0.46      0.00
    1    5   26      0.27      0.00
    3    5   26      0.21      0.00
    5    5   26      0.19      0.00
    7    5   26     -0.08      0.00
   -6    6   26     -0.40      0.00
   -4    6   26     -0.64      0.00
   -2    6   26     -0.77      0.00
    0    6   26     -0.56      0.00
    2    6   26     -0.09      0.00
    4    6   26      0.27      0.00
    6    6   26      0.44      0.00
   -5    7   26      0.19      0.00
   -3    7   26      0.49      0.00
   -1    7   26      0.51      0.00
    1    7   26      0.05      0.00
    3    7   26     -0.52      0.00
    5    7   26     -0.73      0.00
    7    7   26     -0.57      0.00
   -6    8   26      0.21      0.00
   -4    8   26     -0.01      0.00
   -2    8   26     -0.13      0.00
    0    8   26      0.06      0.00
    2    8   26      0.52      0.00
    4    8   26      0.77      0.00
    6    8   26      0.57      0.00
   -5    9   26     -0.08      0.00
   -3    9   26     -0.11      0.00
   -1    9   26     -0.19      0.00
    1    9   26     -0.42      0.00
    3    9   26     -0.63      0.00
    5    9   26     -0.50      0.00
   -4   10   26     -0.12      0.00
   -2   10   26      0.10      0.00
    0   10   26      0.27      0.00
    2   10   26      0.44      0.00
    4   10   26      0.44      0.00
   -3   11   26      0.22      0.00
   -1   11   26     -0.05      0.00
    1   11   26     -0.22      0.00
    3   11   26     -0.34      0.00
   -2   12   26     -0.12      0.00
    0   12   26      0.03      0.00
   -5    1   27     -0.08      0.00
   -3    1   27      0.42      0.00
   -1    1   27      0.65      0.00
    1    1   27      0.41      0.00
    3    1   27      0.02      0.00
    5    1   27     -0.19      0.00
   -4    2   27     -0.18      0.00
   -2    2   27     -0.79      0.00
    0    2   27     -0.71      0.00
    2    2   27     -0.13      0.00
    4    2   27      0.30      0.00
    6    2   27      0.30      0.00
   -5    3   27     -0.31      0.00
   -3    3   27      0.42      0.00
   -1    3   27      0.60      0.00
    1    3   27      0.11      0.00
    3    3   27     -0.40      0.00
    5    3   27     -0.43      0.00
   -4    4   27     -0.05      0.00
   -2    4   27     -0.42      0.00
    0    4   27     -0.09      0.00
    2    4   27      0.45      0.00
    4    4   27      0.53      0.00
   -3    5   27      0.45      0.00
   -1    5   27      0.36      0.00
    1    5   27     -0.22      0.00
    3    5   27     -0.53      0.00
   -4    6   27     -0.46      0.00
   -2    6   27     -0.79      0.00
    0    6   27     -0.33      0.00
    2    6   27      0.29      0.00
   -3    7   27      0.82      0.00
   -1    7   27      0.79      0.00
    1    7   27      0.11      0.00
   -2    8   27     -0.71      0.00
    0    8   27     -0.36      0.00
   26   10    0     -0.70      0.00
   26   12    0     -0.56      0.00
   25   13    0      0.93      0.00
   26   14    0     -0.54      0.00
   25   15    0      0.50      0.00
    0   16    0      5.87      0.00
   24   16    0     -0.13      0.00
   26   16    0     -0.18      0.00
    1   17    0     -3.15      0.00
   25   17    0     -0.09      0.00
    0   18    0      1.14      0.00
    2   18    0      0.90      0.00
   24   18    0      0.32      0.00
   26   18    0      0.16      0.00
    1   19    0     -0.77      0.00
   23   19    0     -0.28      0.00
   25   19    0     -0.26      0.00
   22   20    0     -0.18      0.00
   24   20    0      0.18      0.00
   21   21    0      0.73      0.00
   23   21    0      0.15      0.00
   22   22    0     -0.50      0.00
   24   22    0     -0.09      0.00
   21   23    0      0.47      0.00
   23   23    0      0.34      0.00
   20   24    0     -0.06      0.00
   22   24    0     -0.30      0.00
   19   25    0     -0.32      0.00
   21   25    0      0.01      0.00
   18   26    0      0.36      0.00
   20   26    0      0.21      0.00
   17   27    0     -0.10      0.00
   19   27    0     -0.18      0.00
   16   28    0     -0.26      0.00
   18   28    0      0.02      0.00
   15   29    0      0.53      0.00
   17   29    0      0.12      0.00
   12   30    0     -0.46      0.00
   14   30    0     -0.54      0.00
   16   30    0     -0.17      0.00
   11   31    0     -0.05      0.00
   13   31    0      0.26      0.00
   15   31    0      0.10      0.00
    8   32    0      0.29      0.00
   10   32    0      0.25      0.00
   12   32    0     -0.01      0.00
   14   32    0     -0.04      0.00
    1   33    0     -0.21      0.00
    3   33    0      0.07      0.00
    5   33    0      0.25      0.00
    7   33    0      0.11      0.00
    9   33    0     -0.07      0.00
   11   33    0     -0.01      0.00
   13   33    0      0.07      0.00
  -26   10    1      0.01      0.00
   26   10    1      0.04      0.00
  -26   12    1     -0.23      0.00
   26   12    1      0.50      0.00
  -25   13    1     -0.16      0.00
   25   13    1      0.13      0.00
  -26   14    1     -0.07      0.00
   26   14    1     -0.40      0.00
  -25   15    1     -0.31      0.00
   25   15    1      1.14      0.00
  -26   16    1      0.22      0.00
  -24   16    1      0.49      0.00
    0   16    1      0.92      0.00
   24   16    1     -1.40      0.00
   26   16    1     -0.64      0.00
  -25   17    1     -0.35      0.00
   -1   17    1     -4.32      0.00
    1   17    1     -1.86      0.00
   25   17    1      0.48      0.00
  -26   18    1     -0.04      0.00
  -24   18    1      0.32      0.00
    0   18    1      1.91      0.00
    2   18    1      0.04      0.00
   24   18    1     -0.07      0.00
   26   18    1      0.29      0.00
  -25   19    1      0.10      0.00
  -23   19    1     -0.29      0.00
   -1   19    1     -1.34      0.00
    1   19    1      0.45      0.00
   23   19    1     -0.29      0.00
   25   19    1     -0.43      0.00
  -24   20    1     -0.09      0.00
  -22   20    1      0.26      0.00
   22   20    1      0.33      0.00
   24   20    1      0.33      0.00
  -23   21    1      0.02      0.00
   21   21    1     -0.09      0.00
   23   21    1     -0.06      0.00
  -24   22    1     -0.08      0.00
  -22   22    1     -0.17      0.00
   22   22    1     -0.18      0.00
  -23   23    1      0.14      0.00
  -21   23    1      0.55      0.00
   21   23    1      0.16      0.00
   23   23    1      0.36      0.00
  -22   24    1     -0.40      0.00
  -20   24    1     -0.78      0.00
   20   24    1      0.10      0.00
   22   24    1     -0.33      0.00
  -21   25    1      0.53      0.00
  -19   25    1      0.56      0.00
   19   25    1     -0.27      0.00
   21   25    1      0.13      0.00
  -20   26    1     -0.38      0.00
  -18   26    1     -0.11      0.00
   18   26    1      0.22      0.00
   20   26    1      0.04      0.00
  -19   27    1      0.14      0.00
  -17   27    1     -0.21      0.00
   17   27    1     -0.10      0.00
   19   27    1     -0.09      0.00
  -18   28    1      0.00      0.00
  -16   28    1      0.25      0.00
   16   28    1      0.07      0.00
   18   28    1      0.11      0.00
  -17   29    1     -0.01      0.00
  -15   29    1     -0.11      0.00
   15   29    1      0.04      0.00
   17   29    1     -0.10      0.00
  -16   30    1      0.02      0.00
  -14   30    1     -0.08      0.00
  -12   30    1     -0.49      0.00
   12   30    1     -0.01      0.00
   14   30    1     -0.24      0.00
   16   30    1     -0.05      0.00
  -15   31    1     -0.05      0.00
  -13   31    1      0.22      0.00
  -11   31    1      0.57      0.00
   11   31    1     -0.19      0.00
   13   31    1      0.20      0.00
   15   31    1      0.24      0.00
  -14   32    1      0.07      0.00
  -12   32    1     -0.27      0.00
  -10   32    1     -0.41      0.00
   -8   32    1     -0.05      0.00
    8   32    1      0.17      0.00
   10   32    1      0.55      0.00
   12   32    1      0.22      0.00
   14   32    1     -0.19      0.00
  -13   33    1      0.03      0.00
  -11   33    1      0.32      0.00
   -9   33    1      0.26      0.00
   -7   33    1     -0.05      0.00
   -5   33    1      0.00      0.00
   -1   33    1      0.66      0.00
    1   33    1      0.71      0.00
    3   33    1      0.88      0.00
    5   33    1      0.91      0.00
    7   33    1      0.33      0.00
    9   33    1     -0.43      0.00
   11   33    1     -0.53      0.00
   13   33    1     -0.08      0.00
  -26   10    2     -0.62      0.00
   26   10    2     -0.86      0.00
  -26   12    2     -0.43      0.00
   26   12    2     -0.15      0.00
  -25   13    2      0.88      0.00
   25   13    2     -0.12      0.00
  -26   14    2     -0.50      0.00
   26   14    2      0.00      0.00
  -25   15    2      0.53      0.00
   25   15    2      0.29      0.00
  -26   16    2     -0.40      0.00
  -24   16    2     -0.06      0.00
    0   16    2     -3.96      0.00
   24   16    2     -0.76      0.00
   26   16    2     -0.54      0.00
  -25   17    2     -0.06      0.00
    1   17    2     -1.92      0.00
   25   17    2      0.68      0.00
  -26   18    2      0.17      0.00
  -24   18    2      0.49      0.00
    2   18    2      4.37      0.00
   24   18    2     -0.49      0.00
  -25   19    2     -0.47      0.00
  -23   19    2     -0.41      0.00
   23   19    2      0.01      0.00
   25   19    2     -0.28      0.00
  -24   20    2      0.37      0.00
  -22   20    2      0.00      0.00
   22   20    2      0.33      0.00
   24   20    2      0.56      0.00
  -23   21    2     -0.11      0.00
   21   21    2     -0.18      0.00
   23   21    2     -0.48      0.00
  -22   22    2      0.06      0.00
   22   22    2      0.04      0.00
  -23   23    2     -0.25      0.00
  -21   23    2     -0.23      0.00
   21   23    2      0.38      0.00
   23   23    2      0.11      0.00
  -22   24    2      0.29      0.00
  -20   24    2      0.34      0.00
   20   24    2     -0.39      0.00
   22   24    2     -0.35      0.00
  -21   25    2     -0.16      0.00
  -19   25    2     -0.27      0.00
   19   25    2      0.08      0.00
   21   25    2      0.25      0.00
  -20   26    2     -0.07      0.00
  -18   26    2      0.14      0.00
   18   26    2      0.09      0.00
   20   26    2     -0.01      0.00
  -19   27    2      0.21      0.00
  -17   27    2     -0.10      0.00
   17   27    2      0.08      0.00
   19   27    2     -0.04      0.00
  -18   28    2     -0.17      0.00
  -16   28    2      0.16      0.00
   16   28    2     -0.29      0.00
   18   28    2     -0.09      0.00
  -17   29    2      0.03      0.00
  -15   29    2     -0.18      0.00
   15   29    2      0.33      0.00
   17   29    2      0.14      0.00
  -16   30    2      0.02      0.00
  -14   30    2      0.02      0.00
  -12   30    2      0.23      0.00
   12   30    2     -0.42      0.00
   14   30    2     -0.36      0.00
   16   30    2     -0.07      0.00
  -15   31    2      0.09      0.00
  -13   31    2      0.22      0.00
  -11   31    2     -0.04      0.00
   11   31    2      0.28      0.00
   13   31    2      0.43      0.00
   15   31    2      0.07      0.00
  -14   32    2     -0.22      0.00
  -12   32    2     -0.32      0.00
  -10   32    2     -0.01      0.00
   -8   32    2      0.37      0.00
    8   32    2      0.51      0.00
   10   32    2      0.10      0.00
   12   32    2     -0.28      0.00
   14   32    2     -0.14      0.00
  -13   33    2      0.26      0.00
  -11   33    2      0.22      0.00
   -9   33    2     -0.05      0.00
   -7   33    2     -0.20      0.00
   -5   33    2     -0.21      0.00
   -3   33    2     -0.30      0.00
   -1   33    2     -0.47      0.00
    1   33    2     -0.50      0.00
    3   33    2     -0.34      0.00
    5   33    2     -0.26      0.00
    7   33    2     -0.39      0.00
    9   33    2     -0.41      0.00
   11   33    2     -0.12      0.00
   13   33    2      0.08      0.00
   13    7    3     -0.35      0.00
   26    8    3      0.81      0.00
  -26   10    3      0.88      0.00
   26   10    3      0.33      0.00
  -26   12    3      0.06      0.00
   26   12    3      0.38      0.00
  -25   13    3      0.09      0.00
   25   13    3      0.18      0.00
  -26   14    3     -0.19      0.00
   26   14    3     -0.26      0.00
  -25   15    3      0.31      0.00
   25   15    3      0.75      0.00
  -26   16    3     -0.17      0.00
  -24   16    3     -0.37      0.00
   24   16    3     -0.99      0.00
   26   16    3     -0.78      0.00
  -25   17    3      0.18      0.00
   25   17    3      0.87      0.00
  -26   18    3     -0.30      0.00
  -24   18    3      0.14      0.00
   -4   18    3      0.58      0.00
   24   18    3     -0.88      0.00
  -25   19    3      0.12      0.00
  -23   19    3     -0.47      0.00
   23   19    3      0.73      0.00
   25   19    3      0.24      0.00
  -24   20    3      0.00      0.00
  -22   20    3      0.21      0.00
   22   20    3     -0.31      0.00
   24   20    3     -0.19      0.00
  -23   21    3      0.32      0.00
  -21   21    3      0.66      0.00
   21   21    3     -0.21      0.00
   23   21    3      0.06      0.00
  -22   22    3     -0.93      0.00
   20   22    3      0.54      0.00
   22   22    3      0.11      0.00
  -23   23    3      0.51      0.00
  -21   23    3      1.22      0.00
   21   23    3     -0.21      0.00
   23   23    3      0.19      0.00
  -22   24    3     -0.38      0.00
  -20   24    3     -0.88      0.00
   20   24    3      0.21      0.00
   22   24    3     -0.18      0.00
  -21   25    3      0.03      0.00
  -19   25    3      0.22      0.00
   19   25    3     -0.16      0.00
   21   25    3      0.10      0.00
  -20   26    3      0.26      0.00
  -18   26    3      0.20      0.00
   18   26    3      0.06      0.00
   20   26    3      0.01      0.00
  -19   27    3     -0.29      0.00
  -17   27    3     -0.25      0.00
   17   27    3      0.14      0.00
   19   27    3     -0.05      0.00
  -18   28    3      0.21      0.00
  -16   28    3      0.23      0.00
   16   28    3     -0.34      0.00
   18   28    3     -0.04      0.00
  -17   29    3     -0.26      0.00
  -15   29    3     -0.45      0.00
   13   29    3      0.41      0.00
   15   29    3      0.38      0.00
   17   29    3      0.16      0.00
  -16   30    3      0.49      0.00
  -14   30    3      0.77      0.00
  -12   30    3      0.55      0.00
   12   30    3     -0.30      0.00
   14   30    3     -0.29      0.00
   16   30    3     -0.21      0.00
  -15   31    3     -0.60      0.00
  -13   31    3     -0.72      0.00
  -11   31    3     -0.48      0.00
   11   31    3      0.25      0.00
   13   31    3      0.22      0.00
   15   31    3      0.23      0.00
  -14   32    3      0.40      0.00
  -12   32    3      0.27      0.00
  -10   32    3      0.10      0.00
   -8   32    3      0.12      0.00
    8   32    3     -0.43      0.00
   10   32    3     -0.04      0.00
   12   32    3     -0.10      0.00
   14   32    3     -0.23      0.00
  -13   33    3     -0.09      0.00
  -11   33    3      0.10      0.00
   -9   33    3      0.04      0.00
   -7   33    3     -0.17      0.00
   -5   33    3     -0.11      0.00
   -3   33    3      0.13      0.00
   -1   33    3      0.12      0.00
    1   33    3     -0.03      0.00
    3   33    3      0.04      0.00
    5   33    3      0.15      0.00
    7   33    3     -0.06      0.00
    9   33    3     -0.32      0.00
   11   33    3     -0.19      0.00
  -26    8    4     -0.66      0.00
   26    8    4      0.49      0.00
  -26   10    4     -0.05      0.00
   26   10    4     -0.23      0.00
  -26   12    4      0.58      0.00
   26   12    4      0.56      0.00
  -25   13    4     -0.24      0.00
   25   13    4     -1.16      0.00
  -26   14    4      0.20      0.00
   26   14    4      0.99      0.00
  -25   15    4     -0.11      0.00
   25   15    4     -0.60      0.00
  -26   16    4     -0.10      0.00
  -24   16    4      0.13      0.00
   24   16    4     -0.09      0.00
   26   16    4     -0.07      0.00
  -25   17    4     -0.01      0.00
  -23   17    4      0.06      0.00
   23   17    4      0.61      0.00
   25   17    4      0.50      0.00
  -24   18    4      0.11      0.00
   24   18    4     -0.67      0.00
  -25   19    4     -0.29      0.00
  -23   19    4     -0.37      0.00
   23   19    4      0.56      0.00
   25   19    4      0.11      0.00
  -24   20    4      0.55      0.00
  -22   20    4      0.79      0.00
   22   20    4     -0.38      0.00
   24   20    4      0.06      0.00
  -23   21    4     -0.74      0.00
  -21   21    4     -0.97      0.00
   21   21    4      0.28      0.00
   23   21    4     -0.09      0.00
  -22   22    4      0.56      0.00
   20   22    4     -0.26      0.00
   22   22    4     -0.03      0.00
  -23   23    4      0.01      0.00
  -21   23    4      0.02      0.00
   19   23    4      0.17      0.00
   21   23    4      0.15      0.00
  -22   24    4     -0.38      0.00
  -20   24    4     -0.59      0.00
   18   24    4      0.09      0.00
   20   24    4     -0.09      0.00
   22   24    4     -0.41      0.00
  -21   25    4      0.62      0.00
  -19   25    4      0.74      0.00
   19   25    4     -0.16      0.00
   21   25    4      0.27      0.00
  -20   26    4     -0.59      0.00
  -18   26    4     -0.52      0.00
   18   26    4      0.33      0.00
   20   26    4      0.03      0.00
  -19   27    4      0.39      0.00
  -17   27    4      0.29      0.00
   17   27    4     -0.18      0.00
   19   27    4     -0.18      0.00
  -18   28    4     -0.22      0.00
  -16   28    4     -0.29      0.00
   16   28    4     -0.24      0.00
   18   28    4      0.07      0.00
  -17   29    4      0.10      0.00
  -15   29    4      0.34      0.00
  -13   29    4      0.58      0.00
   13   29    4      0.65      0.00
   15   29    4      0.61      0.00
   17   29    4      0.16      0.00
  -16   30    4      0.07      0.00
  -14   30    4     -0.16      0.00
  -12   30    4     -0.16      0.00
   12   30    4     -0.56      0.00
   14   30    4     -0.68      0.00
   16   30    4     -0.28      0.00
  -15   31    4     -0.24      0.00
  -13   31    4     -0.13      0.00
  -11   31    4     -0.35      0.00
   11   31    4      0.48      0.00
   13   31    4      0.58      0.00
   15   31    4      0.25      0.00
  -14   32    4      0.21      0.00
  -12   32    4      0.17      0.00
  -10   32    4      0.39      0.00
   -8   32    4      0.51      0.00
    8   32    4     -0.69      0.00
   10   32    4     -0.53      0.00
   12   32    4     -0.48      0.00
   14   32    4     -0.22      0.00
  -11   33    4      0.08      0.00
   -9   33    4     -0.07      0.00
   -7   33    4     -0.01      0.00
   -5   33    4      0.23      0.00
   -3   33    4      0.30      0.00
   -1   33    4      0.19      0.00
    1   33    4      0.25      0.00
    3   33    4      0.61      0.00
    5   33    4      0.89      0.00
    7   33    4      0.75      0.00
    9   33    4      0.44      0.00
   11   33    4      0.32      0.00
  -26    8    5      0.60      0.00
   26    8    5      1.00      0.00
  -26   10    5      0.22      0.00
   26   10    5      0.17      0.00
   25   11    5      0.62      0.00
  -26   12    5      0.11      0.00
   26   12    5     -0.48      0.00
  -25   13    5      0.21      0.00
   25   13    5      0.49      0.00
  -26   14    5     -0.02      0.00
   24   14    5     -0.07      0.00
   26   14    5     -0.18      0.00
  -25   15    5      0.26      0.00
   25   15    5     -0.07      0.00
  -26   16    5      0.07      0.00
  -24   16    5     -0.15      0.00
   24   16    5      0.11      0.00
   26   16    5     -0.04      0.00
  -25   17    5     -0.09      0.00
  -23   17    5     -0.08      0.00
   23   17    5      0.10      0.00
   25   17    5      0.16      0.00
  -24   18    5      0.13      0.00
    2   18    5     -3.82      0.00
   22   18    5     -0.32      0.00
   24   18    5     -0.46      0.00
  -25   19    5      0.02      0.00
  -23   19    5      0.12      0.00
   23   19    5      0.67      0.00
   25   19    5      0.31      0.00
  -24   20    5     -0.11      0.00
  -22   20    5     -0.51      0.00
   22   20    5     -0.54      0.00
   24   20    5     -0.39      0.00
  -23   21    5      0.21      0.00
  -21   21    5      0.63      0.00
   21   21    5      0.11      0.00
   23   21    5      0.24      0.00
  -22   22    5     -0.17      0.00
  -20   22    5     -0.28      0.00
   20   22    5      0.30      0.00
   22   22    5      0.06      0.00
  -23   23    5     -0.04      0.00
  -21   23    5      0.00      0.00
   19   23    5     -0.35      0.00
   21   23    5     -0.26      0.00
  -22   24    5      0.10      0.00
  -20   24    5      0.12      0.00
   18   24    5      0.07      0.00
   20   24    5      0.20      0.00
   22   24    5     -0.01      0.00
  -21   25    5     -0.03      0.00
  -19   25    5     -0.08      0.00
   17   25    5      0.20      0.00
   19   25    5     -0.01      0.00
   21   25    5      0.15      0.00
  -20   26    5     -0.14      0.00
  -18   26    5     -0.06      0.00
  -16   26    5      0.34      0.00
   18   26    5     -0.04      0.00
   20   26    5     -0.19      0.00
  -19   27    5      0.27      0.00
  -17   27    5      0.13      0.00
  -15   27    5     -0.04      0.00
   17   27    5     -0.13      0.00
   19   27    5      0.07      0.00
  -18   28    5     -0.25      0.00
  -16   28    5     -0.06      0.00
  -14   28    5     -0.19      0.00
   14   28    5      0.26      0.00
   16   28    5      0.28      0.00
   18   28    5      0.08      0.00
  -17   29    5      0.04      0.00
  -15   29    5     -0.10      0.00
  -13   29    5      0.29      0.00
   13   29    5     -0.09      0.00
   15   29    5     -0.18      0.00
   17   29    5     -0.09      0.00
  -16   30    5      0.25      0.00
  -14   30    5      0.30      0.00
  -12   30    5     -0.16      0.00
   12   30    5     -0.05      0.00
   14   30    5     -0.06      0.00
   16   30    5     -0.07      0.00
  -15   31    5     -0.48      0.00
  -13   31    5     -0.49      0.00
  -11   31    5     -0.21      0.00
   -9   31    5     -0.06      0.00
    9   31    5     -0.10      0.00
   11   31    5     -0.06      0.00
   13   31    5      0.17      0.00
   15   31    5      0.23      0.00
  -14   32    5      0.51      0.00
  -12   32    5      0.52      0.00
  -10   32    5      0.47      0.00
   -8   32    5      0.53      0.00
    6   32    5     -0.08      0.00
    8   32    5      0.17      0.00
   10   32    5      0.22      0.00
   12   32    5     -0.06      0.00
  -11   33    5     -0.26      0.00
   -9   33    5     -0.33      0.00
   -7   33    5     -0.36      0.00
   -5   33    5     -0.17      0.00
   -3   33    5      0.01      0.00
   -1   33    5     -0.03      0.00
    1   33    5     -0.03      0.00
    3   33    5      0.24      0.00
    5   33    5      0.42      0.00
    7   33    5      0.18      0.00
    9   33    5     -0.11      0.00
   11   33    5     -0.03      0.00
  -26    0    6     -3.41      0.00
  -26    2    6     -2.16      0.00
  -26    4    6      0.01      0.00
  -26    6    6      0.87      0.00
   26    6    6     -0.10      0.00
  -26    8    6      0.13      0.00
   26    8    6      1.02      0.00
  -26   10    6     -0.16      0.00
   26   10    6      1.38      0.00
  -25   11    6     -0.08      0.00
   25   11    6     -1.24      0.00
  -26   12    6      0.63      0.00
   26   12    6      0.98      0.00
  -25   13    6     -0.88      0.00
   25   13    6     -0.62      0.00
  -26   14    6      0.47      0.00
  -24   14    6      0.94      0.00
   24   14    6      0.41      0.00
   26   14    6      0.48      0.00
  -25   15    6     -0.30      0.00
   25   15    6     -0.32      0.00
  -26   16    6     -0.10      0.00
  -24   16    6      0.16      0.00
   24   16    6      0.16      0.00
   26   16    6      0.05      0.00
  -25   17    6      0.01      0.00
  -23   17    6     -0.14      0.00
   23   17    6      0.03      0.00
   25   17    6      0.13      0.00
  -24   18    6      0.16      0.00
   22   18    6     -0.20      0.00
   24   18    6     -0.30      0.00
  -25   19    6     -0.21      0.00
  -23   19    6     -0.25      0.00
   23   19    6      0.38      0.00
  -24   20    6      0.25      0.00
  -22   20    6      0.10      0.00
   22   20    6     -0.39      0.00
   24   20    6     -0.31      0.00
  -23   21    6     -0.17      0.00
  -21   21    6      0.23      0.00
   21   21    6      0.29      0.00
   23   21    6      0.29      0.00
  -22   22    6      0.04      0.00
  -20   22    6     -0.45      0.00
   20   22    6     -0.02      0.00
   22   22    6     -0.13      0.00
  -21   23    6      0.01      0.00
  -19   23    6      0.31      0.00
   19   23    6     -0.34      0.00
   21   23    6     -0.20      0.00
  -22   24    6      0.07      0.00
  -20   24    6      0.07      0.00
   18   24    6      0.51      0.00
   20   24    6      0.49      0.00
  -21   25    6     -0.05      0.00
  -19   25    6     -0.18      0.00
  -17   25    6     -0.47      0.00
   17   25    6     -0.24      0.00
   19   25    6     -0.48      0.00
   21   25    6     -0.23      0.00
  -20   26    6     -0.04      0.00
  -18   26    6      0.12      0.00
  -16   26    6      0.41      0.00
   16   26    6     -0.30      0.00
   18   26    6      0.10      0.00
   20   26    6      0.21      0.00
  -19   27    6      0.23      0.00
  -17   27    6      0.14      0.00
  -15   27    6     -0.02      0.00
   15   27    6      0.61      0.00
   17   27    6      0.31      0.00
   19   27    6     -0.05      0.00
  -18   28    6     -0.41      0.00
  -16   28    6     -0.41      0.00
  -14   28    6     -0.38      0.00
   14   28    6     -0.50      0.00
   16   28    6     -0.40      0.00
   18   28    6     -0.06      0.00
  -17   29    6      0.40      0.00
  -15   29    6      0.48      0.00
  -13   29    6      0.56      0.00
   13   29    6      0.32      0.00
   15   29    6      0.25      0.00
   17   29    6      0.00      0.00
  -16   30    6     -0.18      0.00
  -14   30    6     -0.38      0.00
  -12   30    6     -0.56      0.00
   12   30    6     -0.39      0.00
   14   30    6     -0.18      0.00
   16   30    6      0.11      0.00
  -15   31    6     -0.07      0.00
  -13   31    6      0.21      0.00
  -11   31    6      0.42      0.00
   -9   31    6      0.45      0.00
    9   31    6      0.61      0.00
   11   31    6      0.55      0.00
   13   31    6      0.31      0.00
  -12   32    6     -0.05      0.00
  -10   32    6     -0.13      0.00
   -8   32    6     -0.09      0.00
   -6   32    6      0.00      0.00
    4   32    6     -0.22      0.00
    6   32    6     -0.39      0.00
    8   32    6     -0.43      0.00
   10   32    6     -0.44      0.00
   12   32    6     -0.35      0.00
  -11   33    6     -0.05      0.00
   -9   33    6     -0.17      0.00
   -7   33    6     -0.24      0.00
   -5   33    6     -0.26      0.00
   -3   33    6     -0.36      0.00
   -1   33    6     -0.45      0.00
    1   33    6     -0.31      0.00
    3   33    6      0.02      0.00
    5   33    6      0.26      0.00
    7   33    6      0.23      0.00
    9   33    6      0.13      0.00
   11   33    6      0.15      0.00
  -26    2    7     -1.36      0.00
   26    2    7      0.30      0.00
  -26    4    7     -2.06      0.00
   26    4    7     -0.03      0.00
  -26    6    7     -0.95      0.00
   26    6    7     -1.23      0.00
  -26    8    7      0.68      0.00
   26    8    7     -1.26      0.00
   25    9    7      0.73      0.00
  -26   10    7      0.32      0.00
   26   10    7      0.13      0.00
  -25   11    7      0.10      0.00
   25   11    7     -0.65      0.00
  -26   12    7     -0.34      0.00
   26   12    7      0.61      0.00
  -25   13    7      0.56      0.00
   25   13    7     -0.33      0.00
  -26   14    7      0.12      0.00
  -24   14    7     -0.62      0.00
   24   14    7      0.06      0.00
   26   14    7      0.21      0.00
  -25   15    7     -0.10      0.00
   23   15    7     -0.18      0.00
   25   15    7     -0.16      0.00
  -26   16    7      0.32      0.00
  -24   16    7      0.32      0.00
   24   16    7      0.29      0.00
  -25   17    7     -0.45      0.00
  -23   17    7     -0.62      0.00
    1   17    7      3.84      0.00
   23   17    7     -0.33      0.00
   25   17    7     -0.37      0.00
  -24   18    7      0.62      0.00
  -22   18    7      0.64      0.00
   22   18    7      0.18      0.00
   24   18    7      0.20      0.00
  -23   19    7     -0.46      0.00
   21   19    7     -0.01      0.00
   23   19    7      0.13      0.00
  -24   20    7      0.08      0.00
  -22   20    7     -0.09      0.00
   22   20    7     -0.38      0.00
  -23   21    7      0.32      0.00
  -21   21    7      0.69      0.00
   21   21    7      0.43      0.00
   23   21    7      0.44      0.00
  -22   22    7     -0.61      0.00
  -20   22    7     -0.86      0.00
   20   22    7     -0.34      0.00
   22   22    7     -0.49      0.00
  -21   23    7      0.53      0.00
  -19   23    7      0.47      0.00
   19   23    7      0.12      0.00
   21   23    7      0.28      0.00
  -20   24    7     -0.16      0.00
  -18   24    7      0.19      0.00
   18   24    7      0.18      0.00
   20   24    7      0.10      0.00
  -21   25    7     -0.18      0.00
  -19   25    7     -0.23      0.00
  -17   25    7     -0.66      0.00
   17   25    7     -0.39      0.00
   19   25    7     -0.41      0.00
  -20   26    7      0.20      0.00
  -18   26    7      0.38      0.00
  -16   26    7      0.64      0.00
   16   26    7      0.35      0.00
   18   26    7      0.42      0.00
  -19   27    7     -0.08      0.00
  -17   27    7     -0.26      0.00
  -15   27    7     -0.22      0.00
   15   27    7     -0.15      0.00
   17   27    7     -0.16      0.00
  -18   28    7     -0.05      0.00
  -16   28    7      0.07      0.00
  -14   28    7     -0.16      0.00
   14   28    7      0.11      0.00
   16   28    7     -0.06      0.00
   18   28    7     -0.10      0.00
  -17   29    7      0.05      0.00
  -15   29    7     -0.07      0.00
  -13   29    7      0.17      0.00
   13   29    7     -0.27      0.00
   15   29    7      0.01      0.00
  -16   30    7      0.12      0.00
  -14   30    7      0.25      0.00
  -12   30    7      0.09      0.00
  -10   30    7      0.07      0.00
   10   30    7      0.12      0.00
   12   30    7      0.35      0.00
   14   30    7      0.17      0.00
  -13   31    7     -0.35      0.00
  -11   31    7     -0.18      0.00
   -9   31    7     -0.10      0.00
    7   31    7      0.52      0.00
    9   31    7      0.23      0.00
   11   31    7     -0.10      0.00
   13   31    7     -0.16      0.00
  -12   32    7      0.22      0.00
  -10   32    7     -0.01      0.00
   -8   32    7     -0.18      0.00
   -6   32    7     -0.33      0.00
   -4   32    7     -0.44      0.00
    4   32    7     -0.24      0.00
    6   32    7     -0.49      0.00
    8   32    7     -0.46      0.00
   10   32    7     -0.27      0.00
   12   32    7     -0.11      0.00
  -11   33    7      0.00      0.00
   -9   33    7      0.17      0.00
   -7   33    7      0.24      0.00
   -5   33    7      0.26      0.00
   -3   33    7      0.15      0.00
   -1   33    7     -0.10      0.00
    1   33    7     -0.23      0.00
    3   33    7     -0.04      0.00
    5   33    7      0.27      0.00
    7   33    7      0.42      0.00
    9   33    7      0.43      0.00
   11   33    7      0.35      0.00
  -26    0    8     -1.14      0.00
   26    0    8     -1.37      0.00
  -26    2    8     -0.19      0.00
   26    2    8     -0.76      0.00
  -26    4    8      0.42      0.00
   26    4    8      0.74      0.00
   -3    5    8     -0.56      0.00
  -26    6    8     -0.94      0.00
   26    6    8      1.07      0.00
  -26    8    8     -1.24      0.00
   26    8    8     -0.20      0.00
  -25    9    8      0.27      0.00
   25    9    8      0.85      0.00
  -26   10    8      0.11      0.00
   26   10    8     -0.33      0.00
  -25   11    8     -0.87      0.00
   25   11    8     -0.04      0.00
  -26   12    8      0.36      0.00
   24   12    8      0.56      0.00
   26   12    8      0.69      0.00
  -25   13    8     -0.38      0.00
   25   13    8     -0.84      0.00
  -26   14    8     -0.16      0.00
  -24   14    8      0.16      0.00
   24   14    8      0.61      0.00
   26   14    8      0.49      0.00
  -25   15    8      0.32      0.00
  -23   15    8      0.21      0.00
   23   15    8     -0.26      0.00
   25   15    8     -0.12      0.00
  -26   16    8     -0.29      0.00
  -24   16    8     -0.43      0.00
    0   16    8      1.08      0.00
   22   16    8      0.17      0.00
   24   16    8     -0.12      0.00
  -25   17    8      0.22      0.00
  -23   17    8      0.30      0.00
   23   17    8      0.06      0.00
   25   17    8      0.24      0.00
  -24   18    8      0.15      0.00
  -22   18    8      0.09      0.00
   22   18    8      0.16      0.00
   24   18    8     -0.06      0.00
  -23   19    8     -0.63      0.00
  -21   19    8     -0.43      0.00
   21   19    8     -0.31      0.00
   23   19    8     -0.21      0.00
  -24   20    8      0.62      0.00
  -22   20    8      0.78      0.00
   20   20    8      0.32      0.00
   22   20    8      0.43      0.00
  -23   21    8     -0.51      0.00
  -21   21    8     -0.35      0.00
   21   21    8     -0.51      0.00
   23   21    8     -0.30      0.00
  -22   22    8      0.07      0.00
  -20   22    8     -0.30      0.00
   20   22    8      0.43      0.00
   22   22    8      0.23      0.00
  -21   23    8      0.32      0.00
  -19   23    8      0.56      0.00
   19   23    8     -0.24      0.00
   21   23    8     -0.09      0.00
  -20   24    8     -0.29      0.00
  -18   24    8     -0.21      0.00
   18   24    8      0.07      0.00
   20   24    8      0.03      0.00
  -19   25    8     -0.04      0.00
  -17   25    8     -0.33      0.00
   17   25    8      0.06      0.00
   19   25    8     -0.09      0.00
  -20   26    8      0.09      0.00
  -18   26    8      0.23      0.00
  -16   26    8      0.45      0.00
   16   26    8     -0.23      0.00
   18   26    8      0.10      0.00
  -19   27    8      0.03      0.00
  -17   27    8     -0.02      0.00
  -15   27    8     -0.02      0.00
   15   27    8      0.47      0.00
   17   27    8      0.07      0.00
  -18   28    8     -0.28      0.00
  -16   28    8     -0.41      0.00
  -14   28    8     -0.60      0.00
   14   28    8     -0.60      0.00
   16   28    8     -0.34      0.00
  -17   29    8      0.41      0.00
  -15   29    8      0.66      0.00
  -13   29    8      0.92      0.00
   11   29    8     -0.07      0.00
   13   29    8      0.37      0.00
   15   29    8      0.40      0.00
  -14   30    8     -0.55      0.00
  -12   30    8     -0.72      0.00
  -10   30    8     -0.59      0.00
   10   30    8      0.49      0.00
   12   30    8      0.10      0.00
   14   30    8     -0.15      0.00
  -13   31    8      0.25      0.00
  -11   31    8      0.28      0.00
   -9   31    8      0.01      0.00
   -7   31    8     -0.36      0.00
    5   31    8     -0.35      0.00
    7   31    8     -0.43      0.00
    9   31    8     -0.50      0.00
   11   31    8     -0.41      0.00
   13   31    8     -0.19      0.00
  -12   32    8     -0.09      0.00
  -10   32    8     -0.04      0.00
   -8   32    8      0.11      0.00
   -6   32    8      0.14      0.00
   -4   32    8     -0.02      0.00
   -2   32    8     -0.17      0.00
    0   32    8     -0.13      0.00
    2   32    8     -0.01      0.00
    4   32    8      0.01      0.00
    6   32    8      0.00      0.00
    8   32    8      0.14      0.00
   10   32    8      0.32      0.00
   12   32    8      0.30      0.00
  -11   33    8      0.15      0.00
   -9   33    8      0.11      0.00
   -7   33    8      0.16      0.00
   -5   33    8      0.31      0.00
   -3   33    8      0.36      0.00
   -1   33    8      0.17      0.00
    1   33    8     -0.08      0.00
    3   33    8     -0.08      0.00
    5   33    8      0.09      0.00
    7   33    8      0.12      0.00
    9   33    8     -0.07      0.00
  -26    2    9     -1.26      0.00
   26    2    9     -0.89      0.00
  -26    4    9     -1.01      0.00
   26    4    9     -1.25      0.00
   25    5    9      1.26      0.00
  -26    6    9     -0.37      0.00
   26    6    9     -0.69      0.00
  -25    7    9      0.79      0.00
   25    7    9      0.28      0.00
  -26    8    9     -0.51      0.00
   26    8    9     -0.24      0.00
  -25    9    9      0.56      0.00
   25    9    9      0.13      0.00
  -26   10    9     -0.24      0.00
   24   10    9     -0.30      0.00
   26   10    9     -0.16      0.00
  -25   11    9     -0.08      0.00
   25   11    9      0.26      0.00
  -26   12    9      0.18      0.00
  -24   12    9      0.14      0.00
   24   12    9     -0.33      0.00
   26   12    9      0.23      0.00
  -25   13    9     -0.17      0.00
   23   13    9      0.20      0.00
   25   13    9     -0.16      0.00
  -26   14    9      0.11      0.00
  -24   14    9      0.09      0.00
   24   14    9      0.14      0.00
  -25   15    9     -0.11      0.00
  -23   15    9     -0.19      0.00
   23   15    9     -0.14      0.00
   25   15    9     -0.28      0.00
  -24   16    9      0.21      0.00
   22   16    9      0.16      0.00
   24   16    9      0.15      0.00
  -25   17    9     -0.09      0.00
  -23   17    9     -0.23      0.00
   21   17    9     -0.21      0.00
   23   17    9     -0.03      0.00
  -24   18    9      0.11      0.00
  -22   18    9      0.01      0.00
   22   18    9     -0.11      0.00
   24   18    9     -0.01      0.00
  -23   19    9     -0.03      0.00
  -21   19    9      0.26      0.00
   21   19    9      0.29      0.00
   23   19    9      0.21      0.00
  -22   20    9     -0.05      0.00
  -20   20    9     -0.31      0.00
   20   20    9     -0.45      0.00
   22   20    9     -0.34      0.00
  -23   21    9     -0.13      0.00
  -21   21    9      0.08      0.00
   19   21    9      0.47      0.00
   21   21    9      0.26      0.00
  -22   22    9      0.02      0.00
  -20   22    9     -0.14      0.00
   20   22    9     -0.01      0.00
   22   22    9      0.12      0.00
  -21   23    9      0.14      0.00
  -19   23    9      0.17      0.00
   19   23    9     -0.25      0.00
   21   23    9     -0.34      0.00
  -20   24    9     -0.18      0.00
  -18   24    9      0.03      0.00
   18   24    9      0.37      0.00
   20   24    9      0.44      0.00
  -19   25    9     -0.04      0.00
  -17   25    9     -0.50      0.00
   17   25    9     -0.41      0.00
   19   25    9     -0.40      0.00
  -18   26    9      0.40      0.00
  -16   26    9      0.83      0.00
   16   26    9      0.42      0.00
   18   26    9      0.30      0.00
  -17   27    9     -0.56      0.00
  -15   27    9     -0.68      0.00
   13   27    9     -0.42      0.00
   15   27    9     -0.36      0.00
   17   27    9     -0.17      0.00
  -16   28    9      0.40      0.00
  -14   28    9      0.19      0.00
  -12   28    9     -0.45      0.00
   12   28    9     -0.14      0.00
   14   28    9      0.11      0.00
   16   28    9      0.00      0.00
  -15   29    9     -0.17      0.00
  -13   29    9      0.12      0.00
  -11   29    9      0.56      0.00
   11   29    9      0.62      0.00
   13   29    9      0.21      0.00
   15   29    9      0.16      0.00
  -14   30    9      0.15      0.00
  -12   30    9     -0.05      0.00
  -10   30    9     -0.23      0.00
    8   30    9     -0.84      0.00
   10   30    9     -0.55      0.00
   12   30    9     -0.25      0.00
   14   30    9     -0.18      0.00
  -13   31    9     -0.24      0.00
  -11   31    9     -0.15      0.00
   -9   31    9     -0.18      0.00
   -7   31    9     -0.27      0.00
   -5   31    9     -0.28      0.00
    5   31    9     -0.05      0.00
    7   31    9      0.17      0.00
    9   31    9      0.08      0.00
   11   31    9     -0.04      0.00
   13   31    9     -0.02      0.00
  -12   32    9      0.14      0.00
  -10   32    9      0.16      0.00
   -8   32    9      0.33      0.00
   -6   32    9      0.42      0.00
   -4   32    9      0.33      0.00
   -2   32    9      0.30      0.00
    0   32    9      0.35      0.00
    2   32    9      0.29      0.00
    4   32    9      0.10      0.00
    6   32    9      0.04      0.00
    8   32    9      0.18      0.00
   10   32    9      0.29      0.00
   -9   33    9      0.00      0.00
   -7   33    9     -0.19      0.00
   -5   33    9     -0.14      0.00
   -3   33    9      0.07      0.00
   -1   33    9      0.15      0.00
    1   33    9      0.11      0.00
    3   33    9      0.11      0.00
    5   33    9      0.09      0.00
    7   33    9     -0.05      0.00
    9   33    9     -0.21      0.00
  -26    0   10      0.92      0.00
   26    0   10     -0.03      0.00
   25    1   10     -0.41      0.00
  -26    2   10      0.98      0.00
   -2    2   10     -6.57      0.00
   26    2   10      0.54      0.00
   25    3   10     -1.20      0.00
  -26    4   10      0.55      0.00
   26    4   10      0.87      0.00
  -25    5   10     -0.33      0.00
   25    5   10     -0.54      0.00
  -26    6   10     -0.41      0.00
   26    6   10      0.03      0.00
  -25    7   10      0.62      0.00
   25    7   10      0.71      0.00
  -26    8   10     -1.25      0.00
   24    8   10     -0.96      0.00
   26    8   10     -0.78      0.00
  -25    9   10      1.24      0.00
   25    9   10      0.90      0.00
  -26   10   10     -1.13      0.00
   24   10   10     -0.52      0.00
   26   10   10     -0.60      0.00
  -25   11   10      0.55      0.00
   25   11   10      0.18      0.00
  -26   12   10     -0.29      0.00
  -24   12   10      0.21      0.00
   24   12   10      0.16      0.00
   26   12   10      0.26      0.00
  -25   13   10     -0.02      0.00
   23   13   10     -0.26      0.00
   25   13   10     -0.45      0.00
  -26   14   10     -0.27      0.00
  -24   14   10     -0.02      0.00
   24   14   10      0.32      0.00
  -25   15   10      0.39      0.00
  -23   15   10      0.27      0.00
   23   15   10     -0.07      0.00
   25   15   10     -0.05      0.00
  -24   16   10     -0.37      0.00
  -22   16   10     -0.31      0.00
   22   16   10     -0.05      0.00
   24   16   10     -0.33      0.00
  -25   17   10      0.26      0.00
  -23   17   10      0.08      0.00
   21   17   10     -0.10      0.00
   23   17   10      0.35      0.00
  -24   18   10      0.06      0.00
  -22   18   10      0.21      0.00
   22   18   10      0.03      0.00
  -23   19   10     -0.24      0.00
  -21   19   10     -0.12      0.00
   21   19   10     -0.43      0.00
   23   19   10     -0.07      0.00
  -22   20   10      0.08      0.00
  -20   20   10     -0.29      0.00
   20   20   10      0.44      0.00
   22   20   10      0.39      0.00
  -21   21   10      0.26      0.00
  -19   21   10      0.62      0.00
   19   21   10     -0.01      0.00
   21   21   10     -0.34      0.00
  -22   22   10     -0.12      0.00
  -20   22   10     -0.44      0.00
   18   22   10     -0.46      0.00
   20   22   10      0.07      0.00
  -21   23   10      0.18      0.00
  -19   23   10      0.37      0.00
   17   23   10      0.69      0.00
   19   23   10      0.13      0.00
  -20   24   10     -0.07      0.00
  -18   24   10     -0.22      0.00
   16   24   10     -0.71      0.00
   18   24   10     -0.17      0.00
   20   24   10      0.04      0.00
  -19   25   10     -0.05      0.00
  -17   25   10      0.11      0.00
   15   25   10      0.64      0.00
   17   25   10      0.21      0.00
   19   25   10     -0.16      0.00
  -18   26   10      0.08      0.00
  -16   26   10     -0.02      0.00
  -14   26   10      0.01      0.00
   14   26   10     -0.37      0.00
   16   26   10     -0.25      0.00
   18   26   10      0.19      0.00
  -17   27   10      0.01      0.00
  -15   27   10      0.05      0.00
  -13   27   10      0.04      0.00
   13   27   10     -0.10      0.00
   15   27   10      0.20      0.00
   17   27   10     -0.10      0.00
  -16   28   10     -0.19      0.00
  -14   28   10     -0.34      0.00
  -12   28   10     -0.52      0.00
   12   28   10      0.42      0.00
   14   28   10     -0.06      0.00
   16   28   10     -0.02      0.00
  -15   29   10      0.37      0.00
  -13   29   10      0.67      0.00
  -11   29   10      0.98      0.00
    9   29   10     -0.40      0.00
   11   29   10     -0.23      0.00
   13   29   10      0.07      0.00
   15   29   10      0.15      0.00
  -14   30   10     -0.30      0.00
  -12   30   10     -0.61      0.00
  -10   30   10     -0.89      0.00
   -8   30   10     -1.06      0.00
    6   30   10      0.01      0.00
    8   30   10     -0.22      0.00
   10   30   10     -0.26      0.00
   12   30   10     -0.28      0.00
   14   30   10     -0.26      0.00
  -13   31   10     -0.10      0.00
  -11   31   10      0.10      0.00
   -9   31   10      0.32      0.00
   -7   31   10      0.51      0.00
   -5   31   10      0.59      0.00
    3   31   10     -0.47      0.00
    5   31   10     -0.08      0.00
    7   31   10      0.36      0.00
    9   31   10      0.46      0.00
   11   31   10      0.36      0.00
  -10   32   10      0.34      0.00
   -8   32   10      0.13      0.00
   -6   32   10     -0.05      0.00
   -4   32   10     -0.05      0.00
   -2   32   10      0.19      0.00
    0   32   10      0.53      0.00
    2   32   10      0.61      0.00
    4   32   10      0.27      0.00
    6   32   10     -0.17      0.00
    8   32   10     -0.27      0.00
   10   32   10     -0.13      0.00
   -9   33   10     -0.25      0.00
   -7   33   10     -0.08      0.00
   -5   33   10      0.05      0.00
   -3   33   10     -0.01      0.00
   -1   33   10     -0.22      0.00
    1   33   10     -0.32      0.00
    3   33   10     -0.13      0.00
    5   33   10      0.15      0.00
    7   33   10      0.13      0.00
  -25    1   11     -0.07      0.00
   25    1   11      0.66      0.00
  -26    2   11      0.04      0.00
   26    2   11     -0.82      0.00
  -25    3   11      0.09      0.00
   25    3   11      0.50      0.00
  -26    4   11      0.23      0.00
   26    4   11     -0.13      0.00
  -25    5   11      0.33      0.00
   25    5   11     -0.65      0.00
  -26    6   11      0.50      0.00
   24    6   11      1.01      0.00
   26    6   11      0.46      0.00
  -25    7   11     -0.21      0.00
   25    7   11     -0.51      0.00
  -26    8   11      0.73      0.00
   24    8   11      0.13      0.00
   26    8   11      0.10      0.00
  -25    9   11     -0.50      0.00
   25    9   11      0.28      0.00
  -26   10   11      0.28      0.00
  -24   10   11      0.11      0.00
   24   10   11     -0.46      0.00
   26   10   11     -0.42      0.00
  -25   11   11      0.02      0.00
   23   11   11      0.29      0.00
   25   11   11      0.59      0.00
  -26   12   11     -0.04      0.00
  -24   12   11     -0.16      0.00
   24   12   11     -0.45      0.00
  -25   13   11     -0.04      0.00
  -23   13   11      0.00      0.00
   23   13   11      0.18      0.00
   25   13   11      0.07      0.00
  -24   14   11      0.20      0.00
   22   14   11      0.04      0.00
   24   14   11      0.23      0.00
  -25   15   11     -0.04      0.00
  -23   15   11     -0.27      0.00
   23   15   11     -0.36      0.00
  -24   16   11      0.02      0.00
  -22   16   11      0.18      0.00
   22   16   11      0.19      0.00
   24   16   11      0.35      0.00
  -23   17   11     -0.06      0.00
  -21   17   11     -0.09      0.00
   21   17   11      0.17      0.00
   23   17   11      0.12      0.00
  -24   18   11      0.04      0.00
  -22   18   11      0.20      0.00
   20   18   11     -0.45      0.00
   22   18   11     -0.53      0.00
  -23   19   11     -0.29      0.00
  -21   19   11     -0.33      0.00
   21   19   11      0.57      0.00
  -22   20   11      0.36      0.00
  -20   20   11      0.24      0.00
   20   20   11     -0.35      0.00
   22   20   11     -0.31      0.00
  -21   21   11     -0.11      0.00
  -19   21   11     -0.01      0.00
   19   21   11      0.22      0.00
   21   21   11     -0.05      0.00
  -20   22   11     -0.22      0.00
  -18   22   11      0.05      0.00
   18   22   11     -0.29      0.00
   20   22   11      0.16      0.00
  -21   23   11      0.30      0.00
  -19   23   11      0.23      0.00
  -17   23   11     -0.49      0.00
   17   23   11      0.35      0.00
   19   23   11     -0.02      0.00
  -20   24   11     -0.37      0.00
  -18   24   11      0.12      0.00
  -16   24   11      0.86      0.00
   16   24   11     -0.23      0.00
   18   24   11     -0.11      0.00
  -19   25   11      0.17      0.00
  -17   25   11     -0.44      0.00
  -15   25   11     -0.69      0.00
   15   25   11      0.09      0.00
   17   25   11      0.12      0.00
  -18   26   11      0.08      0.00
  -16   26   11      0.42      0.00
  -14   26   11      0.16      0.00
   14   26   11     -0.09      0.00
   16   26   11     -0.10      0.00
  -17   27   11     -0.16      0.00
  -15   27   11     -0.17      0.00
  -13   27   11      0.17      0.00
   13   27   11      0.06      0.00
   15   27   11      0.06      0.00
   17   27   11      0.09      0.00
  -16   28   11      0.08      0.00
  -14   28   11     -0.04      0.00
  -12   28   11     -0.18      0.00
   10   28   11     -0.16      0.00
   12   28   11      0.14      0.00
   14   28   11      0.08      0.00
  -15   29   11      0.05      0.00
  -13   29   11      0.20      0.00
  -11   29   11      0.19      0.00
   -9   29   11     -0.09      0.00
    9   29   11      0.05      0.00
   11   29   11     -0.31      0.00
   13   29   11     -0.25      0.00
  -14   30   11     -0.20      0.00
  -12   30   11     -0.41      0.00
  -10   30   11     -0.38      0.00
   -8   30   11     -0.22      0.00
   -6   30   11     -0.32      0.00
    6   30   11     -0.27      0.00
    8   30   11     -0.13      0.00
   10   30   11      0.16      0.00
   12   30   11      0.21      0.00
  -11   31   11      0.49      0.00
   -9   31   11      0.47      0.00
   -7   31   11      0.48      0.00
   -5   31   11      0.67      0.00
   -3   31   11      0.66      0.00
   -1   31   11      0.18      0.00
    1   31   11     -0.33      0.00
    3   31   11     -0.38      0.00
    5   31   11     -0.07      0.00
    7   31   11      0.15      0.00
    9   31   11      0.14      0.00
   11   31   11      0.09      0.00
  -10   32   11     -0.24      0.00
   -8   32   11     -0.25      0.00
   -6   32   11     -0.37      0.00
   -4   32   11     -0.52      0.00
   -2   32   11     -0.28      0.00
    0   32   11      0.29      0.00
    2   32   11      0.65      0.00
    4   32   11      0.49      0.00
    6   32   11      0.07      0.00
    8   32   11     -0.22      0.00
   10   32   11     -0.30      0.00
   -7   33   11     -0.06      0.00
   -5   33   11      0.13      0.00
   -3   33   11      0.18      0.00
   -1   33   11     -0.15      0.00
    1   33   11     -0.55      0.00
    3   33   11     -0.58      0.00
    5   33   11     -0.26      0.00
    7   33   11      0.07      0.00
  -26    0   12      0.77      0.00
   24    0   12      1.17      0.00
   26    0   12      0.56      0.00
  -25    1   12     -1.15      0.00
   25    1   12     -0.69      0.00
  -26    2   12      1.03      0.00
   24    2   12      0.59      0.00
   26    2   12      0.42      0.00
  -25    3   12     -1.51      0.00
   25    3   12     -0.26      0.00
  -26    4   12      0.82      0.00
   24    4   12      0.12      0.00
   26    4   12      0.16      0.00
  -25    5   12     -0.45      0.00
   25    5   12     -0.05      0.00
  -26    6   12     -0.61      0.00
   24    6   12      0.17      0.00
   26    6   12     -0.17      0.00
  -25    7   12      1.23      0.00
   25    7   12      0.20      0.00
  -26    8   12     -1.34      0.00
  -24    8   12     -1.13      0.00
   24    8   12     -0.25      0.00
   26    8   12     -0.34      0.00
  -25    9   12      1.13      0.00
    7    9   12     -6.04      0.00
   23    9   12      0.40      0.00
   25    9   12      0.37      0.00
  -26   10   12     -0.69      0.00
  -24   10   12     -0.46      0.00
    6   10   12      5.49      0.00
   24   10   12     -0.42      0.00
  -25   11   12      0.48      0.00
  -23   11   12      0.05      0.00
   23   11   12      0.30      0.00
   25   11   12      0.20      0.00
  -26   12   12     -0.33      0.00
  -24   12   12     -0.44      0.00
   22   12   12      0.00      0.00
   24   12   12     -0.16      0.00
  -25   13   12      0.46      0.00
  -23   13   12      0.63      0.00
   23   13   12      0.00      0.00
   25   13   12      0.19      0.00
  -24   14   12     -0.52      0.00
  -22   14   12     -0.75      0.00
   22   14   12      0.20      0.00
   24   14   12     -0.15      0.00
  -25   15   12      0.29      0.00
  -23   15   12      0.46      0.00
   21   15   12     -0.41      0.00
   23   15   12     -0.01      0.00
  -24   16   12     -0.28      0.00
  -22   16   12     -0.37      0.00
   22   16   12      0.26      0.00
  -23   17   12      0.29      0.00
  -21   17   12      0.37      0.00
   21   17   12     -0.45      0.00
   23   17   12     -0.05      0.00
  -22   18   12     -0.37      0.00
  -20   18   12     -0.42      0.00
   20   18   12      0.40      0.00
   22   18   12      0.15      0.00
  -23   19   12      0.29      0.00
  -21   19   12      0.44      0.00
   19   19   12     -0.08      0.00
   21   19   12     -0.18      0.00
  -22   20   12     -0.27      0.00
  -20   20   12     -0.45      0.00
   18   20   12     -0.35      0.00
   20   20   12      0.16      0.00
  -21   21   12      0.21      0.00
  -19   21   12      0.53      0.00
   19   21   12     -0.03      0.00
   21   21   12     -0.28      0.00
  -20   22   12     -0.16      0.00
  -18   22   12     -0.70      0.00
   18   22   12     -0.21      0.00
   20   22   12      0.32      0.00
  -19   23   12      0.09      0.00
  -17   23   12      0.60      0.00
   17   23   12      0.47      0.00
   19   23   12     -0.13      0.00
  -18   24   12      0.13      0.00
  -16   24   12      0.01      0.00
   16   24   12     -0.58      0.00
   18   24   12     -0.15      0.00
  -19   25   12     -0.39      0.00
  -17   25   12     -0.49      0.00
  -15   25   12     -0.74      0.00
   15   25   12      0.54      0.00
   17   25   12      0.36      0.00
  -18   26   12      0.37      0.00
  -16   26   12      0.63      0.00
  -14   26   12      0.88      0.00
   12   26   12     -0.07      0.00
   14   26   12     -0.45      0.00
   16   26   12     -0.47      0.00
  -17   27   12     -0.17      0.00
  -15   27   12     -0.33      0.00
  -13   27   12     -0.33      0.00
  -11   27   12      0.18      0.00
   11   27   12     -0.14      0.00
   13   27   12      0.36      0.00
   15   27   12      0.52      0.00
  -14   28   12     -0.12      0.00
  -12   28   12     -0.25      0.00
  -10   28   12     -0.71      0.00
   10   28   12      0.28      0.00
   12   28   12     -0.18      0.00
   14   28   12     -0.44      0.00
  -13   29   12      0.25      0.00
  -11   29   12      0.31      0.00
   -9   29   12      0.54      0.00
    7   29   12     -0.19      0.00
    9   29   12     -0.23      0.00
   11   29   12     -0.08      0.00
   13   29   12      0.17      0.00
  -12   30   12     -0.03      0.00
  -10   30   12     -0.02      0.00
   -8   30   12     -0.16      0.00
   -6   30   12     -0.22      0.00
   -4   30   12     -0.08      0.00
    4   30   12     -0.37      0.00
    6   30   12     -0.40      0.00
    8   30   12     -0.09      0.00
   10   30   12      0.20      0.00
   12   30   12      0.14      0.00
  -11   31   12     -0.13      0.00
   -9   31   12     -0.09      0.00
   -7   31   12      0.09      0.00
   -5   31   12      0.22      0.00
   -3   31   12      0.19      0.00
   -1   31   12      0.12      0.00
    1   31   12      0.21      0.00
    3   31   12      0.50      0.00
    5   31   12      0.71      0.00
    7   31   12      0.47      0.00
    9   31   12     -0.03      0.00
   -8   32   12     -0.10      0.00
   -6   32   12     -0.29      0.00
   -4   32   12     -0.36      0.00
   -2   32   12     -0.22      0.00
    0   32   12     -0.04      0.00
    2   32   12     -0.11      0.00
    4   32   12     -0.40      0.00
    6   32   12     -0.48      0.00
    8   32   12     -0.18      0.00
   -5   33   12      0.36      0.00
   -3   33   12      0.24      0.00
   -1   33   12     -0.12      0.00
    1   33   12     -0.37      0.00
    3   33   12     -0.24      0.00
    5   33   12      0.07      0.00
  -25    1   13     -0.35      0.00
   25    1   13     -0.05      0.00
  -26    2   13      0.66      0.00
   24    2   13      0.62      0.00
   26    2   13     -0.04      0.00
  -25    3   13     -1.08      0.00
   25    3   13     -0.52      0.00
  -26    4   13      1.59      0.00
  -24    4   13      0.97      0.00
   24    4   13      0.95      0.00
   26    4   13      0.64      0.00
  -25    5   13     -1.58      0.00
   25    5   13     -0.94      0.00
  -26    6   13      1.83      0.00
  -24    6   13      0.82      0.00
   24    6   13      0.92      0.00
   26    6   13      0.62      0.00
  -25    7   13     -1.15      0.00
   23    7   13     -1.05      0.00
   25    7   13     -0.51      0.00
  -26    8   13      1.03      0.00
  -24    8   13      0.33      0.00
    6    8   13      1.05      0.00
   24    8   13      0.59      0.00
  -25    9   13     -0.63      0.00
  -23    9   13      0.08      0.00
   23    9   13     -0.77      0.00
   25    9   13      0.08      0.00
  -26   10   13      0.64      0.00
  -24   10   13      0.52      0.00
   22   10   13      0.75      0.00
   24   10   13     -0.03      0.00
  -25   11   13     -0.69      0.00
  -23   11   13     -0.62      0.00
   23   11   13      0.15      0.00
   25   11   13      0.20      0.00
  -24   12   13      0.64      0.00
   22   12   13     -0.25      0.00
   24   12   13     -0.27      0.00
  -25   13   13     -0.20      0.00
  -23   13   13     -0.47      0.00
   21   13   13      0.25      0.00
   23   13   13      0.23      0.00
  -24   14   13      0.04      0.00
  -22   14   13      0.36      0.00
   22   14   13     -0.09      0.00
   24   14   13      0.02      0.00
  -23   15   13     -0.08      0.00
  -21   15   13     -0.50      0.00
   21   15   13      0.03      0.00
   23   15   13     -0.06      0.00
  -24   16   13     -0.04      0.00
  -22   16   13      0.34      0.00
   20   16   13     -0.06      0.00
   22   16   13      0.00      0.00
  -23   17   13     -0.30      0.00
  -21   17   13     -0.52      0.00
   21   17   13      0.13      0.00
  -22   18   13      0.44      0.00
  -20   18   13      0.35      0.00
   20   18   13     -0.26      0.00
   22   18   13     -0.48      0.00
  -21   19   13     -0.21      0.00
  -19   19   13     -0.06      0.00
   19   19   13      0.37      0.00
   21   19   13      0.51      0.00
  -22   20   13      0.03      0.00
  -20   20   13     -0.14      0.00
  -18   20   13      0.10      0.00
   18   20   13     -0.50      0.00
   20   20   13     -0.38      0.00
  -21   21   13      0.43      0.00
  -19   21   13      0.27      0.00
   17   21   13      0.54      0.00
   19   21   13      0.20      0.00
  -20   22   13     -0.74      0.00
  -18   22   13     -0.20      0.00
   16   22   13     -0.38      0.00
   18   22   13     -0.06      0.00
   20   22   13      0.31      0.00
  -19   23   13      0.76      0.00
  -17   23   13      0.19      0.00
   15   23   13      0.13      0.00
   17   23   13     -0.02      0.00
   19   23   13     -0.42      0.00
  -18   24   13     -0.52      0.00
  -16   24   13     -0.24      0.00
   14   24   13      0.00      0.00
   16   24   13      0.05      0.00
   18   24   13      0.33      0.00
  -17   25   13      0.10      0.00
  -15   25   13      0.08      0.00
  -13   25   13      0.38      0.00
   13   25   13      0.06      0.00
   15   25   13     -0.03      0.00
   17   25   13     -0.15      0.00
  -16   26   13      0.38      0.00
  -14   26   13      0.29      0.00
  -12   26   13      0.08      0.00
   12   26   13     -0.17      0.00
   14   26   13     -0.03      0.00
   16   26   13     -0.01      0.00
  -15   27   13     -0.62      0.00
  -13   27   13     -0.46      0.00
  -11   27   13     -0.29      0.00
   11   27   13      0.13      0.00
   13   27   13      0.09      0.00
   15   27   13      0.15      0.00
  -14   28   13      0.44      0.00
  -12   28   13      0.18      0.00
  -10   28   13      0.01      0.00
   -8   28   13     -0.07      0.00
    8   28   13      0.25      0.00
   10   28   13      0.07      0.00
   12   28   13     -0.12      0.00
   14   28   13     -0.26      0.00
  -13   29   13      0.00      0.00
  -11   29   13      0.27      0.00
   -9   29   13      0.36      0.00
   -7   29   13      0.33      0.00
   -5   29   13      0.16      0.00
    5   29   13     -0.88      0.00
    7   29   13     -0.61      0.00
    9   29   13     -0.27      0.00
   11   29   13      0.09      0.00
   13   29   13      0.31      0.00
  -12   30   13     -0.26      0.00
  -10   30   13     -0.42      0.00
   -8   30   13     -0.40      0.00
   -6   30   13     -0.30      0.00
   -4   30   13      0.00      0.00
   -2   30   13      0.57      0.00
    0   30   13      1.05      0.00
    2   30   13      1.08      0.00
    4   30   13      0.81      0.00
    6   30   13      0.50      0.00
    8   30   13      0.23      0.00
   10   30   13     -0.05      0.00
   -9   31   13      0.23      0.00
   -7   31   13      0.22      0.00
   -5   31   13      0.21      0.00
   -3   31   13      0.01      0.00
   -1   31   13     -0.35      0.00
    1   31   13     -0.50      0.00
    3   31   13     -0.29      0.00
    5   31   13      0.00      0.00
    7   31   13      0.10      0.00
    9   31   13      0.11      0.00
   -8   32   13      0.01      0.00
   -6   32   13     -0.09      0.00
   -4   32   13     -0.24      0.00
   -2   32   13     -0.21      0.00
    0   32   13     -0.09      0.00
    2   32   13     -0.19      0.00
    4   32   13     -0.43      0.00
    6   32   13     -0.48      0.00
   -3   33   13      0.20      0.00
   -1   33   13      0.20      0.00
    1   33   13      0.20      0.00
    3   33   13      0.36      0.00
  -26    0   14     -0.50      0.00
  -24    0   14      0.52      0.00
   24    0   14     -1.15      0.00
   26    0   14     -0.14      0.00
  -25    1   14     -0.01      0.00
  -23    1   14     -1.19      0.00
   23    1   14      1.23      0.00
   25    1   14      0.63      0.00
  -26    2   14     -0.24      0.00
  -24    2   14      0.87      0.00
   24    2   14     -0.53      0.00
   26    2   14     -0.40      0.00
  -25    3   14     -0.44      0.00
   23    3   14     -0.55      0.00
   25    3   14      0.27      0.00
  -26    4   14      0.02      0.00
  -24    4   14      1.08      0.00
   24    4   14      0.50      0.00
   26    4   14     -0.11      0.00
  -25    5   14     -0.31      0.00
   23    5   14     -0.88      0.00
   25    5   14     -0.44      0.00
  -26    6   14     -0.24      0.00
  -24    6   14      0.35      0.00
   24    6   14      0.41      0.00
  -25    7   14      0.50      0.00
  -23    7   14     -0.21      0.00
   23    7   14      0.23      0.00
   25    7   14     -0.31      0.00
  -26    8   14     -0.76      0.00
  -24    8   14     -0.75      0.00
   22    8   14     -0.60      0.00
   24    8   14     -0.18      0.00
  -25    9   14      1.09      0.00
  -23    9   14      0.81      0.00
   23    9   14      0.19      0.00
   25    9   14      0.19      0.00
  -24   10   14     -1.13      0.00
   22   10   14      0.34      0.00
   24   10   14     -0.07      0.00
  -25   11   14      0.58      0.00
  -23   11   14      1.07      0.00
   23   11   14     -0.30      0.00
  -24   12   14     -0.61      0.00
  -22   12   14     -1.19      0.00
   22   12   14      0.56      0.00
   24   12   14      0.04      0.00
  -23   13   14      0.82      0.00
   21   13   14     -0.65      0.00
   23   13   14     -0.17      0.00
  -24   14   14     -0.33      0.00
  -22   14   14     -1.06      0.00
   20   14   14      0.63      0.00
   22   14   14      0.34      0.00
  -23   15   14      0.58      0.00
  -21   15   14      0.91      0.00
   21   15   14     -0.53      0.00
   23   15   14     -0.30      0.00
  -22   16   14     -0.42      0.00
  -20   16   14     -0.17      0.00
   20   16   14      0.57      0.00
   22   16   14      0.50      0.00
  -23   17   14      0.20      0.00
  -21   17   14     -0.09      0.00
   19   17   14     -0.41      0.00
   21   17   14     -0.51      0.00
  -22   18   14      0.10      0.00
  -20   18   14      0.47      0.00
   18   18   14      0.14      0.00
   20   18   14      0.32      0.00
  -21   19   14     -0.25      0.00
  -19   19   14     -0.25      0.00
   19   19   14      0.04      0.00
   21   19   14      0.05      0.00
  -20   20   14      0.07      0.00
  -18   20   14     -0.42      0.00
   18   20   14     -0.51      0.00
   20   20   14     -0.26      0.00
  -19   21   14      0.24      0.00
  -17   21   14      0.80      0.00
   17   21   14      0.91      0.00
   19   21   14      0.45      0.00
  -20   22   14      0.11      0.00
  -18   22   14     -0.28      0.00
  -16   22   14     -0.47      0.00
   16   22   14     -0.92      0.00
   18   22   14     -0.53      0.00
  -19   23   14     -0.07      0.00
  -17   23   14      0.04      0.00
  -15   23   14     -0.15      0.00
   15   23   14      0.50      0.00
   17   23   14      0.43      0.00
  -18   24   14      0.06      0.00
  -16   24   14      0.17      0.00
  -14   24   14      0.41      0.00
   14   24   14      0.00      0.00
   16   24   14     -0.19      0.00
  -17   25   14      0.03      0.00
  -15   25   14     -0.12      0.00
  -13   25   14     -0.22      0.00
   13   25   14     -0.14      0.00
   15   25   14      0.03      0.00
  -16   26   14     -0.14      0.00
  -14   26   14      0.02      0.00
  -12   26   14      0.00      0.00
   10   26   14     -0.08      0.00
   12   26   14     -0.01      0.00
   14   26   14     -0.02      0.00
  -15   27   14      0.13      0.00
  -13   27   14     -0.09      0.00
  -11   27   14      0.01      0.00
   -9   27   14      0.54      0.00
    9   27   14      0.22      0.00
   11   27   14      0.10      0.00
   13   27   14      0.02      0.00
  -14   28   14      0.04      0.00
  -12   28   14      0.29      0.00
  -10   28   14      0.07      0.00
   -8   28   14     -0.49      0.00
    6   28   14     -0.09      0.00
    8   28   14     -0.01      0.00
   10   28   14      0.10      0.00
   12   28   14      0.11      0.00
  -11   29   14     -0.41      0.00
   -9   29   14     -0.05      0.00
   -7   29   14      0.41      0.00
   -5   29   14      0.44      0.00
   -3   29   14      0.26      0.00
   -1   29   14      0.24      0.00
    1   29   14      0.26      0.00
    3   29   14      0.10      0.00
    5   29   14     -0.14      0.00
    7   29   14     -0.33      0.00
    9   29   14     -0.41      0.00
   11   29   14     -0.31      0.00
  -10   30   14      0.33      0.00
   -8   30   14     -0.06      0.00
   -6   30   14     -0.23      0.00
   -4   30   14      0.03      0.00
   -2   30   14      0.33      0.00
    0   30   14      0.37      0.00
    2   30   14      0.32      0.00
    4   30   14      0.37      0.00
    6   30   14      0.49      0.00
    8   30   14      0.55      0.00
   10   30   14      0.39      0.00
   -9   31   14     -0.09      0.00
   -7   31   14      0.20      0.00
   -5   31   14      0.09      0.00
   -3   31   14     -0.35      0.00
   -1   31   14     -0.65      0.00
    1   31   14     -0.60      0.00
    3   31   14     -0.42      0.00
    5   31   14     -0.33      0.00
    7   31   14     -0.34      0.00
   -6   32   14     -0.40      0.00
   -4   32   14     -0.16      0.00
   -2   32   14      0.25      0.00
    0   32   14      0.41      0.00
    2   32   14      0.23      0.00
    4   32   14     -0.03      0.00
  -25    1   15     -0.40      0.00
  -23    1   15     -0.46      0.00
   23    1   15      0.93      0.00
   25    1   15      0.10      0.00
  -26    2   15      0.61      0.00
  -24    2   15      0.82      0.00
   24    2   15     -0.75      0.00
  -25    3   15     -1.10      0.00
  -23    3   15     -0.80      0.00
   23    3   15      0.82      0.00
   25    3   15      0.36      0.00
  -26    4   15      1.30      0.00
  -24    4   15      1.14      0.00
   24    4   15     -0.09      0.00
  -25    5   15     -1.52      0.00
  -23    5   15     -0.60      0.00
   -1    5   15     -2.48      0.00
   23    5   15     -1.22      0.00
   25    5   15      0.00      0.00
  -26    6   15      1.59      0.00
  -24    6   15      1.26      0.00
   22    6   15      2.34      0.00
   24    6   15      1.00      0.00
  -25    7   15     -1.56      0.00
  -23    7   15     -0.88      0.00
   23    7   15     -1.46      0.00
   25    7   15     -0.65      0.00
  -24    8   15      1.42      0.00
   22    8   15      0.86      0.00
   24    8   15      0.74      0.00
  -25    9   15     -1.20      0.00
  -23    9   15     -1.42      0.00
   23    9   15     -0.16      0.00
  -24   10   15      1.25      0.00
  -22   10   15      1.55      0.00
   22   10   15     -0.36      0.00
   24   10   15     -0.04      0.00
  -25   11   15     -0.62      0.00
  -23   11   15     -1.27      0.00
   21   11   15      0.39      0.00
   23   11   15      0.37      0.00
  -24   12   15      0.64      0.00
  -22   12   15      1.12      0.00
   22   12   15     -0.36      0.00
  -23   13   15     -0.41      0.00
  -21   13   15     -0.80      0.00
   21   13   15      0.13      0.00
   23   13   15      0.42      0.00
  -24   14   15     -0.10      0.00
  -22   14   15      0.01      0.00
   20   14   15      0.19      0.00
   22   14   15     -0.21      0.00
  -23   15   15      0.39      0.00
  -21   15   15      0.34      0.00
   19   15   15     -0.35      0.00
   21   15   15     -0.17      0.00
  -22   16   15     -0.48      0.00
  -20   16   15     -0.41      0.00
   20   16   15      0.43      0.00
   22   16   15      0.16      0.00
  -21   17   15      0.25      0.00
  -19   17   15      0.04      0.00
   19   17   15     -0.39      0.00
   21   17   15     -0.41      0.00
  -22   18   15      0.16      0.00
  -20   18   15      0.23      0.00
  -18   18   15      0.65      0.00
   18   18   15      0.22      0.00
   20   18   15      0.38      0.00
  -21   19   15     -0.36      0.00
  -19   19   15     -0.68      0.00
   17   19   15     -0.11      0.00
   19   19   15     -0.22      0.00
  -20   20   15      0.32      0.00
  -18   20   15      0.75      0.00
   16   20   15     -0.01      0.00
   18   20   15      0.03      0.00
   20   20   15      0.03      0.00
  -19   21   15     -0.07      0.00
  -17   21   15     -0.38      0.00
   15   21   15      0.29      0.00
   17   21   15      0.24      0.00
   19   21   15      0.01      0.00
  -18   22   15     -0.16      0.00
  -16   22   15     -0.07      0.00
   14   22   15     -0.54      0.00
   16   22   15     -0.51      0.00
   18   22   15     -0.09      0.00
  -17   23   15      0.17      0.00
  -15   23   15      0.24      0.00
   13   23   15      0.42      0.00
   15   23   15      0.52      0.00
   17   23   15      0.19      0.00
  -16   24   15      0.02      0.00
  -14   24   15     -0.20      0.00
  -12   24   15     -0.44      0.00
   12   24   15      0.02      0.00
   14   24   15     -0.21      0.00
   16   24   15     -0.18      0.00
  -15   25   15     -0.18      0.00
  -13   25   15      0.23      0.00
  -11   25   15      0.48      0.00
   11   25   15     -0.35      0.00
   13   25   15     -0.11      0.00
   15   25   15      0.09      0.00
  -14   26   15      0.12      0.00
  -12   26   15     -0.37      0.00
  -10   26   15     -0.51      0.00
    8   26   15      0.36      0.00
   10   26   15      0.29      0.00
   12   26   15      0.11      0.00
   14   26   15     -0.10      0.00
  -13   27   15      0.09      0.00
  -11   27   15      0.46      0.00
   -9   27   15      0.35      0.00
   -7   27   15     -0.09      0.00
    7   27   15     -0.21      0.00
    9   27   15     -0.02      0.00
   11   27   15      0.13      0.00
   13   27   15      0.22      0.00
  -12   28   15     -0.28      0.00
  -10   28   15     -0.40      0.00
   -8   28   15     -0.15      0.00
   -6   28   15      0.17      0.00
   -4   28   15      0.37      0.00
    4   28   15      0.40      0.00
    6   28   15      0.18      0.00
    8   28   15     -0.10      0.00
   10   28   15     -0.25      0.00
   12   28   15     -0.25      0.00
  -11   29   15      0.32      0.00
   -9   29   15      0.26      0.00
   -7   29   15      0.09      0.00
   -5   29   15      0.05      0.00
   -3   29   15      0.05      0.00
   -1   29   15     -0.08      0.00
    1   29   15     -0.27      0.00
    3   29   15     -0.38      0.00
    5   29   15     -0.28      0.00
    7   29   15     -0.07      0.00
    9   29   15      0.08      0.00
  -10   30   15     -0.19      0.00
   -8   30   15     -0.07      0.00
   -6   30   15     -0.07      0.00
   -4   30   15     -0.20      0.00
   -2   30   15     -0.19      0.00
    0   30   15      0.04      0.00
    2   30   15      0.29      0.00
    4   30   15      0.38      0.00
    6   30   15      0.32      0.00
    8   30   15      0.22      0.00
   -7   31   15     -0.17      0.00
   -5   31   15     -0.09      0.00
   -3   31   15      0.01      0.00
   -1   31   15     -0.08      0.00
    1   31   15     -0.27      0.00
    3   31   15     -0.39      0.00
    5   31   15     -0.40      0.00
   -2   32   15      0.23      0.00
    0   32   15      0.26      0.00
    2   32   15      0.27      0.00
  -26    0   16     -1.27      0.00
  -24    0   16     -0.60      0.00
  -22    0   16      0.33      0.00
   22    0   16      0.70      0.00
   24    0   16     -0.57      0.00
  -25    1   16      0.96      0.00
  -23    1   16     -0.13      0.00
   23    1   16      0.13      0.00
   25    1   16      0.66      0.00
  -26    2   16     -1.06      0.00
  -24    2   16     -0.12      0.00
  -22    2   16      1.15      0.00
   22    2   16     -0.43      0.00
   24    2   16     -0.29      0.00
  -25    3   16      0.46      0.00
  -23    3   16     -0.97      0.00
   23    3   16      0.66      0.00
  -24    4   16      0.31      0.00
  -22    4   16      1.58      0.00
   22    4   16     -1.31      0.00
   24    4   16     -0.24      0.00
  -25    5   16      0.29      0.00
  -23    5   16     -0.62      0.00
   23    5   16      0.65      0.00
  -24    6   16     -0.29      0.00
  -22    6   16      0.21      0.00
   22    6   16     -0.14      0.00
   24    6   16     -0.45      0.00
  -25    7   16      0.68      0.00
  -23    7   16      0.65      0.00
   21    7   16     -0.90      0.00
   23    7   16     -0.03      0.00
  -24    8   16     -1.03      0.00
  -22    8   16     -0.92      0.00
   22    8   16      0.72      0.00
   24    8   16     -0.04      0.00
  -25    9   16      0.79      0.00
  -23    9   16      1.13      0.00
   21    9   16     -0.85      0.00
   23    9   16     -0.55      0.00
  -24   10   16     -0.85      0.00
  -22   10   16     -0.87      0.00
   22   10   16      0.68      0.00
  -23   11   16      0.65      0.00
  -21   11   16      0.57      0.00
   21   11   16     -0.35      0.00
   23   11   16     -0.77      0.00
  -24   12   16     -0.06      0.00
  -22   12   16     -0.46      0.00
   20   12   16     -0.12      0.00
   22   12   16      0.47      0.00
  -23   13   16      0.04      0.00
  -21   13   16      0.42      0.00
   21   13   16     -0.02      0.00
  -22   14   16     -0.11      0.00
  -20   14   16     -0.29      0.00
   20   14   16     -0.18      0.00
   22   14   16     -0.11      0.00
  -23   15   16      0.00      0.00
  -21   15   16      0.10      0.00
  -19   15   16     -0.13      0.00
   19   15   16     -0.02      0.00
   21   15   16      0.23      0.00
  -22   16   16     -0.19      0.00
  -20   16   16      0.05      0.00
   18   16   16      0.30      0.00
   20   16   16      0.03      0.00
  -21   17   16      0.20      0.00
  -19   17   16     -0.13      0.00
   17   17   16     -0.20      0.00
   19   17   16     -0.25      0.00
   21   17   16     -0.09      0.00
  -20   18   16     -0.18      0.00
  -18   18   16     -0.04      0.00
   18   18   16      0.10      0.00
   20   18   16      0.24      0.00
  -19   19   16      0.24      0.00
  -17   19   16      0.28      0.00
   17   19   16      0.21      0.00
   19   19   16     -0.08      0.00
  -20   20   16      0.14      0.00
  -18   20   16     -0.35      0.00
  -16   20   16     -0.40      0.00
   16   20   16     -0.27      0.00
   18   20   16     -0.17      0.00
  -19   21   16     -0.12      0.00
  -17   21   16      0.39      0.00
  -15   21   16      0.36      0.00
   15   21   16      0.08      0.00
   17   21   16      0.25      0.00
  -18   22   16      0.04      0.00
  -16   22   16     -0.31      0.00
  -14   22   16     -0.19      0.00
   14   22   16      0.04      0.00
   16   22   16     -0.19      0.00
  -17   23   16      0.01      0.00
  -15   23   16      0.12      0.00
  -13   23   16     -0.09      0.00
   13   23   16      0.02      0.00
   15   23   16      0.07      0.00
  -16   24   16     -0.03      0.00
  -14   24   16      0.07      0.00
  -12   24   16      0.28      0.00
   10   24   16     -0.41      0.00
   12   24   16     -0.10      0.00
   14   24   16      0.07      0.00
   16   24   16      0.16      0.00
  -15   25   16      0.08      0.00
  -13   25   16     -0.10      0.00
  -11   25   16     -0.10      0.00
   -9   25   16      0.25      0.00
    9   25   16      0.32      0.00
   11   25   16      0.04      0.00
   13   25   16     -0.21      0.00
   15   25   16     -0.29      0.00
  -14   26   16     -0.13      0.00
  -12   26   16     -0.05      0.00
  -10   26   16     -0.39      0.00
   -8   26   16     -0.85      0.00
    8   26   16     -0.09      0.00
   10   26   16      0.08      0.00
   12   26   16      0.25      0.00
  -13   27   16      0.05      0.00
  -11   27   16      0.17      0.00
   -9   27   16      0.71      0.00
   -7   27   16      0.92      0.00
   -5   27   16      0.43      0.00
    5   27   16      0.19      0.00
    7   27   16      0.04      0.00
    9   27   16     -0.07      0.00
   11   27   16     -0.12      0.00
  -12   28   16      0.18      0.00
  -10   28   16     -0.12      0.00
   -8   28   16     -0.58      0.00
   -6   28   16     -0.37      0.00
   -4   28   16      0.33      0.00
   -2   28   16      0.54      0.00
    0   28   16      0.11      0.00
    2   28   16     -0.25      0.00
    4   28   16     -0.22      0.00
    6   28   16     -0.07      0.00
    8   28   16      0.00      0.00
   10   28   16     -0.04      0.00
   -9   29   16      0.01      0.00
   -7   29   16      0.23      0.00
   -5   29   16     -0.20      0.00
   -3   29   16     -0.72      0.00
   -1   29   16     -0.62      0.00
    1   29   16     -0.20      0.00
    3   29   16      0.01      0.00
    5   29   16      0.00      0.00
    7   29   16     -0.02      0.00
    9   29   16      0.05      0.00
   -8   30   16     -0.02      0.00
   -6   30   16     -0.07      0.00
   -4   30   16      0.28      0.00
   -2   30   16      0.49      0.00
    0   30   16      0.33      0.00
    2   30   16      0.15      0.00
    4   30   16      0.13      0.00
    6   30   16      0.14      0.00
   -5   31   16      0.12      0.00
   -3   31   16     -0.10      0.00
   -1   31   16     -0.18      0.00
    1   31   16     -0.15      0.00
    3   31   16     -0.16      0.00
  -25    1   17     -0.35      0.00
  -23    1   17     -0.15      0.00
   21    1   17     -0.36      0.00
   23    1   17      0.50      0.00
  -24    2   17      0.58      0.00
  -22    2   17     -0.05      0.00
   22    2   17     -0.10      0.00
   24    2   17     -1.00      0.00
  -25    3   17     -0.76      0.00
  -23    3   17     -0.58      0.00
   21    3   17     -0.41      0.00
   23    3   17      0.33      0.00
  -24    4   17      0.91      0.00
  -22    4   17      0.52      0.00
   22    4   17      0.21      0.00
   24    4   17      0.16      0.00
  -25    5   17     -0.89      0.00
  -23    5   17     -0.94      0.00
   21    5   17     -0.10      0.00
   23    5   17     -0.51      0.00
  -24    6   17      1.10      0.00
  -22    6   17      0.90      0.00
   22    6   17      0.25      0.00
  -23    7   17     -1.16      0.00
   21    7   17     -0.05      0.00
   23    7   17      0.07      0.00
  -24    8   17      1.18      0.00
  -22    8   17      1.06      0.00
   20    8   17      0.28      0.00
   22    8   17     -0.42      0.00
  -23    9   17     -1.17      0.00
  -21    9   17     -0.98      0.00
   21    9   17      0.30      0.00
   23    9   17      0.96      0.00
  -24   10   17      0.75      0.00
  -22   10   17      1.14      0.00
   20   10   17      0.01      0.00
   22   10   17     -0.67      0.00
  -23   11   17     -0.72      0.00
  -21   11   17     -1.26      0.00
   19   11   17     -0.09      0.00
   21   11   17      0.14      0.00
  -22   12   17      0.69      0.00
  -20   12   17      1.37      0.00
   20   12   17      0.17      0.00
   22   12   17      0.23      0.00
  -23   13   17     -0.03      0.00
  -21   13   17     -0.63      0.00
   19   13   17     -0.05      0.00
   21   13   17     -0.49      0.00
  -22   14   17     -0.05      0.00
  -20   14   17      0.50      0.00
   18   14   17     -0.22      0.00
   20   14   17      0.32      0.00
  -21   15   17      0.03      0.00
  -19   15   17     -0.46      0.00
   19   15   17     -0.07      0.00
   21   15   17     -0.21      0.00
  -20   16   17      0.24      0.00
  -18   16   17      0.65      0.00
   18   16   17      0.07      0.00
   20   16   17      0.01      0.00
  -21   17   17     -0.12      0.00
  -19   17   17     -0.68      0.00
  -17   17   17     -0.87      0.00
   17   17   17     -0.16      0.00
   19   17   17     -0.08      0.00
  -20   18   17      0.41      0.00
  -18   18   17      0.99      0.00
   16   18   17     -0.01      0.00
   18   18   17      0.15      0.00
  -19   19   17     -0.54      0.00
  -17   19   17     -0.90      0.00
   15   19   17      0.36      0.00
   17   19   17      0.03      0.00
   19   19   17     -0.17      0.00
  -18   20   17      0.40      0.00
  -16   20   17      0.45      0.00
   14   20   17     -0.41      0.00
   16   20   17     -0.29      0.00
   18   20   17      0.06      0.00
  -17   21   17     -0.08      0.00
  -15   21   17      0.10      0.00
   13   21   17      0.02      0.00
   15   21   17      0.34      0.00
   17   21   17      0.17      0.00
  -18   22   17     -0.24      0.00
  -16   22   17     -0.26      0.00
  -14   22   17     -0.54      0.00
   12   22   17      0.43      0.00
   14   22   17     -0.18      0.00
   16   22   17     -0.33      0.00
  -17   23   17      0.22      0.00
  -15   23   17      0.42      0.00
  -13   23   17      0.68      0.00
  -11   23   17      0.36      0.00
   11   23   17     -0.51      0.00
   13   23   17      0.03      0.00
   15   23   17      0.36      0.00
  -16   24   17     -0.05      0.00
  -14   24   17     -0.37      0.00
  -12   24   17     -0.50      0.00
  -10   24   17      0.00      0.00
    8   24   17      0.39      0.00
   10   24   17      0.33      0.00
   12   24   17      0.01      0.00
   14   24   17     -0.25      0.00
  -15   25   17     -0.10      0.00
  -13   25   17      0.27      0.00
  -11   25   17      0.21      0.00
   -9   25   17     -0.40      0.00
    7   25   17     -0.38      0.00
    9   25   17     -0.23      0.00
   11   25   17     -0.09      0.00
   13   25   17      0.02      0.00
  -12   26   17     -0.37      0.00
  -10   26   17     -0.11      0.00
   -8   26   17      0.46      0.00
   -6   26   17      0.54      0.00
    4   26   17      0.56      0.00
    6   26   17      0.47      0.00
    8   26   17      0.29      0.00
   10   26   17      0.23      0.00
   12   26   17      0.25      0.00
  -11   27   17      0.64      0.00
   -9   27   17      0.26      0.00
   -7   27   17     -0.18      0.00
   -5   27   17     -0.10      0.00
   -3   27   17      0.29      0.00
   -1   27   17      0.41      0.00
    1   27   17      0.12      0.00
    3   27   17     -0.23      0.00
    5   27   17     -0.32      0.00
    7   27   17     -0.24      0.00
    9   27   17     -0.25      0.00
   11   27   17     -0.34      0.00
  -10   28   17     -0.77      0.00
   -8   28   17     -0.37      0.00
   -6   28   17     -0.04      0.00
   -4   28   17     -0.09      0.00
   -2   28   17     -0.24      0.00
    0   28   17     -0.20      0.00
    2   28   17     -0.03      0.00
    4   28   17      0.05      0.00
    6   28   17      0.01      0.00
    8   28   17      0.03      0.00
   -7   29   17      0.22      0.00
   -5   29   17     -0.06      0.00
   -3   29   17     -0.11      0.00
   -1   29   17     -0.10      0.00
    1   29   17     -0.11      0.00
    3   29   17     -0.04      0.00
    5   29   17      0.11      0.00
    7   29   17      0.20      0.00
   -6   30   17      0.08      0.00
   -4   30   17      0.25      0.00
   -2   30   17      0.28      0.00
    0   30   17      0.28      0.00
    2   30   17      0.22      0.00
    4   30   17      0.04      0.00
  -24    0   18     -1.15      0.00
  -22    0   18      0.32      0.00
   20    0   18      0.05      0.00
   22    0   18      0.30      0.00
  -23    1   18      0.42      0.00
  -21    1   18     -0.91      0.00
   21    1   18     -0.03      0.00
   23    1   18     -0.23      0.00
  -24    2   18     -0.69      0.00
  -22    2   18      0.25      0.00
   20    2   18      0.02      0.00
   22    2   18     -0.32      0.00
  -23    3   18      0.03      0.00
  -21    3   18     -0.23      0.00
   21    3   18      0.37      0.00
   23    3   18      0.76      0.00
  -24    4   18     -0.16      0.00
  -22    4   18      0.11      0.00
   20    4   18     -0.15      0.00
   22    4   18     -0.52      0.00
  -23    5   18      0.17      0.00
  -21    5   18      0.20      0.00
   21    5   18      0.04      0.00
   23    5   18      0.02      0.00
  -24    6   18     -0.62      0.00
  -22    6   18     -0.45      0.00
   20    6   18      0.13      0.00
   22    6   18      0.59      0.00
  -23    7   18      0.91      0.00
  -21    7   18      0.56      0.00
   21    7   18     -0.73      0.00
   23    7   18     -1.03      0.00
  -22    8   18     -0.89      0.00
   20    8   18      0.54      0.00
   22    8   18      0.79      0.00
  -23    9   18      0.87      0.00
  -21    9   18      0.63      0.00
   19    9   18     -0.31      0.00
   21    9   18     -0.21      0.00
  -22   10   18     -0.61      0.00
  -20   10   18     -0.47      0.00
   20   10   18     -0.36      0.00
   22   10   18     -0.51      0.00
  -23   11   18      0.22      0.00
  -21   11   18      0.50      0.00
   19   11   18      0.75      0.00
   21   11   18      0.94      0.00
  -22   12   18     -0.18      0.00
  -20   12   18     -0.53      0.00
   18   12   18     -0.98      0.00
   20   12   18     -0.99      0.00
  -21   13   18      0.22      0.00
  -19   13   18      0.50      0.00
   19   13   18      0.83      0.00
   21   13   18      0.43      0.00
  -22   14   18      0.09      0.00
  -20   14   18     -0.19      0.00
  -18   14   18     -0.26      0.00
   18   14   18     -0.62      0.00
   20   14   18     -0.13      0.00
  -21   15   18     -0.04      0.00
  -19   15   18      0.00      0.00
   17   15   18      0.27      0.00
   19   15   18      0.00      0.00
  -20   16   18      0.12      0.00
  -18   16   18      0.28      0.00
   16   16   18      0.31      0.00
   18   16   18      0.10      0.00
  -19   17   18     -0.24      0.00
  -17   17   18     -0.45      0.00
   15   17   18     -0.80      0.00
   17   17   18     -0.28      0.00
   19   17   18      0.03      0.00
  -18   18   18      0.17      0.00
  -16   18   18      0.32      0.00
   16   18   18      0.33      0.00
   18   18   18     -0.06      0.00
  -19   19   18     -0.14      0.00
  -17   19   18      0.12      0.00
  -15   19   18     -0.05      0.00
   15   19   18     -0.08      0.00
   17   19   18      0.07      0.00
  -18   20   18     -0.10      0.00
  -16   20   18     -0.34      0.00
  -14   20   18      0.01      0.00
   14   20   18     -0.27      0.00
   16   20   18     -0.14      0.00
  -17   21   18      0.27      0.00
  -15   21   18      0.24      0.00
  -13   21   18     -0.31      0.00
   13   21   18      0.35      0.00
   15   21   18      0.13      0.00
  -16   22   18     -0.28      0.00
  -14   22   18      0.06      0.00
  -12   22   18      0.59      0.00
  -10   22   18      0.50      0.00
   10   22   18     -0.32      0.00
   12   22   18     -0.16      0.00
   14   22   18      0.00      0.00
  -15   23   18      0.27      0.00
  -13   23   18     -0.21      0.00
  -11   23   18     -0.48      0.00
   -9   23   18     -0.11      0.00
    9   23   18      0.15      0.00
   11   23   18      0.03      0.00
   13   23   18     -0.05      0.00
  -14   24   18     -0.28      0.00
  -12   24   18      0.15      0.00
  -10   24   18      0.08      0.00
   -8   24   18     -0.35      0.00
    8   24   18     -0.19      0.00
   10   24   18     -0.13      0.00
   12   24   18     -0.11      0.00
  -13   25   18      0.16      0.00
  -11   25   18     -0.10      0.00
   -9   25   18      0.21      0.00
   -7   25   18      0.46      0.00
   -5   25   18      0.17      0.00
    5   25   18      0.31      0.00
    7   25   18      0.20      0.00
    9   25   18      0.24      0.00
   11   25   18      0.29      0.00
  -12   26   18      0.14      0.00
  -10   26   18      0.15      0.00
   -8   26   18     -0.22      0.00
   -6   26   18     -0.24      0.00
   -4   26   18      0.05      0.00
   -2   26   18     -0.05      0.00
    0   26   18     -0.45      0.00
    2   26   18     -0.49      0.00
    4   26   18     -0.17      0.00
    6   26   18      0.00      0.00
    8   26   18     -0.09      0.00
   10   26   18     -0.22      0.00
  -11   27   18     -0.38      0.00
   -9   27   18     -0.20      0.00
   -7   27   18      0.08      0.00
   -5   27   18     -0.01      0.00
   -3   27   18     -0.08      0.00
   -1   27   18      0.19      0.00
    1   27   18      0.36      0.00
    3   27   18      0.10      0.00
    5   27   18     -0.20      0.00
    7   27   18     -0.21      0.00
    9   27   18     -0.10      0.00
   -8   28   18      0.14      0.00
   -6   28   18      0.04      0.00
   -4   28   18      0.13      0.00
   -2   28   18      0.00      0.00
    0   28   18     -0.26      0.00
    2   28   18     -0.19      0.00
    4   28   18      0.13      0.00
    6   28   18      0.32      0.00
    8   28   18      0.34      0.00
   -5   29   18     -0.10      0.00
   -3   29   18     -0.18      0.00
   -1   29   18      0.00      0.00
    1   29   18      0.15      0.00
    3   29   18      0.05      0.00
    5   29   18     -0.13      0.00
  -23    1   19     -0.15      0.00
  -21    1   19     -0.41      0.00
   19    1   19      0.10      0.00
   21    1   19     -0.09      0.00
  -24    2   19      0.15      0.00
  -22    2   19      0.37      0.00
  -20    2   19      0.80      0.00
   20    2   19      0.02      0.00
   22    2   19      0.11      0.00
  -23    3   19     -0.32      0.00
  -21    3   19     -0.43      0.00
   19    3   19     -0.15      0.00
   21    3   19      0.09      0.00
  -22    4   19      0.34      0.00
  -20    4   19      0.13      0.00
   20    4   19     -0.02      0.00
   22    4   19     -0.60      0.00
  -23    5   19     -0.60      0.00
  -21    5   19     -0.12      0.00
   19    5   19     -0.18      0.00
   21    5   19      0.52      0.00
  -22    6   19      0.47      0.00
  -20    6   19     -0.19      0.00
   20    6   19     -0.23      0.00
   22    6   19     -0.67      0.00
  -23    7   19     -0.61      0.00
  -21    7   19     -0.24      0.00
   19    7   19      0.05      0.00
   21    7   19      0.12      0.00
  -22    8   19      0.42      0.00
  -20    8   19      0.30      0.00
   20    8   19      0.36      0.00
   22    8   19      0.36      0.00
  -23    9   19     -0.26      0.00
  -21    9   19     -0.56      0.00
  -19    9   19     -0.73      0.00
   19    9   19     -0.72      0.00
   21    9   19     -0.73      0.00
  -22   10   19      0.42      0.00
  -20   10   19      1.05      0.00
   18   10   19      0.94      0.00
   20   10   19      0.81      0.00
  -21   11   19     -0.78      0.00
  -19   11   19     -1.46      0.00
   19   11   19     -0.61      0.00
   21   11   19     -0.12      0.00
  -22   12   19      0.16      0.00
  -20   12   19      1.03      0.00
  -18   12   19      1.34      0.00
   18   12   19      0.15      0.00
   20   12   19     -0.28      0.00
  -21   13   19     -0.25      0.00
  -19   13   19     -0.98      0.00
   17   13   19      0.50      0.00
   19   13   19      0.61      0.00
  -20   14   19      0.31      0.00
  -18   14   19      0.64      0.00
   16   14   19     -1.06      0.00
   18   14   19     -0.84      0.00
   20   14   19     -0.55      0.00
  -19   15   19     -0.42      0.00
  -17   15   19     -0.28      0.00
   17   15   19      0.90      0.00
   19   15   19      0.35      0.00
  -20   16   19      0.15      0.00
  -18   16   19      0.68      0.00
  -16   16   19      0.16      0.00
   16   16   19     -0.63      0.00
   18   16   19     -0.19      0.00
  -19   17   19     -0.63      0.00
  -17   17   19     -0.98      0.00
  -15   17   19     -0.23      0.00
   15   17   19      0.06      0.00
   17   17   19      0.01      0.00
  -18   18   19      1.03      0.00
  -16   18   19      1.01      0.00
   14   18   19      0.50      0.00
   16   18   19      0.18      0.00
  -17   19   19     -0.98      0.00
  -15   19   19     -0.50      0.00
   13   19   19     -0.69      0.00
   15   19   19     -0.21      0.00
   17   19   19      0.10      0.00
  -16   20   19      0.40      0.00
  -14   20   19     -0.25      0.00
  -12   20   19     -0.44      0.00
   12   20   19      0.50      0.00
   14   20   19      0.07      0.00
   16   20   19     -0.21      0.00
  -15   21   19      0.22      0.00
  -13   21   19      0.57      0.00
  -11   21   19      0.15      0.00
   11   21   19     -0.23      0.00
   13   21   19      0.08      0.00
   15   21   19      0.24      0.00
  -16   22   19     -0.04      0.00
  -14   22   19     -0.36      0.00
  -12   22   19     -0.25      0.00
  -10   22   19      0.44      0.00
    8   22   19      0.27      0.00
   10   22   19      0.10      0.00
   12   22   19     -0.08      0.00
   14   22   19     -0.14      0.00
  -15   23   19     -0.03      0.00
  -13   23   19      0.14      0.00
  -11   23   19     -0.21      0.00
   -9   23   19     -0.71      0.00
   -7   23   19     -0.48      0.00
    7   23   19     -0.24      0.00
    9   23   19     -0.11      0.00
   11   23   19      0.00      0.00
   13   23   19      0.03      0.00
  -12   24   19     -0.07      0.00
  -10   24   19      0.27      0.00
   -8   24   19      0.49      0.00
   -6   24   19      0.10      0.00
    4   24   19      0.15      0.00
    6   24   19      0.11      0.00
    8   24   19      0.07      0.00
   10   24   19      0.02      0.00
   12   24   19     -0.03      0.00
  -11   25   19      0.29      0.00
   -9   25   19     -0.04      0.00
   -7   25   19     -0.20      0.00
   -5   25   19      0.04      0.00
   -3   25   19      0.28      0.00
   -1   25   19      0.25      0.00
    1   25   19      0.15      0.00
    3   25   19      0.15      0.00
    5   25   19      0.17      0.00
    7   25   19      0.11      0.00
    9   25   19      0.06      0.00
   11   25   19      0.13      0.00
  -10   26   19     -0.48      0.00
   -8   26   19     -0.08      0.00
   -6   26   19      0.12      0.00
   -4   26   19      0.04      0.00
   -2   26   19     -0.07      0.00
    0   26   19     -0.12      0.00
    2   26   19     -0.21      0.00
    4   26   19     -0.32      0.00
    6   26   19     -0.31      0.00
    8   26   19     -0.20      0.00
   -9   27   19      0.38      0.00
   -7   27   19     -0.02      0.00
   -5   27   19     -0.15      0.00
   -3   27   19     -0.06      0.00
   -1   27   19      0.02      0.00
    1   27   19      0.07      0.00
    3   27   19      0.18      0.00
    5   27   19      0.29      0.00
    7   27   19      0.26      0.00
   -6   28   19      0.17      0.00
   -4   28   19      0.08      0.00
   -2   28   19     -0.06      0.00
    0   28   19     -0.04      0.00
    2   28   19      0.00      0.00
    4   28   19     -0.08      0.00
   -1   29   19      0.12      0.00
  -22    0   20     -0.32      0.00
  -20    0   20     -0.29      0.00
   18    0   20      1.51      0.00
   20    0   20      0.62      0.00
   22    0   20     -0.03      0.00
  -23    1   20      0.49      0.00
  -21    1   20      0.06      0.00
   19    1   20     -0.87      0.00
   21    1   20     -0.28      0.00
  -22    2   20     -0.04      0.00
  -20    2   20      0.21      0.00
   18    2   20      0.40      0.00
   20    2   20      0.37      0.00
   22    2   20      0.46      0.00
  -23    3   20      0.26      0.00
  -21    3   20     -0.21      0.00
   19    3   20      0.06      0.00
   21    3   20     -0.49      0.00
  -22    4   20     -0.19      0.00
  -20    4   20      0.00      0.00
   18    4   20     -0.48      0.00
   20    4   20      0.11      0.00
  -23    5   20      0.44      0.00
  -21    5   20      0.43      0.00
  -19    5   20      0.49      0.00
   19    5   20      0.12      0.00
   21    5   20     -0.15      0.00
  -22    6   20     -0.57      0.00
  -20    6   20     -0.77      0.00
   18    6   20      0.07      0.00
   20    6   20     -0.20      0.00
  -21    7   20      0.68      0.00
  -19    7   20      0.85      0.00
   19    7   20      0.21      0.00
   21    7   20      0.64      0.00
  -22    8   20     -0.55      0.00
  -20    8   20     -0.66      0.00
   18    8   20     -0.09      0.00
   20    8   20     -0.64      0.00
  -21    9   20      0.55      0.00
  -19    9   20      0.45      0.00
   17    9   20     -0.03      0.00
   19    9   20      0.41      0.00
  -20   10   20     -0.50      0.00
  -18   10   20     -0.12      0.00
   18   10   20     -0.11      0.00
   20   10   20     -0.11      0.00
  -21   11   20      0.36      0.00
  -19   11   20      0.48      0.00
   17   11   20     -0.17      0.00
   19   11   20     -0.17      0.00
  -20   12   20     -0.45      0.00
  -18   12   20     -0.49      0.00
   16   12   20      0.35      0.00
   18   12   20      0.22      0.00
  -19   13   20      0.57      0.00
  -17   13   20      0.41      0.00
   17   13   20     -0.06      0.00
   19   13   20      0.14      0.00
  -20   14   20     -0.25      0.00
  -18   14   20     -0.55      0.00
  -16   14   20     -0.25      0.00
   16   14   20     -0.13      0.00
   18   14   20     -0.47      0.00
  -19   15   20      0.23      0.00
  -17   15   20      0.40      0.00
   15   15   20      0.19      0.00
   17   15   20      0.60      0.00
  -18   16   20     -0.15      0.00
  -16   16   20     -0.22      0.00
   14   16   20     -0.08      0.00
   16   16   20     -0.42      0.00
   18   16   20     -0.50      0.00
  -17   17   20      0.15      0.00
  -15   17   20     -0.02      0.00
   13   17   20     -0.04      0.00
   15   17   20      0.06      0.00
   17   17   20      0.17      0.00
  -18   18   20     -0.07      0.00
  -16   18   20     -0.11      0.00
  -14   18   20      0.41      0.00
   12   18   20      0.06      0.00
   14   18   20      0.21      0.00
   16   18   20      0.14      0.00
  -17   19   20      0.25      0.00
  -15   19   20     -0.06      0.00
  -13   19   20     -0.71      0.00
   11   19   20     -0.02      0.00
   13   19   20     -0.23      0.00
   15   19   20     -0.22      0.00
  -16   20   20     -0.33      0.00
  -14   20   20      0.23      0.00
  -12   20   20      0.64      0.00
  -10   20   20      0.02      0.00
   10   20   20      0.06      0.00
   12   20   20      0.11      0.00
   14   20   20      0.09      0.00
  -15   21   20      0.34      0.00
  -13   21   20     -0.30      0.00
  -11   21   20     -0.38      0.00
   -9   21   20      0.37      0.00
    9   21   20     -0.26      0.00
   11   21   20     -0.08      0.00
   13   21   20      0.00      0.00
  -14   22   20     -0.20      0.00
  -12   22   20      0.46      0.00
  -10   22   20      0.34      0.00
   -8   22   20     -0.22      0.00
    6   22   20      0.75      0.00
    8   22   20      0.52      0.00
   10   22   20      0.19      0.00
   12   22   20      0.06      0.00
  -13   23   20     -0.17      0.00
  -11   23   20     -0.73      0.00
   -9   23   20     -0.43      0.00
   -7   23   20     -0.02      0.00
   -5   23   20     -0.21      0.00
    3   23   20     -0.23      0.00
    5   23   20     -0.79      0.00
    7   23   20     -0.72      0.00
    9   23   20     -0.31      0.00
   11   23   20     -0.11      0.00
  -12   24   20      0.57      0.00
  -10   24   20      0.76      0.00
   -8   24   20      0.22      0.00
   -6   24   20     -0.14      0.00
   -4   24   20     -0.09      0.00
   -2   24   20     -0.26      0.00
    0   24   20     -0.53      0.00
    2   24   20     -0.22      0.00
    4   24   20      0.48      0.00
    6   24   20      0.70      0.00
    8   24   20      0.34      0.00
   10   24   20      0.01      0.00
  -11   25   20     -0.65      0.00
   -9   25   20     -0.36      0.00
   -7   25   20      0.24      0.00
   -5   25   20      0.39      0.00
   -3   25   20      0.38      0.00
   -1   25   20      0.60      0.00
    1   25   20      0.63      0.00
    3   25   20      0.11      0.00
    5   25   20     -0.37      0.00
    7   25   20     -0.26      0.00
    9   25   20      0.12      0.00
   -8   26   20     -0.13      0.00
   -6   26   20     -0.40      0.00
   -4   26   20     -0.22      0.00
   -2   26   20     -0.22      0.00
    0   26   20     -0.49      0.00
    2   26   20     -0.47      0.00
    4   26   20     -0.09      0.00
    6   26   20      0.08      0.00
   -5   27   20      0.05      0.00
   -3   27   20     -0.27      0.00
   -1   27   20     -0.12      0.00
    1   27   20      0.25      0.00
    3   27   20      0.29      0.00
    5   27   20      0.11      0.00
   -2   28   20      0.52      0.00
    0   28   20      0.20      0.00
  -21    1   21     -0.02      0.00
  -19    1   21      0.20      0.00
   19    1   21     -0.32      0.00
   21    1   21      0.35      0.00
  -22    2   21      0.24      0.00
  -20    2   21      0.03      0.00
   18    2   21      0.92      0.00
   20    2   21      0.01      0.00
  -21    3   21     -0.29      0.00
  -19    3   21     -0.21      0.00
   17    3   21     -0.85      0.00
   19    3   21     -0.49      0.00
   21    3   21      0.12      0.00
  -22    4   21      0.21      0.00
  -20    4   21      0.31      0.00
   18    4   21      0.29      0.00
   20    4   21      0.42      0.00
  -21    5   21      0.05      0.00
  -19    5   21     -0.21      0.00
   17    5   21      0.43      0.00
   19    5   21     -0.34      0.00
  -22    6   21     -0.31      0.00
  -20    6   21     -0.30      0.00
  -18    6   21     -0.09      0.00
   18    6   21     -0.07      0.00
   20    6   21      0.68      0.00
  -21    7   21      0.45      0.00
  -19    7   21      0.38      0.00
   17    7   21      0.19      0.00
   19    7   21     -0.33      0.00
  -20    8   21     -0.23      0.00
  -18    8   21     -0.21      0.00
   16    8   21      0.12      0.00
   18    8   21      0.20      0.00
   20    8   21      0.09      0.00
  -21    9   21      0.00      0.00
  -19    9   21     -0.38      0.00
  -17    9   21     -0.09      0.00
   17    9   21     -0.32      0.00
   19    9   21      0.09      0.00
  -20   10   21      0.62      0.00
  -18   10   21      1.08      0.00
   16   10   21      0.48      0.00
   18   10   21      0.04      0.00
  -19   11   21     -1.31      0.00
  -17   11   21     -1.34      0.00
   15   11   21     -0.46      0.00
   17   11   21     -0.25      0.00
   19   11   21      0.09      0.00
  -20   12   21      0.77      0.00
  -18   12   21      1.53      0.00
  -16   12   21      0.89      0.00
   16   12   21      0.31      0.00
   18   12   21      0.29      0.00
  -19   13   21     -0.94      0.00
  -17   13   21     -1.09      0.00
  -15   13   21     -0.06      0.00
   15   13   21     -0.15      0.00
   17   13   21     -0.35      0.00
  -18   14   21      0.76      0.00
  -16   14   21      0.37      0.00
   14   14   21     -0.04      0.00
   16   14   21      0.05      0.00
   18   14   21      0.23      0.00
  -17   15   21     -0.60      0.00
  -15   15   21      0.16      0.00
   13   15   21     -0.02      0.00
   15   15   21      0.29      0.00
   17   15   21      0.21      0.00
  -18   16   21      0.71      0.00
  -16   16   21      0.55      0.00
  -14   16   21     -0.52      0.00
   12   16   21      0.33      0.00
   14   16   21     -0.30      0.00
   16   16   21     -0.54      0.00
  -17   17   21     -1.08      0.00
  -15   17   21     -0.29      0.00
  -13   17   21      0.83      0.00
   11   17   21     -0.64      0.00
   13   17   21     -0.06      0.00
   15   17   21      0.41      0.00
  -16   18   21      0.93      0.00
  -14   18   21     -0.24      0.00
  -12   18   21     -0.91      0.00
   10   18   21      0.64      0.00
   12   18   21      0.44      0.00
   14   18   21      0.05      0.00
  -15   19   21     -0.30      0.00
  -13   19   21      0.67      0.00
  -11   19   21      0.61      0.00
   -9   19   21     -0.24      0.00
    9   19   21     -0.31      0.00
   11   19   21     -0.46      0.00
   13   19   21     -0.37      0.00
  -14   20   21     -0.26      0.00
  -12   20   21     -0.69      0.00
  -10   20   21     -0.25      0.00
   -8   20   21      0.20      0.00
    8   20   21     -0.12      0.00
   10   20   21      0.14      0.00
   12   20   21      0.27      0.00
   14   20   21      0.16      0.00
  -13   21   21      0.42      0.00
  -11   21   21      0.45      0.00
   -9   21   21      0.19      0.00
   -7   21   21      0.30      0.00
    5   21   21      0.27      0.00
    7   21   21      0.31      0.00
    9   21   21      0.14      0.00
   11   21   21      0.01      0.00
   13   21   21      0.07      0.00
  -12   22   21     -0.24      0.00
  -10   22   21     -0.17      0.00
   -8   22   21     -0.21      0.00
   -6   22   21     -0.52      0.00
   -4   22   21     -0.57      0.00
   -2   22   21     -0.11      0.00
    0   22   21      0.34      0.00
    2   22   21      0.34      0.00
    4   22   21      0.05      0.00
    6   22   21     -0.13      0.00
    8   22   21     -0.11      0.00
   10   22   21     -0.06      0.00
   12   22   21     -0.17      0.00
  -11   23   21     -0.07      0.00
   -9   23   21     -0.16      0.00
   -7   23   21      0.00      0.00
   -5   23   21      0.22      0.00
   -3   23   21      0.04      0.00
   -1   23   21     -0.40      0.00
    1   23   21     -0.63      0.00
    3   23   21     -0.50      0.00
    5   23   21     -0.28      0.00
    7   23   21     -0.18      0.00
    9   23   21     -0.16      0.00
  -10   24   21      0.31      0.00
   -8   24   21      0.42      0.00
   -6   24   21      0.22      0.00
   -4   24   21      0.02      0.00
   -2   24   21      0.16      0.00
    0   24   21      0.47      0.00
    2   24   21      0.62      0.00
    4   24   21      0.56      0.00
    6   24   21      0.44      0.00
    8   24   21      0.39      0.00
   -7   25   21     -0.32      0.00
   -5   25   21     -0.01      0.00
   -3   25   21      0.24      0.00
   -1   25   21      0.13      0.00
    1   25   21     -0.19      0.00
    3   25   21     -0.41      0.00
    5   25   21     -0.43      0.00
    7   25   21     -0.38      0.00
   -6   26   21     -0.06      0.00
   -4   26   21     -0.44      0.00
   -2   26   21     -0.62      0.00
    0   26   21     -0.41      0.00
    2   26   21     -0.05      0.00
    4   26   21      0.14      0.00
   -1   27   21      0.52      0.00
  -20    0   22      0.19      0.00
  -18    0   22      0.14      0.00
   16    0   22     -0.39      0.00
   18    0   22      0.16      0.00
   20    0   22      0.57      0.00
  -21    1   22     -0.02      0.00
  -19    1   22     -0.05      0.00
   17    1   22     -0.01      0.00
   19    1   22     -0.27      0.00
  -20    2   22     -0.04      0.00
  -18    2   22     -0.54      0.00
   16    2   22      0.25      0.00
   18    2   22      0.17      0.00
   20    2   22     -0.08      0.00
  -21    3   22     -0.15      0.00
  -19    3   22      0.47      0.00
   17    3   22     -0.48      0.00
   19    3   22      0.19      0.00
  -20    4   22     -0.04      0.00
  -18    4   22     -0.86      0.00
   16    4   22      0.77      0.00
   18    4   22      0.13      0.00
   20    4   22     -0.56      0.00
  -21    5   22     -0.17      0.00
  -19    5   22      0.39      0.00
  -17    5   22      0.79      0.00
   17    5   22     -0.35      0.00
   19    5   22      0.16      0.00
  -20    6   22     -0.27      0.00
  -18    6   22     -0.60      0.00
   16    6   22      0.22      0.00
   18    6   22      0.12      0.00
  -19    7   22      0.66      0.00
  -17    7   22      0.45      0.00
   17    7   22     -0.17      0.00
   19    7   22     -0.29      0.00
  -20    8   22     -0.73      0.00
  -18    8   22     -0.76      0.00
  -16    8   22      0.06      0.00
   16    8   22      0.19      0.00
   18    8   22      0.35      0.00
  -19    9   22      0.83      0.00
  -17    9   22      0.46      0.00
   15    9   22     -0.34      0.00
   17    9   22     -0.36      0.00
  -20   10   22     -0.67      0.00
  -18   10   22     -0.72      0.00
  -16   10   22      0.18      0.00
   14   10   22      0.61      0.00
   16   10   22      0.40      0.00
   18   10   22      0.05      0.00
  -19   11   22      0.72      0.00
  -17   11   22      0.36      0.00
  -15   11   22     -0.91      0.00
   15   11   22     -0.48      0.00
   17   11   22      0.02      0.00
  -18   12   22     -0.66      0.00
  -16   12   22      0.03      0.00
  -14   12   22      1.31      0.00
   14   12   22      0.57      0.00
   16   12   22      0.08      0.00
  -17   13   22      0.62      0.00
  -15   13   22     -0.20      0.00
  -13   13   22     -1.22      0.00
   13   13   22     -0.55      0.00
   15   13   22     -0.30      0.00
   17   13   22      0.02      0.00
  -18   14   22     -0.66      0.00
  -16   14   22     -0.67      0.00
  -14   14   22      0.23      0.00
  -12   14   22      0.95      0.00
   12   14   22      0.37      0.00
   14   14   22      0.45      0.00
   16   14   22      0.33      0.00
  -17   15   22      0.84      0.00
  -15   15   22      0.53      0.00
  -13   15   22     -0.48      0.00
   11   15   22     -0.19      0.00
   13   15   22     -0.42      0.00
   15   15   22     -0.45      0.00
  -16   16   22     -0.71      0.00
  -14   16   22      0.08      0.00
  -12   16   22      0.90      0.00
   10   16   22      0.21      0.00
   12   16   22      0.28      0.00
   14   16   22      0.29      0.00
  -15   17   22      0.13      0.00
  -13   17   22     -0.82      0.00
  -11   17   22     -0.96      0.00
    9   17   22     -0.47      0.00
   11   17   22     -0.25      0.00
   13   17   22     -0.08      0.00
   15   17   22      0.03      0.00
  -14   18   22      0.44      0.00
  -12   18   22      1.04      0.00
  -10   18   22      0.46      0.00
   -8   18   22     -0.71      0.00
    8   18   22      0.78      0.00
   10   18   22      0.37      0.00
   12   18   22      0.06      0.00
   14   18   22     -0.15      0.00
  -13   19   22     -0.55      0.00
  -11   19   22     -0.64      0.00
   -9   19   22      0.12      0.00
   -7   19   22      0.52      0.00
    7   19   22     -0.89      0.00
    9   19   22     -0.50      0.00
   11   19   22     -0.19      0.00
   13   19   22     -0.01      0.00
  -14   20   22     -0.12      0.00
  -12   20   22      0.31      0.00
  -10   20   22      0.09      0.00
   -8   20   22     -0.34      0.00
   -6   20   22      0.10      0.00
    4   20   22      0.50      0.00
    6   20   22      0.72      0.00
    8   20   22      0.49      0.00
   10   20   22      0.23      0.00
   12   20   22      0.18      0.00
  -11   21   22     -0.06      0.00
   -9   21   22      0.34      0.00
   -7   21   22      0.39      0.00
   -5   21   22     -0.41      0.00
   -3   21   22     -0.99      0.00
   -1   21   22     -0.54      0.00
    1   21   22      0.11      0.00
    3   21   22      0.04      0.00
    5   21   22     -0.36      0.00
    7   21   22     -0.37      0.00
    9   21   22     -0.14      0.00
   11   21   22     -0.10      0.00
  -10   22   22     -0.11      0.00
   -8   22   22     -0.66      0.00
   -6   22   22     -0.49      0.00
   -4   22   22      0.24      0.00
   -2   22   22      0.37      0.00
    0   22   22     -0.19      0.00
    2   22   22     -0.41      0.00
    4   22   22     -0.02      0.00
    6   22   22      0.25      0.00
    8   22   22      0.09      0.00
   10   22   22     -0.10      0.00
   -9   23   22      0.25      0.00
   -7   23   22      0.78      0.00
   -5   23   22      0.43      0.00
   -3   23   22     -0.10      0.00
   -1   23   22      0.07      0.00
    1   23   22      0.43      0.00
    3   23   22      0.23      0.00
    5   23   22     -0.20      0.00
    7   23   22     -0.21      0.00
   -8   24   22     -0.31      0.00
   -6   24   22     -0.51      0.00
   -4   24   22     -0.01      0.00
   -2   24   22      0.24      0.00
    0   24   22     -0.07      0.00
    2   24   22     -0.16      0.00
    4   24   22      0.19      0.00
    6   24   22      0.38      0.00
   -5   25   22      0.03      0.00
   -3   25   22     -0.41      0.00
   -1   25   22     -0.33      0.00
    1   25   22     -0.05      0.00
    3   25   22     -0.16      0.00
  -19    1   23     -0.32      0.00
  -17    1   23     -0.52      0.00
   15    1   23      0.47      0.00
   17    1   23      0.11      0.00
   19    1   23     -0.30      0.00
  -20    2   23      0.21      0.00
  -18    2   23      0.59      0.00
  -16    2   23      0.72      0.00
   16    2   23     -0.52      0.00
   18    2   23      0.12      0.00
  -19    3   23     -0.21      0.00
  -17    3   23     -0.54      0.00
   15    3   23      0.78      0.00
   17    3   23      0.28      0.00
   19    3   23     -0.24      0.00
  -20    4   23     -0.13      0.00
  -18    4   23      0.14      0.00
  -16    4   23      0.15      0.00
   16    4   23     -0.46      0.00
   18    4   23     -0.13      0.00
  -19    5   23      0.11      0.00
  -17    5   23      0.02      0.00
   15    5   23      0.33      0.00
   17    5   23      0.30      0.00
  -20    6   23     -0.19      0.00
  -18    6   23     -0.07      0.00
  -16    6   23     -0.33      0.00
   14    6   23     -0.03      0.00
   16    6   23     -0.29      0.00
   18    6   23     -0.25      0.00
  -19    7   23      0.11      0.00
  -17    7   23      0.13      0.00
  -15    7   23      0.74      0.00
   15    7   23      0.23      0.00
   17    7   23      0.21      0.00
  -18    8   23      0.09      0.00
  -16    8   23     -0.35      0.00
   14    8   23     -0.27      0.00
   16    8   23     -0.13      0.00
   18    8   23      0.09      0.00
  -19    9   23     -0.28      0.00
  -17    9   23     -0.30      0.00
  -15    9   23      0.73      0.00
   13    9   23      0.41      0.00
   15    9   23      0.08      0.00
   17    9   23     -0.28      0.00
  -18   10   23      0.88      0.00
  -16   10   23      0.32      0.00
  -14   10   23     -1.13      0.00
   14   10   23     -0.05      0.00
   16   10   23      0.37      0.00
  -17   11   23     -1.23      0.00
  -15   11   23     -0.13      0.00
  -13   11   23      1.27      0.00
   13   11   23     -0.08      0.00
   15   11   23     -0.30      0.00
   17   11   23     -0.45      0.00
  -18   12   23      1.26      0.00
  -16   12   23      1.18      0.00
  -14   12   23     -0.10      0.00
   12   12   23      0.39      0.00
   14   12   23      0.20      0.00
   16   12   23      0.18      0.00
  -17   13   23     -1.27      0.00
  -15   13   23     -0.75      0.00
  -13   13   23      0.30      0.00
  -11   13   23      0.43      0.00
   11   13   23     -0.63      0.00
   13   13   23     -0.21      0.00
   15   13   23      0.07      0.00
  -16   14   23      0.91      0.00
  -14   14   23      0.04      0.00
  -12   14   23     -0.49      0.00
   10   14   23      0.53      0.00
   12   14   23      0.25      0.00
   14   14   23     -0.08      0.00
  -15   15   23     -0.22      0.00
  -13   15   23      0.69      0.00
  -11   15   23      0.54      0.00
    9   15   23     -0.22      0.00
   11   15   23     -0.20      0.00
   13   15   23     -0.07      0.00
   15   15   23      0.01      0.00
  -14   16   23     -0.46      0.00
  -12   16   23     -0.99      0.00
  -10   16   23     -0.30      0.00
   -8   16   23      0.54      0.00
    8   16   23      0.08      0.00
   10   16   23      0.14      0.00
   12   16   23      0.21      0.00
   14   16   23      0.21      0.00
  -15   17   23     -0.20      0.00
  -13   17   23      0.71      0.00
  -11   17   23      0.71      0.00
   -9   17   23     -0.03      0.00
   -7   17   23     -0.27      0.00
    7   17   23     -0.23      0.00
    9   17   23     -0.26      0.00
   11   17   23     -0.33      0.00
   13   17   23     -0.30      0.00
  -14   18   23      0.01      0.00
  -12   18   23     -0.53      0.00
  -10   18   23     -0.21      0.00
   -8   18   23      0.10      0.00
   -6   18   23     -0.31      0.00
    6   18   23      0.39      0.00
    8   18   23      0.46      0.00
   10   18   23      0.48      0.00
   12   18   23      0.32      0.00
  -13   19   23      0.12      0.00
  -11   19   23      0.25      0.00
   -9   19   23     -0.08      0.00
   -7   19   23      0.04      0.00
   -5   19   23      0.64      0.00
   -3   19   23      0.95      0.00
   -1   19   23      0.67      0.00
    1   19   23      0.20      0.00
    3   19   23     -0.14      0.00
    5   19   23     -0.35      0.00
    7   19   23     -0.50      0.00
    9   19   23     -0.56      0.00
   11   19   23     -0.38      0.00
  -12   20   23     -0.26      0.00
  -10   20   23     -0.09      0.00
   -8   20   23      0.19      0.00
   -6   20   23     -0.02      0.00
   -4   20   23     -0.35      0.00
   -2   20   23     -0.29      0.00
    0   20   23      0.03      0.00
    2   20   23      0.24      0.00
    4   20   23      0.30      0.00
    6   20   23      0.34      0.00
    8   20   23      0.43      0.00
   10   20   23      0.41      0.00
  -11   21   23      0.32      0.00
   -9   21   23     -0.02      0.00
   -7   21   23     -0.26      0.00
   -5   21   23     -0.19      0.00
   -3   21   23     -0.22      0.00
   -1   21   23     -0.46      0.00
    1   21   23     -0.59      0.00
    3   21   23     -0.45      0.00
    5   21   23     -0.22      0.00
    7   21   23     -0.16      0.00
    9   21   23     -0.27      0.00
   -8   22   23      0.06      0.00
   -6   22   23      0.19      0.00
   -4   22   23      0.24      0.00
   -2   22   23      0.46      0.00
    0   22   23      0.68      0.00
    2   22   23      0.62      0.00
    4   22   23      0.29      0.00
    6   22   23      0.02      0.00
    8   22   23      0.05      0.00
   -7   23   23      0.08      0.00
   -5   23   23      0.10      0.00
   -3   23   23      0.01      0.00
   -1   23   23     -0.25      0.00
    1   23   23     -0.43      0.00
    3   23   23     -0.32      0.00
    5   23   23     -0.06      0.00
   -4   24   23     -0.36      0.00
   -2   24   23     -0.26      0.00
    0   24   23     -0.01      0.00
    2   24   23      0.15      0.00
  -18    0   24     -0.46      0.00
  -16    0   24     -0.93      0.00
   14    0   24      0.69      0.00
   16    0   24      0.80      0.00
   18    0   24      0.12      0.00
  -19    1   24      0.10      0.00
  -17    1   24      0.68      0.00
  -15    1   24      0.90      0.00
   15    1   24     -0.72      0.00
   17    1   24     -0.50      0.00
  -18    2   24     -0.26      0.00
  -16    2   24     -0.81      0.00
   14    2   24      0.25      0.00
   16    2   24      0.45      0.00
  -19    3   24     -0.12      0.00
  -17    3   24      0.62      0.00
  -15    3   24      0.69      0.00
   13    3   24      0.30      0.00
   15    3   24      0.00      0.00
   17    3   24     -0.14      0.00
  -18    4   24     -0.44      0.00
  -16    4   24     -0.79      0.00
  -14    4   24     -0.20      0.00
   14    4   24     -0.46      0.00
   16    4   24     -0.13      0.00
  -19    5   24      0.26      0.00
  -17    5   24      0.79      0.00
  -15    5   24      0.43      0.00
   13    5   24      0.62      0.00
   15    5   24      0.30      0.00
   17    5   24      0.11      0.00
  -18    6   24     -0.61      0.00
  -16    6   24     -0.57      0.00
  -14    6   24      0.30      0.00
   14    6   24     -0.19      0.00
   16    6   24     -0.03      0.00
  -17    7   24      0.58      0.00
  -15    7   24     -0.08      0.00
   13    7   24     -0.08      0.00
   15    7   24     -0.19      0.00
   17    7   24     -0.06      0.00
  -18    8   24     -0.57      0.00
  -16    8   24     -0.26      0.00
  -14    8   24      0.85      0.00
   12    8   24      0.17      0.00
   14    8   24      0.32      0.00
   16    8   24      0.25      0.00
  -17    9   24      0.62      0.00
  -15    9   24     -0.23      0.00
  -13    9   24     -1.48      0.00
   -9    9   24     -1.02      0.00
   11    9   24      0.11      0.00
   13    9   24     -0.15      0.00
   15    9   24     -0.29      0.00
  -16   10   24     -0.47      0.00
  -14   10   24      0.72      0.00
  -12   10   24      1.67      0.00
  -10   10   24      1.33      0.00
   10   10   24     -0.47      0.00
   12   10   24     -0.27      0.00
   14   10   24      0.09      0.00
   16   10   24      0.29      0.00
  -17   11   24      0.76      0.00
  -15   11   24      0.18      0.00
  -13   11   24     -0.97      0.00
  -11   11   24     -1.22      0.00
   -9   11   24     -0.26      0.00
   11   11   24      0.53      0.00
   13   11   24      0.20      0.00
   15   11   24     -0.23      0.00
  -16   12   24     -0.70      0.00
  -14   12   24      0.15      0.00
  -12   12   24      0.90      0.00
  -10   12   24      0.33      0.00
   10   12   24     -0.32      0.00
   12   12   24     -0.23      0.00
   14   12   24      0.08      0.00
  -15   13   24      0.50      0.00
  -13   13   24     -0.47      0.00
  -11   13   24     -0.61      0.00
   -9   13   24      0.54      0.00
    9   13   24     -0.11      0.00
   11   13   24     -0.08      0.00
   13   13   24     -0.07      0.00
  -14   14   24     -0.10      0.00
  -12   14   24      0.72      0.00
  -10   14   24      0.24      0.00
   -8   14   24     -1.00      0.00
    8   14   24      0.32      0.00
   10   14   24      0.35      0.00
   12   14   24      0.21      0.00
   14   14   24      0.08      0.00
  -15   15   24      0.64      0.00
  -13   15   24     -0.36      0.00
  -11   15   24     -0.76      0.00
   -9   15   24      0.11      0.00
   -7   15   24      0.93      0.00
    7   15   24     -0.29      0.00
    9   15   24     -0.29      0.00
   11   15   24     -0.21      0.00
   13   15   24     -0.07      0.00
  -14   16   24     -0.24      0.00
  -12   16   24      0.65      0.00
  -10   16   24      0.54      0.00
   -8   16   24     -0.32      0.00
   -6   16   24     -0.44      0.00
    6   16   24      0.36      0.00
    8   16   24      0.10      0.00
   10   16   24      0.00      0.00
   12   16   24      0.01      0.00
  -13   17   24     -0.19      0.00
  -11   17   24     -0.70      0.00
   -9   17   24     -0.17      0.00
   -7   17   24      0.35      0.00
   -5   17   24     -0.14      0.00
   -3   17   24     -0.99      0.00
    1   17   24     -0.95      0.00
    3   17   24     -0.75      0.00
    5   17   24     -0.54      0.00
    7   17   24     -0.17      0.00
    9   17   24      0.13      0.00
   11   17   24      0.14      0.00
  -12   18   24      0.53      0.00
  -10   18   24      0.49      0.00
   -8   18   24     -0.21      0.00
   -6   18   24     -0.28      0.00
   -4   18   24      0.43      0.00
   -2   18   24      0.84      0.00
    0   18   24      0.61      0.00
    2   18   24      0.41      0.00
    4   18   24      0.50      0.00
    6   18   24      0.44      0.00
    8   18   24      0.11      0.00
   10   18   24     -0.15      0.00
  -11   19   24     -0.60      0.00
   -9   19   24     -0.08      0.00
   -7   19   24      0.48      0.00
   -5   19   24      0.16      0.00
   -3   19   24     -0.37      0.00
   -1   19   24     -0.24      0.00
    1   19   24      0.11      0.00
    3   19   24     -0.06      0.00
    5   19   24     -0.49      0.00
    7   19   24     -0.52      0.00
    9   19   24     -0.16      0.00
  -10   20   24      0.35      0.00
   -8   20   24     -0.30      0.00
   -6   20   24     -0.43      0.00
   -4   20   24      0.09      0.00
   -2   20   24      0.20      0.00
    0   20   24     -0.28      0.00
    2   20   24     -0.41      0.00
    4   20   24      0.15      0.00
    6   20   24      0.67      0.00
    8   20   24      0.56      0.00
   -7   21   24      0.37      0.00
   -5   21   24      0.03      0.00
   -3   21   24     -0.40      0.00
   -1   21   24     -0.09      0.00
    1   21   24      0.42      0.00
    3   21   24      0.22      0.00
    5   21   24     -0.44      0.00
    7   21   24     -0.70      0.00
   -6   22   24     -0.13      0.00
   -4   22   24      0.41      0.00
   -2   22   24      0.52      0.00
    0   22   24      0.01      0.00
    2   22   24     -0.25      0.00
    4   22   24      0.14      0.00
   -3   23   24     -0.50      0.00
   -1   23   24     -0.34      0.00
    1   23   24      0.04      0.00
  -17    1   25     -0.25      0.00
  -15    1   25     -0.44      0.00
  -13    1   25     -0.20      0.00
   11    1   25     -0.25      0.00
   13    1   25     -0.30      0.00
   15    1   25     -0.18      0.00
  -18    2   25      0.17      0.00
  -16    2   25      0.64      0.00
  -14    2   25      0.48      0.00
   12    2   25      0.50      0.00
   14    2   25      0.38      0.00
   16    2   25      0.08      0.00
  -17    3   25     -0.49      0.00
  -15    3   25     -0.53      0.00
  -13    3   25      0.07      0.00
   11    3   25     -0.56      0.00
   13    3   25     -0.35      0.00
   15    3   25     -0.08      0.00
  -18    4   25      0.14      0.00
  -16    4   25      0.34      0.00
  -14    4   25     -0.10      0.00
   12    4   25      0.15      0.00
   14    4   25     -0.20      0.00
   16    4   25     -0.28      0.00
  -17    5   25     -0.02      0.00
  -15    5   25      0.19      0.00
  -13    5   25      0.59      0.00
   11    5   25      0.06      0.00
   13    5   25      0.54      0.00
   15    5   25      0.65      0.00
  -16    6   25     -0.22      0.00
  -14    6   25     -0.61      0.00
  -12    6   25     -0.60      0.00
   10    6   25     -0.22      0.00
   12    6   25     -0.69      0.00
   14    6   25     -0.88      0.00
   16    6   25     -0.65      0.00
  -17    7   25      0.10      0.00
  -15    7   25      0.39      0.00
  -13    7   25      0.82      0.00
  -11    7   25      0.45      0.00
   -9    7   25     -0.46      0.00
   11    7   25      0.59      0.00
   13    7   25      0.73      0.00
   15    7   25      0.64      0.00
  -16    8   25      0.09      0.00
  -14    8   25     -0.59      0.00
  -12    8   25     -0.98      0.00
  -10    8   25     -0.39      0.00
   -8    8   25      0.43      0.00
   10    8   25     -0.42      0.00
   12    8   25     -0.33      0.00
   14    8   25     -0.29      0.00
  -15    9   25     -0.09      0.00
  -13    9   25      0.87      0.00
  -11    9   25      1.01      0.00
   -9    9   25      0.20      0.00
    9    9   25      0.33      0.00
   11    9   25      0.01      0.00
   13    9   25     -0.11      0.00
   15    9   25     -0.07      0.00
  -16   10   25      0.80      0.00
  -14   10   25     -0.16      0.00
  -12   10   25     -1.00      0.00
  -10   10   25     -0.66      0.00
   -8   10   25      0.23      0.00
   10   10   25      0.03      0.00
   12   10   25      0.23      0.00
   14   10   25      0.24      0.00
  -15   11   25     -0.69      0.00
  -13   11   25      0.45      0.00
  -11   11   25      0.77      0.00
   -9   11   25      0.02      0.00
    9   11   25      0.06      0.00
   11   11   25     -0.03      0.00
   13   11   25     -0.10      0.00
  -14   12   25      0.29      0.00
  -12   12   25     -0.58      0.00
  -10   12   25     -0.29      0.00
   -8   12   25      0.48      0.00
    8   12   25     -0.08      0.00
   10   12   25     -0.14      0.00
   12   12   25     -0.17      0.00
  -13   13   25      0.19      0.00
  -11   13   25      0.50      0.00
   -9   13   25     -0.12      0.00
   -7   13   25     -0.55      0.00
    7   13   25      0.04      0.00
    9   13   25      0.09      0.00
   11   13   25      0.23      0.00
   13   13   25      0.22      0.00
  -14   14   25      0.24      0.00
  -12   14   25     -0.50      0.00
  -10   14   25     -0.31      0.00
   -8   14   25      0.23      0.00
   -6   14   25      0.24      0.00
    4   14   25     -0.18      0.00
    6   14   25     -0.02      0.00
    8   14   25      0.07      0.00
   10   14   25     -0.01      0.00
   12   14   25     -0.14      0.00
  -13   15   25      0.28      0.00
  -11   15   25      0.59      0.00
   -9   15   25      0.18      0.00
   -7   15   25     -0.05      0.00
   -5   15   25      0.17      0.00
   -3   15   25      0.28      0.00
   -1   15   25      0.09      0.00
    1   15   25     -0.07      0.00
    3   15   25     -0.09      0.00
    5   15   25     -0.10      0.00
    7   15   25     -0.16      0.00
    9   15   25     -0.19      0.00
   11   15   25     -0.09      0.00
  -12   16   25     -0.59      0.00
  -10   16   25     -0.52      0.00
   -8   16   25     -0.15      0.00
   -6   16   25     -0.17      0.00
   -4   16   25     -0.33      0.00
   -2   16   25     -0.13      0.00
    0   16   25      0.27      0.00
    2   16   25      0.45      0.00
    4   16   25      0.35      0.00
    6   16   25      0.21      0.00
    8   16   25      0.19      0.00
   10   16   25      0.19      0.00
  -11   17   25      0.67      0.00
   -9   17   25      0.35      0.00
   -7   17   25      0.10      0.00
   -5   17   25      0.23      0.00
   -3   17   25      0.23      0.00
   -1   17   25     -0.14      0.00
    1   17   25     -0.50      0.00
    3   17   25     -0.52      0.00
    5   17   25     -0.27      0.00
    7   17   25     -0.06      0.00
    9   17   25     -0.06      0.00
  -10   18   25     -0.52      0.00
   -8   18   25     -0.11      0.00
   -6   18   25     -0.03      0.00
   -4   18   25     -0.18      0.00
   -2   18   25     -0.09      0.00
    0   18   25      0.23      0.00
    2   18   25      0.40      0.00
    4   18   25      0.25      0.00
    6   18   25     -0.03      0.00
    8   18   25     -0.12      0.00
   -9   19   25      0.24      0.00
   -7   19   25     -0.04      0.00
   -5   19   25      0.04      0.00
   -3   19   25      0.16      0.00
   -1   19   25      0.04      0.00
    1   19   25     -0.15      0.00
    3   19   25     -0.15      0.00
    5   19   25      0.04      0.00
    7   19   25      0.18      0.00
   -6   20   25      0.04      0.00
   -4   20   25     -0.07      0.00
   -2   20   25     -0.09      0.00
    0   20   25      0.02      0.00
    2   20   25      0.08      0.00
    4   20   25      0.00      0.00
   -3   21   25     -0.04      0.00
   -1   21   25     -0.10      0.00
    1   21   25     -0.14      0.00
    3   21   25     -0.09      0.00
  -16    0   26     -0.96      0.00
  -14    0   26     -1.50      0.00
  -12    0   26     -0.81      0.00
   10    0   26     -0.62      0.00
   12    0   26     -0.63      0.00
   14    0   26     -0.17      0.00
  -15    1   26      1.22      0.00
  -13    1   26      1.06      0.00
  -11    1   26      0.06      0.00
    9    1   26      0.52      0.00
   11    1   26      0.54      0.00
   13    1   26      0.31      0.00
   15    1   26     -0.20      0.00
  -16    2   26     -0.69      0.00
  -14    2   26     -0.81      0.00
  -12    2   26     -0.19      0.00
  -10    2   26      0.44      0.00
   10    2   26     -0.29      0.00
   12    2   26     -0.08      0.00
   14    2   26      0.20      0.00
  -15    3   26      0.53      0.00
  -13    3   26      0.12      0.00
  -11    3   26     -0.29      0.00
   -9    3   26     -0.21      0.00
    9    3   26      0.16      0.00
   11    3   26     -0.23      0.00
   13    3   26     -0.40      0.00
   15    3   26     -0.38      0.00
  -16    4   26     -0.42      0.00
  -14    4   26     -0.19      0.00
  -12    4   26      0.24      0.00
  -10    4   26      0.12      0.00
   -8    4   26     -0.33      0.00
   10    4   26      0.39      0.00
   12    4   26      0.55      0.00
   14    4   26      0.45      0.00
  -15    5   26      0.42      0.00
  -13    5   26     -0.06      0.00
  -11    5   26     -0.26      0.00
   -9    5   26      0.14      0.00
    9    5   26     -0.43      0.00
   11    5   26     -0.49      0.00
   13    5   26     -0.32      0.00
  -16    6   26     -0.63      0.00
  -14    6   26     -0.24      0.00
  -12    6   26      0.36      0.00
  -10    6   26      0.36      0.00
   -8    6   26     -0.07      0.00
    8    6   26      0.49      0.00
   10    6   26      0.32      0.00
   12    6   26      0.01      0.00
   14    6   26     -0.15      0.00
  -15    7   26      0.54      0.00
  -13    7   26     -0.27      0.00
  -11    7   26     -0.80      0.00
   -9    7   26     -0.59      0.00
   -7    7   26     -0.15      0.00
    9    7   26     -0.17      0.00
   11    7   26      0.29      0.00
   13    7   26      0.48      0.00
  -14    8   26     -0.04      0.00
  -12    8   26      0.89      0.00
  -10    8   26      1.07      0.00
   -8    8   26      0.61      0.00
    8    8   26      0.08      0.00
   10    8   26     -0.43      0.00
   12    8   26     -0.67      0.00
  -15    9   26      0.41      0.00
  -13    9   26     -0.59      0.00
  -11    9   26     -1.20      0.00
   -9    9   26     -0.84      0.00
   -7    9   26     -0.26      0.00
    7    9   26     -0.07      0.00
    9    9   26      0.39      0.00
   11    9   26      0.63      0.00
   13    9   26      0.44      0.00
  -14   10   26      0.02      0.00
  -12   10   26      0.98      0.00
  -10   10   26      0.95      0.00
   -8   10   26      0.18      0.00
   -6   10   26     -0.26      0.00
    6   10   26      0.16      0.00
    8   10   26     -0.22      0.00
   10   10   26     -0.45      0.00
   12   10   26     -0.36      0.00
  -13   11   26     -0.41      0.00
  -11   11   26     -0.95      0.00
   -9   11   26     -0.32      0.00
   -7   11   26      0.51      0.00
   -5   11   26      0.59      0.00
    5   11   26     -0.28      0.00
    7   11   26     -0.03      0.00
    9   11   26      0.22      0.00
   11   11   26      0.29      0.00
  -12   12   26      0.63      0.00
  -10   12   26      0.59      0.00
   -8   12   26     -0.31      0.00
   -6   12   26     -0.80      0.00
   -4   12   26     -0.52      0.00
    2   12   26      0.12      0.00
    4   12   26      0.21      0.00
    6   12   26      0.16      0.00
    8   12   26     -0.04      0.00
   10   12   26     -0.22      0.00
   12   12   26     -0.24      0.00
  -13   13   26     -0.02      0.00
  -11   13   26     -0.65      0.00
   -9   13   26     -0.17      0.00
   -7   13   26      0.58      0.00
   -5   13   26      0.57      0.00
   -3   13   26      0.12      0.00
   -1   13   26     -0.03      0.00
    1   13   26      0.08      0.00
    3   13   26      0.08      0.00
    5   13   26     -0.01      0.00
    7   13   26     -0.01      0.00
    9   13   26      0.14      0.00
   11   13   26      0.30      0.00
  -12   14   26      0.37      0.00
  -10   14   26      0.57      0.00
   -8   14   26     -0.10      0.00
   -6   14   26     -0.45      0.00
   -4   14   26     -0.08      0.00
   -2   14   26      0.22      0.00
    0   14   26      0.01      0.00
    2   14   26     -0.26      0.00
    4   14   26     -0.25      0.00
    6   14   26     -0.08      0.00
    8   14   26     -0.05      0.00
   10   14   26     -0.20      0.00
  -11   15   26     -0.67      0.00
   -9   15   26     -0.40      0.00
   -7   15   26      0.25      0.00
   -5   15   26      0.20      0.00
   -3   15   26     -0.27      0.00
   -1   15   26     -0.30      0.00
    1   15   26      0.06      0.00
    3   15   26      0.24      0.00
    5   15   26      0.09      0.00
    7   15   26     -0.06      0.00
    9   15   26      0.02      0.00
  -10   16   26      0.76      0.00
   -8   16   26      0.08      0.00
   -6   16   26     -0.38      0.00
   -4   16   26     -0.02      0.00
   -2   16   26      0.40      0.00
    0   16   26      0.31      0.00
    2   16   26      0.10      0.00
    4   16   26      0.15      0.00
    6   16   26      0.28      0.00
    8   16   26      0.20      0.00
   -9   17   26     -0.47      0.00
   -7   17   26      0.33      0.00
   -5   17   26      0.39      0.00
   -3   17   26     -0.16      0.00
   -1   17   26     -0.45      0.00
    1   17   26     -0.39      0.00
    3   17   26     -0.42      0.00
    5   17   26     -0.55      0.00
    7   17   26     -0.44      0.00
   -6   18   26     -0.51      0.00
   -4   18   26     -0.15      0.00
   -2   18   26      0.32      0.00
    0   18   26      0.37      0.00
    2   18   26      0.36      0.00
    4   18   26      0.54      0.00
    6   18   26      0.56      0.00
   -5   19   26      0.33      0.00
   -3   19   26     -0.14      0.00
   -1   19   26     -0.23      0.00
    1   19   26     -0.04      0.00
    3   19   26     -0.12      0.00
  -15    1   27     -0.14      0.00
  -13    1   27      0.13      0.00
  -11    1   27      0.19      0.00
   -9    1   27     -0.10      0.00
   -7    1   27     -0.32      0.00
    7    1   27     -0.14      0.00
    9    1   27      0.02      0.00
   11    1   27      0.16      0.00
   13    1   27      0.20      0.00
  -14    2   27      0.08      0.00
  -12    2   27     -0.27      0.00
  -10    2   27     -0.07      0.00
   -8    2   27      0.47      0.00
   -6    2   27      0.49      0.00
    8    2   27      0.07      0.00
   10    2   27     -0.15      0.00
   12    2   27     -0.25      0.00
  -15    3   27     -0.34      0.00
  -13    3   27      0.04      0.00
  -11    3   27      0.17      0.00
   -9    3   27     -0.31      0.00
   -7    3   27     -0.69      0.00
    7    3   27     -0.15      0.00
    9    3   27      0.07      0.00
   11    3   27      0.12      0.00
   13    3   27      0.10      0.00
  -14    4   27      0.21      0.00
  -12    4   27     -0.11      0.00
  -10    4   27      0.07      0.00
   -8    4   27      0.57      0.00
   -6    4   27      0.54      0.00
    6    4   27      0.20      0.00
    8    4   27     -0.06      0.00
   10    4   27     -0.01      0.00
   12    4   27      0.10      0.00
  -13    5   27      0.03      0.00
  -11    5   27      0.13      0.00
   -9    5   27     -0.29      0.00
   -7    5   27     -0.53      0.00
   -5    5   27     -0.10      0.00
    5    5   27     -0.28      0.00
    7    5   27      0.06      0.00
    9    5   27      0.02      0.00
   11    5   27     -0.22      0.00
   13    5   27     -0.24      0.00
  -14    6   27     -0.01      0.00
  -12    6   27     -0.29      0.00
  -10    6   27     -0.04      0.00
   -8    6   27      0.43      0.00
   -6    6   27      0.26      0.00
    4    6   27      0.37      0.00
    6    6   27      0.05      0.00
    8    6   27     -0.06      0.00
   10    6   27      0.17      0.00
   12    6   27      0.30      0.00
  -13    7   27      0.34      0.00
  -11    7   27      0.38      0.00
   -9    7   27     -0.20      0.00
   -7    7   27     -0.49      0.00
   -5    7   27      0.09      0.00
    3    7   27     -0.37      0.00
    5    7   27     -0.26      0.00
    7    7   27      0.00      0.00
    9    7   27     -0.05      0.00
   11    7   27     -0.23      0.00
  -12    8   27     -0.55      0.00
  -10    8   27     -0.24      0.00
   -8    8   27      0.46      0.00
   -6    8   27      0.46      0.00
   -4    8   27     -0.26      0.00
    2    8   27      0.25      0.00
    4    8   27      0.41      0.00
    6    8   27      0.14      0.00
    8    8   27     -0.03      0.00
   10    8   27      0.07      0.00
   12    8   27      0.10      0.00
  -13    9   27      0.31      0.00
  -11    9   27      0.61      0.00
   -9    9   27     -0.01      0.00
   -7    9   27     -0.63      0.00
   -5    9   27     -0.44      0.00
   -3    9   27      0.14      0.00
   -1    9   27      0.27      0.00
    1    9   27     -0.11      0.00
    3    9   27     -0.40      0.00
    5    9   27     -0.25      0.00
    7    9   27      0.03      0.00
    9    9   27      0.07      0.00
   11    9   27     -0.04      0.00
  -12   10   27     -0.53      0.00
  -10   10   27     -0.50      0.00
   -8   10   27      0.27      0.00
   -6   10   27      0.68      0.00
   -4   10   27      0.38      0.00
   -2   10   27      0.00      0.00
    0   10   27      0.03      0.00
    2   10   27      0.27      0.00
    4   10   27      0.29      0.00
    6   10   27      0.06      0.00
    8   10   27     -0.10      0.00
   10   10   27     -0.03      0.00
  -11   11   27      0.60      0.00
   -9   11   27      0.22      0.00
   -7   11   27     -0.43      0.00
   -5   11   27     -0.50      0.00
   -3   11   27     -0.13      0.00
   -1   11   27      0.05      0.00
    1   11   27     -0.10      0.00
    3   11   27     -0.28      0.00
    5   11   27     -0.23      0.00
    7   11   27     -0.04      0.00
    9   11   27      0.04      0.00
  -10   12   27     -0.42      0.00
   -8   12   27      0.09      0.00
   -6   12   27      0.37      0.00
   -4   12   27      0.12      0.00
   -2   12   27     -0.17      0.00
    0   12   27     -0.09      0.00
    2   12   27      0.21      0.00
    4   12   27      0.38      0.00
    6   12   27      0.25      0.00
    8   12   27      0.03      0.00
   -9   13   27      0.15      0.00
   -7   13   27     -0.24      0.00
   -5   13   27     -0.17      0.00
   -3   13   27      0.14      0.00
   -1   13   27      0.19      0.00
    1   13   27     -0.10      0.00
    3   13   27     -0.37      0.00
    5   13   27     -0.35      0.00
    7   13   27     -0.09      0.00
    9   13   27      0.14      0.00
   -8   14   27      0.06      0.00
   -6   14   27      0.28      0.00
   -4   14   27      0.10      0.00
   -2   14   27     -0.06      0.00
    0   14   27      0.05      0.00
    2   14   27      0.24      0.00
    4   14   27      0.25      0.00
    6   14   27      0.02      0.00
    8   14   27     -0.22      0.00
   -7   15   27     -0.22      0.00
   -5   15   27     -0.32      0.00
   -3   15   27     -0.18      0.00
   -1   15   27     -0.12      0.00
    1   15   27     -0.15      0.00
    3   15   27     -0.09      0.00
    5   15   27      0.12      0.00
    7   15   27      0.31      0.00
   -6   16   27      0.28      0.00
   -4   16   27      0.27      0.00
   -2   16   27      0.16      0.00
    0   16   27      0.12      0.00
    2   16   27      0.06      0.00
    4   16   27     -0.11      0.00
   -5   17   27     -0.13      0.00
   -3   17   27     -0.03      0.00
   -1   17   27     -0.01      0.00
    1   17   27     -0.08      0.00
    3   17   27     -0.09      0.00
    0    0    0      0.00      0.00
loop_
  _platon_squeeze_void_nr
  _platon_squeeze_void_average_x
  _platon_squeeze_void_average_y
  _platon_squeeze_void_average_z
  _platon_squeeze_void_volume
  _platon_squeeze_void_count_electrons
  _platon_squeeze_void_content
   1  0.000  0.500  0.242       539       139 ' '
   2  0.500  0.000  0.458       539       139 ' '
_platon_squeeze_details
TITL Prosp14mz030_0m in C2/c
CELL   22.7256   27.9980   23.4326     90.00     91.88     90.00
SPGR C2/c
C101 0.034 0.407 0.060 !       2.27 eA-3
C102 0.534 0.065 0.540 !       1.82 eA-3
Q103 0.131 0.450 0.468 !       1.76 eA-3
C104 0.487 0.135 0.757 !       1.70 eA-3
C105 0.508 0.116 0.662 !       1.64 eA-3
Q106 0.037 0.453 0.428 !       1.51 eA-3
C107 0.504 0.021 0.985 !       1.32 eA-3
Q108 0.286 0.489 0.591 !       1.05 eA-3
Q109 0.906 0.493 0.074 !       1.05 eA-3
Q110 0.627 0.132 0.985 !       0.94 eA-3
Q111 0.858 0.228 0.990 !       0.94 eA-3
Q112 0.756 0.104 0.059 !       0.93 eA-3
Q113 0.008 0.087 0.873 !       0.93 eA-3
Q114 0.422 0.125 0.508 !       0.92 eA-3
Q115 0.170 0.258 0.534 !       0.88 eA-3
Q116 0.783 0.260 0.933 !       0.88 eA-3
Q117 0.062 0.483 0.467 !       0.80 eA-3
Q118 0.656 0.170 0.171 !       0.73 eA-3
Q119 1.001 0.045 0.628 !       0.73 eA-3
Q120 0.092 0.236 0.437 !       0.73 eA-3
Q121 0.656 0.399 0.936 !       0.71 eA-3
Q122 0.792 0.227 0.157 !       0.69 eA-3
Q123 0.826 0.214 0.952 !       0.68 eA-3
Q124 0.087 0.248 0.483 !       0.63 eA-3
Q125 0.157 0.303 0.548 !       0.62 eA-3
Q126 0.579 0.294 0.861 !       0.61 eA-3
Q127 0.922 0.465 0.033 !       0.59 eA-3
Q128 0.742 0.298 0.921 !       0.56 eA-3
Q129 0.369 0.155 0.482 !       0.56 eA-3
Q130 0.385 0.293 0.453 !       0.55 eA-3
Q131 0.611 0.315 0.088 !       0.55 eA-3
Q132 0.373 0.077 0.587 !       0.54 eA-3
Q133 0.940 0.243 0.110 !       0.52 eA-3
Q134 0.875 0.014 0.093 !       0.52 eA-3
Q135 0.807 0.245 0.760 !       0.52 eA-3
;
_shelx_fab_checksum              71746
#END Tags that were not found in dictionaries
loop_
_space_group_symop_operation_xyz
'x, y, z'
'-x, y, -z+1/2'
'x+1/2, y+1/2, z'
'-x+1/2, y+1/2, -z+1/2'
'-x, -y, -z'
'x, -y, z-1/2'
'-x+1/2, -y+1/2, -z'
'x+1/2, -y+1/2, z-1/2'
loop_
_atom_site_label
_atom_site_type_symbol
_atom_site_fract_x
_atom_site_fract_y
_atom_site_fract_z
_atom_site_U_iso_or_equiv
_atom_site_adp_type
_atom_site_occupancy
_atom_site_site_symmetry_order
_atom_site_calc_flag
_atom_site_refinement_flags_posn
_atom_site_refinement_flags_adp
_atom_site_refinement_flags_occupancy
_atom_site_disorder_assembly
_atom_site_disorder_group
C1 C 0.28689(12) 0.46861(10) 0.47774(12) 0.0248(6) Uani 1 1 d . . . . .
C2 C 0.27722(13) 0.48416(11) 0.41668(12) 0.0271(6) Uani 1 1 d . . . . .
C3 C 0.28571(14) 0.53142(11) 0.40105(13) 0.0318(6) Uani 1 1 d . . . . .
H3 H 0.2960 0.5545 0.4293 0.038 Uiso 1 1 calc R U . . .
C4 C 0.27914(16) 0.54493(12) 0.34429(14) 0.0391(8) Uani 1 1 d . . . . .
H4 H 0.2856 0.5772 0.3336 0.047 Uiso 1 1 calc R U . . .
C5 C 0.26319(16) 0.51152(13) 0.30305(14) 0.0400(8) Uani 1 1 d . . . . .
H5 H 0.2589 0.5209 0.2642 0.048 Uiso 1 1 calc R U . . .
C6 C 0.25347(14) 0.46405(12) 0.31842(13) 0.0330(7) Uani 1 1 d . . . . .
C7 C 0.26101(13) 0.45036(11) 0.37539(12) 0.0296(6) Uani 1 1 d . . . . .
H7 H 0.2551 0.4180 0.3861 0.036 Uiso 1 1 calc R U . . .
C8 C 0.23568(15) 0.42935(12) 0.27541(13) 0.0369(7) Uani 1 1 d . . . . .
C9 C 0.21986(15) 0.40210(12) 0.23902(13) 0.0371(7) Uani 1 1 d . . . . .
C10 C 0.20150(15) 0.37075(12) 0.19326(13) 0.0353(7) Uani 1 1 d . . . . .
C11 C 0.20322(15) 0.38719(12) 0.13699(13) 0.0349(7) Uani 1 1 d . . . . .
H11 H 0.2173 0.4184 0.1295 0.042 Uiso 1 1 calc R U . . .
C12 C 0.18450(15) 0.35823(12) 0.09232(13) 0.0343(7) Uani 1 1 d . . . . .
C13 C 0.16391(15) 0.31252(12) 0.10352(13) 0.0347(7) Uani 1 1 d . . . . .
H13 H 0.1503 0.2928 0.0728 0.042 Uiso 1 1 calc R U . . .
C14 C 0.16307(16) 0.29532(12) 0.15927(13) 0.0369(7) Uani 1 1 d . . . . .
C15 C 0.18164(16) 0.32442(13) 0.20567(13) 0.0398(8) Uani 1 1 d . . . . .
C16 C 0.14315(17) 0.24766(13) 0.17027(14) 0.0431(8) Uani 1 1 d . . . . .
C17 C 0.12841(18) 0.20743(13) 0.18092(14) 0.0464(9) Uani 1 1 d . . . . .
C18 C 0.11409(18) 0.15948(13) 0.19694(14) 0.0438(8) Uani 1 1 d . . . . .
C19 C 0.13848(15) 0.14152(12) 0.24791(13) 0.0349(7) Uani 1 1 d . . . . .
H19 H 0.1647 0.1607 0.2704 0.042 Uiso 1 1 calc R U . . .
C20 C 0.12472(14) 0.09588(11) 0.26601(12) 0.0310(6) Uani 1 1 d . . . . .
C21 C 0.08618(17) 0.06763(13) 0.23364(14) 0.0423(8) Uani 1 1 d . . . . .
H21 H 0.0769 0.0363 0.2460 0.051 Uiso 1 1 calc R U . . .
C22 C 0.0612(2) 0.08541(15) 0.18289(16) 0.0576(11) Uani 1 1 d . . . . .
H22 H 0.0344 0.0664 0.1608 0.069 Uiso 1 1 calc R U . . .
C23 C 0.0755(2) 0.13075(15) 0.16473(16) 0.0590(11) Uani 1 1 d . . . . .
H23 H 0.0589 0.1425 0.1298 0.071 Uiso 1 1 calc R U . . .
C24 C 0.15128(13) 0.07825(10) 0.32177(12) 0.0273(6) Uani 1 1 d . . . . .
C25 C 0.2080(2) 0.41710(14) 0.02373(15) 0.0524(10) Uani 1 1 d . . . . .
H25A H 0.2091 0.4215 -0.0177 0.079 Uiso 1 1 calc R U . . .
H25B H 0.2480 0.4193 0.0405 0.079 Uiso 1 1 calc R U . . .
H25C H 0.1833 0.4420 0.0401 0.079 Uiso 1 1 calc R U . . .
C26 C 0.41522(13) 0.42176(10) 0.54868(12) 0.0268(6) Uani 1 1 d . . . . .
C27 C 0.47762(13) 0.41125(11) 0.53423(12) 0.0279(6) Uani 1 1 d . . . . .
C28 C 0.51873(13) 0.44861(11) 0.53630(13) 0.0311(6) Uani 1 1 d . . . . .
H28 H 0.5072 0.4796 0.5482 0.037 Uiso 1 1 calc R U . . .
C29 C 0.57603(13) 0.44023(12) 0.52106(14) 0.0346(7) Uani 1 1 d . . . . .
H29 H 0.6037 0.4656 0.5220 0.042 Uiso 1 1 calc R U . . .
C30 C 0.59323(14) 0.39542(12) 0.50454(14) 0.0348(7) Uani 1 1 d . . . . .
H30 H 0.6327 0.3902 0.4939 0.042 Uiso 1 1 calc R U . . .
C31 C 0.55308(13) 0.35711(12) 0.50320(13) 0.0331(7) Uani 1 1 d . . . . .
C32 C 0.49490(13) 0.36589(11) 0.51790(13) 0.0312(6) Uani 1 1 d . . . . .
H32 H 0.4670 0.3406 0.5167 0.037 Uiso 1 1 calc R U . . .
C33 C 0.57169(14) 0.31044(13) 0.48531(14) 0.0365(7) Uani 1 1 d . . . . .
C34 C 0.58895(14) 0.27262(13) 0.46848(14) 0.0369(7) Uani 1 1 d . . . . .
C35 C 0.60657(14) 0.22763(12) 0.44581(14) 0.0345(7) Uani 1 1 d . . . . .
C36 C 0.66622(13) 0.21731(11) 0.43875(13) 0.0295(6) Uani 1 1 d . . . . .
H36 H 0.6954 0.2402 0.4496 0.035 Uiso 1 1 calc R U . . .
C37 C 0.68284(13) 0.17387(11) 0.41604(13) 0.0298(6) Uani 1 1 d . . . . .
C38 C 0.64044(14) 0.14074(11) 0.39932(13) 0.0322(7) Uani 1 1 d . . . . .
H38 H 0.6521 0.1112 0.3832 0.039 Uiso 1 1 calc R U . . .
C39 C 0.58118(14) 0.15024(13) 0.40586(14) 0.0372(7) Uani 1 1 d . . . . .
C40 C 0.56277(15) 0.19424(14) 0.42982(17) 0.0469(9) Uani 1 1 d . . . . .
C41 C 0.53742(15) 0.11601(14) 0.38877(16) 0.0453(9) Uani 1 1 d . . . . .
C42 C 0.49833(15) 0.08923(15) 0.37430(17) 0.0475(9) Uani 1 1 d . . . . .
C43 C 0.45104(15) 0.05803(14) 0.35748(16) 0.0450(9) Uani 1 1 d . . . . .
C44 C 0.45989(18) 0.02162(18) 0.3186(2) 0.0662(14) Uani 1 1 d . . . . .
H44 H 0.4978 0.0167 0.3037 0.079 Uiso 1 1 calc R U . . .
C45 C 0.41338(19) -0.00763(19) 0.3014(2) 0.0709(15) Uani 1 1 d . . . . .
H45 H 0.4194 -0.0323 0.2744 0.085 Uiso 1 1 calc R U . . .
C46 C 0.35833(16) -0.00109(14) 0.32330(16) 0.0462(9) Uani 1 1 d . . . . .
H46 H 0.3266 -0.0211 0.3112 0.055 Uiso 1 1 calc R U . . .
C47 C 0.34950(13) 0.03450(11) 0.36270(13) 0.0314(6) Uani 1 1 d . . . . .
C48 C 0.39563(14) 0.06457(12) 0.37922(14) 0.0346(7) Uani 1 1 d . . . . .
H48 H 0.3892 0.0897 0.4055 0.042 Uiso 1 1 calc R U . . .
C49 C 0.28957(13) 0.04192(11) 0.38644(12) 0.0274(6) Uani 1 1 d . . . . .
C50 C 0.78435(15) 0.18578(14) 0.43975(19) 0.0482(9) Uani 1 1 d . . . . .
H50A H 0.8228 0.1712 0.4335 0.072 Uiso 1 1 calc R U . . .
H50B H 0.7761 0.1847 0.4805 0.072 Uiso 1 1 calc R U . . .
H50C H 0.7847 0.2191 0.4269 0.072 Uiso 1 1 calc R U . . .
N1 N 0.17987(19) 0.30775(13) 0.26058(12) 0.0644(11) Uani 1 1 d . . . . .
H1A H 0.1914 0.3262 0.2893 0.077 Uiso 1 1 calc R U . . .
H1B H 0.1673 0.2786 0.2672 0.077 Uiso 1 1 calc R U . . .
N2 N 0.50469(15) 0.20403(16) 0.4361(2) 0.0872(16) Uani 1 1 d . . . . .
H2A H 0.4939 0.2316 0.4503 0.105 Uiso 1 1 calc R U . . .
H2B H 0.4779 0.1827 0.4259 0.105 Uiso 1 1 calc R U . . .
O1 O 0.29880(9) 0.50117(7) 0.51366(8) 0.0254(4) Uani 1 1 d . . . . .
O2 O 0.28361(9) 0.42447(7) 0.48835(8) 0.0302(5) Uani 1 1 d . . . . .
O3 O 0.18389(13) 0.37116(9) 0.03596(9) 0.0471(6) Uani 1 1 d . . . . .
O4 O 0.18027(9) 0.10797(7) 0.35158(8) 0.0301(5) Uani 1 1 d . . . . .
O5 O 0.14180(9) 0.03531(7) 0.33468(8) 0.0306(5) Uani 1 1 d . . . . .
O6 O 0.40290(9) 0.46457(7) 0.55965(9) 0.0301(4) Uani 1 1 d . . . . .
O7 O 0.37974(9) 0.38709(7) 0.54879(9) 0.0307(4) Uani 1 1 d . . . . .
O8 O 0.73999(9) 0.16019(8) 0.40839(12) 0.0439(6) Uani 1 1 d . . . . .
O9 O 0.28132(9) 0.08053(7) 0.41281(9) 0.0309(5) Uani 1 1 d . . . . .
O10 O 0.25221(9) 0.00918(7) 0.37791(9) 0.0284(4) Uani 1 1 d . . . . .
O11 O 0.34456(9) 0.56175(7) 0.61241(8) 0.0277(4) Uani 1 1 d D . . . .
C51 C 0.35186(14) 0.57456(11) 0.66282(13) 0.0329(7) Uani 1 1 d D . . . .
H51 H 0.3560 0.5502 0.6909 0.040 Uiso 1 1 calc R U . . .
N3 N 0.35434(13) 0.61921(10) 0.68049(11) 0.0382(6) Uani 1 1 d D . . . .
C52 C 0.34664(19) 0.65882(12) 0.64076(16) 0.0479(9) Uani 1 1 d D . . . .
H52A H 0.3402 0.6464 0.6020 0.072 Uiso 1 1 calc R U . . .
H52B H 0.3820 0.6789 0.6422 0.072 Uiso 1 1 calc R U . . .
H52C H 0.3125 0.6779 0.6513 0.072 Uiso 1 1 calc R U . . .
C53 C 0.3641(2) 0.63154(15) 0.74040(15) 0.0544(10) Uani 1 1 d D . . . .
H53A H 0.3989 0.6522 0.7446 0.082 Uiso 1 1 calc R U . . .
H53B H 0.3705 0.6023 0.7628 0.082 Uiso 1 1 calc R U . . .
H53C H 0.3296 0.6484 0.7542 0.082 Uiso 1 1 calc R U . . .
O12 O 0.26949(15) 0.32644(9) 0.55433(14) 0.0665(9) Uani 1 1 d D . . . .
H12A H 0.2654 0.3013 0.5756 0.100 Uiso 0.5 1 d DR U P A 1
H12B H 0.2353 0.3283 0.5378 0.100 Uiso 0.5 1 d DR U P A 1
H12C H 0.2497 0.3033 0.5679 0.100 Uiso 0.5 1 d DR U P B 2
H12D H 0.2952 0.3137 0.5343 0.100 Uiso 0.5 1 d DR U P B 2
O13 O 0.2521(5) 0.2091(3) 0.3322(4) 0.132(4) Uani 0.549(5) 1 d D U P C 1
C54 C 0.2858(6) 0.1754(4) 0.3171(4) 0.110(4) Uani 0.549(5) 1 d D U P C 1
H54 H 0.2949 0.1503 0.3432 0.132 Uiso 0.549(5) 1 calc R U P C 1
N4 N 0.3080(5) 0.1748(4) 0.2666(3) 0.080(2) Uani 0.549(5) 1 d D U P C 1
C55 C 0.2960(6) 0.2121(5) 0.2254(5) 0.090(4) Uani 0.549(5) 1 d D U P C 1
H55A H 0.3306 0.2169 0.2021 0.135 Uiso 0.549(5) 1 calc R U P C 1
H55B H 0.2871 0.2419 0.2454 0.135 Uiso 0.549(5) 1 calc R U P C 1
H55C H 0.2622 0.2030 0.2008 0.135 Uiso 0.549(5) 1 calc R U P C 1
C56 C 0.3339(11) 0.1302(5) 0.2466(7) 0.170(10) Uani 0.549(5) 1 d D U P C 1
H56A H 0.3094 0.1172 0.2152 0.256 Uiso 0.549(5) 1 calc R U P C 1
H56B H 0.3361 0.1072 0.2781 0.256 Uiso 0.549(5) 1 calc R U P C 1
H56C H 0.3736 0.1365 0.2333 0.256 Uiso 0.549(5) 1 calc R U P C 1
O13B O 0.3956(4) 0.1815(3) 0.3562(4) 0.099(3) Uani 0.451(5) 1 d D U P C 2
C54B C 0.3682(7) 0.2067(5) 0.3209(6) 0.114(5) Uani 0.451(5) 1 d D U P C 2
H54B H 0.3753 0.2400 0.3243 0.137 Uiso 0.451(5) 1 calc R U P C 2
N4B N 0.3309(6) 0.1946(5) 0.2796(5) 0.092(4) Uani 0.451(5) 1 d D U P C 2
C55B C 0.3134(9) 0.1444(6) 0.2703(8) 0.107(5) Uani 0.451(5) 1 d D U P C 2
H55D H 0.2925 0.1414 0.2333 0.160 Uiso 0.451(5) 1 calc R U P C 2
H55E H 0.2875 0.1343 0.3007 0.160 Uiso 0.451(5) 1 calc R U P C 2
H55F H 0.3486 0.1241 0.2709 0.160 Uiso 0.451(5) 1 calc R U P C 2
C56B C 0.3093(15) 0.2313(8) 0.2412(13) 0.202(16) Uani 0.451(5) 1 d D U P C 2
H56D H 0.3364 0.2350 0.2098 0.303 Uiso 0.451(5) 1 calc R U P C 2
H56E H 0.3066 0.2616 0.2620 0.303 Uiso 0.451(5) 1 calc R U P C 2
H56F H 0.2702 0.2224 0.2258 0.303 Uiso 0.451(5) 1 calc R U P C 2
O14 O 0.0443(7) 0.2541(4) 0.4561(6) 0.193(8) Uani 0.549(5) 1 d D U P C 1
C57 C 0.0238(8) 0.2611(9) 0.4068(8) 0.142(8) Uani 0.549(5) 1 d D U P C 1
H57 H -0.0108 0.2795 0.3994 0.170 Uiso 0.549(5) 1 calc R U P C 1
N5 N 0.0531(6) 0.2414(5) 0.3661(5) 0.103(5) Uani 0.549(5) 1 d D U P C 1
C58 C 0.1117(7) 0.2226(6) 0.3765(8) 0.155(7) Uani 0.549(5) 1 d D U P C 1
H58A H 0.1377 0.2343 0.3470 0.233 Uiso 0.549(5) 1 calc R U P C 1
H58B H 0.1104 0.1876 0.3755 0.233 Uiso 0.549(5) 1 calc R U P C 1
H58C H 0.1266 0.2332 0.4141 0.233 Uiso 0.549(5) 1 calc R U P C 1
C59 C 0.0348(5) 0.2361(6) 0.3099(4) 0.135(6) Uani 0.549(5) 1 d D U P C 1
H59A H 0.0678 0.2426 0.2852 0.202 Uiso 0.549(5) 1 calc R U P C 1
H59B H 0.0028 0.2586 0.3011 0.202 Uiso 0.549(5) 1 calc R U P C 1
H59C H 0.0208 0.2034 0.3035 0.202 Uiso 0.549(5) 1 calc R U P C 1
O14B O 0.1448(9) 0.2353(7) 0.3419(9) 0.172(10) Uani 0.313(8) 1 d D U P D 2
C57B C 0.1075(11) 0.2587(9) 0.3706(15) 0.156(10) Uani 0.313(8) 1 d D U P D 2
H57B H 0.1143 0.2914 0.3797 0.187 Uiso 0.313(8) 1 calc R U P D 2
N5B N 0.0591(9) 0.2370(7) 0.3875(12) 0.118(8) Uani 0.313(8) 1 d D U P D 2
C58B C 0.0572(9) 0.1936(7) 0.3535(12) 0.155(11) Uani 0.313(8) 1 d D U P D 2
H58D H 0.0651 0.2013 0.3137 0.233 Uiso 0.313(8) 1 calc R U P D 2
H58E H 0.0181 0.1790 0.3556 0.233 Uiso 0.313(8) 1 calc R U P D 2
H58F H 0.0871 0.1711 0.3684 0.233 Uiso 0.313(8) 1 calc R U P D 2
C59B C 0.0038(9) 0.2574(9) 0.3996(10) 0.081(7) Uani 0.313(8) 1 d D U P D 2
H59D H 0.0024 0.2905 0.3859 0.122 Uiso 0.313(8) 1 calc R U P D 2
H59E H -0.0017 0.2569 0.4409 0.122 Uiso 0.313(8) 1 calc R U P D 2
H59F H -0.0276 0.2389 0.3804 0.122 Uiso 0.313(8) 1 calc R U P D 2
O15 O 0.1390(10) 0.3656(6) 0.3754(8) 0.121(6) Uani 0.358(8) 1 d D U P E 1
C60 C 0.1218(10) 0.4071(6) 0.3742(9) 0.113(6) Uani 0.358(8) 1 d D U P E 1
H60 H 0.0978 0.4123 0.3408 0.135 Uiso 0.358(8) 1 calc R U P E 1
N6 N 0.1259(17) 0.4462(6) 0.4039(7) 0.145(9) Uani 0.358(8) 1 d D U P E 1
C61 C 0.1309(7) 0.4490(7) 0.4659(5) 0.091(5) Uani 0.358(8) 1 d D U P E 1
H61A H 0.1029 0.4726 0.4796 0.136 Uiso 0.358(8) 1 calc R U P E 1
H61B H 0.1711 0.4585 0.4775 0.136 Uiso 0.358(8) 1 calc R U P E 1
H61C H 0.1222 0.4177 0.4823 0.136 Uiso 0.358(8) 1 calc R U P E 1
C62 C 0.1133(8) 0.4930(6) 0.3799(8) 0.100(6) Uani 0.358(8) 1 d D U P E 1
H62A H 0.1371 0.4980 0.3462 0.149 Uiso 0.358(8) 1 calc R U P E 1
H62B H 0.1229 0.5176 0.4084 0.149 Uiso 0.358(8) 1 calc R U P E 1
H62C H 0.0714 0.4950 0.3687 0.149 Uiso 0.358(8) 1 calc R U P E 1
O15B O 0.1454(11) 0.3599(8) 0.4220(9) 0.097(6) Uani 0.229(8) 1 d D U P F 2
C60B C 0.1336(17) 0.4017(8) 0.4369(13) 0.131(8) Uani 0.229(8) 1 d D U P F 2
H60B H 0.1326 0.4048 0.4773 0.157 Uiso 0.229(8) 1 calc R U P F 2
N6B N 0.1225(12) 0.4417(6) 0.4114(7) 0.065(5) Uani 0.229(8) 1 d D U P F 2
C61B C 0.1070(15) 0.4428(12) 0.3508(8) 0.117(10) Uani 0.229(8) 1 d D U P F 2
H61D H 0.1050 0.4101 0.3360 0.176 Uiso 0.229(8) 1 calc R U P F 2
H61E H 0.1369 0.4607 0.3305 0.176 Uiso 0.229(8) 1 calc R U P F 2
H61F H 0.0686 0.4583 0.3449 0.176 Uiso 0.229(8) 1 calc R U P F 2
C62B C 0.1019(16) 0.4872(9) 0.4345(13) 0.120(10) Uani 0.229(8) 1 d D U P F 2
H62D H 0.1118 0.5132 0.4086 0.180 Uiso 0.229(8) 1 calc R U P F 2
H62E H 0.1210 0.4928 0.4720 0.180 Uiso 0.229(8) 1 calc R U P F 2
H62F H 0.0591 0.4859 0.4385 0.180 Uiso 0.229(8) 1 calc R U P F 2
O15C O 0.2705(9) 0.3250(10) 0.3539(10) 0.094(7) Uani 0.163(7) 1 d D U P G 6
C60C C 0.2213(8) 0.3254(9) 0.3776(7) 0.046(6) Uani 0.163(7) 1 d D U P G 6
H60C H 0.2173 0.2957 0.3967 0.055 Uiso 0.163(7) 1 calc R U P G 6
N6C N 0.1741(9) 0.3501(12) 0.3862(13) 0.103(9) Uani 0.163(7) 1 d D U P G 6
C61C C 0.1150(10) 0.3367(15) 0.3645(11) 0.170(17) Uani 0.163(7) 1 d D U P G 6
H61G H 0.1182 0.3120 0.3351 0.256 Uiso 0.163(7) 1 calc R U P G 6
H61H H 0.0952 0.3649 0.3479 0.256 Uiso 0.163(7) 1 calc R U P G 6
H61I H 0.0920 0.3244 0.3959 0.256 Uiso 0.163(7) 1 calc R U P G 6
C62C C 0.1630(14) 0.3762(13) 0.4391(14) 0.125(12) Uani 0.163(7) 1 d D U P G 6
H62G H 0.1215 0.3856 0.4394 0.187 Uiso 0.163(7) 1 calc R U P G 6
H62H H 0.1879 0.4047 0.4412 0.187 Uiso 0.163(7) 1 calc R U P G 6
H62I H 0.1722 0.3556 0.4720 0.187 Uiso 0.163(7) 1 calc R U P G 6
O15D O 0.1421(10) 0.3297(9) 0.5308(9) 0.061(7) Uani 0.139(8) 1 d D U P H 7
C60D C 0.137(3) 0.3581(14) 0.4882(13) 0.107(10) Uani 0.139(8) 1 d D U P H 7
H60D H 0.1257 0.3901 0.4949 0.129 Uiso 0.139(8) 1 calc R U P H 7
N6D N 0.148(2) 0.3452(16) 0.4349(12) 0.103(9) Uani 0.139(8) 1 d D U P H 7
C61D C 0.172(3) 0.2973(17) 0.428(2) 0.135(14) Uani 0.139(8) 1 d D U P H 7
H61J H 0.1424 0.2774 0.4077 0.202 Uiso 0.139(8) 1 calc R U P H 7
H61K H 0.1812 0.2834 0.4655 0.202 Uiso 0.139(8) 1 calc R U P H 7
H61L H 0.2076 0.2988 0.4057 0.202 Uiso 0.139(8) 1 calc R U P H 7
C62D C 0.116(3) 0.365(2) 0.3863(17) 0.097(13) Uani 0.139(8) 1 d D U P H 7
H62J H 0.1339 0.3535 0.3511 0.145 Uiso 0.139(8) 1 calc R U P H 7
H62K H 0.1186 0.3998 0.3877 0.145 Uiso 0.139(8) 1 calc R U P H 7
H62L H 0.0752 0.3548 0.3870 0.145 Uiso 0.139(8) 1 calc R U P H 7
O15E O 0.1810(17) 0.2615(11) 0.5381(15) 0.250(16) Uani 0.295(9) 1 d D U P I 8
C60E C 0.1548(8) 0.3014(10) 0.5335(11) 0.126(9) Uani 0.295(9) 1 d D U P I 8
H60E H 0.1309 0.3104 0.5642 0.151 Uiso 0.295(9) 1 calc R U P I 8
N6E N 0.1573(11) 0.3312(10) 0.4911(11) 0.152(8) Uani 0.295(9) 1 d D U P I 8
C61E C 0.1967(14) 0.3262(12) 0.4438(13) 0.162(10) Uani 0.295(9) 1 d D U P I 8
H61M H 0.2330 0.3103 0.4572 0.244 Uiso 0.295(9) 1 calc R U P I 8
H61N H 0.2061 0.3578 0.4287 0.244 Uiso 0.295(9) 1 calc R U P I 8
H61O H 0.1775 0.3070 0.4136 0.244 Uiso 0.295(9) 1 calc R U P I 8
C62E C 0.1134(13) 0.3691(10) 0.4829(13) 0.145(10) Uani 0.295(9) 1 d D U P I 8
H62M H 0.1329 0.4002 0.4846 0.217 Uiso 0.295(9) 1 calc R U P I 8
H62N H 0.0846 0.3671 0.5131 0.217 Uiso 0.295(9) 1 calc R U P I 8
H62O H 0.0932 0.3651 0.4456 0.217 Uiso 0.295(9) 1 calc R U P I 8
O16 O 0.5222(6) 0.2977(4) 0.2778(6) 0.155(4) Uani 0.5 1 d D U P J -1
C63 C 0.5198(9) 0.2527(5) 0.2797(7) 0.132(5) Uani 0.5 1 d D U P J -1
H63 H 0.5385 0.2380 0.3120 0.158 Uiso 0.5 1 calc R U P J -1
N7 N 0.4944(13) 0.2240(4) 0.2420(10) 0.115(4) Uani 0.5 1 d D U P J -1
C64 C 0.4561(11) 0.2441(7) 0.1962(8) 0.190(10) Uani 0.5 1 d D U P J -1
H64A H 0.4737 0.2736 0.1821 0.285 Uiso 0.5 1 calc R U P J -1
H64B H 0.4173 0.2511 0.2112 0.285 Uiso 0.5 1 calc R U P J -1
H64C H 0.4520 0.2210 0.1650 0.285 Uiso 0.5 1 calc R U P J -1
C65 C 0.4837(9) 0.1732(4) 0.2434(12) 0.126(6) Uani 0.5 1 d D U P J -1
H65A H 0.4501 0.1654 0.2178 0.189 Uiso 0.5 1 calc R U P J -1
H65B H 0.4749 0.1636 0.2824 0.189 Uiso 0.5 1 calc R U P J -1
H65C H 0.5187 0.1562 0.2311 0.189 Uiso 0.5 1 calc R U P J -1
O17 O 0.4294(7) 0.3074(5) 0.3865(7) 0.104(5) Uani 0.288(8) 1 d D U P K 1
C66 C 0.4076(10) 0.3483(6) 0.3943(12) 0.118(8) Uani 0.288(8) 1 d D U P K 1
H66 H 0.3694 0.3524 0.4087 0.142 Uiso 0.288(8) 1 calc R U P K 1
N8 N 0.4414(7) 0.3853(5) 0.3810(7) 0.069(4) Uani 0.288(8) 1 d D U P K 1
C67 C 0.4934(7) 0.3716(7) 0.3528(7) 0.063(4) Uani 0.288(8) 1 d D U P K 1
H67A H 0.4846 0.3445 0.3275 0.094 Uiso 0.288(8) 1 calc R U P K 1
H67B H 0.5239 0.3624 0.3813 0.094 Uiso 0.288(8) 1 calc R U P K 1
H67C H 0.5075 0.3985 0.3302 0.094 Uiso 0.288(8) 1 calc R U P K 1
C68 C 0.4224(11) 0.4341(6) 0.3878(9) 0.077(6) Uani 0.288(8) 1 d D U P K 1
H68A H 0.3887 0.4404 0.3617 0.115 Uiso 0.288(8) 1 calc R U P K 1
H68B H 0.4548 0.4557 0.3790 0.115 Uiso 0.288(8) 1 calc R U P K 1
H68C H 0.4109 0.4392 0.4272 0.115 Uiso 0.288(8) 1 calc R U P K 1
O17B O 0.4960(7) 0.4254(7) 0.2830(6) 0.117(6) Uani 0.321(9) 1 d D U P L -2
C66B C 0.4864(8) 0.4184(6) 0.3354(6) 0.077(4) Uani 0.321(9) 1 d D U P L -2
H66B H 0.5098 0.4399 0.3578 0.092 Uiso 0.321(9) 1 calc R U P L -2
N8B N 0.4557(10) 0.3920(7) 0.3689(11) 0.121(8) Uani 0.321(9) 1 d D U P L -2
C67B C 0.4664(11) 0.3405(7) 0.3716(10) 0.125(8) Uani 0.321(9) 1 d D U P L -2
H67D H 0.4646 0.3272 0.3329 0.188 Uiso 0.321(9) 1 calc R U P L -2
H67E H 0.4363 0.3254 0.3945 0.188 Uiso 0.321(9) 1 calc R U P L -2
H67F H 0.5054 0.3345 0.3892 0.188 Uiso 0.321(9) 1 calc R U P L -2
C68B C 0.3995(9) 0.4041(11) 0.3930(10) 0.118(8) Uani 0.321(9) 1 d D U P L -2
H68D H 0.3762 0.4232 0.3654 0.177 Uiso 0.321(9) 1 calc R U P L -2
H68E H 0.4062 0.4224 0.4282 0.177 Uiso 0.321(9) 1 calc R U P L -2
H68F H 0.3780 0.3747 0.4015 0.177 Uiso 0.321(9) 1 calc R U P L -2
O17C O 0.3679(13) 0.3281(12) 0.4139(14) 0.196(11) Uani 0.276(8) 1 d D U P M 3
C66C C 0.3279(11) 0.3033(12) 0.4385(12) 0.139(9) Uani 0.276(8) 1 d D U P M 3
H66C H 0.3343 0.2933 0.4770 0.167 Uiso 0.276(8) 1 calc R U P M 3
N8C N 0.2778(10) 0.2914(8) 0.4106(11) 0.146(8) Uani 0.276(8) 1 d D U P M 3
C67C C 0.2783(16) 0.2460(7) 0.3815(14) 0.26(3) Uani 0.276(8) 1 d D U P M 3
H67G H 0.2399 0.2405 0.3624 0.394 Uiso 0.276(8) 1 calc R U P M 3
H67H H 0.2864 0.2205 0.4093 0.394 Uiso 0.276(8) 1 calc R U P M 3
H67I H 0.3091 0.2462 0.3531 0.394 Uiso 0.276(8) 1 calc R U P M 3
C68C C 0.2380(9) 0.3239(6) 0.3845(7) 0.097(8) Uani 0.276(8) 1 d D U P M 3
H68G H 0.2550 0.3367 0.3498 0.146 Uiso 0.276(8) 1 calc R U P M 3
H68H H 0.2303 0.3501 0.4110 0.146 Uiso 0.276(8) 1 calc R U P M 3
H68I H 0.2010 0.3074 0.3745 0.146 Uiso 0.276(8) 1 calc R U P M 3
O17D O 0.4084(7) 0.2609(7) 0.4752(9) 0.128(7) Uani 0.291(7) 1 d D U P G 6
C66D C 0.3679(10) 0.2855(9) 0.4559(8) 0.102(7) Uani 0.291(7) 1 d D U P G 6
H66D H 0.3444 0.3016 0.4827 0.123 Uiso 0.291(7) 1 calc R U P G 6
N8D N 0.3536(9) 0.2919(7) 0.4004(7) 0.099(5) Uani 0.291(7) 1 d D U P G 6
C67D C 0.3810(14) 0.2672(11) 0.3542(11) 0.163(13) Uani 0.291(7) 1 d D U P G 6
H67J H 0.3534 0.2655 0.3213 0.245 Uiso 0.291(7) 1 calc R U P G 6
H67K H 0.3918 0.2348 0.3664 0.245 Uiso 0.291(7) 1 calc R U P G 6
H67L H 0.4164 0.2846 0.3435 0.245 Uiso 0.291(7) 1 calc R U P G 6
C68D C 0.3060(9) 0.3223(9) 0.3838(11) 0.136(8) Uani 0.291(7) 1 d D U P G 6
H68J H 0.3076 0.2899 0.3995 0.203 Uiso 0.291(7) 1 calc R U P G 6
H68K H 0.3006 0.3452 0.4148 0.203 Uiso 0.291(7) 1 calc R U P G 6
H68L H 0.3429 0.3293 0.3649 0.203 Uiso 0.291(7) 1 calc R U P G 6
O17E O 0.5155(6) 0.4576(4) 0.2555(8) 0.094(5) Uani 0.353(8) 1 d D U P N -5
C66E C 0.5050(12) 0.4663(10) 0.3060(9) 0.170(10) Uani 0.353(8) 1 d D U P N -5
H66E H 0.5208 0.4960 0.3189 0.204 Uiso 0.353(8) 1 calc R U P N -5
N8E N 0.4773(9) 0.4436(7) 0.3448(7) 0.165(8) Uani 0.353(8) 1 d D U P N -5
C67E C 0.5061(8) 0.4047(9) 0.3725(10) 0.119(7) Uani 0.353(8) 1 d D U P N -5
H67M H 0.5365 0.3920 0.3479 0.179 Uiso 0.353(8) 1 calc R U P N -5
H67N H 0.4774 0.3796 0.3802 0.179 Uiso 0.353(8) 1 calc R U P N -5
H67O H 0.5245 0.4156 0.4086 0.179 Uiso 0.353(8) 1 calc R U P N -5
C68E C 0.4194(9) 0.4530(10) 0.3641(12) 0.141(9) Uani 0.353(8) 1 d D U P N -5
H68M H 0.3955 0.4671 0.3329 0.211 Uiso 0.353(8) 1 calc R U P N -5
H68N H 0.4218 0.4752 0.3964 0.211 Uiso 0.353(8) 1 calc R U P N -5
H68O H 0.4013 0.4230 0.3762 0.211 Uiso 0.353(8) 1 calc R U P N -5
Cu1 Cu 0.29721(2) 0.39876(2) 0.56622(2) 0.02300(12) Uani 1 1 d . . . . .
Cu2 Cu 0.32843(2) 0.48777(2) 0.59145(2) 0.02166(12) Uani 1 1 d . . . . .
loop_
_atom_site_aniso_label
_atom_site_aniso_U_11
_atom_site_aniso_U_22
_atom_site_aniso_U_33
_atom_site_aniso_U_23
_atom_site_aniso_U_13
_atom_site_aniso_U_12
C1 0.0238(13) 0.0284(15) 0.0222(14) -0.0019(11) -0.0005(11) -0.0007(11)
C2 0.0288(14) 0.0321(15) 0.0202(14) 0.0002(11) -0.0023(11) -0.0012(12)
C3 0.0357(16) 0.0337(16) 0.0258(15) -0.0014(12) -0.0027(12) -0.0035(13)
C4 0.054(2) 0.0359(17) 0.0276(16) 0.0064(13) -0.0030(14) -0.0084(15)
C5 0.054(2) 0.0441(19) 0.0217(15) 0.0045(13) -0.0039(14) -0.0034(16)
C6 0.0395(17) 0.0372(17) 0.0219(15) -0.0027(12) -0.0057(12) 0.0011(13)
C7 0.0358(16) 0.0298(15) 0.0228(14) -0.0015(12) -0.0043(12) 0.0006(12)
C8 0.0485(19) 0.0395(18) 0.0223(15) 0.0006(13) -0.0070(13) 0.0036(15)
C9 0.0485(19) 0.0408(18) 0.0216(15) 0.0004(13) -0.0054(13) 0.0018(15)
C10 0.0443(18) 0.0385(17) 0.0226(15) -0.0032(13) -0.0055(13) 0.0000(14)
C11 0.0465(18) 0.0334(16) 0.0245(15) -0.0019(13) -0.0028(13) -0.0066(14)
C12 0.0482(19) 0.0356(17) 0.0190(14) 0.0014(12) -0.0004(13) -0.0077(14)
C13 0.0491(19) 0.0332(16) 0.0215(15) 0.0003(12) -0.0051(13) -0.0060(14)
C14 0.052(2) 0.0342(17) 0.0240(15) 0.0058(13) -0.0034(14) -0.0035(14)
C15 0.056(2) 0.0417(19) 0.0213(15) 0.0048(13) -0.0041(14) -0.0007(16)
C16 0.063(2) 0.042(2) 0.0234(16) 0.0087(14) -0.0072(15) -0.0036(17)
C17 0.071(2) 0.041(2) 0.0266(17) 0.0112(14) -0.0094(16) -0.0059(18)
C18 0.065(2) 0.0390(19) 0.0269(16) 0.0113(14) -0.0054(15) -0.0067(16)
C19 0.0474(18) 0.0342(17) 0.0230(15) 0.0036(12) -0.0014(13) -0.0039(14)
C20 0.0420(17) 0.0321(16) 0.0188(14) 0.0049(12) -0.0004(12) -0.0004(13)
C21 0.062(2) 0.0361(18) 0.0286(17) 0.0083(14) -0.0082(15) -0.0096(16)
C22 0.086(3) 0.051(2) 0.0339(19) 0.0091(17) -0.0249(19) -0.023(2)
C23 0.092(3) 0.053(2) 0.0302(18) 0.0149(17) -0.0221(19) -0.015(2)
C24 0.0328(15) 0.0271(15) 0.0221(14) 0.0013(11) 0.0035(12) 0.0012(12)
C25 0.089(3) 0.042(2) 0.0265(17) 0.0049(15) 0.0004(18) -0.027(2)
C26 0.0321(15) 0.0292(15) 0.0190(13) 0.0048(11) -0.0017(11) -0.0011(12)
C27 0.0305(15) 0.0334(16) 0.0195(13) 0.0051(11) -0.0017(11) 0.0005(12)
C28 0.0334(16) 0.0310(16) 0.0286(15) 0.0087(12) -0.0025(12) 0.0019(12)
C29 0.0289(15) 0.0371(17) 0.0377(17) 0.0122(14) -0.0014(13) -0.0045(13)
C30 0.0279(15) 0.0425(18) 0.0341(17) 0.0042(14) 0.0031(13) 0.0025(13)
C31 0.0306(15) 0.0408(18) 0.0280(15) -0.0005(13) 0.0008(12) 0.0031(13)
C32 0.0301(15) 0.0352(16) 0.0283(15) -0.0001(12) 0.0012(12) -0.0019(12)
C33 0.0269(15) 0.0444(19) 0.0384(17) -0.0050(15) 0.0038(13) -0.0013(14)
C34 0.0296(16) 0.045(2) 0.0363(17) -0.0053(15) 0.0059(13) -0.0020(14)
C35 0.0320(16) 0.0381(17) 0.0336(16) -0.0046(13) 0.0033(13) -0.0015(13)
C36 0.0277(15) 0.0311(15) 0.0294(15) 0.0005(12) -0.0014(12) -0.0042(12)
C37 0.0256(14) 0.0308(15) 0.0328(16) 0.0009(12) -0.0028(12) -0.0005(12)
C38 0.0344(16) 0.0330(16) 0.0289(15) -0.0021(12) -0.0022(12) -0.0028(13)
C39 0.0292(16) 0.0463(19) 0.0362(17) -0.0061(14) 0.0035(13) -0.0100(14)
C40 0.0290(17) 0.056(2) 0.056(2) -0.0194(18) 0.0102(15) -0.0083(15)
C41 0.0318(17) 0.053(2) 0.051(2) -0.0159(17) 0.0070(15) -0.0083(16)
C42 0.0314(17) 0.058(2) 0.054(2) -0.0168(18) 0.0081(15) -0.0081(16)
C43 0.0321(17) 0.053(2) 0.050(2) -0.0146(17) 0.0041(15) -0.0111(15)
C44 0.039(2) 0.084(3) 0.078(3) -0.043(3) 0.025(2) -0.020(2)
C45 0.046(2) 0.088(3) 0.080(3) -0.053(3) 0.022(2) -0.023(2)
C46 0.0385(18) 0.055(2) 0.046(2) -0.0200(17) 0.0080(15) -0.0183(16)
C47 0.0307(15) 0.0360(17) 0.0274(15) -0.0007(12) 0.0010(12) -0.0061(13)
C48 0.0318(16) 0.0373(17) 0.0347(17) -0.0072(13) 0.0008(13) -0.0049(13)
C49 0.0303(15) 0.0298(15) 0.0219(14) 0.0020(11) -0.0024(11) -0.0041(12)
C50 0.0260(16) 0.044(2) 0.074(3) -0.0080(18) -0.0079(16) -0.0040(14)
N1 0.119(3) 0.053(2) 0.0202(14) 0.0091(14) -0.0134(17) -0.015(2)
N2 0.0312(17) 0.083(3) 0.149(4) -0.066(3) 0.020(2) -0.0113(17)
O1 0.0312(10) 0.0243(10) 0.0203(9) -0.0017(8) -0.0025(8) -0.0008(8)
O2 0.0436(12) 0.0251(10) 0.0215(10) -0.0025(8) -0.0045(8) -0.0054(9)
O3 0.0838(19) 0.0384(13) 0.0189(11) 0.0027(9) -0.0029(11) -0.0265(12)
O4 0.0391(11) 0.0275(10) 0.0236(10) 0.0043(8) -0.0030(9) -0.0059(9)
O5 0.0419(12) 0.0241(10) 0.0253(10) 0.0035(8) -0.0047(9) -0.0020(9)
O6 0.0297(10) 0.0263(11) 0.0343(11) 0.0023(9) 0.0021(8) 0.0007(8)
O7 0.0305(11) 0.0283(11) 0.0334(11) -0.0006(9) 0.0030(9) -0.0014(8)
O8 0.0255(11) 0.0384(13) 0.0673(17) -0.0147(12) -0.0045(10) 0.0003(9)
O9 0.0281(10) 0.0310(11) 0.0334(11) -0.0042(9) -0.0010(8) -0.0054(8)
O10 0.0274(10) 0.0271(10) 0.0308(11) -0.0009(8) 0.0020(8) -0.0052(8)
O11 0.0377(11) 0.0215(10) 0.0238(10) -0.0018(8) -0.0010(8) -0.0052(8)
C51 0.0423(17) 0.0261(15) 0.0302(16) -0.0004(12) -0.0016(13) -0.0058(13)
N3 0.0567(17) 0.0289(14) 0.0292(14) -0.0076(11) 0.0026(12) -0.0089(12)
C52 0.076(3) 0.0257(17) 0.042(2) -0.0041(14) 0.0075(18) -0.0086(16)
C53 0.081(3) 0.049(2) 0.0332(19) -0.0136(16) 0.0000(18) -0.013(2)
O12 0.093(2) 0.0318(14) 0.076(2) -0.0182(13) 0.0237(17) -0.0258(14)
O13 0.186(9) 0.091(6) 0.124(7) -0.001(5) 0.053(6) -0.046(5)
C54 0.173(11) 0.085(7) 0.073(5) 0.010(5) 0.033(6) -0.037(6)
N4 0.103(7) 0.083(6) 0.053(4) 0.023(4) 0.002(4) -0.021(5)
C55 0.079(7) 0.102(8) 0.088(7) 0.042(6) 0.002(6) -0.008(6)
C56 0.32(3) 0.113(9) 0.076(9) 0.028(7) 0.036(11) 0.072(13)
O13B 0.083(6) 0.090(6) 0.122(7) 0.007(5) -0.037(5) -0.015(5)
C54B 0.116(10) 0.108(9) 0.115(9) -0.009(7) -0.035(8) 0.024(7)
N4B 0.099(8) 0.082(7) 0.094(7) 0.022(5) -0.024(6) -0.012(6)
C55B 0.129(14) 0.099(9) 0.092(12) 0.027(8) -0.004(9) -0.016(8)
C56B 0.24(3) 0.145(15) 0.21(2) 0.080(14) -0.11(2) -0.020(14)
O14 0.281(18) 0.106(8) 0.204(14) -0.006(9) 0.182(14) -0.008(9)
C57 0.085(11) 0.137(15) 0.21(2) 0.018(15) 0.056(13) -0.001(10)
N5 0.099(8) 0.079(8) 0.134(9) 0.052(7) 0.062(7) 0.009(6)
C58 0.184(16) 0.112(12) 0.175(16) 0.067(11) 0.085(13) 0.062(11)
C59 0.105(10) 0.115(11) 0.190(16) -0.035(11) 0.078(11) -0.010(8)
O14B 0.203(18) 0.149(15) 0.173(17) -0.100(13) 0.142(15) -0.089(14)
C57B 0.19(2) 0.112(17) 0.17(2) -0.019(17) 0.068(18) -0.010(17)
N5B 0.107(13) 0.050(10) 0.201(18) 0.002(13) 0.087(13) -0.005(9)
C58B 0.26(3) 0.095(17) 0.113(19) -0.019(15) 0.01(2) 0.050(19)
C59B 0.101(18) 0.073(12) 0.069(11) -0.002(9) -0.016(11) -0.015(12)
O15 0.148(13) 0.103(10) 0.113(11) 0.005(8) 0.011(10) -0.003(10)
C60 0.109(9) 0.109(9) 0.120(9) -0.021(8) 0.008(8) -0.005(8)
N6 0.136(11) 0.155(11) 0.144(12) -0.017(8) 0.010(8) -0.003(8)
C61 0.063(8) 0.157(14) 0.051(7) -0.014(8) -0.009(6) 0.015(9)
C62 0.074(9) 0.095(11) 0.130(13) 0.016(10) 0.003(9) 0.039(8)
O15B 0.101(11) 0.132(13) 0.056(9) -0.033(9) -0.006(9) -0.026(11)
C60B 0.123(11) 0.132(11) 0.138(11) -0.001(9) -0.003(8) -0.007(8)
N6B 0.052(7) 0.090(9) 0.053(7) -0.011(7) 0.007(6) -0.018(7)
C61B 0.107(16) 0.142(18) 0.102(16) 0.014(14) 0.012(13) 0.022(14)
C62B 0.141(17) 0.126(17) 0.096(15) -0.028(13) 0.040(14) 0.016(14)
O15C 0.107(10) 0.096(10) 0.077(10) -0.001(8) -0.034(8) 0.004(8)
C60C 0.060(9) 0.051(9) 0.024(8) 0.003(7) -0.024(7) -0.012(7)
N6C 0.102(11) 0.110(12) 0.096(12) 0.001(9) 0.002(9) -0.012(9)
C61C 0.17(2) 0.17(2) 0.16(2) 0.003(17) 0.013(17) -0.007(17)
C62C 0.127(18) 0.118(17) 0.129(18) -0.019(15) -0.003(15) 0.007(15)
O15D 0.060(9) 0.065(10) 0.058(9) -0.019(7) -0.005(7) -0.037(7)
C60D 0.104(12) 0.106(12) 0.112(12) -0.007(9) 0.001(9) 0.001(9)
N6D 0.103(12) 0.106(12) 0.099(12) 0.006(9) -0.003(9) -0.007(9)
C61D 0.14(2) 0.14(2) 0.13(2) -0.017(16) 0.001(16) -0.021(16)
C62D 0.099(19) 0.087(18) 0.105(19) 0.006(15) 0.014(15) -0.024(15)
O15E 0.27(2) 0.23(2) 0.26(2) 0.002(17) 0.078(17) 0.023(17)
C60E 0.123(12) 0.125(12) 0.128(12) 0.013(9) -0.002(9) -0.002(9)
N6E 0.145(11) 0.159(11) 0.150(11) -0.005(9) -0.008(8) -0.028(8)
C61E 0.159(16) 0.139(15) 0.187(17) -0.052(14) -0.025(14) -0.028(14)
C62E 0.185(18) 0.124(15) 0.123(15) -0.008(13) -0.033(14) -0.025(14)
O16 0.172(11) 0.126(7) 0.166(10) -0.016(6) 0.017(8) -0.050(6)
C63 0.143(9) 0.128(7) 0.124(8) -0.008(6) 0.004(7) -0.032(6)
N7 0.125(8) 0.094(5) 0.124(8) 0.000(6) -0.009(6) 0.000(6)
C64 0.214(16) 0.162(13) 0.189(14) 0.014(10) -0.066(12) 0.003(11)
C65 0.141(16) 0.103(6) 0.135(12) -0.005(7) 0.007(11) 0.000(7)
O17 0.113(11) 0.076(9) 0.123(11) 0.001(8) -0.008(9) -0.026(8)
C66 0.121(11) 0.126(11) 0.108(11) -0.004(9) 0.002(8) -0.005(9)
N8 0.073(8) 0.088(8) 0.045(6) 0.000(6) -0.002(6) 0.018(6)
C67 0.074(10) 0.070(10) 0.043(8) -0.007(7) -0.004(7) 0.021(8)
C68 0.106(13) 0.066(11) 0.057(9) -0.012(8) -0.010(9) 0.028(9)
O17B 0.115(10) 0.124(11) 0.109(10) 0.002(9) -0.024(9) -0.040(9)
C66B 0.101(8) 0.069(7) 0.057(7) -0.005(6) -0.031(6) -0.016(7)
N8B 0.111(10) 0.143(10) 0.108(10) -0.009(8) 0.000(8) -0.003(8)
C67B 0.129(14) 0.145(16) 0.100(13) -0.032(12) -0.032(11) -0.015(13)
C68B 0.097(13) 0.163(17) 0.094(12) -0.002(13) -0.004(11) 0.033(13)
O17C 0.197(17) 0.195(17) 0.194(17) -0.023(14) -0.023(14) -0.059(14)
C66C 0.134(11) 0.139(12) 0.145(12) -0.016(9) 0.002(9) -0.001(9)
N8C 0.137(10) 0.154(11) 0.146(10) 0.004(8) 0.003(8) 0.000(8)
C67C 0.26(3) 0.24(3) 0.29(3) -0.024(19) 0.004(19) -0.026(19)
C68C 0.095(13) 0.089(13) 0.111(15) -0.009(12) 0.033(12) -0.030(11)
O17D 0.083(9) 0.123(12) 0.179(15) -0.034(11) 0.011(10) 0.014(9)
C66D 0.111(10) 0.100(10) 0.094(9) -0.008(8) -0.016(8) 0.018(8)
N8D 0.112(9) 0.094(8) 0.093(8) -0.017(7) 0.010(7) 0.008(7)
C67D 0.176(19) 0.144(18) 0.169(19) -0.019(16) 0.010(16) 0.010(15)
C68D 0.135(10) 0.131(10) 0.140(11) 0.011(8) -0.001(8) 0.000(8)
O17E 0.103(12) 0.072(6) 0.108(9) -0.014(8) 0.010(10) -0.036(6)
C66E 0.172(13) 0.163(13) 0.174(13) 0.001(9) 0.003(9) 0.006(9)
N8E 0.164(11) 0.161(11) 0.172(11) -0.005(9) 0.021(8) 0.026(9)
C67E 0.074(10) 0.184(16) 0.100(12) 0.022(12) 0.005(9) 0.008(11)
C68E 0.131(14) 0.132(15) 0.158(17) -0.029(13) -0.016(13) 0.015(13)
Cu1 0.0279(2) 0.0203(2) 0.0207(2) -0.00085(15) -0.00080(16) -0.00407(15)
Cu2 0.0270(2) 0.0187(2) 0.0191(2) -0.00008(14) -0.00214(15) -0.00307(15)
loop_
_atom_type_symbol
_atom_type_description
_atom_type_scat_dispersion_real
_atom_type_scat_dispersion_imag
_atom_type_scat_source
C C 0.0181 0.0091 'International Tables Vol C Tables 4.2.6.8 and 6.1.1.4'
H H 0.0000 0.0000 'International Tables Vol C Tables 4.2.6.8 and 6.1.1.4'
N N 0.0311 0.0180 'International Tables Vol C Tables 4.2.6.8 and 6.1.1.4'
O O 0.0492 0.0322 'International Tables Vol C Tables 4.2.6.8 and 6.1.1.4'
Cu Cu -1.9646 0.5888 'International Tables Vol C Tables 4.2.6.8 and 6.1.1.4'
loop_
_geom_angle_atom_site_label_1
_geom_angle_atom_site_label_2
_geom_angle_atom_site_label_3
_geom_angle
_geom_angle_site_symmetry_1
_geom_angle_site_symmetry_3
O2 C1 O1 126.0(3) . .
O2 C1 C2 117.5(2) . .
O1 C1 C2 116.5(2) . .
C3 C2 C7 120.0(3) . .
C3 C2 C1 120.6(3) . .
C7 C2 C1 119.4(3) . .
C4 C3 C2 120.1(3) . .
C4 C3 H3 119.9 . .
C2 C3 H3 119.9 . .
C5 C4 C3 120.2(3) . .
C5 C4 H4 119.9 . .
C3 C4 H4 119.9 . .
C4 C5 C6 120.2(3) . .
C4 C5 H5 119.9 . .
C6 C5 H5 119.9 . .
C7 C6 C5 119.5(3) . .
C7 C6 C8 120.3(3) . .
C5 C6 C8 120.1(3) . .
C6 C7 C2 120.0(3) . .
C6 C7 H7 120.0 . .
C2 C7 H7 120.0 . .
C9 C8 C6 177.6(4) . .
C8 C9 C10 177.5(4) . .
C11 C10 C15 121.2(3) . .
C11 C10 C9 119.1(3) . .
C15 C10 C9 119.7(3) . .
C12 C11 C10 120.3(3) . .
C12 C11 H11 119.9 . .
C10 C11 H11 119.9 . .
O3 C12 C11 124.7(3) . .
O3 C12 C13 115.6(3) . .
C11 C12 C13 119.7(3) . .
C12 C13 C14 120.7(3) . .
C12 C13 H13 119.7 . .
C14 C13 H13 119.7 . .
C13 C14 C15 120.6(3) . .
C13 C14 C16 120.3(3) . .
C15 C14 C16 119.1(3) . .
N1 C15 C10 121.8(3) . .
N1 C15 C14 120.6(3) . .
C10 C15 C14 117.6(3) . .
C17 C16 C14 177.3(4) . .
C16 C17 C18 175.8(4) . .
C23 C18 C19 118.8(3) . .
C23 C18 C17 122.9(3) . .
C19 C18 C17 118.3(3) . .
C20 C19 C18 120.5(3) . .
C20 C19 H19 119.7 . .
C18 C19 H19 119.7 . .
C19 C20 C21 120.2(3) . .
C19 C20 C24 118.7(3) . .
C21 C20 C24 121.1(3) . .
C20 C21 C22 119.7(3) . .
C20 C21 H21 120.1 . .
C22 C21 H21 120.1 . .
C23 C22 C21 119.9(3) . .
C23 C22 H22 120.1 . .
C21 C22 H22 120.1 . .
C22 C23 C18 120.9(3) . .
C22 C23 H23 119.5 . .
C18 C23 H23 119.5 . .
O4 C24 O5 126.0(3) . .
O4 C24 C20 116.9(3) . .
O5 C24 C20 117.0(3) . .
O3 C25 H25A 109.5 . .
O3 C25 H25B 109.5 . .
H25A C25 H25B 109.5 . .
O3 C25 H25C 109.5 . .
H25A C25 H25C 109.5 . .
H25B C25 H25C 109.5 . .
O6 C26 O7 125.8(3) . .
O6 C26 C27 116.8(3) . .
O7 C26 C27 117.3(3) . .
C32 C27 C28 119.9(3) . .
C32 C27 C26 121.4(3) . .
C28 C27 C26 118.7(3) . .
C29 C28 C27 119.8(3) . .
C29 C28 H28 120.1 . .
C27 C28 H28 120.1 . .
C30 C29 C28 120.5(3) . .
C30 C29 H29 119.8 . .
C28 C29 H29 119.8 . .
C29 C30 C31 120.8(3) . .
C29 C30 H30 119.6 . .
C31 C30 H30 119.6 . .
C32 C31 C30 118.5(3) . .
C32 C31 C33 121.3(3) . .
C30 C31 C33 120.1(3) . .
C27 C32 C31 120.5(3) . .
C27 C32 H32 119.8 . .
C31 C32 H32 119.8 . .
C34 C33 C31 176.7(4) . .
C33 C34 C35 176.4(4) . .
C36 C35 C40 120.7(3) . .
C36 C35 C34 120.6(3) . .
C40 C35 C34 118.7(3) . .
C37 C36 C35 120.2(3) . .
C37 C36 H36 119.9 . .
C35 C36 H36 119.9 . .
O8 C37 C38 115.4(3) . .
O8 C37 C36 124.5(3) . .
C38 C37 C36 120.1(3) . .
C37 C38 C39 120.6(3) . .
C37 C38 H38 119.7 . .
C39 C38 H38 119.7 . .
C38 C39 C40 120.6(3) . .
C38 C39 C41 120.7(3) . .
C40 C39 C41 118.7(3) . .
N2 C40 C35 121.2(3) . .
N2 C40 C39 121.1(3) . .
C35 C40 C39 117.8(3) . .
C42 C41 C39 176.3(4) . .
C41 C42 C43 178.9(4) . .
C48 C43 C44 119.5(3) . .
C48 C43 C42 120.1(3) . .
C44 C43 C42 120.4(3) . .
C43 C44 C45 120.0(4) . .
C43 C44 H44 120.0 . .
C45 C44 H44 120.0 . .
C46 C45 C44 120.4(4) . .
C46 C45 H45 119.8 . .
C44 C45 H45 119.8 . .
C47 C46 C45 119.9(3) . .
C47 C46 H46 120.0 . .
C45 C46 H46 120.0 . .
C46 C47 C48 120.0(3) . .
C46 C47 C49 120.1(3) . .
C48 C47 C49 119.9(3) . .
C43 C48 C47 120.3(3) . .
C43 C48 H48 119.9 . .
C47 C48 H48 119.9 . .
O10 C49 O9 126.2(3) . .
O10 C49 C47 117.0(3) . .
O9 C49 C47 116.8(3) . .
O8 C50 H50A 109.5 . .
O8 C50 H50B 109.5 . .
H50A C50 H50B 109.5 . .
O8 C50 H50C 109.5 . .
H50A C50 H50C 109.5 . .
H50B C50 H50C 109.5 . .
C15 N1 H1A 120.0 . .
C15 N1 H1B 120.0 . .
H1A N1 H1B 120.0 . .
C40 N2 H2A 120.0 . .
C40 N2 H2B 120.0 . .
H2A N2 H2B 120.0 . .
C1 O1 Cu2 122.77(18) . .
C1 O2 Cu1 121.97(18) . .
C12 O3 C25 116.0(2) . .
C24 O4 Cu1 126.11(18) . 7_556
C24 O5 Cu2 118.21(19) . 7_556
C26 O6 Cu2 125.95(19) . .
C26 O7 Cu1 119.22(19) . .
C37 O8 C50 116.7(3) . .
C49 O9 Cu1 121.91(18) . 7_556
C49 O10 Cu2 122.29(19) . 7_556
C51 O11 Cu2 120.72(19) . .
O11 C51 N3 125.2(3) . .
O11 C51 H51 117.4 . .
N3 C51 H51 117.4 . .
C51 N3 C52 121.3(3) . .
C51 N3 C53 122.1(3) . .
C52 N3 C53 116.6(3) . .
N3 C52 H52A 109.5 . .
N3 C52 H52B 109.5 . .
H52A C52 H52B 109.5 . .
N3 C52 H52C 109.5 . .
H52A C52 H52C 109.5 . .
H52B C52 H52C 109.5 . .
N3 C53 H53A 109.5 . .
N3 C53 H53B 109.5 . .
H53A C53 H53B 109.5 . .
N3 C53 H53C 109.5 . .
H53A C53 H53C 109.5 . .
H53B C53 H53C 109.5 . .
Cu1 O12 H12A 136.9 . .
Cu1 O12 H12B 105.1 . .
H12A O12 H12B 101.4 . .
Cu1 O12 H12C 145.7 . .
Cu1 O12 H12D 105.5 . .
H12C O12 H12D 105.7 . .
O13 C54 N4 121.2(11) . .
O13 C54 H54 119.4 . .
N4 C54 H54 119.4 . .
C54 N4 C55 121.8(11) . .
C54 N4 C56 118.3(10) . .
C55 N4 C56 118.3(9) . .
N4 C55 H55A 109.5 . .
N4 C55 H55B 109.5 . .
H55A C55 H55B 109.5 . .
N4 C55 H55C 109.5 . .
H55A C55 H55C 109.5 . .
H55B C55 H55C 109.5 . .
N4 C56 H56A 109.5 . .
N4 C56 H56B 109.5 . .
H56A C56 H56B 109.5 . .
N4 C56 H56C 109.5 . .
H56A C56 H56C 109.5 . .
H56B C56 H56C 109.5 . .
O13B C54B N4B 130.2(14) . .
O13B C54B H54B 114.9 . .
N4B C54B H54B 114.9 . .
C54B N4B C56B 118.4(13) . .
C54B N4B C55B 121.3(11) . .
C56B N4B C55B 120.2(13) . .
N4B C55B H55D 109.5 . .
N4B C55B H55E 109.5 . .
H55D C55B H55E 109.5 . .
N4B C55B H55F 109.5 . .
H55D C55B H55F 109.5 . .
H55E C55B H55F 109.5 . .
N4B C56B H56D 109.5 . .
N4B C56B H56E 109.5 . .
H56D C56B H56E 109.5 . .
N4B C56B H56F 109.5 . .
H56D C56B H56F 109.5 . .
H56E C56B H56F 109.5 . .
O14 C57 N5 115.2(15) . .
O14 C57 H57 122.4 . .
N5 C57 H57 122.4 . .
C57 N5 C59 126.8(13) . .
C57 N5 C58 121.4(14) . .
C59 N5 C58 111.8(12) . .
N5 C58 H58A 109.5 . .
N5 C58 H58B 109.5 . .
H58A C58 H58B 109.5 . .
N5 C58 H58C 109.5 . .
H58A C58 H58C 109.5 . .
H58B C58 H58C 109.5 . .
N5 C59 H59A 109.5 . .
N5 C59 H59B 109.5 . .
H59A C59 H59B 109.5 . .
N5 C59 H59C 109.5 . .
H59A C59 H59C 109.5 . .
H59B C59 H59C 109.5 . .
O14B C57B N5B 119.4(17) . .
O14B C57B H57B 120.3 . .
N5B C57B H57B 120.3 . .
C57B N5B C59B 129(2) . .
C57B N5B C58B 103.3(15) . .
C59B N5B C58B 115.8(16) . .
N5B C58B H58D 109.5 . .
N5B C58B H58E 109.5 . .
H58D C58B H58E 109.5 . .
N5B C58B H58F 109.5 . .
H58D C58B H58F 109.5 . .
H58E C58B H58F 109.5 . .
N5B C59B H59D 109.5 . .
N5B C59B H59E 109.5 . .
H59D C59B H59E 109.5 . .
N5B C59B H59F 109.5 . .
H59D C59B H59F 109.5 . .
H59E C59B H59F 109.5 . .
O15 C60 N6 140(2) . .
O15 C60 H60 109.8 . .
N6 C60 H60 109.8 . .
C60 N6 C62 123.0(17) . .
C60 N6 C61 125.5(17) . .
C62 N6 C61 110.3(14) . .
N6 C61 H61A 109.5 . .
N6 C61 H61B 109.5 . .
H61A C61 H61B 109.5 . .
N6 C61 H61C 109.5 . .
H61A C61 H61C 109.5 . .
H61B C61 H61C 109.5 . .
N6 C62 H62A 109.5 . .
N6 C62 H62B 109.5 . .
H62A C62 H62B 109.5 . .
N6 C62 H62C 109.5 . .
H62A C62 H62C 109.5 . .
H62B C62 H62C 109.5 . .
O15B C60B N6B 136(3) . .
O15B C60B H60B 111.9 . .
N6B C60B H60B 111.9 . .
C60B N6B C61B 120.6(18) . .
C60B N6B C62B 129.8(19) . .
C61B N6B C62B 105.9(16) . .
N6B C61B H61D 109.5 . .
N6B C61B H61E 109.5 . .
H61D C61B H61E 109.5 . .
N6B C61B H61F 109.5 . .
H61D C61B H61F 109.5 . .
H61E C61B H61F 109.5 . .
N6B C62B H62D 109.5 . .
N6B C62B H62E 109.5 . .
H62D C62B H62E 109.5 . .
N6B C62B H62F 109.5 . .
H62D C62B H62F 109.5 . .
H62E C62B H62F 109.5 . .
C68D O15C C60C 112(2) . .
O15C C60C N6C 145(3) . .
O15C C60C C68D 30.5(13) . .
N6C C60C C68D 147(2) . .
O15C C60C H60C 107.5 . .
N6C C60C H60C 107.5 . .
C68D C60C H60C 92.1 . .
C60C N6C C62C 124(2) . .
C60C N6C C61C 124(2) . .
C62C N6C C61C 103.8(15) . .
N6C C61C H61G 109.5 . .
N6C C61C H61H 109.5 . .
H61G C61C H61H 109.5 . .
N6C C61C H61I 109.5 . .
H61G C61C H61I 109.5 . .
H61H C61C H61I 109.5 . .
N6C C62C H62G 109.5 . .
N6C C62C H62H 109.5 . .
H62G C62C H62H 109.5 . .
N6C C62C H62I 109.5 . .
H62G C62C H62I 109.5 . .
H62H C62C H62I 109.5 . .
O15D C60D N6D 124(3) . .
O15D C60D H60D 118.2 . .
N6D C60D H60D 118.2 . .
C60D N6D C62D 122(3) . .
C60D N6D C61D 116(2) . .
C62D N6D C61D 116(2) . .
N6D C61D H61J 109.5 . .
N6D C61D H61K 109.5 . .
H61J C61D H61K 109.5 . .
N6D C61D H61L 109.5 . .
H61J C61D H61L 109.5 . .
H61K C61D H61L 109.5 . .
N6D C62D H62J 109.5 . .
N6D C62D H62K 109.5 . .
H62J C62D H62K 109.5 . .
N6D C62D H62L 109.5 . .
H62J C62D H62L 109.5 . .
H62K C62D H62L 109.5 . .
O15E C60E N6E 127(2) . .
O15E C60E H60E 116.7 . .
N6E C60E H60E 116.7 . .
C60E N6E C61E 124.3(19) . .
C60E N6E C62E 121.2(19) . .
C61E N6E C62E 113.9(18) . .
N6E C61E H61M 109.5 . .
N6E C61E H61N 109.5 . .
H61M C61E H61N 109.5 . .
N6E C61E H61O 109.5 . .
H61M C61E H61O 109.5 . .
H61N C61E H61O 109.5 . .
N6E C62E H62M 109.5 . .
N6E C62E H62N 109.5 . .
H62M C62E H62N 109.5 . .
N6E C62E H62O 109.5 . .
H62M C62E H62O 109.5 . .
H62N C62E H62O 109.5 . .
O16 C63 N7 127.2(15) . .
O16 C63 H63 116.4 . .
N7 C63 H63 116.4 . .
C63 N7 C65 131.1(15) . .
C63 N7 C64 119.5(12) . .
C65 N7 C64 107.3(14) . .
N7 C64 H64A 109.5 . .
N7 C64 H64B 109.5 . .
H64A C64 H64B 109.5 . .
N7 C64 H64C 109.5 . .
H64A C64 H64C 109.5 . .
H64B C64 H64C 109.5 . .
N7 C65 H65A 109.5 . .
N7 C65 H65B 109.5 . .
H65A C65 H65B 109.5 . .
N7 C65 H65C 109.5 . .
H65A C65 H65C 109.5 . .
H65B C65 H65C 109.5 . .
O17 C66 N8 116.1(17) . .
O17 C66 H66 122.0 . .
N8 C66 H66 122.0 . .
C66 N8 C67 113.0(13) . .
C66 N8 C68 122.3(15) . .
C67 N8 C68 124.2(15) . .
N8 C67 H67A 109.5 . .
N8 C67 H67B 109.5 . .
H67A C67 H67B 109.5 . .
N8 C67 H67C 109.5 . .
H67A C67 H67C 109.5 . .
H67B C67 H67C 109.5 . .
N8 C68 H68A 109.5 . .
N8 C68 H68B 109.5 . .
H68A C68 H68B 109.5 . .
N8 C68 H68C 109.5 . .
H68A C68 H68C 109.5 . .
H68B C68 H68C 109.5 . .
O17B C66B N8B 141.8(19) . .
O17B C66B H66B 109.1 . .
N8B C66B H66B 109.1 . .
C66B N8B C68B 126.8(19) . .
C66B N8B C67B 119.8(17) . .
C68B N8B C67B 111.0(16) . .
N8B C67B H67D 109.5 . .
N8B C67B H67E 109.5 . .
H67D C67B H67E 109.5 . .
N8B C67B H67F 109.5 . .
H67D C67B H67F 109.5 . .
H67E C67B H67F 109.5 . .
N8B C68B H68D 109.5 . .
N8B C68B H68E 109.5 . .
H68D C68B H68E 109.5 . .
N8B C68B H68F 109.5 . .
H68D C68B H68F 109.5 . .
H68E C68B H68F 109.5 . .
O17C C66C N8C 121(2) . .
O17C C66C H66C 119.5 . .
N8C C66C H66C 119.5 . .
C66C N8C C68C 125.2(19) . .
C66C N8C C67C 115.5(19) . .
C68C N8C C67C 112.3(15) . .
N8C C67C H67G 109.5 . .
N8C C67C H67H 109.5 . .
H67G C67C H67H 109.5 . .
N8C C67C H67I 109.5 . .
H67G C67C H67I 109.5 . .
H67H C67C H67I 109.5 . .
N8C C68C H68G 109.5 . .
N8C C68C H68H 109.5 . .
H68G C68C H68H 109.5 . .
N8C C68C H68I 109.5 . .
H68G C68C H68I 109.5 . .
H68H C68C H68I 109.5 . .
O17D C66D N8D 125.9(19) . .
O17D C66D H66D 117.1 . .
N8D C66D H66D 117.1 . .
C66D N8D C68D 120.1(15) . .
C66D N8D C67D 124.6(16) . .
C68D N8D C67D 115.1(16) . .
N8D C67D H67J 109.5 . .
N8D C67D H67K 109.5 . .
H67J C67D H67K 109.5 . .
N8D C67D H67L 109.5 . .
H67J C67D H67L 109.5 . .
H67K C67D H67L 109.5 . .
O15C C68D N8D 142(3) . .
O15C C68D C60C 37.4(12) . .
N8D C68D C60C 143(2) . .
O15C C68D H68J 109.5 . .
N8D C68D H68J 47.4 . .
C60C C68D H68J 95.4 . .
O15C C68D H68K 109.5 . .
N8D C68D H68K 107.7 . .
C60C C68D H68K 82.9 . .
H68J C68D H68K 109.5 . .
O15C C68D H68L 109.5 . .
N8D C68D H68L 65.7 . .
C60C C68D H68L 145.4 . .
H68J C68D H68L 109.5 . .
H68K C68D H68L 109.5 . .
O17E C66E N8E 134(2) . .
O17E C66E H66E 113.2 . .
N8E C66E H66E 113.2 . .
C66E N8E C67E 118.1(18) . .
C66E N8E C68E 127.4(19) . .
C67E N8E C68E 114.4(16) . .
N8E C67E H67M 109.5 . .
N8E C67E H67N 109.5 . .
H67M C67E H67N 109.5 . .
N8E C67E H67O 109.5 . .
H67M C67E H67O 109.5 . .
H67N C67E H67O 109.5 . .
N8E C68E H68M 109.5 . .
N8E C68E H68N 109.5 . .
H68M C68E H68N 109.5 . .
N8E C68E H68O 109.5 . .
H68M C68E H68O 109.5 . .
H68N C68E H68O 109.5 . .
O9 Cu1 O7 171.77(9) 7_556 .
O9 Cu1 O2 90.43(9) 7_556 .
O7 Cu1 O2 89.43(9) . .
O9 Cu1 O4 89.58(9) 7_556 7_556
O7 Cu1 O4 88.19(9) . 7_556
O2 Cu1 O4 163.26(8) . 7_556
O9 Cu1 O12 92.66(11) 7_556 .
O7 Cu1 O12 95.45(11) . .
O2 Cu1 O12 100.86(11) . .
O4 Cu1 O12 95.86(11) 7_556 .
O9 Cu1 Cu2 84.55(6) 7_556 .
O7 Cu1 Cu2 87.25(6) . .
O2 Cu1 Cu2 84.04(6) . .
O4 Cu1 Cu2 79.30(6) 7_556 .
O12 Cu1 Cu2 174.40(9) . .
O5 Cu2 O1 171.61(8) 7_556 .
O5 Cu2 O6 87.11(9) 7_556 .
O1 Cu2 O6 89.12(8) . .
O5 Cu2 O10 89.46(9) 7_556 7_556
O1 Cu2 O10 92.00(8) . 7_556
O6 Cu2 O10 163.17(8) . 7_556
O5 Cu2 O11 93.71(8) 7_556 .
O1 Cu2 O11 94.50(8) . .
O6 Cu2 O11 105.04(8) . .
O10 Cu2 O11 91.62(8) 7_556 .
O5 Cu2 Cu1 88.23(6) 7_556 .
O1 Cu2 Cu1 83.76(6) . .
O6 Cu2 Cu1 80.43(6) . .
O10 Cu2 Cu1 82.99(6) 7_556 .
O11 Cu2 Cu1 174.26(6) . .
loop_
_geom_bond_atom_site_label_1
_geom_bond_atom_site_label_2
_geom_bond_distance
_geom_bond_site_symmetry_2
C1 O2 1.263(4) .
C1 O1 1.264(3) .
C1 C2 1.505(4) .
C2 C3 1.388(4) .
C2 C7 1.394(4) .
C3 C4 1.386(4) .
C3 H3 0.9500 .
C4 C5 1.385(5) .
C4 H4 0.9500 .
C5 C6 1.397(5) .
C5 H5 0.9500 .
C6 C7 1.394(4) .
C6 C8 1.448(4) .
C7 H7 0.9500 .
C8 C9 1.191(5) .
C9 C10 1.437(4) .
C10 C11 1.398(4) .
C10 C15 1.407(5) .
C11 C12 1.380(4) .
C11 H11 0.9500 .
C12 O3 1.369(4) .
C12 C13 1.391(4) .
C13 C14 1.393(4) .
C13 H13 0.9500 .
C14 C15 1.412(5) .
C14 C16 1.435(5) .
C15 N1 1.371(4) .
C16 C17 1.204(5) .
C17 C18 1.434(5) .
C18 C23 1.393(5) .
C18 C19 1.394(4) .
C19 C20 1.385(4) .
C19 H19 0.9500 .
C20 C21 1.387(5) .
C20 C24 1.504(4) .
C21 C22 1.393(5) .
C21 H21 0.9500 .
C22 C23 1.381(6) .
C22 H22 0.9500 .
C23 H23 0.9500 .
C24 O4 1.259(4) .
C24 O5 1.260(4) .
C25 O3 1.431(4) .
C25 H25A 0.9800 .
C25 H25B 0.9800 .
C25 H25C 0.9800 .
C26 O6 1.259(4) .
C26 O7 1.262(4) .
C26 C27 1.498(4) .
C27 C32 1.387(4) .
C27 C28 1.402(4) .
C28 C29 1.382(4) .
C28 H28 0.9500 .
C29 C30 1.373(5) .
C29 H29 0.9500 .
C30 C31 1.408(5) .
C30 H30 0.9500 .
C31 C32 1.399(4) .
C31 C33 1.440(5) .
C32 H32 0.9500 .
C33 C34 1.200(5) .
C34 C35 1.429(5) .
C35 C36 1.401(4) .
C35 C40 1.407(5) .
C36 C37 1.385(4) .
C36 H36 0.9500 .
C37 O8 1.372(4) .
C37 C38 1.385(4) .
C38 C39 1.386(5) .
C38 H38 0.9500 .
C39 C40 1.422(5) .
C39 C41 1.429(5) .
C40 N2 1.361(5) .
C41 C42 1.203(5) .
C42 C43 1.430(5) .
C43 C48 1.386(5) .
C43 C44 1.386(5) .
C44 C45 1.386(6) .
C44 H44 0.9500 .
C45 C46 1.380(5) .
C45 H45 0.9500 .
C46 C47 1.378(5) .
C46 H46 0.9500 .
C47 C48 1.390(4) .
C47 C49 1.502(4) .
C48 H48 0.9500 .
C49 O10 1.261(4) .
C49 O9 1.262(4) .
C50 O8 1.422(4) .
C50 H50A 0.9800 .
C50 H50B 0.9800 .
C50 H50C 0.9800 .
N1 H1A 0.8800 .
N1 H1B 0.8800 .
N2 H2A 0.8800 .
N2 H2B 0.8800 .
O1 Cu2 1.9586(19) .
O2 Cu1 1.977(2) .
O4 Cu1 1.986(2) 7_556
O5 Cu2 1.948(2) 7_556
O6 Cu2 1.981(2) .
O7 Cu1 1.960(2) .
O9 Cu1 1.954(2) 7_556
O10 Cu2 1.992(2) 7_556
O11 C51 1.240(4) .
O11 Cu2 2.1575(19) .
C51 N3 1.317(4) .
C51 H51 0.9500 .
N3 C52 1.455(4) .
N3 C53 1.456(4) .
C52 H52A 0.9800 .
C52 H52B 0.9800 .
C52 H52C 0.9800 .
C53 H53A 0.9800 .
C53 H53B 0.9800 .
C53 H53C 0.9800 .
O12 Cu1 2.136(2) .
O12 H12A 0.8688 .
O12 H12B 0.8584 .
O12 H12C 0.8560 .
O12 H12D 0.8405 .
O13 C54 1.273(12) .
C54 N4 1.303(11) .
C54 H54 0.9500 .
N4 C55 1.442(10) .
N4 C56 1.462(12) .
C55 H55A 0.9800 .
C55 H55B 0.9800 .
C55 H55C 0.9800 .
C56 H56A 0.9800 .
C56 H56B 0.9800 .
C56 H56C 0.9800 .
O13B C54B 1.239(12) .
C54B N4B 1.309(12) .
C54B H54B 0.9500 .
N4B C56B 1.441(13) .
N4B C55B 1.476(13) .
C55B H55D 0.9800 .
C55B H55E 0.9800 .
C55B H55F 0.9800 .
C56B H56D 0.9800 .
C56B H56E 0.9800 .
C56B H56F 0.9800 .
O14 C57 1.246(14) .
C57 N5 1.305(13) .
C57 H57 0.9500 .
N5 C59 1.376(12) .
N5 C58 1.443(13) .
C58 H58A 0.9800 .
C58 H58B 0.9800 .
C58 H58C 0.9800 .
C59 H59A 0.9800 .
C59 H59B 0.9800 .
C59 H59C 0.9800 .
O14B C57B 1.281(15) .
C57B N5B 1.327(15) .
C57B H57B 0.9500 .
N5B C59B 1.418(14) .
N5B C58B 1.455(15) .
C58B H58D 0.9800 .
C58B H58E 0.9800 .
C58B H58F 0.9800 .
C59B H59D 0.9800 .
C59B H59E 0.9800 .
C59B H59F 0.9800 .
O15 C60 1.226(14) .
C60 N6 1.299(14) .
C60 H60 0.9500 .
N6 C62 1.449(14) .
N6 C61 1.456(14) .
C61 H61A 0.9800 .
C61 H61B 0.9800 .
C61 H61C 0.9800 .
C62 H62A 0.9800 .
C62 H62B 0.9800 .
C62 H62C 0.9800 .
O15B C60B 1.253(15) .
C60B N6B 1.291(14) .
C60B H60B 0.9500 .
N6B C61B 1.452(15) .
N6B C62B 1.466(14) .
C61B H61D 0.9800 .
C61B H61E 0.9800 .
C61B H61F 0.9800 .
C62B H62D 0.9800 .
C62B H62E 0.9800 .
C62B H62F 0.9800 .
O15C C68D 1.06(3) .
O15C C60C 1.264(15) .
C60C N6C 1.298(15) .
C60C C68D 1.928(18) .
C60C H60C 0.9500 .
N6C C62C 1.467(15) .
N6C C61C 1.471(15) .
C61C H61G 0.9800 .
C61C H61H 0.9800 .
C61C H61I 0.9800 .
C62C H62G 0.9800 .
C62C H62H 0.9800 .
C62C H62I 0.9800 .
O15D C60D 1.276(16) .
C60D N6D 1.330(16) .
C60D H60D 0.9500 .
N6D C62D 1.439(16) .
N6D C61D 1.455(16) .
C61D H61J 0.9800 .
C61D H61K 0.9800 .
C61D H61L 0.9800 .
C62D H62J 0.9800 .
C62D H62K 0.9800 .
C62D H62L 0.9800 .
O15E C60E 1.268(15) .
C60E N6E 1.300(14) .
C60E H60E 0.9500 .
N6E C61E 1.455(15) .
N6E C62E 1.464(15) .
C61E H61M 0.9800 .
C61E H61N 0.9800 .
C61E H61O 0.9800 .
C62E H62M 0.9800 .
C62E H62N 0.9800 .
C62E H62O 0.9800 .
O16 C63 1.260(13) .
C63 N7 1.316(13) .
C63 H63 0.9500 .
N7 C65 1.443(12) .
N7 C64 1.469(14) .
C64 H64A 0.9800 .
C64 H64B 0.9800 .
C64 H64C 0.9800 .
C65 H65A 0.9800 .
C65 H65B 0.9800 .
C65 H65C 0.9800 .
O17 C66 1.262(15) .
C66 N8 1.334(14) .
C66 H66 0.9500 .
N8 C67 1.425(13) .
N8 C68 1.441(13) .
C67 H67A 0.9800 .
C67 H67B 0.9800 .
C67 H67C 0.9800 .
C68 H68A 0.9800 .
C68 H68B 0.9800 .
C68 H68C 0.9800 .
O17B C66B 1.268(13) .
C66B N8B 1.300(14) .
C66B H66B 0.9500 .
N8B C68B 1.454(14) .
N8B C67B 1.461(15) .
C67B H67D 0.9800 .
C67B H67E 0.9800 .
C67B H67F 0.9800 .
C68B H68D 0.9800 .
C68B H68E 0.9800 .
C68B H68F 0.9800 .
O17C C66C 1.296(16) .
C66C N8C 1.336(14) .
C66C H66C 0.9500 .
N8C C68C 1.408(14) .
N8C C67C 1.443(15) .
C67C H67G 0.9800 .
C67C H67H 0.9800 .
C67C H67I 0.9800 .
C68C H68G 0.9800 .
C68C H68H 0.9800 .
C68C H68I 0.9800 .
O17D C66D 1.225(14) .
C66D N8D 1.343(14) .
C66D H66D 0.9500 .
N8D C68D 1.421(14) .
N8D C67D 1.442(14) .
C67D H67J 0.9800 .
C67D H67K 0.9800 .
C67D H67L 0.9800 .
C68D H68J 0.9800 .
C68D H68K 0.9800 .
C68D H68L 0.9800 .
O17E C66E 1.238(15) .
C66E N8E 1.292(14) .
C66E H66E 0.9500 .
N8E C67E 1.418(15) .
N8E C68E 1.428(14) .
C67E H67M 0.9800 .
C67E H67N 0.9800 .
C67E H67O 0.9800 .
C68E H68M 0.9800 .
C68E H68N 0.9800 .
C68E H68O 0.9800 .
Cu1 O9 1.955(2) 7_556
Cu1 O4 1.986(2) 7_556
Cu1 Cu2 2.6526(5) .
Cu2 O5 1.948(2) 7_556
Cu2 O10 1.992(2) 7_556
loop_
_geom_torsion_atom_site_label_1
_geom_torsion_atom_site_label_2
_geom_torsion_atom_site_label_3
_geom_torsion_atom_site_label_4
_geom_torsion
_geom_torsion_site_symmetry_4
O2 C1 C2 C3 -173.8(3) .
O1 C1 C2 C3 4.8(4) .
O2 C1 C2 C7 4.6(4) .
O1 C1 C2 C7 -176.8(3) .
C7 C2 C3 C4 -1.2(5) .
C1 C2 C3 C4 177.2(3) .
C2 C3 C4 C5 1.0(5) .
C3 C4 C5 C6 0.2(5) .
C4 C5 C6 C7 -1.2(5) .
C4 C5 C6 C8 178.8(3) .
C5 C6 C7 C2 1.0(5) .
C8 C6 C7 C2 -179.0(3) .
C3 C2 C7 C6 0.1(5) .
C1 C2 C7 C6 -178.3(3) .
C15 C10 C11 C12 0.9(5) .
C9 C10 C11 C12 -178.4(3) .
C10 C11 C12 O3 179.3(3) .
C10 C11 C12 C13 0.0(5) .
O3 C12 C13 C14 179.3(3) .
C11 C12 C13 C14 -1.3(5) .
C12 C13 C14 C15 1.7(5) .
C12 C13 C14 C16 -178.4(3) .
C11 C10 C15 N1 179.8(4) .
C9 C10 C15 N1 -0.8(6) .
C11 C10 C15 C14 -0.5(5) .
C9 C10 C15 C14 178.9(3) .
C13 C14 C15 N1 178.9(4) .
C16 C14 C15 N1 -1.0(6) .
C13 C14 C15 C10 -0.8(5) .
C16 C14 C15 C10 179.3(3) .
C23 C18 C19 C20 0.2(6) .
C17 C18 C19 C20 178.2(3) .
C18 C19 C20 C21 -0.4(5) .
C18 C19 C20 C24 -179.0(3) .
C19 C20 C21 C22 -0.2(6) .
C24 C20 C21 C22 178.4(4) .
C20 C21 C22 C23 0.9(7) .
C21 C22 C23 C18 -1.0(8) .
C19 C18 C23 C22 0.5(7) .
C17 C18 C23 C22 -177.5(5) .
C19 C20 C24 O4 6.6(4) .
C21 C20 C24 O4 -172.0(3) .
C19 C20 C24 O5 -174.3(3) .
C21 C20 C24 O5 7.1(5) .
O6 C26 C27 C32 -175.8(3) .
O7 C26 C27 C32 4.2(4) .
O6 C26 C27 C28 2.9(4) .
O7 C26 C27 C28 -177.1(3) .
C32 C27 C28 C29 1.2(4) .
C26 C27 C28 C29 -177.5(3) .
C27 C28 C29 C30 -0.8(5) .
C28 C29 C30 C31 -0.5(5) .
C29 C30 C31 C32 1.4(5) .
C29 C30 C31 C33 179.5(3) .
C28 C27 C32 C31 -0.3(4) .
C26 C27 C32 C31 178.4(3) .
C30 C31 C32 C27 -1.0(4) .
C33 C31 C32 C27 -179.0(3) .
C40 C35 C36 C37 -0.2(5) .
C34 C35 C36 C37 -179.1(3) .
C35 C36 C37 O8 -178.9(3) .
C35 C36 C37 C38 1.1(5) .
O8 C37 C38 C39 178.9(3) .
C36 C37 C38 C39 -1.0(5) .
C37 C38 C39 C40 0.1(5) .
C37 C38 C39 C41 -179.8(3) .
C36 C35 C40 N2 -179.5(4) .
C34 C35 C40 N2 -0.6(6) .
C36 C35 C40 C39 -0.7(5) .
C34 C35 C40 C39 178.3(3) .
C38 C39 C40 N2 179.6(4) .
C41 C39 C40 N2 -0.6(6) .
C38 C39 C40 C35 0.8(6) .
C41 C39 C40 C35 -179.4(3) .
C48 C43 C44 C45 0.5(8) .
C42 C43 C44 C45 -178.3(5) .
C43 C44 C45 C46 -0.7(9) .
C44 C45 C46 C47 -0.4(8) .
C45 C46 C47 C48 1.7(6) .
C45 C46 C47 C49 179.7(4) .
C44 C43 C48 C47 0.8(6) .
C42 C43 C48 C47 179.6(4) .
C46 C47 C48 C43 -1.9(5) .
C49 C47 C48 C43 -179.9(3) .
C46 C47 C49 O10 13.8(4) .
C48 C47 C49 O10 -168.2(3) .
C46 C47 C49 O9 -165.8(3) .
C48 C47 C49 O9 12.2(4) .
O2 C1 O1 Cu2 11.3(4) .
C2 C1 O1 Cu2 -167.21(18) .
O1 C1 O2 Cu1 0.0(4) .
C2 C1 O2 Cu1 178.49(18) .
C11 C12 O3 C25 3.9(5) .
C13 C12 O3 C25 -176.7(3) .
O5 C24 O4 Cu1 -15.6(4) 7_556
C20 C24 O4 Cu1 163.3(2) 7_556
O4 C24 O5 Cu2 2.5(4) 7_556
C20 C24 O5 Cu2 -176.5(2) 7_556
O7 C26 O6 Cu2 10.1(4) .
C27 C26 O6 Cu2 -169.95(18) .
O6 C26 O7 Cu1 0.9(4) .
C27 C26 O7 Cu1 -179.07(18) .
C38 C37 O8 C50 -161.7(3) .
C36 C37 O8 C50 18.2(5) .
O10 C49 O9 Cu1 -11.2(4) 7_556
C47 C49 O9 Cu1 168.35(19) 7_556
O9 C49 O10 Cu2 -2.4(4) 7_556
C47 C49 O10 Cu2 177.97(19) 7_556
Cu2 O11 C51 N3 -170.7(3) .
O11 C51 N3 C52 1.9(5) .
O11 C51 N3 C53 -178.8(3) .
O13 C54 N4 C55 0(2) .
O13 C54 N4 C56 -165.0(16) .
O13B C54B N4B C56B -174(2) .
O13B C54B N4B C55B 3(3) .
O14 C57 N5 C59 167.4(18) .
O14 C57 N5 C58 -14(3) .
O14B C57B N5B C59B -154(3) .
O14B C57B N5B C58B -15(5) .
O15 C60 N6 C62 160(3) .
O15 C60 N6 C61 -33(6) .
O15B C60B N6B C61B 16(7) .
O15B C60B N6B C62B 171(4) .
C68D O15C C60C N6C 117(4) .
O15C C60C N6C C62C -101(5) .
C68D C60C N6C C62C -45(6) .
O15C C60C N6C C61C 115(4) .
C68D C60C N6C C61C 171(3) .
O15D C60D N6D C62D 146(5) .
O15D C60D N6D C61D -6(8) .
O15E C60E N6E C61E -7(5) .
O15E C60E N6E C62E 163(3) .
O16 C63 N7 C65 -172(3) .
O16 C63 N7 C64 -10(4) .
O17 C66 N8 C67 8(3) .
O17 C66 N8 C68 -180(2) .
O17B C66B N8B C68B -96(4) .
O17B C66B N8B C67B 65(4) .
O17C C66C N8C C68C -56(5) .
O17C C66C N8C C67C 92(4) .
O17D C66D N8D C68D -179(3) .
O17D C66D N8D C67D 6(5) .
C60C O15C C68D N8D 118(4) .
C66D N8D C68D O15C -141(4) .
C67D N8D C68D O15C 35(6) .
C66D N8D C68D C60C -78(4) .
C67D N8D C68D C60C 98(3) .
O17E C66E N8E C67E 77(3) .
O17E C66E N8E C68E -103(3) .
