#------------------------------------------------------------------------------
#$Date: 2016-03-26 14:50:16 +0200 (Sat, 26 Mar 2016) $
#$Revision: 180278 $
#$URL: svn://www.crystallography.net/cod/cif/7/11/64/7116495.cif $
#------------------------------------------------------------------------------
#
# This file is available in the Crystallography Open Database (COD),
# http://www.crystallography.net/
#
# All data on this site have been placed in the public domain by the
# contributors.
#
data_7116495
loop_
_publ_author_name
'Zhichao Hu'
'Guangxi Huang'
'William P. Lustig'
'Fangming Wang'
'Hao Wang'
'Simon J. Teat'
'Debasis Banerjee'
'Deqing Zhang'
'Jing Li'
_publ_section_title
;
 Achieving exceptionally high luminescence quantum efficiency by
 immobilizing an AIE molecular chromophore into a metal-organic framework
;
_journal_name_full               Chem.Commun.
_journal_page_first              3045
_journal_paper_doi               10.1039/C4cc07642G
_journal_volume                  51
_journal_year                    2015
_chemical_formula_moiety         'C54 H32 O8 Zn2'
_chemical_formula_sum            'C54 H32 O8 Zn2'
_chemical_formula_weight         939.53
_chemical_name_systematic
;
 ?
;
_space_group_crystal_system      monoclinic
_space_group_IT_number           15
_space_group_name_Hall           '-C 2yc'
_space_group_name_H-M_alt        'C 1 2/c 1'
_symmetry_space_group_name_Hall  '-C 2yc'
_symmetry_space_group_name_H-M   'C 1 2/c 1'
_atom_sites_solution_hydrogens   geom
_atom_sites_solution_primary     direct
_atom_sites_solution_secondary   difmap
_audit_creation_method           SHELXL-2014
_audit_update_record
;
2014-05-23 deposited with the CCDC.
2014-12-05 downloaded from the CCDC.
;
_cell_angle_alpha                90
_cell_angle_beta                 99.228(2)
_cell_angle_gamma                90
_cell_formula_units_Z            8
_cell_length_a                   36.929(5)
_cell_length_b                   31.080(4)
_cell_length_c                   11.8533(17)
_cell_measurement_reflns_used    9787
_cell_measurement_temperature    100(2)
_cell_measurement_theta_max      27.83
_cell_measurement_theta_min      2.98
_cell_volume                     13429(3)
_computing_cell_refinement       'Bruker SAINT v8.27b'
_computing_data_collection       'Bruker APEX 2'
_computing_data_reduction        'Bruker SAINT v8.27b'
_computing_molecular_graphics    'Bruker SHELXTL'
_computing_publication_material  'Bruker SHELXTL & local programs'
_computing_structure_refinement  'SHELXL-2014 (Sheldrick, 2014)'
_computing_structure_solution    'Bruker SHELXT (beta version)'
_diffrn_ambient_temperature      100(2)
_diffrn_measured_fraction_theta_full 0.998
_diffrn_measured_fraction_theta_max 0.998
_diffrn_measurement_device_type  'Bruker APEX II CCD diffractometer'
_diffrn_measurement_method       '\w/\q scans'
_diffrn_radiation_type           synchrotron
_diffrn_radiation_wavelength     0.7749
_diffrn_reflns_av_R_equivalents  0.0979
_diffrn_reflns_av_unetI/netI     0.0466
_diffrn_reflns_Laue_measured_fraction_full 0.998
_diffrn_reflns_Laue_measured_fraction_max 0.998
_diffrn_reflns_limit_h_max       43
_diffrn_reflns_limit_h_min       -44
_diffrn_reflns_limit_k_max       37
_diffrn_reflns_limit_k_min       0
_diffrn_reflns_limit_l_max       14
_diffrn_reflns_limit_l_min       0
_diffrn_reflns_number            76786
_diffrn_reflns_point_group_measured_fraction_full 0.998
_diffrn_reflns_point_group_measured_fraction_max 0.998
_diffrn_reflns_theta_full        27.706
_diffrn_reflns_theta_max         27.848
_diffrn_reflns_theta_min         2.806
_diffrn_source                   'Advanced Light Source station 11.3.1'
_exptl_absorpt_coefficient_mu    0.947
_exptl_absorpt_correction_T_max  0.954
_exptl_absorpt_correction_T_min  0.444
_exptl_absorpt_correction_type   multi-scan
_exptl_absorpt_process_details   'TWINABS (sHELDRICK, 2012/1)'
_exptl_crystal_colour            colorless
_exptl_crystal_density_diffrn    0.929
_exptl_crystal_description       needle
_exptl_crystal_F_000             3840
_exptl_crystal_size_max          0.500
_exptl_crystal_size_mid          0.200
_exptl_crystal_size_min          0.050
_refine_diff_density_max         0.700
_refine_diff_density_min         -1.129
_refine_diff_density_rms         0.118
_refine_ls_extinction_method     none
_refine_ls_goodness_of_fit_ref   1.058
_refine_ls_hydrogen_treatment    constr
_refine_ls_matrix_type           full
_refine_ls_number_parameters     580
_refine_ls_number_reflns         12293
_refine_ls_number_restraints     12
_refine_ls_restrained_S_all      1.061
_refine_ls_R_factor_all          0.1126
_refine_ls_R_factor_gt           0.0898
_refine_ls_shift/su_max          0.001
_refine_ls_shift/su_mean         0.000
_refine_ls_structure_factor_coef Fsqd
_refine_ls_weighting_details
'w=1/[\s^2^(Fo^2^)+(0.1339P)^2^+88.0993P] where P=(Fo^2^+2Fc^2^)/3'
_refine_ls_weighting_scheme      calc
_refine_ls_wR_factor_gt          0.2803
_refine_ls_wR_factor_ref         0.2935
_reflns_Friedel_coverage         0.000
_reflns_number_gt                8190
_reflns_number_total             12293
_reflns_threshold_expression     'I > 2\s(I)'
_cod_data_source_file            c4cc07642g2.cif
_cod_data_source_block           twin5_sq
_cod_database_code               7116495
#BEGIN Tags that were not found in dictionaries:
_shelx_space_group_comment
;
The symmetry employed for this shelxl refinement is uniquely defined
by the following loop, which should always be used as a source of
symmetry information in preference to the above space-group names.
They are only intended as comments.
;
_shelx_estimated_absorpt_t_min   0.649
_shelx_estimated_absorpt_t_max   0.954
_shelxl_version_number           2014-3
_shelx_res_file
;
TITL ZH3_40G in C2/c
CELL  0.77490  36.929  31.080  11.8533   90.000   99.228   90.000
ZERR   8.00     0.005   0.004   0.0017    0.000    0.002    0.000
LATT  7
SYMM -X, Y, 1/2-Z
SFAC C H N O ZN
DISP    C     0.00399    0.00197        13.60
DISP    H     0.00000    0.00000         0.67
DISP    N     0.00762    0.00403        23.92
DISP    O     0.01323    0.00737        40.17
DISP    Zn    0.22822    1.67179      7410.08
UNIT 432 256 0 64 16

TEMP -173
SIZE 0.500 0.200 0.050

ACTA

REM Colourless plate
REM Data cut at 0.83 Angstroms as I/sigma < 2
REM Twinned by 2-fold by c-axis
REM Solved by SHELXT (beta version)
REM Cell refinement by SAINT V8.27B
REM 9787 input reflections Min.2Th 5.85  Max.2Th 55.65

L.S. 5 0  140
BOND
FMAP 2
PLAN 40

ABIN
WGHT    0.133900   88.099297
BASF   0.54718
FVAR       0.16196
ZN01  5    0.230576    0.251527    0.864996    11.00000    0.02274    0.03784 =
         0.04641   -0.02326   -0.00588   -0.00035
ZN02  5    0.270134   -0.251485    1.134527    11.00000    0.02218    0.03627 =
         0.05197    0.02525   -0.00333    0.00203
O1    4   -0.233113   -0.201725   -0.131571    11.00000    0.02477    0.03583 =
         0.07687   -0.02786    0.00674   -0.00020
C1    1   -0.205507   -0.201643   -0.165383    11.00000    0.03591    0.02251 =
         0.05285   -0.00473   -0.01185    0.00361
O2    4   -0.195710   -0.223837   -0.236513    11.00000    0.01893    0.03242 =
         0.05815   -0.03157   -0.00985    0.00461
SAME C30 > C35
C2    1   -0.175563   -0.171631   -0.101265    11.00000    0.05089    0.06557 =
         0.05766   -0.02861   -0.00002   -0.01413
C3    1   -0.145179   -0.162319   -0.155961    11.00000    0.04581    0.06197 =
         0.06866   -0.03595    0.00995   -0.02733
AFIX  43
H3A   2   -0.144401   -0.173541   -0.230084    11.00000   -1.20000
AFIX   0
C4    1   -0.116586   -0.137118   -0.103121    11.00000    0.08450    0.09864 =
         0.07217   -0.05790    0.01943   -0.03879
AFIX  43
H4A   2   -0.095875   -0.131342   -0.139004    11.00000   -1.20000
AFIX   0
C5    1   -0.119173   -0.119886    0.008052    11.00000    0.04531    0.03406 =
         0.04716   -0.02255   -0.00945   -0.01866
C6    1   -0.149646   -0.128612    0.054368    11.00000    0.06622    0.06961 =
         0.04059   -0.03067    0.00891   -0.04146
AFIX  43
H6A   2   -0.151638   -0.115453    0.125452    11.00000   -1.20000
AFIX   0
C7    1   -0.178626   -0.155683    0.005369    11.00000    0.04652    0.06974 =
         0.05023   -0.02411    0.00338   -0.01943
AFIX  43
H7A   2   -0.198757   -0.162422    0.043047    11.00000   -1.20000
AFIX   0
C8    1   -0.088429   -0.092525    0.068087    11.00000    0.04377    0.02230 =
         0.05347   -0.01461   -0.00399   -0.00367
C9    1   -0.068291   -0.064822    0.008156    11.00000    0.03357    0.02037 =
         0.04746   -0.00493   -0.00359   -0.00848
AFIX  43
H9A   2   -0.073698   -0.063119   -0.072821    11.00000   -1.20000
AFIX   0
C10   1   -0.041614   -0.040985    0.065365    11.00000    0.02889    0.03157 =
         0.04385    0.00494   -0.00181   -0.00070
AFIX  43
H10A  2   -0.029323   -0.020440    0.025761    11.00000   -1.20000
AFIX   0
C11   1   -0.031102   -0.046126    0.188134    11.00000    0.02799    0.02511 =
         0.04909   -0.00711   -0.01661    0.00776
C12   1   -0.048229   -0.074284    0.242309    11.00000    0.04740    0.02725 =
         0.05172    0.00522   -0.00886   -0.01185
AFIX  43
H12A  2   -0.041133   -0.078391    0.322217    11.00000   -1.20000
AFIX   0
C13   1   -0.077631   -0.098835    0.180944    11.00000    0.04440    0.04371 =
         0.05485   -0.00505   -0.01561   -0.01762
AFIX  43
H13A  2   -0.089685   -0.119792    0.219972    11.00000   -1.20000
AFIX   0
C14   1    0.000000   -0.019021    0.250000    10.50000    0.04720    0.01725 =
         0.04605    0.00000   -0.02094    0.00000
C15   1    0.000000    0.023770    0.250000    10.50000    0.02756    0.03525 =
         0.04123    0.00000   -0.00842    0.00000
C16   1    0.033094    0.049613    0.306937    11.00000    0.02791    0.01749 =
         0.04787   -0.00407   -0.01150   -0.00467
C17   1    0.024525    0.084476    0.375270    11.00000    0.04006    0.02779 =
         0.05373   -0.00829    0.00125   -0.00709
AFIX  43
H17A  2   -0.000115    0.090815    0.383102    11.00000   -1.20000
AFIX   0
C18   1    0.053644    0.109081    0.430497    11.00000    0.03686    0.03750 =
         0.04360   -0.00461    0.00062   -0.01782
AFIX  43
H18A  2    0.048568    0.132639    0.476582    11.00000   -1.20000
AFIX   0
C19   1    0.089735    0.100260    0.420289    11.00000    0.03826    0.03564 =
         0.03492   -0.00335   -0.00353   -0.00821
C20   1    0.095941    0.064963    0.355580    11.00000    0.02517    0.03354 =
         0.05521   -0.00914    0.00490   -0.00682
AFIX  43
H20A  2    0.120373    0.057200    0.348707    11.00000   -1.20000
AFIX   0
C21   1    0.067219    0.040940    0.301028    11.00000    0.03125    0.02681 =
         0.04200   -0.00514   -0.00707   -0.00250
AFIX  43
H21A  2    0.072468    0.016879    0.256931    11.00000   -1.20000
AFIX   0
C22   1    0.119515    0.127712    0.480530    11.00000    0.04903    0.03448 =
         0.03675   -0.00986   -0.00452   -0.02389
C23   1    0.155116    0.125311    0.456285    11.00000    0.04044    0.05125 =
         0.04932   -0.02439    0.01239   -0.02701
AFIX  43
H23A  2    0.160166    0.104451    0.402324    11.00000   -1.20000
AFIX   0
C24   1    0.183792    0.151631    0.506317    11.00000    0.03681    0.08550 =
         0.10069   -0.04482    0.02325   -0.02049
AFIX  43
H24A  2    0.206986    0.151249    0.481363    11.00000   -1.20000
AFIX   0
C25   1    0.176758    0.179366    0.597266    11.00000    0.06032    0.07098 =
         0.04131   -0.01675    0.01084   -0.03085
C26   1    0.140657    0.178418    0.630634    11.00000    0.04042    0.03887 =
         0.04980   -0.00644    0.00368   -0.00971
AFIX  43
H26A  2    0.136567    0.195223    0.694346    11.00000   -1.20000
AFIX   0
C27   1    0.112148    0.154439    0.574664    11.00000    0.05421    0.02597 =
         0.03931   -0.00410    0.00048   -0.00454
AFIX  43
H27A  2    0.088521    0.155286    0.596618    11.00000   -1.20000
AFIX   0
C28   1    0.206416    0.205668    0.664223    11.00000    0.04614    0.02171 =
         0.05165   -0.00150   -0.00913   -0.01051
O3    4    0.196466    0.229039    0.731560    11.00000    0.04008    0.03523 =
         0.05183   -0.02544   -0.00401   -0.00188
O4    4    0.235823    0.203932    0.634565    11.00000    0.02465    0.03512 =
         0.06513   -0.02760   -0.00324    0.00281
O5    4    0.261040    0.199752    0.893718    11.00000    0.03045    0.04140 =
         0.04947   -0.01550    0.00254    0.01505
O6    4    0.302400    0.229089    1.045357    11.00000    0.03008    0.05617 =
         0.06482   -0.03376   -0.00189    0.01230
C29   1    0.295949    0.202840    0.953524    11.00000    0.02822    0.05951 =
         0.06088   -0.04222   -0.00360   -0.00118
C30   1    0.324289    0.175051    0.925052    11.00000    0.02536    0.02801 =
         0.05607   -0.01379    0.00452    0.01158
C31   1    0.356136    0.173967    0.991275    11.00000    0.04848    0.07975 =
         0.05778   -0.03920    0.00085    0.02455
AFIX  43
H31A  2    0.360506    0.191329    1.058038    11.00000   -1.20000
AFIX   0
C32   1    0.384353    0.146570    0.962864    11.00000    0.03553    0.09758 =
         0.06464   -0.04064   -0.01661    0.04043
AFIX  43
H32A  2    0.407195    0.144853    1.012604    11.00000   -1.20000
AFIX   0
C33   1    0.378843    0.123156    0.866164    11.00000    0.03686    0.04143 =
         0.06643   -0.00764   -0.00019    0.01227
C34   1    0.346138    0.126013    0.796263    11.00000    0.05051    0.08690 =
         0.07314   -0.04536   -0.00600    0.01931
AFIX  43
H34A  2    0.342325    0.111597    0.724664    11.00000   -1.20000
AFIX   0
C35   1    0.318387    0.150119    0.830220    11.00000    0.04682    0.04837 =
         0.04447   -0.02323   -0.00446    0.02339
AFIX  43
H35A  2    0.294558    0.149190    0.785945    11.00000   -1.20000
AFIX   0
C36   1    0.410602    0.098475    0.837225    11.00000    0.03437    0.03783 =
         0.07030   -0.00947    0.01482    0.02081
C37   1    0.447750    0.108538    0.878039    11.00000    0.03982    0.03166 =
         0.10998   -0.02257    0.02624    0.00422
AFIX  43
H37A  2    0.453429    0.132606    0.927094    11.00000   -1.20000
AFIX   0
C38   1    0.475932    0.084053    0.847958    11.00000    0.03237    0.02877 =
         0.08349   -0.00953    0.02210    0.00132
AFIX  43
H38A  2    0.500488    0.092894    0.873769    11.00000   -1.20000
AFIX   0
C39   1    0.469882    0.046397    0.780436    11.00000    0.03990    0.01767 =
         0.06843    0.00239    0.02271    0.00255
C40   1    0.431456    0.037296    0.731022    11.00000    0.05332    0.03107 =
         0.09017   -0.02160    0.02460    0.00169
AFIX  43
H40A  2    0.426097    0.014405    0.677852    11.00000   -1.20000
AFIX   0
C41   1    0.402847    0.061761    0.761101    11.00000    0.03199    0.05730 =
         0.08678   -0.02230    0.02781    0.00728
AFIX  43
H41A  2    0.378161    0.054422    0.731740    11.00000   -1.20000
AFIX   0
C42   1    0.500000    0.022775    0.750000    10.50000    0.03344    0.02072 =
         0.07686    0.00000    0.01492    0.00000
C43   1    0.500000   -0.022314    0.750000    10.50000    0.02608    0.01484 =
         0.08050    0.00000    0.02888    0.00000
C44   1    0.471856   -0.047616    0.792245    11.00000    0.03649    0.02325 =
         0.06384   -0.00337    0.01304   -0.01286
C45   1    0.461105   -0.043007    0.894614    11.00000    0.03718    0.03101 =
         0.08018    0.00492    0.01597   -0.01489
AFIX  43
H45A  2    0.473729   -0.023669    0.949349    11.00000   -1.20000
AFIX   0
C46   1    0.430185   -0.067603    0.921489    11.00000    0.04813    0.08094 =
         0.06658    0.00612    0.02217   -0.02044
AFIX  43
H46A  2    0.421586   -0.062107    0.991466    11.00000   -1.20000
AFIX   0
C47   1    0.413345   -0.097748    0.851261    11.00000    0.06536    0.04686 =
         0.04940   -0.00797    0.01488   -0.03958
C48   1    0.424199   -0.101001    0.742571    11.00000    0.08572    0.04838 =
         0.08708   -0.02829    0.03275   -0.04528
AFIX  43
H48A  2    0.411033   -0.119845    0.687592    11.00000   -1.20000
AFIX   0
C49   1    0.451597   -0.079127    0.714820    11.00000    0.07221    0.04430 =
         0.07267   -0.01705    0.04421   -0.02199
AFIX  43
H49A  2    0.458616   -0.083795    0.642118    11.00000   -1.20000
AFIX   0
C50   1    0.381332   -0.121124    0.882812    11.00000    0.05067    0.05226 =
         0.05655   -0.00354    0.01066   -0.02443
C51   1    0.350981   -0.132257    0.795807    11.00000    0.07079    0.05217 =
         0.05717   -0.00275    0.02170   -0.02517
AFIX  43
H51A  2    0.350747   -0.124074    0.718472    11.00000   -1.20000
AFIX   0
C52   1    0.322434   -0.154953    0.827326    11.00000    0.05228    0.04907 =
         0.04357    0.00843    0.00231   -0.03842
AFIX  43
H52A  2    0.300444   -0.158409    0.774288    11.00000   -1.20000
AFIX   0
C53   1    0.325111   -0.173198    0.936673    11.00000    0.03108    0.03965 =
         0.04758    0.01575    0.01419   -0.01536
C54   1    0.354449   -0.165349    1.014211    11.00000    0.03550    0.06667 =
         0.05949    0.02476    0.01617   -0.00972
AFIX  43
H54A  2    0.357018   -0.178878    1.086928    11.00000   -1.20000
AFIX   0
C55   1    0.382002   -0.136797    0.988795    11.00000    0.02989    0.04775 =
         0.06534   -0.00491    0.01703   -0.02123
AFIX  43
H55A  2    0.401299   -0.128596    1.047824    11.00000   -1.20000
AFIX   0
C56   1    0.295292   -0.201413    0.958434    11.00000    0.02796    0.07866 =
         0.05253    0.04395   -0.00418   -0.01664
O7    4    0.303781   -0.228711    1.049270    11.00000    0.02497    0.06331 =
         0.06204    0.03622   -0.00042   -0.01687
O8    4    0.262157   -0.198510    0.897172    11.00000    0.03001    0.03958 =
         0.05205    0.01980    0.00078   -0.01298

HKLF 5

REM  ZH3_40G in C2/c
REM R1 =  0.0898 for    8190 Fo > 4sig(Fo)  and  0.1126 for all   12293 data
REM    580 parameters refined using     12 restraints

END

WGHT      0.1339     88.1245

REM Highest difference peak  0.700,  deepest hole -1.129,  1-sigma level  0.118
Q1    1   0.2569  0.2472  0.8538  11.00000  0.05    0.70
Q2    1   0.2382  0.2685  0.7916  11.00000  0.05    0.62
Q3    1   0.2976 -0.2506  1.1132  11.00000  0.05    0.60
Q4    1   0.2037  0.2505  0.8810  11.00000  0.05    0.58
Q5    1   0.2677 -0.2393  1.2258  11.00000  0.05    0.56
Q6    1   0.2951 -0.2329  1.1831  11.00000  0.05    0.55
Q7    1   0.2695 -0.2625  1.0427  11.00000  0.05    0.53
Q8    1   0.2775  0.2493  1.0410  11.00000  0.05    0.51
Q9    1   0.3253  0.0037  0.5307  11.00000  0.05    0.49
Q10   1   0.1692  0.0035  0.1805  11.00000  0.05    0.47
Q11   1   0.3291  0.1194  0.8684  11.00000  0.05    0.46
Q12   1   0.4457  0.1101  0.9843  11.00000  0.05    0.45
Q13   1   0.2047  0.2314  0.8089  11.00000  0.05    0.44
Q14   1   0.0747  0.1370  0.6681  11.00000  0.05    0.43
Q15   1   0.2352  0.2298  0.9461  11.00000  0.05    0.43
Q16   1   0.3289  0.1699  1.0053  11.00000  0.05    0.43
Q17   1  -0.1836 -0.2124  0.1273  11.00000  0.05    0.42
Q18   1  -0.2357 -0.2325 -0.0624  11.00000  0.05    0.41
Q19   1   0.1805  0.0292  0.2711  11.00000  0.05    0.41
Q20   1   0.3188  0.1301  0.8957  11.00000  0.05    0.41
Q21   1  -0.0665 -0.1330  0.2431  11.00000  0.05    0.40
Q22   1  -0.0668 -0.1137 -0.1177  11.00000  0.05    0.40
Q23   1   0.3229  0.1511  0.8996  11.00000  0.05    0.40
Q24   1   0.3290  0.2503  1.0792  11.00000  0.05    0.40
Q25   1   0.3230 -0.1527  0.9098  11.00000  0.05    0.39
Q26   1   0.0727  0.0738  0.2426  11.00000  0.05    0.39
Q27   1   0.4246 -0.1269  1.1592  11.00000  0.05    0.39
Q28   1  -0.0749 -0.1391 -0.1188  11.00000  0.05    0.38
Q29   1  -0.0741 -0.1393 -0.0821  11.00000  0.05    0.38
Q30   1   0.1884  0.2002  0.7995  11.00000  0.05    0.38
Q31   1  -0.1876 -0.1098 -0.0122  11.00000  0.05    0.38
Q32   1   0.4120 -0.2338  1.2794  11.00000  0.05    0.38
Q33   1   0.3260 -0.2813  1.0843  11.00000  0.05    0.38
Q34   1   0.2655 -0.2711  1.2352  11.00000  0.05    0.38
Q35   1  -0.1803 -0.1312 -0.0839  11.00000  0.05    0.37
Q36   1   0.0628  0.1115  0.5270  11.00000  0.05    0.37
Q37   1  -0.1763 -0.2033  0.0834  11.00000  0.05    0.37
Q38   1   0.3207 -0.1095  0.7558  11.00000  0.05    0.37
Q39   1   0.2829 -0.2319  1.0535  11.00000  0.05    0.36
Q40   1   0.4180  0.1196  1.0439  11.00000  0.05    0.36
;
_shelx_res_checksum              93515
_shelx_fab_file
;
    6    0    0    107.88      0.00
    8    0    0    -83.97      0.00
   10    0    0    -12.61      0.00
   12    0    0    -36.18      0.00
   14    0    0    -44.94      0.00
   16    0    0     -4.63      0.00
   18    0    0     -1.40      0.00
   20    0    0     -9.25      0.00
   22    0    0     11.49      0.00
   24    0    0     -0.33      0.00
   26    0    0    -27.16      0.00
   28    0    0     27.84      0.00
   30    0    0    -15.95      0.00
   32    0    0     16.81      0.00
   34    0    0     24.03      0.00
   36    0    0     -4.48      0.00
   38    0    0     21.82      0.00
   40    0    0     -1.82      0.00
   42    0    0      1.88      0.00
    5    1    0    -13.28      0.00
    7    1    0     21.13      0.00
    9    1    0    -13.58      0.00
   11    1    0     12.49      0.00
   13    1    0     -3.28      0.00
   15    1    0    -11.92      0.00
   17    1    0      9.73      0.00
   19    1    0      3.75      0.00
   21    1    0     -9.53      0.00
   23    1    0     10.84      0.00
   25    1    0     -7.18      0.00
   27    1    0      3.69      0.00
   29    1    0     -0.88      0.00
   31    1    0      2.18      0.00
   33    1    0     -1.85      0.00
   35    1    0     -1.97      0.00
   37    1    0      2.09      0.00
   39    1    0     -2.22      0.00
   41    1    0     -4.04      0.00
   43    1    0      3.30      0.00
    8    2    0    -54.18      0.00
   10    2    0     39.05      0.00
   12    2    0     61.83      0.00
   14    2    0    -32.98      0.00
   16    2    0     32.47      0.00
   18    2    0     27.93      0.00
   20    2    0    -29.14      0.00
   22    2    0      4.87      0.00
   24    2    0      4.84      0.00
   26    2    0    -12.91      0.00
   28    2    0     22.73      0.00
   30    2    0    -14.50      0.00
   32    2    0    -13.14      0.00
   34    2    0     -2.24      0.00
   36    2    0    -10.48      0.00
   38    2    0      1.19      0.00
   40    2    0     -8.46      0.00
   42    2    0      4.78      0.00
    3    3    0     -6.11      0.00
    5    3    0    -21.84      0.00
    7    3    0     13.06      0.00
    9    3    0      5.55      0.00
   11    3    0     -7.26      0.00
   13    3    0      5.00      0.00
   15    3    0     -2.77      0.00
   17    3    0      9.11      0.00
   19    3    0      3.95      0.00
   21    3    0     -7.31      0.00
   23    3    0      8.77      0.00
   25    3    0     -0.47      0.00
   27    3    0     -8.35      0.00
   29    3    0      6.26      0.00
   31    3    0     -3.67      0.00
   33    3    0     -5.91      0.00
   35    3    0      2.74      0.00
   37    3    0      2.56      0.00
   39    3    0      7.45      0.00
   41    3    0     -0.77      0.00
   43    3    0      0.23      0.00
    6    4    0     36.39      0.00
    8    4    0     25.21      0.00
   10    4    0    -38.39      0.00
   12    4    0     35.52      0.00
   14    4    0    -36.37      0.00
   16    4    0     11.21      0.00
   18    4    0      7.68      0.00
   20    4    0    -15.72      0.00
   22    4    0     27.18      0.00
   24    4    0    -12.45      0.00
   26    4    0      4.56      0.00
   28    4    0     11.35      0.00
   30    4    0     -8.24      0.00
   32    4    0     -1.46      0.00
   34    4    0      4.07      0.00
   36    4    0     -7.56      0.00
   38    4    0     -3.44      0.00
   40    4    0      3.12      0.00
   42    4    0     -7.78      0.00
    1    5    0     -4.02      0.00
    3    5    0      2.01      0.00
    5    5    0    -18.06      0.00
    7    5    0     20.54      0.00
    9    5    0     16.61      0.00
   11    5    0    -14.92      0.00
   13    5    0      2.66      0.00
   15    5    0    -12.61      0.00
   17    5    0     -7.45      0.00
   19    5    0     -0.24      0.00
   21    5    0    -10.94      0.00
   23    5    0     -0.94      0.00
   25    5    0      1.19      0.00
   27    5    0     -7.52      0.00
   29    5    0     13.70      0.00
   31    5    0     -1.01      0.00
   33    5    0     -0.23      0.00
   35    5    0      5.37      0.00
   37    5    0    -11.74      0.00
   39    5    0      4.25      0.00
   41    5    0     -1.00      0.00
   43    5    0     -5.22      0.00
    0    6    0     17.08      0.00
    2    6    0    158.27      0.00
    8    6    0     -2.44      0.00
   10    6    0    -18.53      0.00
   12    6    0     27.49      0.00
   14    6    0    -36.96      0.00
   16    6    0     -1.31      0.00
   18    6    0     17.28      0.00
   20    6    0    -37.09      0.00
   22    6    0     -0.36      0.00
   24    6    0    -18.66      0.00
   26    6    0      4.36      0.00
   28    6    0      7.20      0.00
   30    6    0      6.67      0.00
   32    6    0      2.41      0.00
   34    6    0      8.11      0.00
   36    6    0     14.88      0.00
   38    6    0      0.86      0.00
   40    6    0      5.97      0.00
   42    6    0     -1.73      0.00
    1    7    0     16.68      0.00
    3    7    0     -0.64      0.00
    5    7    0    -43.55      0.00
    7    7    0     18.96      0.00
    9    7    0      2.98      0.00
   11    7    0    -23.67      0.00
   13    7    0      6.67      0.00
   15    7    0     15.95      0.00
   17    7    0      7.69      0.00
   19    7    0      6.71      0.00
   21    7    0      5.05      0.00
   23    7    0     11.93      0.00
   25    7    0     -1.12      0.00
   27    7    0     -4.41      0.00
   29    7    0      5.92      0.00
   31    7    0     -2.28      0.00
   33    7    0     -5.70      0.00
   35    7    0      1.29      0.00
   37    7    0     -6.34      0.00
   39    7    0      5.75      0.00
   41    7    0     -2.60      0.00
   43    7    0     -3.38      0.00
    0    8    0    -81.84      0.00
    4    8    0   -162.21      0.00
    6    8    0    -18.88      0.00
    8    8    0    -39.91      0.00
   10    8    0     -8.46      0.00
   12    8    0      5.63      0.00
   14    8    0      4.85      0.00
   16    8    0     17.11      0.00
   18    8    0     27.67      0.00
   20    8    0      2.41      0.00
   22    8    0     18.13      0.00
   24    8    0     -1.00      0.00
   26    8    0      1.65      0.00
   28    8    0     -7.13      0.00
   30    8    0     -9.69      0.00
   32    8    0    -10.23      0.00
   34    8    0     -8.48      0.00
   36    8    0     -1.95      0.00
   38    8    0     -6.94      0.00
   40    8    0      0.99      0.00
   42    8    0     -1.74      0.00
    1    9    0     -6.10      0.00
    3    9    0      7.63      0.00
    5    9    0     -3.60      0.00
    7    9    0     23.14      0.00
    9    9    0      6.71      0.00
   11    9    0     -2.48      0.00
   13    9    0     -1.50      0.00
   15    9    0    -10.05      0.00
   17    9    0    -14.16      0.00
   19    9    0      1.05      0.00
   21    9    0     -3.44      0.00
   23    9    0     -7.18      0.00
   25    9    0     -9.64      0.00
   27    9    0      2.43      0.00
   29    9    0     -4.00      0.00
   31    9    0      1.87      0.00
   33    9    0      4.99      0.00
   35    9    0      2.37      0.00
   37    9    0     -1.88      0.00
   39    9    0      6.22      0.00
   41    9    0      4.63      0.00
    0   10    0     63.98      0.00
    2   10    0     66.34      0.00
    4   10    0     46.60      0.00
    6   10    0     98.80      0.00
    8   10    0      6.62      0.00
   10   10    0     -7.77      0.00
   12   10    0      7.70      0.00
   14   10    0    -51.86      0.00
   16   10    0    -10.28      0.00
   18   10    0      3.35      0.00
   20   10    0    -20.14      0.00
   22   10    0     -7.67      0.00
   24   10    0      1.58      0.00
   26   10    0      7.27      0.00
   28   10    0      0.50      0.00
   30   10    0     11.93      0.00
   32   10    0     -1.84      0.00
   34   10    0      0.02      0.00
   36   10    0      5.34      0.00
   38   10    0     -3.37      0.00
   40   10    0      2.94      0.00
   42   10    0     -0.73      0.00
    1   11    0     11.82      0.00
    3   11    0    -10.32      0.00
    5   11    0    -10.33      0.00
    7   11    0      1.15      0.00
    9   11    0     -2.84      0.00
   11   11    0     -3.21      0.00
   13   11    0     -2.03      0.00
   15   11    0     19.39      0.00
   17   11    0     -2.58      0.00
   19   11    0      1.53      0.00
   21   11    0      3.15      0.00
   23   11    0      6.85      0.00
   25   11    0     -1.30      0.00
   27   11    0      3.63      0.00
   29   11    0      2.11      0.00
   31   11    0      2.68      0.00
   33   11    0     -4.06      0.00
   35   11    0     -5.17      0.00
   37   11    0     -2.45      0.00
   39   11    0     -1.49      0.00
   41   11    0     -1.25      0.00
    0   12    0      5.91      0.00
    2   12    0    -33.26      0.00
    4   12    0    -52.32      0.00
    6   12    0    -24.58      0.00
    8   12    0     31.44      0.00
   10   12    0     -2.04      0.00
   12   12    0     77.59      0.00
   14   12    0      7.18      0.00
   16   12    0     15.88      0.00
   18   12    0      8.36      0.00
   20   12    0    -17.28      0.00
   22   12    0     -1.85      0.00
   24   12    0      0.73      0.00
   26   12    0     -1.73      0.00
   28   12    0     -7.17      0.00
   30   12    0     15.19      0.00
   32   12    0     -4.55      0.00
   34   12    0      4.09      0.00
   36   12    0      4.64      0.00
   38   12    0     -6.86      0.00
   40   12    0      4.04      0.00
    1   13    0     -9.61      0.00
    3   13    0     -0.21      0.00
    5   13    0     10.48      0.00
    7   13    0      1.92      0.00
    9   13    0     -9.55      0.00
   11   13    0     17.46      0.00
   13   13    0    -11.56      0.00
   15   13    0      1.58      0.00
   17   13    0    -10.56      0.00
   19   13    0     10.62      0.00
   21   13    0     -1.02      0.00
   23   13    0     -4.19      0.00
   25   13    0     -0.53      0.00
   27   13    0      0.43      0.00
   29   13    0     -1.71      0.00
   31   13    0     -1.81      0.00
   33   13    0      4.73      0.00
   35   13    0      3.47      0.00
   37   13    0     -0.05      0.00
   39   13    0      1.70      0.00
   41   13    0     -0.28      0.00
    0   14    0      3.71      0.00
    2   14    0     -7.31      0.00
    4   14    0     18.55      0.00
    6   14    0    -43.88      0.00
    8   14    0     -8.89      0.00
   10   14    0    -75.12      0.00
   12   14    0    -28.48      0.00
   14   14    0    -21.72      0.00
   16   14    0     -8.93      0.00
   18   14    0     36.36      0.00
   20   14    0      2.57      0.00
   22   14    0      5.97      0.00
   24   14    0     17.26      0.00
   26   14    0     -3.22      0.00
   28   14    0    -11.16      0.00
   30   14    0      2.97      0.00
   32   14    0     -9.55      0.00
   34   14    0     -1.67      0.00
   36   14    0     -1.12      0.00
   38   14    0     -6.00      0.00
   40   14    0      5.88      0.00
    1   15    0      4.32      0.00
    3   15    0      3.01      0.00
    5   15    0     -0.93      0.00
    7   15    0      4.98      0.00
    9   15    0    -12.56      0.00
   11   15    0      4.00      0.00
   13   15    0    -10.88      0.00
   15   15    0      8.72      0.00
   17   15    0     -2.76      0.00
   19   15    0     -4.86      0.00
   21   15    0     -0.58      0.00
   23   15    0      3.42      0.00
   25   15    0      1.41      0.00
   27   15    0     -6.43      0.00
   29   15    0      5.00      0.00
   31   15    0     -1.25      0.00
   33   15    0      0.84      0.00
   35   15    0      1.61      0.00
   37   15    0     -0.13      0.00
   39   15    0     -2.98      0.00
    0   16    0     -3.58      0.00
    2   16    0     22.70      0.00
    4   16    0     29.96      0.00
    6   16    0     14.88      0.00
    8   16    0     50.55      0.00
   10   16    0     39.95      0.00
   12   16    0      5.66      0.00
   14   16    0     16.06      0.00
   16   16    0    -39.82      0.00
   18   16    0      5.33      0.00
   20   16    0    -27.60      0.00
   22   16    0    -15.18      0.00
   24   16    0     10.77      0.00
   26   16    0    -14.44      0.00
   28   16    0      2.92      0.00
   30   16    0     10.16      0.00
   32   16    0     -0.31      0.00
   34   16    0      4.90      0.00
   36   16    0      7.10      0.00
   38   16    0     -4.26      0.00
    1   17    0     -4.51      0.00
    3   17    0     -3.19      0.00
    5   17    0     -5.10      0.00
    7   17    0      1.01      0.00
    9   17    0      2.40      0.00
   11   17    0      6.67      0.00
   13   17    0      0.21      0.00
   15   17    0     -2.14      0.00
   17   17    0      7.34      0.00
   19   17    0      6.95      0.00
   21   17    0      1.70      0.00
   23   17    0     -9.39      0.00
   25   17    0      6.50      0.00
   27   17    0     -2.27      0.00
   29   17    0      1.28      0.00
   31   17    0     -4.27      0.00
   33   17    0     -3.98      0.00
   35   17    0     -3.66      0.00
   37   17    0      0.71      0.00
   39   17    0     -0.37      0.00
    0   18    0    -44.35      0.00
    2   18    0      7.13      0.00
    4   18    0    -23.49      0.00
    6   18    0    -30.59      0.00
    8   18    0    -27.89      0.00
   10   18    0     -1.39      0.00
   12   18    0     -3.16      0.00
   14   18    0     23.91      0.00
   16   18    0    -10.38      0.00
   18   18    0     38.10      0.00
   20   18    0     -6.10      0.00
   22   18    0      1.00      0.00
   24   18    0     24.48      0.00
   26   18    0     -6.44      0.00
   28   18    0     -3.27      0.00
   30   18    0      1.92      0.00
   32   18    0     -5.32      0.00
   34   18    0     -4.59      0.00
   36   18    0     -1.28      0.00
   38   18    0     -2.95      0.00
    1   19    0      3.58      0.00
    3   19    0      4.62      0.00
    5   19    0      2.57      0.00
    7   19    0      1.14      0.00
    9   19    0      2.34      0.00
   11   19    0     -4.18      0.00
   13   19    0     -5.03      0.00
   15   19    0      1.08      0.00
   17   19    0     -6.30      0.00
   19   19    0     -4.99      0.00
   21   19    0     -1.60      0.00
   23   19    0     -3.96      0.00
   25   19    0      6.88      0.00
   27   19    0     -6.53      0.00
   29   19    0     -0.47      0.00
   31   19    0      4.43      0.00
   33   19    0      2.18      0.00
   35   19    0      5.58      0.00
   37   19    0      7.39      0.00
    0   20    0    -18.54      0.00
    2   20    0     19.18      0.00
    4   20    0      6.51      0.00
    6   20    0     10.76      0.00
    8   20    0     11.96      0.00
   10   20    0     -6.21      0.00
   12   20    0     -2.82      0.00
   14   20    0     -7.64      0.00
   16   20    0    -19.88      0.00
   18   20    0     13.14      0.00
   20   20    0    -17.05      0.00
   22   20    0     -9.21      0.00
   24   20    0      4.00      0.00
   26   20    0     -5.95      0.00
   28   20    0     -1.41      0.00
   30   20    0      5.00      0.00
   32   20    0     -4.75      0.00
   34   20    0      2.73      0.00
   36   20    0      3.66      0.00
    1   21    0      1.04      0.00
    3   21    0     -1.91      0.00
    5   21    0     -2.42      0.00
    7   21    0     -2.81      0.00
    9   21    0      5.24      0.00
   11   21    0      4.44      0.00
   13   21    0    -15.39      0.00
   15   21    0      7.72      0.00
   17   21    0      2.68      0.00
   19   21    0      9.24      0.00
   21   21    0      0.16      0.00
   23   21    0     -2.86      0.00
   25   21    0      6.20      0.00
   27   21    0     -0.35      0.00
   29   21    0     -1.15      0.00
   31   21    0      3.74      0.00
   33   21    0     -3.82      0.00
   35   21    0     -6.74      0.00
    0   22    0     -4.25      0.00
    2   22    0      9.30      0.00
    4   22    0      0.33      0.00
    6   22    0     -6.92      0.00
    8   22    0      4.46      0.00
   10   22    0      1.43      0.00
   12   22    0     15.79      0.00
   14   22    0      1.70      0.00
   16   22    0      2.59      0.00
   18   22    0     15.25      0.00
   20   22    0     -3.97      0.00
   22   22    0     -0.64      0.00
   24   22    0      8.73      0.00
   26   22    0     -0.93      0.00
   28   22    0     -0.36      0.00
   30   22    0      3.79      0.00
   32   22    0     -0.72      0.00
   34   22    0      2.14      0.00
    1   23    0     -0.70      0.00
    3   23    0     -5.62      0.00
    5   23    0      6.12      0.00
    7   23    0     -8.25      0.00
    9   23    0      6.75      0.00
   11   23    0      9.61      0.00
   13   23    0    -12.93      0.00
   15   23    0      5.91      0.00
   17   23    0      2.59      0.00
   19   23    0      1.50      0.00
   21   23    0      1.85      0.00
   23   23    0     -3.45      0.00
   25   23    0     -3.03      0.00
   27   23    0     -0.19      0.00
   29   23    0     -1.79      0.00
   31   23    0      4.20      0.00
   33   23    0     -1.46      0.00
    0   24    0      3.06      0.00
    2   24    0     -5.48      0.00
    4   24    0      0.77      0.00
    6   24    0     -1.88      0.00
    8   24    0     -2.60      0.00
   10   24    0    -13.60      0.00
   12   24    0     -9.92      0.00
   14   24    0    -13.19      0.00
   16   24    0     -7.24      0.00
   18   24    0     10.02      0.00
   20   24    0     -0.10      0.00
   22   24    0     -3.61      0.00
   24   24    0      6.16      0.00
   26   24    0     -3.08      0.00
   28   24    0      3.53      0.00
   30   24    0     -4.25      0.00
   32   24    0     -2.83      0.00
    1   25    0      4.01      0.00
    3   25    0     -8.43      0.00
    5   25    0     10.29      0.00
    7   25    0    -13.33      0.00
    9   25    0      7.27      0.00
   11   25    0      5.89      0.00
   13   25    0    -11.44      0.00
   15   25    0     -0.77      0.00
   17   25    0      2.64      0.00
   19   25    0    -10.27      0.00
   21   25    0      0.37      0.00
   23   25    0      5.07      0.00
   25   25    0      0.99      0.00
   27   25    0      1.60      0.00
   29   25    0     -5.98      0.00
   31   25    0      3.14      0.00
    0   26    0     18.02      0.00
    2   26    0    -10.67      0.00
    4   26    0      0.70      0.00
    6   26    0     -3.98      0.00
    8   26    0      7.10      0.00
   10   26    0     10.80      0.00
   12   26    0     17.61      0.00
   14   26    0      5.12      0.00
   16   26    0     -5.98      0.00
   18   26    0      4.63      0.00
   20   26    0    -11.72      0.00
   22   26    0     -8.62      0.00
   24   26    0      3.42      0.00
   26   26    0     -8.59      0.00
   28   26    0      6.19      0.00
   30   26    0      1.02      0.00
    1   27    0      5.41      0.00
    3   27    0     -8.63      0.00
    5   27    0     10.64      0.00
    7   27    0     -5.77      0.00
    9   27    0      2.84      0.00
   11   27    0      3.70      0.00
   13   27    0     -4.87      0.00
   15   27    0     -4.00      0.00
   17   27    0      7.51      0.00
   19   27    0      1.68      0.00
   21   27    0     -0.42      0.00
   23   27    0     -2.46      0.00
   25   27    0     -9.60      0.00
   27   27    0      4.52      0.00
   29   27    0     -0.28      0.00
    0   28    0      3.28      0.00
    2   28    0     -9.65      0.00
    4   28    0     -1.40      0.00
    6   28    0      7.23      0.00
    8   28    0     -3.23      0.00
   10   28    0    -11.06      0.00
   12   28    0     -5.14      0.00
   14   28    0     -9.27      0.00
   16   28    0      0.15      0.00
   18   28    0     17.01      0.00
   20   28    0      1.15      0.00
   22   28    0      1.91      0.00
   24   28    0      7.13      0.00
   26   28    0     -4.79      0.00
   28   28    0      0.47      0.00
    1   29    0      5.30      0.00
    3   29    0    -10.38      0.00
    5   29    0      0.07      0.00
    7   29    0     -5.20      0.00
    9   29    0     -0.24      0.00
   11   29    0      2.96      0.00
   13   29    0      1.93      0.00
   15   29    0     -6.68      0.00
   17   29    0      5.90      0.00
   19   29    0     -0.97      0.00
   21   29    0     -1.05      0.00
   23   29    0     10.27      0.00
   25   29    0     -0.16      0.00
   27   29    0      4.81      0.00
    0   30    0     16.35      0.00
    2   30    0     13.98      0.00
    4   30    0     -8.19      0.00
    6   30    0      3.77      0.00
    8   30    0     -6.32      0.00
   10   30    0      7.17      0.00
   12   30    0     11.36      0.00
   14   30    0     -2.07      0.00
   16   30    0     -1.26      0.00
   18   30    0     -1.87      0.00
   20   30    0     -7.11      0.00
   22   30    0     -1.31      0.00
   24   30    0     -0.86      0.00
   26   30    0     -3.52      0.00
    1   31    0      4.50      0.00
    3   31    0     -4.56      0.00
    5   31    0      7.73      0.00
    7   31    0      2.31      0.00
    9   31    0     -0.80      0.00
   11   31    0      3.01      0.00
   13   31    0      5.50      0.00
   15   31    0     -9.70      0.00
   17   31    0      1.52      0.00
   19   31    0     -2.74      0.00
   21   31    0     -3.26      0.00
   23   31    0     -0.32      0.00
    0   32    0     -7.91      0.00
    2   32    0     -5.04      0.00
    4   32    0     -3.02      0.00
    6   32    0      6.62      0.00
    8   32    0     -2.52      0.00
   10   32    0     -0.10      0.00
   12   32    0     -5.54      0.00
   14   32    0     -7.31      0.00
   16   32    0      6.24      0.00
   18   32    0      3.37      0.00
   20   32    0      0.78      0.00
   22   32    0      3.85      0.00
    1   33    0      4.70      0.00
    3   33    0     -6.94      0.00
    5   33    0     -1.96      0.00
    7   33    0      0.67      0.00
    9   33    0     -3.34      0.00
   11   33    0      5.25      0.00
   13   33    0     -0.14      0.00
   15   33    0      1.07      0.00
   17   33    0      4.34      0.00
   19   33    0     -0.21      0.00
    0   34    0      5.23      0.00
    2   34    0     -2.56      0.00
    4   34    0     -2.34      0.00
    6   34    0     -5.31      0.00
    8   34    0     -3.16      0.00
   10   34    0      4.99      0.00
   12   34    0      5.55      0.00
   14   34    0     -1.23      0.00
   16   34    0      2.36      0.00
   18   34    0     -2.71      0.00
    1   35    0     -0.19      0.00
    3   35    0     -1.20      0.00
    5   35    0     -0.13      0.00
    7   35    0      0.69      0.00
    9   35    0     -8.08      0.00
   11   35    0      5.59      0.00
   13   35    0     -4.04      0.00
   15   35    0      1.47      0.00
    0   36    0      1.72      0.00
    2   36    0      3.46      0.00
    4   36    0      2.99      0.00
    6   36    0      3.98      0.00
    8   36    0      0.40      0.00
   10   36    0     -1.75      0.00
   12   36    0     -0.89      0.00
    1   37    0      2.01      0.00
    3   37    0     -0.10      0.00
    5   37    0      3.13      0.00
  -43    1    1     -2.71      0.00
  -41    1    1      5.28      0.00
  -39    1    1      1.91      0.00
  -37    1    1      6.47      0.00
  -35    1    1      9.98      0.00
  -33    1    1      7.58      0.00
  -31    1    1      7.44      0.00
  -29    1    1      1.90      0.00
  -27    1    1     -5.14      0.00
  -25    1    1      9.26      0.00
  -23    1    1     -2.04      0.00
  -21    1    1     19.78      0.00
  -19    1    1      4.84      0.00
  -17    1    1      5.48      0.00
  -15    1    1     16.50      0.00
  -13    1    1     21.06      0.00
  -11    1    1     -6.67      0.00
   -9    1    1     23.82      0.00
   -7    1    1     48.57      0.00
   -5    1    1     79.97      0.00
    3    1    1     40.75      0.00
    5    1    1     41.77      0.00
    7    1    1     22.89      0.00
    9    1    1     -2.64      0.00
   11    1    1      1.72      0.00
   13    1    1      3.57      0.00
   15    1    1     11.47      0.00
   17    1    1     15.66      0.00
   19    1    1     11.55      0.00
   21    1    1      7.01      0.00
   23    1    1      8.54      0.00
   25    1    1     10.97      0.00
   27    1    1      4.96      0.00
   29    1    1      6.78      0.00
   31    1    1     11.66      0.00
   33    1    1     11.00      0.00
   35    1    1      2.12      0.00
   37    1    1      3.58      0.00
   39    1    1      2.46      0.00
   41    1    1      2.15      0.00
   43    1    1     -1.85      0.00
  -44    2    1     -3.86      0.00
  -42    2    1     -0.69      0.00
  -40    2    1      2.59      0.00
  -38    2    1      6.39      0.00
  -36    2    1     -0.07      0.00
  -34    2    1     -8.70      0.00
  -32    2    1     -0.73      0.00
  -30    2    1    -12.42      0.00
  -28    2    1      3.25      0.00
  -26    2    1     -3.86      0.00
  -24    2    1     -5.88      0.00
  -22    2    1      9.26      0.00
  -20    2    1      0.60      0.00
  -18    2    1     11.92      0.00
  -16    2    1     -3.93      0.00
  -14    2    1    -17.26      0.00
  -12    2    1      8.69      0.00
  -10    2    1     17.55      0.00
   -8    2    1     -8.21      0.00
   -6    2    1     66.02      0.00
   -4    2    1      9.47      0.00
    2    2    1      5.03      0.00
    4    2    1    -23.18      0.00
    6    2    1    -49.56      0.00
    8    2    1      1.58      0.00
   10    2    1    -22.35      0.00
   12    2    1     -4.98      0.00
   14    2    1     -8.00      0.00
   16    2    1      9.69      0.00
   18    2    1    -10.91      0.00
   20    2    1     10.50      0.00
   22    2    1     -4.76      0.00
   24    2    1     -4.58      0.00
   26    2    1     18.29      0.00
   28    2    1    -11.88      0.00
   30    2    1     -8.83      0.00
   32    2    1     -5.29      0.00
   34    2    1    -16.06      0.00
   36    2    1      5.52      0.00
   38    2    1     -5.97      0.00
   40    2    1     -1.43      0.00
   42    2    1      3.49      0.00
  -43    3    1     -0.45      0.00
  -41    3    1      9.86      0.00
  -39    3    1     -8.07      0.00
  -37    3    1      0.41      0.00
  -35    3    1     -3.80      0.00
  -33    3    1     -7.08      0.00
  -31    3    1     -1.09      0.00
  -29    3    1      6.95      0.00
  -27    3    1     -8.15      0.00
  -25    3    1     11.22      0.00
  -23    3    1    -16.63      0.00
  -21    3    1      3.42      0.00
  -19    3    1    -12.24      0.00
  -17    3    1    -11.84      0.00
  -15    3    1    -13.19      0.00
  -13    3    1      6.43      0.00
  -11    3    1    -35.82      0.00
   -9    3    1     40.78      0.00
   -7    3    1    -25.41      0.00
   -5    3    1    -47.87      0.00
   -3    3    1    -18.56      0.00
   -1    3    1     55.24      0.00
    1    3    1      5.12      0.00
    3    3    1    -41.78      0.00
    5    3    1    -26.03      0.00
    7    3    1     31.89      0.00
    9    3    1     -9.69      0.00
   11    3    1      1.60      0.00
   13    3    1     10.27      0.00
   15    3    1     -2.64      0.00
   17    3    1    -18.68      0.00
   19    3    1     -6.56      0.00
   21    3    1     -5.06      0.00
   23    3    1    -10.31      0.00
   25    3    1     -1.61      0.00
   27    3    1     -4.04      0.00
   29    3    1      6.16      0.00
   31    3    1    -11.35      0.00
   33    3    1     -4.50      0.00
   35    3    1     -0.51      0.00
   37    3    1      1.59      0.00
   39    3    1     -5.23      0.00
   41    3    1      2.67      0.00
   43    3    1      3.34      0.00
  -44    4    1      2.27      0.00
  -42    4    1     -2.10      0.00
  -40    4    1      5.30      0.00
  -38    4    1     -1.60      0.00
  -36    4    1     -3.44      0.00
  -34    4    1      0.23      0.00
  -32    4    1     14.62      0.00
  -30    4    1      7.56      0.00
  -28    4    1     12.06      0.00
  -26    4    1     -0.95      0.00
  -24    4    1      6.92      0.00
  -22    4    1      1.72      0.00
  -20    4    1     -0.40      0.00
  -18    4    1    -16.81      0.00
  -16    4    1    -14.67      0.00
  -14    4    1      4.82      0.00
  -12    4    1    -15.22      0.00
  -10    4    1      9.85      0.00
   -8    4    1    -81.91      0.00
   -6    4    1     32.55      0.00
   -4    4    1    -70.11      0.00
   -2    4    1    -22.48      0.00
    0    4    1      0.30      0.00
    2    4    1     32.86      0.00
    4    4    1     59.06      0.00
    6    4    1    -39.38      0.00
    8    4    1     80.91      0.00
   10    4    1      4.46      0.00
   12    4    1     12.64      0.00
   14    4    1     29.04      0.00
   16    4    1      5.51      0.00
   18    4    1     -9.19      0.00
   20    4    1      6.78      0.00
   22    4    1     -9.05      0.00
   24    4    1     -2.36      0.00
   26    4    1      8.42      0.00
   28    4    1     -9.42      0.00
   30    4    1      1.69      0.00
   32    4    1     17.13      0.00
   34    4    1      4.29      0.00
   36    4    1     13.60      0.00
   38    4    1    -10.70      0.00
   40    4    1     -2.40      0.00
   42    4    1      7.21      0.00
  -43    5    1     -6.06      0.00
  -41    5    1      4.89      0.00
  -39    5    1     -6.77      0.00
  -37    5    1     -2.42      0.00
  -35    5    1     -2.00      0.00
  -33    5    1      2.25      0.00
  -31    5    1     -0.65      0.00
  -29    5    1      1.81      0.00
  -27    5    1    -15.27      0.00
  -25    5    1      5.54      0.00
  -23    5    1     -1.07      0.00
  -21    5    1      5.11      0.00
  -19    5    1      4.72      0.00
  -17    5    1    -21.00      0.00
  -15    5    1      6.50      0.00
  -13    5    1     48.99      0.00
  -11    5    1    -75.29      0.00
   -9    5    1     23.57      0.00
   -7    5    1      3.16      0.00
   -5    5    1    -51.57      0.00
   -3    5    1     15.06      0.00
   -1    5    1    -65.64      0.00
    1    5    1      1.30      0.00
    3    5    1     -3.10      0.00
    5    5    1    -30.80      0.00
    7    5    1     27.82      0.00
    9    5    1    -36.14      0.00
   11    5    1     -8.33      0.00
   13    5    1     11.35      0.00
   15    5    1     -8.60      0.00
   17    5    1     -9.19      0.00
   19    5    1     14.95      0.00
   21    5    1     -6.20      0.00
   23    5    1     -0.12      0.00
   25    5    1      8.22      0.00
   27    5    1    -20.31      0.00
   29    5    1      4.86      0.00
   31    5    1     -9.18      0.00
   33    5    1      2.24      0.00
   35    5    1      1.79      0.00
   37    5    1     -5.23      0.00
   39    5    1     -0.73      0.00
   41    5    1      0.52      0.00
  -42    6    1    -14.98      0.00
  -40    6    1      1.64      0.00
  -38    6    1      5.77      0.00
  -36    6    1     -1.38      0.00
  -34    6    1      0.13      0.00
  -32    6    1     -8.87      0.00
  -30    6    1     -5.44      0.00
  -28    6    1     -9.59      0.00
  -26    6    1    -11.56      0.00
  -24    6    1     -6.09      0.00
  -22    6    1    -27.98      0.00
  -20    6    1     23.47      0.00
  -18    6    1      4.91      0.00
  -16    6    1      9.88      0.00
  -14    6    1     25.31      0.00
  -12    6    1     -4.17      0.00
  -10    6    1     62.22      0.00
   -8    6    1    -21.54      0.00
   -6    6    1     67.02      0.00
   -4    6    1     -9.64      0.00
   -2    6    1      3.87      0.00
    0    6    1      1.01      0.00
    2    6    1    -13.95      0.00
    4    6    1     37.43      0.00
    6    6    1    -99.82      0.00
    8    6    1     39.38      0.00
   10    6    1    -55.88      0.00
   12    6    1    -43.42      0.00
   14    6    1     12.75      0.00
   16    6    1    -17.77      0.00
   18    6    1      0.87      0.00
   20    6    1      6.55      0.00
   22    6    1     -8.79      0.00
   24    6    1     13.03      0.00
   26    6    1      5.37      0.00
   28    6    1      1.44      0.00
   30    6    1    -10.16      0.00
   32    6    1     -3.20      0.00
   34    6    1      1.45      0.00
   36    6    1      9.62      0.00
   38    6    1     -3.88      0.00
   40    6    1     -8.90      0.00
   42    6    1      2.75      0.00
  -43    7    1     -1.42      0.00
  -41    7    1      6.64      0.00
  -39    7    1      2.60      0.00
  -37    7    1      0.72      0.00
  -35    7    1      6.10      0.00
  -33    7    1     -1.90      0.00
  -31    7    1     -0.50      0.00
  -29    7    1      7.08      0.00
  -27    7    1     -0.05      0.00
  -25    7    1      4.65      0.00
  -23    7    1     -2.19      0.00
  -21    7    1      2.60      0.00
  -19    7    1     32.65      0.00
  -17    7    1    -18.46      0.00
  -15    7    1     21.88      0.00
  -13    7    1     31.14      0.00
  -11    7    1    -57.64      0.00
   -9    7    1     64.84      0.00
   -7    7    1     37.35      0.00
   -5    7    1    -51.59      0.00
   -3    7    1    104.59      0.00
   -1    7    1     14.18      0.00
    1    7    1     57.29      0.00
    3    7    1     17.91      0.00
    5    7    1    -49.90      0.00
    7    7    1     55.95      0.00
    9    7    1    -15.30      0.00
   11    7    1    -16.50      0.00
   13    7    1     35.76      0.00
   15    7    1     -2.17      0.00
   17    7    1      3.34      0.00
   19    7    1     25.08      0.00
   21    7    1     -5.16      0.00
   23    7    1      4.42      0.00
   25    7    1     15.33      0.00
   27    7    1     -2.33      0.00
   29    7    1     25.75      0.00
   31    7    1     -1.80      0.00
   33    7    1     -0.88      0.00
   35    7    1     13.20      0.00
   37    7    1     -4.55      0.00
   39    7    1      1.18      0.00
   41    7    1     -2.10      0.00
  -42    8    1      3.96      0.00
  -40    8    1      4.92      0.00
  -38    8    1      1.98      0.00
  -36    8    1    -14.57      0.00
  -34    8    1      0.02      0.00
  -32    8    1      3.75      0.00
  -30    8    1     12.66      0.00
  -28    8    1      1.81      0.00
  -26    8    1      9.14      0.00
  -24    8    1      9.75      0.00
  -22    8    1      6.06      0.00
  -20    8    1     23.43      0.00
  -18    8    1    -20.62      0.00
  -16    8    1    -12.32      0.00
  -14    8    1      0.26      0.00
  -12    8    1     -8.26      0.00
  -10    8    1     -9.41      0.00
   -8    8    1    -21.36      0.00
   -6    8    1    -12.28      0.00
   -4    8    1    -13.94      0.00
   -2    8    1    -24.12      0.00
    0    8    1     12.82      0.00
    2    8    1      8.68      0.00
    4    8    1     13.26      0.00
    6    8    1    -34.76      0.00
    8    8    1     74.91      0.00
   10    8    1      4.14      0.00
   12    8    1     -7.89      0.00
   14    8    1     25.22      0.00
   16    8    1     -5.17      0.00
   18    8    1    -10.84      0.00
   20    8    1      5.90      0.00
   22    8    1    -12.70      0.00
   24    8    1      2.44      0.00
   26    8    1      2.33      0.00
   28    8    1      2.59      0.00
   30    8    1     -2.65      0.00
   32    8    1     -5.45      0.00
   34    8    1      1.32      0.00
   36    8    1     -7.45      0.00
   38    8    1      1.21      0.00
   40    8    1     -1.05      0.00
   42    8    1     11.14      0.00
  -43    9    1     -3.73      0.00
  -41    9    1     -1.44      0.00
  -39    9    1      3.13      0.00
  -37    9    1     -2.18      0.00
  -35    9    1     -3.00      0.00
  -33    9    1     -6.46      0.00
  -31    9    1      4.08      0.00
  -29    9    1     -2.56      0.00
  -27    9    1     -6.22      0.00
  -25    9    1      6.82      0.00
  -23    9    1     -9.08      0.00
  -21    9    1     -6.91      0.00
  -19    9    1     14.15      0.00
  -17    9    1    -62.28      0.00
  -15    9    1     25.63      0.00
  -13    9    1      3.93      0.00
  -11    9    1    -48.80      0.00
   -9    9    1     15.04      0.00
   -7    9    1     12.25      0.00
   -5    9    1    -50.03      0.00
   -3    9    1      1.81      0.00
   -1    9    1    -74.06      0.00
    1    9    1    -27.17      0.00
    3    9    1     30.92      0.00
    5    9    1    -38.08      0.00
    7    9    1     39.42      0.00
    9    9    1      3.53      0.00
   11    9    1    -21.62      0.00
   13    9    1     29.86      0.00
   15    9    1    -40.89      0.00
   17    9    1    -13.64      0.00
   19    9    1      1.67      0.00
   21    9    1    -22.60      0.00
   23    9    1     -3.53      0.00
   25    9    1     -3.15      0.00
   27    9    1    -13.41      0.00
   29    9    1      0.09      0.00
   31    9    1    -11.70      0.00
   33    9    1     -8.75      0.00
   35    9    1      7.07      0.00
   37    9    1     -9.08      0.00
   39    9    1      3.62      0.00
   41    9    1      5.20      0.00
  -42   10    1     -1.03      0.00
  -40   10    1     -1.97      0.00
  -38   10    1      7.88      0.00
  -36   10    1      2.90      0.00
  -34   10    1     -0.54      0.00
  -32   10    1      1.96      0.00
  -30   10    1     -7.54      0.00
  -28   10    1     -4.53      0.00
  -26   10    1      8.95      0.00
  -24   10    1    -12.60      0.00
  -22   10    1     -2.66      0.00
  -20   10    1     -5.37      0.00
  -18   10    1      0.25      0.00
  -16   10    1      0.26      0.00
  -14   10    1    -24.77      0.00
  -12   10    1     -1.12      0.00
  -10   10    1    -23.88      0.00
   -8   10    1     24.47      0.00
   -6   10    1     -4.03      0.00
   -4   10    1     36.31      0.00
   -2   10    1    -21.09      0.00
    0   10    1     13.72      0.00
    2   10    1      9.37      0.00
    4   10    1    -21.78      0.00
    6   10    1    -14.10      0.00
    8   10    1      6.34      0.00
   10   10    1    -12.26      0.00
   12   10    1    -13.29      0.00
   14   10    1     30.78      0.00
   16   10    1     20.76      0.00
   18   10    1    -13.06      0.00
   20   10    1     14.81      0.00
   22   10    1     -7.20      0.00
   24   10    1     -4.44      0.00
   26   10    1      6.40      0.00
   28   10    1    -10.16      0.00
   30   10    1      0.21      0.00
   32   10    1     -3.04      0.00
   34   10    1     12.16      0.00
   36   10    1      2.25      0.00
   38   10    1      3.38      0.00
   40   10    1    -11.85      0.00
  -41   11    1     -1.20      0.00
  -39   11    1     -1.75      0.00
  -37   11    1      4.74      0.00
  -35   11    1      0.28      0.00
  -33   11    1     -0.28      0.00
  -31   11    1      3.70      0.00
  -29   11    1     -0.08      0.00
  -27   11    1     -2.19      0.00
  -25   11    1     10.62      0.00
  -23   11    1    -17.49      0.00
  -21   11    1      1.38      0.00
  -19   11    1     28.90      0.00
  -17   11    1    -39.00      0.00
  -15   11    1     37.75      0.00
  -13   11    1      1.06      0.00
  -11   11    1    -26.97      0.00
   -9   11    1     18.23      0.00
   -7   11    1      3.65      0.00
   -5   11    1    -23.91      0.00
   -3   11    1     16.76      0.00
   -1   11    1     21.95      0.00
    1   11    1     12.16      0.00
    3   11    1      2.52      0.00
    5   11    1    -47.92      0.00
    7   11    1      2.35      0.00
    9   11    1     -5.76      0.00
   11   11    1    -24.72      0.00
   13   11    1     40.79      0.00
   15   11    1    -13.92      0.00
   17   11    1     10.04      0.00
   19   11    1     14.29      0.00
   21   11    1     -3.93      0.00
   23   11    1      7.29      0.00
   25   11    1     -7.66      0.00
   27   11    1     -1.18      0.00
   29   11    1     11.19      0.00
   31   11    1      0.44      0.00
   33   11    1      2.05      0.00
   35   11    1      7.34      0.00
   37   11    1     -3.14      0.00
   39   11    1     -3.78      0.00
   41   11    1     -2.39      0.00
  -40   12    1      2.39      0.00
  -38   12    1     -3.17      0.00
  -36   12    1     -6.59      0.00
  -34   12    1     -1.09      0.00
  -32   12    1      8.92      0.00
  -30   12    1     -7.32      0.00
  -28   12    1      2.14      0.00
  -26   12    1      2.94      0.00
  -24   12    1    -14.47      0.00
  -22   12    1      8.22      0.00
  -20   12    1     -4.90      0.00
  -18   12    1     -5.27      0.00
  -16   12    1      0.33      0.00
  -14   12    1     19.04      0.00
  -12   12    1     51.80      0.00
  -10   12    1     12.27      0.00
   -8   12    1     12.10      0.00
   -6   12    1     -6.42      0.00
   -4   12    1      3.15      0.00
   -2   12    1    -33.24      0.00
    0   12    1     38.82      0.00
    2   12    1      7.86      0.00
    4   12    1     -8.64      0.00
    6   12    1      5.53      0.00
    8   12    1      5.30      0.00
   10   12    1     -0.79      0.00
   12   12    1    -51.49      0.00
   14   12    1     -3.98      0.00
   16   12    1     -7.69      0.00
   18   12    1    -12.40      0.00
   20   12    1     19.10      0.00
   22   12    1     -6.24      0.00
   24   12    1     -2.82      0.00
   26   12    1     15.16      0.00
   28   12    1     -5.41      0.00
   30   12    1      3.03      0.00
   32   12    1     -0.31      0.00
   34   12    1     -2.52      0.00
   36   12    1     -4.81      0.00
   38   12    1      2.60      0.00
   40   12    1     -3.88      0.00
  -41   13    1      1.18      0.00
  -39   13    1      0.18      0.00
  -37   13    1      5.92      0.00
  -35   13    1     -8.28      0.00
  -33   13    1     -5.90      0.00
  -31   13    1      5.46      0.00
  -29   13    1      1.92      0.00
  -27   13    1     -2.46      0.00
  -25   13    1     17.48      0.00
  -23   13    1    -13.20      0.00
  -21   13    1      4.96      0.00
  -19   13    1     14.95      0.00
  -17   13    1    -16.10      0.00
  -15   13    1     14.02      0.00
  -13   13    1     16.91      0.00
  -11   13    1    -26.70      0.00
   -9   13    1     26.96      0.00
   -7   13    1     13.56      0.00
   -5   13    1      9.92      0.00
   -3   13    1     11.40      0.00
   -1   13    1     -1.38      0.00
    1   13    1     18.57      0.00
    3   13    1     18.38      0.00
    5   13    1      7.67      0.00
    7   13    1     27.42      0.00
    9   13    1      6.15      0.00
   11   13    1     -4.81      0.00
   13   13    1     14.66      0.00
   15   13    1     -9.31      0.00
   17   13    1      1.01      0.00
   19   13    1      5.63      0.00
   21   13    1     -1.34      0.00
   23   13    1     11.76      0.00
   25   13    1      4.74      0.00
   27   13    1      3.74      0.00
   29   13    1     10.08      0.00
   31   13    1     -8.32      0.00
   33   13    1      0.40      0.00
   35   13    1      0.69      0.00
   37   13    1     -2.37      0.00
   39   13    1      1.47      0.00
  -40   14    1     -3.25      0.00
  -38   14    1      1.54      0.00
  -36   14    1     -4.28      0.00
  -34   14    1      3.70      0.00
  -32   14    1      5.62      0.00
  -30   14    1     -0.84      0.00
  -28   14    1      9.82      0.00
  -26   14    1      2.54      0.00
  -24   14    1     -1.29      0.00
  -22   14    1      5.25      0.00
  -20   14    1      0.71      0.00
  -18   14    1     14.88      0.00
  -16   14    1      0.02      0.00
  -14   14    1    -17.09      0.00
  -12   14    1    -29.94      0.00
  -10   14    1    -28.42      0.00
   -8   14    1    -27.99      0.00
   -6   14    1      9.77      0.00
   -4   14    1     -7.17      0.00
   -2   14    1    -31.11      0.00
    0   14    1     15.51      0.00
    2   14    1    -28.40      0.00
    4   14    1     10.56      0.00
    6   14    1      6.31      0.00
    8   14    1     14.70      0.00
   10   14    1     42.93      0.00
   12   14    1     -7.47      0.00
   14   14    1     33.13      0.00
   16   14    1      2.20      0.00
   18   14    1     -8.16      0.00
   20   14    1      6.80      0.00
   22   14    1     -9.26      0.00
   24   14    1     -8.09      0.00
   26   14    1      3.90      0.00
   28   14    1     -5.40      0.00
   30   14    1     -1.16      0.00
   32   14    1      2.39      0.00
   34   14    1     -2.58      0.00
   36   14    1      7.32      0.00
   38   14    1      0.17      0.00
   40   14    1     -3.46      0.00
  -39   15    1     -2.09      0.00
  -37   15    1      3.60      0.00
  -35   15    1      3.25      0.00
  -33   15    1     -1.30      0.00
  -31   15    1      1.97      0.00
  -29   15    1     -8.42      0.00
  -27   15    1    -11.27      0.00
  -25   15    1      3.73      0.00
  -23   15    1    -19.20      0.00
  -21   15    1      8.35      0.00
  -19   15    1      4.77      0.00
  -17   15    1      1.41      0.00
  -15   15    1     -8.20      0.00
  -13   15    1     14.09      0.00
  -11   15    1    -30.79      0.00
   -9   15    1     16.18      0.00
   -7   15    1     -9.99      0.00
   -5   15    1    -23.33      0.00
   -3   15    1     -9.11      0.00
   -1   15    1    -14.21      0.00
    1   15    1     -0.87      0.00
    3   15    1    -18.36      0.00
    5   15    1    -22.40      0.00
    7   15    1      6.93      0.00
    9   15    1    -23.03      0.00
   11   15    1     -0.97      0.00
   13   15    1     -1.28      0.00
   15   15    1      0.75      0.00
   17   15    1     -5.83      0.00
   19   15    1      0.31      0.00
   21   15    1     -6.61      0.00
   23   15    1     -8.88      0.00
   25   15    1    -14.80      0.00
   27   15    1    -12.40      0.00
   29   15    1      3.91      0.00
   31   15    1     -4.39      0.00
   33   15    1      1.41      0.00
   35   15    1     -0.23      0.00
   37   15    1     -1.45      0.00
   39   15    1      1.99      0.00
  -40   16    1      6.92      0.00
  -38   16    1      2.63      0.00
  -36   16    1     -3.45      0.00
  -34   16    1      0.19      0.00
  -32   16    1     -5.21      0.00
  -30   16    1    -15.55      0.00
  -28   16    1      1.12      0.00
  -26   16    1     -5.30      0.00
  -24   16    1     -5.31      0.00
  -22   16    1      9.58      0.00
  -20   16    1     -9.26      0.00
  -18   16    1      1.54      0.00
  -16   16    1    -15.00      0.00
  -14   16    1     14.18      0.00
  -12   16    1     24.19      0.00
  -10   16    1     23.19      0.00
   -8   16    1      1.36      0.00
   -6   16    1     26.34      0.00
   -4   16    1     -3.81      0.00
   -2   16    1      1.73      0.00
    0   16    1     33.72      0.00
    2   16    1    -15.00      0.00
    4   16    1      4.20      0.00
    6   16    1    -17.55      0.00
    8   16    1    -29.52      0.00
   10   16    1     -1.56      0.00
   12   16    1    -27.44      0.00
   14   16    1     -5.05      0.00
   16   16    1     -1.44      0.00
   18   16    1     -7.55      0.00
   20   16    1     13.76      0.00
   22   16    1      3.50      0.00
   24   16    1      2.61      0.00
   26   16    1     14.99      0.00
   28   16    1     -4.51      0.00
   30   16    1     -0.76      0.00
   32   16    1      3.95      0.00
   34   16    1     -4.83      0.00
   36   16    1      3.12      0.00
   38   16    1     -1.69      0.00
  -39   17    1     -0.36      0.00
  -37   17    1     -2.25      0.00
  -35   17    1     -0.11      0.00
  -33   17    1     -0.92      0.00
  -31   17    1      6.26      0.00
  -29   17    1      3.89      0.00
  -27   17    1      7.07      0.00
  -25   17    1     17.32      0.00
  -23   17    1     -3.33      0.00
  -21   17    1      6.63      0.00
  -19   17    1     -5.32      0.00
  -17   17    1     -7.32      0.00
  -15   17    1    -11.47      0.00
  -13   17    1      0.40      0.00
  -11   17    1    -10.68      0.00
   -9   17    1      6.47      0.00
   -7   17    1      4.41      0.00
   -5   17    1     -8.11      0.00
   -3   17    1     16.09      0.00
   -1   17    1     -1.71      0.00
    1   17    1     12.25      0.00
    3   17    1      1.56      0.00
    5   17    1     -6.08      0.00
    7   17    1     19.19      0.00
    9   17    1    -12.87      0.00
   11   17    1      8.34      0.00
   13   17    1     -6.36      0.00
   15   17    1     -0.05      0.00
   17   17    1     -0.94      0.00
   19   17    1      0.72      0.00
   21   17    1      8.49      0.00
   23   17    1     15.60      0.00
   25   17    1      3.52      0.00
   27   17    1      4.81      0.00
   29   17    1      5.60      0.00
   31   17    1      1.74      0.00
   33   17    1      0.87      0.00
   35   17    1     -2.16      0.00
   37   17    1      0.53      0.00
  -38   18    1     -7.73      0.00
  -36   18    1      3.80      0.00
  -34   18    1     -2.30      0.00
  -32   18    1      8.68      0.00
  -30   18    1      2.80      0.00
  -28   18    1      9.92      0.00
  -26   18    1      2.66      0.00
  -24   18    1     -4.77      0.00
  -22   18    1     11.07      0.00
  -20   18    1    -19.42      0.00
  -18   18    1     16.96      0.00
  -16   18    1      1.07      0.00
  -14   18    1    -11.47      0.00
  -12   18    1     -4.42      0.00
  -10   18    1    -10.75      0.00
   -8   18    1     -9.97      0.00
   -6   18    1     15.94      0.00
   -4   18    1     -8.87      0.00
   -2   18    1     -6.15      0.00
    0   18    1      6.74      0.00
    2   18    1    -10.19      0.00
    4   18    1      9.56      0.00
    6   18    1     14.50      0.00
    8   18    1     -3.37      0.00
   10   18    1     12.13      0.00
   12   18    1     11.36      0.00
   14   18    1     -5.59      0.00
   16   18    1     16.03      0.00
   18   18    1    -15.35      0.00
   20   18    1      7.64      0.00
   22   18    1    -11.14      0.00
   24   18    1    -18.59      0.00
   26   18    1      5.23      0.00
   28   18    1     -6.34      0.00
   30   18    1      1.89      0.00
   32   18    1      0.65      0.00
   34   18    1     -0.57      0.00
   36   18    1      2.59      0.00
  -37   19    1     -0.28      0.00
  -35   19    1     -4.97      0.00
  -33   19    1     -0.65      0.00
  -31   19    1      0.97      0.00
  -29   19    1     -6.84      0.00
  -27   19    1     -2.53      0.00
  -25   19    1     -1.84      0.00
  -23   19    1    -16.62      0.00
  -21   19    1      2.05      0.00
  -19   19    1      1.37      0.00
  -17   19    1      2.21      0.00
  -15   19    1     11.18      0.00
  -13   19    1      4.26      0.00
  -11   19    1     15.64      0.00
   -9   19    1      5.60      0.00
   -7   19    1     14.08      0.00
   -5   19    1    -16.25      0.00
   -3   19    1     12.18      0.00
   -1   19    1    -14.74      0.00
    1   19    1      7.23      0.00
    3   19    1     -6.29      0.00
    5   19    1      0.64      0.00
    7   19    1     16.81      0.00
    9   19    1     -4.39      0.00
   11   19    1     22.54      0.00
   13   19    1      3.07      0.00
   15   19    1     -2.60      0.00
   17   19    1      6.18      0.00
   19   19    1     -9.62      0.00
   21   19    1     -6.09      0.00
   23   19    1     -4.46      0.00
   25   19    1    -10.39      0.00
   27   19    1      4.32      0.00
   29   19    1      2.98      0.00
   31   19    1      0.77      0.00
   33   19    1     -1.04      0.00
   35   19    1     -3.48      0.00
   37   19    1      4.46      0.00
  -36   20    1      6.21      0.00
  -34   20    1     -1.83      0.00
  -32   20    1      0.85      0.00
  -30   20    1     -2.93      0.00
  -28   20    1      3.33      0.00
  -26   20    1      0.29      0.00
  -24   20    1     -9.16      0.00
  -22   20    1     13.81      0.00
  -20   20    1     -7.42      0.00
  -18   20    1      0.92      0.00
  -16   20    1     -0.82      0.00
  -14   20    1    -22.17      0.00
  -12   20    1     16.67      0.00
  -10   20    1     -5.43      0.00
   -8   20    1     -9.57      0.00
   -6   20    1      3.54      0.00
   -4   20    1    -18.74      0.00
   -2   20    1     -3.15      0.00
    0   20    1      6.91      0.00
    2   20    1     -9.03      0.00
    4   20    1     -6.38      0.00
    6   20    1     11.75      0.00
    8   20    1     -4.08      0.00
   10   20    1     -4.48      0.00
   12   20    1     14.03      0.00
   14   20    1    -10.56      0.00
   16   20    1     11.81      0.00
   18   20    1    -11.70      0.00
   20   20    1     14.14      0.00
   22   20    1      8.29      0.00
   24   20    1     -4.06      0.00
   26   20    1      9.28      0.00
   28   20    1     -5.36      0.00
   30   20    1     -3.96      0.00
   32   20    1      1.42      0.00
   34   20    1      0.74      0.00
   36   20    1      2.03      0.00
  -35   21    1     -0.29      0.00
  -33   21    1      2.86      0.00
  -31   21    1      1.18      0.00
  -29   21    1    -10.57      0.00
  -27   21    1      6.03      0.00
  -25   21    1      2.82      0.00
  -23   21    1     -7.05      0.00
  -21   21    1     14.84      0.00
  -19   21    1     -6.02      0.00
  -17   21    1      2.85      0.00
  -15   21    1      3.69      0.00
  -13   21    1    -13.15      0.00
  -11   21    1     -3.05      0.00
   -9   21    1    -20.22      0.00
   -7   21    1      0.17      0.00
   -5   21    1    -14.57      0.00
   -3   21    1     16.50      0.00
   -1   21    1     -3.52      0.00
    1   21    1     15.19      0.00
    3   21    1     -7.67      0.00
    5   21    1     -1.57      0.00
    7   21    1    -10.08      0.00
    9   21    1    -32.62      0.00
   11   21    1      0.33      0.00
   13   21    1    -14.14      0.00
   15   21    1     -1.12      0.00
   17   21    1     10.29      0.00
   19   21    1     -5.85      0.00
   21   21    1     10.83      0.00
   23   21    1      2.88      0.00
   25   21    1    -13.67      0.00
   27   21    1     -5.63      0.00
   29   21    1     -0.36      0.00
   31   21    1     -3.33      0.00
   33   21    1      2.15      0.00
   35   21    1     -1.99      0.00
  -34   22    1     -1.05      0.00
  -32   22    1     -2.79      0.00
  -30   22    1     -3.57      0.00
  -28   22    1     -1.49      0.00
  -26   22    1     -6.06      0.00
  -24   22    1     -7.53      0.00
  -22   22    1      0.89      0.00
  -20   22    1     -5.42      0.00
  -18   22    1      3.70      0.00
  -16   22    1     23.87      0.00
  -14   22    1     -9.44      0.00
  -12   22    1     19.36      0.00
  -10   22    1      4.18      0.00
   -8   22    1      1.94      0.00
   -6   22    1     18.50      0.00
   -4   22    1     -1.95      0.00
   -2   22    1      4.13      0.00
    0   22    1      5.75      0.00
    2   22    1     -3.26      0.00
    4   22    1     -1.52      0.00
    6   22    1      2.91      0.00
    8   22    1     -9.07      0.00
   10   22    1     -7.85      0.00
   12   22    1      1.16      0.00
   14   22    1    -13.53      0.00
   16   22    1     -1.92      0.00
   18   22    1     -3.80      0.00
   20   22    1     -5.60      0.00
   22   22    1      7.51      0.00
   24   22    1     -7.31      0.00
   26   22    1     11.07      0.00
   28   22    1      6.53      0.00
   30   22    1     -4.67      0.00
   32   22    1      0.92      0.00
   34   22    1     -3.75      0.00
  -35   23    1     -2.72      0.00
  -33   23    1      0.29      0.00
  -31   23    1      7.03      0.00
  -29   23    1     -1.19      0.00
  -27   23    1      8.59      0.00
  -25   23    1     -0.86      0.00
  -23   23    1     -5.60      0.00
  -21   23    1     12.97      0.00
  -19   23    1    -12.81      0.00
  -17   23    1      5.44      0.00
  -15   23    1     -2.88      0.00
  -13   23    1    -13.49      0.00
  -11   23    1     15.66      0.00
   -9   23    1      3.96      0.00
   -7   23    1     14.24      0.00
   -5   23    1      0.49      0.00
   -3   23    1     -1.17      0.00
   -1   23    1    -11.30      0.00
    1   23    1     -2.85      0.00
    3   23    1     -4.81      0.00
    5   23    1     19.72      0.00
    7   23    1      7.18      0.00
    9   23    1      9.78      0.00
   11   23    1     26.07      0.00
   13   23    1    -16.54      0.00
   15   23    1     -0.18      0.00
   17   23    1      7.80      0.00
   19   23    1     -4.73      0.00
   21   23    1      8.27      0.00
   23   23    1     10.75      0.00
   25   23    1      2.18      0.00
   27   23    1      6.41      0.00
   29   23    1      8.43      0.00
   31   23    1     -6.37      0.00
   33   23    1      1.91      0.00
  -34   24    1      6.23      0.00
  -32   24    1      0.42      0.00
  -30   24    1     -2.77      0.00
  -28   24    1      8.79      0.00
  -26   24    1      2.22      0.00
  -24   24    1      3.49      0.00
  -22   24    1     10.65      0.00
  -20   24    1      1.17      0.00
  -18   24    1     -3.68      0.00
  -16   24    1     -3.16      0.00
  -14   24    1    -15.54      0.00
  -12   24    1     -5.19      0.00
  -10   24    1     -2.03      0.00
   -8   24    1    -12.31      0.00
   -6   24    1     -1.51      0.00
   -4   24    1    -12.08      0.00
   -2   24    1      3.24      0.00
    0   24    1      8.66      0.00
    2   24    1     -7.22      0.00
    4   24    1      2.89      0.00
    6   24    1      8.46      0.00
    8   24    1     -0.18      0.00
   10   24    1      9.95      0.00
   12   24    1      8.58      0.00
   14   24    1      9.39      0.00
   16   24    1      3.46      0.00
   18   24    1      6.06      0.00
   20   24    1     -9.94      0.00
   22   24    1      8.52      0.00
   24   24    1    -15.90      0.00
   26   24    1     -4.34      0.00
   28   24    1      1.59      0.00
   30   24    1     -2.28      0.00
   32   24    1      5.06      0.00
  -33   25    1     -2.48      0.00
  -31   25    1     -5.64      0.00
  -29   25    1      1.92      0.00
  -27   25    1      4.41      0.00
  -25   25    1     -2.54      0.00
  -23   25    1     -6.53      0.00
  -21   25    1      1.13      0.00
  -19   25    1     -9.67      0.00
  -17   25    1      7.02      0.00
  -15   25    1      7.50      0.00
  -13   25    1     -1.34      0.00
  -11   25    1     14.74      0.00
   -9   25    1    -12.79      0.00
   -7   25    1     -8.84      0.00
   -5   25    1     -0.66      0.00
   -3   25    1     -0.13      0.00
   -1   25    1     15.43      0.00
    1   25    1     -1.61      0.00
    3   25    1    -10.57      0.00
    5   25    1      9.54      0.00
    7   25    1    -23.43      0.00
    9   25    1      1.79      0.00
   11   25    1     14.06      0.00
   13   25    1     -6.99      0.00
   15   25    1      4.89      0.00
   17   25    1      1.43      0.00
   19   25    1     -8.65      0.00
   21   25    1     -7.16      0.00
   23   25    1     -3.34      0.00
   25   25    1    -12.96      0.00
   27   25    1     -1.81      0.00
   29   25    1      7.42      0.00
   31   25    1     -5.92      0.00
  -30   26    1     -0.07      0.00
  -28   26    1      4.40      0.00
  -26   26    1     -5.87      0.00
  -24   26    1     -3.64      0.00
  -22   26    1      2.87      0.00
  -20   26    1    -10.84      0.00
  -18   26    1      8.10      0.00
  -16   26    1      3.25      0.00
  -14   26    1      0.77      0.00
  -12   26    1     -7.46      0.00
  -10   26    1      9.14      0.00
   -8   26    1      2.00      0.00
   -6   26    1     10.32      0.00
   -4   26    1      4.85      0.00
   -2   26    1      3.83      0.00
    0   26    1     -0.93      0.00
    2   26    1     -8.78      0.00
    4   26    1     -0.25      0.00
    6   26    1     -2.63      0.00
    8   26    1     -9.15      0.00
   10   26    1      5.52      0.00
   12   26    1     -9.92      0.00
   14   26    1    -10.03      0.00
   16   26    1     -3.96      0.00
   18   26    1      5.21      0.00
   20   26    1     -3.39      0.00
   22   26    1      8.88      0.00
   24   26    1     -0.63      0.00
   26   26    1      3.95      0.00
   28   26    1      5.02      0.00
   30   26    1     -3.41      0.00
  -29   27    1      6.68      0.00
  -27   27    1     -4.10      0.00
  -25   27    1     -1.62      0.00
  -23   27    1      5.29      0.00
  -21   27    1      3.38      0.00
  -19   27    1     -0.76      0.00
  -17   27    1      4.07      0.00
  -15   27    1     -4.25      0.00
  -13   27    1    -12.99      0.00
  -11   27    1      3.39      0.00
   -9   27    1     -3.03      0.00
   -7   27    1      6.68      0.00
   -5   27    1      4.01      0.00
   -3   27    1    -13.92      0.00
   -1   27    1      3.21      0.00
    1   27    1    -10.47      0.00
    3   27    1      1.98      0.00
    5   27    1     21.82      0.00
    7   27    1    -17.07      0.00
    9   27    1      5.41      0.00
   11   27    1     -4.19      0.00
   13   27    1    -19.51      0.00
   15   27    1     -6.12      0.00
   17   27    1      3.44      0.00
   19   27    1      2.21      0.00
   21   27    1      0.88      0.00
   23   27    1     14.79      0.00
   25   27    1      0.55      0.00
   27   27    1     -2.77      0.00
   29   27    1      1.51      0.00
  -28   28    1      2.18      0.00
  -26   28    1     -3.64      0.00
  -24   28    1     -1.82      0.00
  -22   28    1      1.85      0.00
  -20   28    1     -8.68      0.00
  -18   28    1     10.59      0.00
  -16   28    1     -3.27      0.00
  -14   28    1      5.33      0.00
  -12   28    1     -1.45      0.00
  -10   28    1     10.31      0.00
   -8   28    1     -1.98      0.00
   -6   28    1     -5.37      0.00
   -4   28    1     -5.63      0.00
   -2   28    1     -0.72      0.00
    0   28    1     -0.18      0.00
    2   28    1      1.46      0.00
    4   28    1     -0.82      0.00
    6   28    1      1.13      0.00
    8   28    1     -0.94      0.00
   10   28    1      1.62      0.00
   12   28    1      3.32      0.00
   14   28    1      0.70      0.00
   16   28    1     -2.32      0.00
   18   28    1      1.19      0.00
   20   28    1     -0.97      0.00
   22   28    1      5.66      0.00
   24   28    1     -5.58      0.00
   26   28    1     -3.94      0.00
   28   28    1      2.37      0.00
  -27   29    1      1.95      0.00
  -25   29    1     -8.06      0.00
  -23   29    1     -7.36      0.00
  -21   29    1     -3.93      0.00
  -19   29    1      3.16      0.00
  -17   29    1      6.67      0.00
  -15   29    1      2.13      0.00
  -13   29    1      3.81      0.00
  -11   29    1      8.78      0.00
   -9   29    1     -7.63      0.00
   -7   29    1     -3.96      0.00
   -5   29    1      0.90      0.00
   -3   29    1      1.22      0.00
   -1   29    1     17.75      0.00
    1   29    1     -9.19      0.00
    3   29    1     -7.88      0.00
    5   29    1      2.95      0.00
    7   29    1    -15.88      0.00
    9   29    1      7.84      0.00
   11   29    1     14.20      0.00
   13   29    1      2.36      0.00
   15   29    1      8.15      0.00
   17   29    1      8.14      0.00
   19   29    1      7.39      0.00
   21   29    1     -8.40      0.00
   23   29    1     -3.73      0.00
   25   29    1     -5.93      0.00
   27   29    1     -0.54      0.00
  -26   30    1     -4.52      0.00
  -24   30    1      3.81      0.00
  -22   30    1      1.19      0.00
  -20   30    1     -3.90      0.00
  -18   30    1      7.20      0.00
  -16   30    1     -5.63      0.00
  -14   30    1      0.27      0.00
  -12   30    1    -13.61      0.00
  -10   30    1      0.06      0.00
   -8   30    1     -7.57      0.00
   -6   30    1     -5.43      0.00
   -4   30    1      4.54      0.00
   -2   30    1     -0.79      0.00
    0   30    1     -1.92      0.00
    2   30    1      4.46      0.00
    4   30    1     -1.48      0.00
    6   30    1     -1.69      0.00
    8   30    1      9.41      0.00
   10   30    1      2.77      0.00
   12   30    1      4.91      0.00
   14   30    1     -3.30      0.00
   16   30    1     -2.07      0.00
   18   30    1      7.01      0.00
   20   30    1     -6.73      0.00
   22   30    1      5.05      0.00
   24   30    1     -0.89      0.00
  -23   31    1     11.11      0.00
  -21   31    1      6.77      0.00
  -19   31    1     -7.29      0.00
  -17   31    1     -8.14      0.00
  -15   31    1     -3.23      0.00
  -13   31    1    -11.97      0.00
  -11   31    1     -1.16      0.00
   -9   31    1      5.28      0.00
   -7   31    1      4.87      0.00
   -5   31    1      2.17      0.00
   -3   31    1     -7.09      0.00
   -1   31    1      6.94      0.00
    1   31    1     -3.18      0.00
    3   31    1      3.22      0.00
    5   31    1     15.53      0.00
    7   31    1      1.72      0.00
    9   31    1      1.95      0.00
   11   31    1     -0.54      0.00
   13   31    1    -15.06      0.00
   15   31    1     -6.12      0.00
   17   31    1    -10.85      0.00
   19   31    1     -1.89      0.00
   21   31    1      2.38      0.00
   23   31    1      5.99      0.00
  -22   32    1     -5.99      0.00
  -20   32    1      3.40      0.00
  -18   32    1      5.45      0.00
  -16   32    1     -1.06      0.00
  -14   32    1      4.83      0.00
  -12   32    1     -3.81      0.00
  -10   32    1      9.55      0.00
   -8   32    1      5.88      0.00
   -6   32    1      0.79      0.00
   -4   32    1      8.80      0.00
   -2   32    1     -4.74      0.00
    0   32    1      1.93      0.00
    2   32    1      0.48      0.00
    4   32    1     -1.58      0.00
    6   32    1     -4.91      0.00
    8   32    1      0.44      0.00
   10   32    1     -5.97      0.00
   12   32    1      0.62      0.00
   14   32    1     -2.87      0.00
   16   32    1     -5.51      0.00
   18   32    1      2.11      0.00
   20   32    1     -5.00      0.00
   22   32    1     -0.78      0.00
  -21   33    1     -0.75      0.00
  -19   33    1     -0.65      0.00
  -17   33    1      4.67      0.00
  -15   33    1     12.29      0.00
  -13   33    1      0.51      0.00
  -11   33    1      6.19      0.00
   -9   33    1      4.20      0.00
   -7   33    1    -14.44      0.00
   -5   33    1     -1.16      0.00
   -3   33    1     -3.70      0.00
   -1   33    1      1.10      0.00
    1   33    1     -2.98      0.00
    3   33    1     -3.10      0.00
    5   33    1     -3.27      0.00
    7   33    1    -11.26      0.00
    9   33    1     -0.08      0.00
   11   33    1      6.75      0.00
   13   33    1      1.93      0.00
   15   33    1      8.02      0.00
   17   33    1      4.41      0.00
   19   33    1      1.01      0.00
  -18   34    1     -2.16      0.00
  -16   34    1     -2.49      0.00
  -14   34    1     -1.11      0.00
  -12   34    1     -1.68      0.00
  -10   34    1     -0.09      0.00
   -8   34    1      0.72      0.00
   -6   34    1     -6.39      0.00
   -4   34    1      6.21      0.00
   -2   34    1     -2.76      0.00
    0   34    1      3.02      0.00
    2   34    1      1.62      0.00
    4   34    1     -1.20      0.00
    6   34    1     -4.43      0.00
    8   34    1      2.14      0.00
   10   34    1      5.81      0.00
   12   34    1      0.56      0.00
   14   34    1     -1.31      0.00
   16   34    1      1.90      0.00
  -15   35    1      1.77      0.00
  -13   35    1     -7.38      0.00
  -11   35    1     -5.00      0.00
   -9   35    1      7.88      0.00
   -7   35    1     -0.86      0.00
   -5   35    1      3.51      0.00
   -3   35    1      3.19      0.00
   -1   35    1      1.82      0.00
    1   35    1     -0.58      0.00
    3   35    1      1.35      0.00
    5   35    1      1.94      0.00
    7   35    1      5.36      0.00
    9   35    1      1.60      0.00
   11   35    1     -3.42      0.00
   13   35    1     -0.62      0.00
  -12   36    1      0.16      0.00
  -10   36    1     -1.41      0.00
   -8   36    1      4.05      0.00
   -6   36    1     -4.63      0.00
   -4   36    1     -2.38      0.00
   -2   36    1     -1.94      0.00
    0   36    1     -4.11      0.00
    2   36    1      1.81      0.00
    4   36    1      1.26      0.00
    6   36    1      1.19      0.00
    8   36    1     -0.56      0.00
   10   36    1      0.27      0.00
   -5   37    1     -2.65      0.00
   -3   37    1      3.69      0.00
   -1   37    1     -2.94      0.00
    1   37    1      1.04      0.00
    3   37    1      5.28      0.00
    5   37    1     -6.28      0.00
  -44    0    2     -0.58      0.00
  -42    0    2      2.60      0.00
  -40    0    2     -0.11      0.00
  -38    0    2     -9.59      0.00
  -36    0    2      8.59      0.00
  -34    0    2    -17.33      0.00
  -32    0    2      8.13      0.00
  -30    0    2      6.35      0.00
  -28    0    2    -15.20      0.00
  -26    0    2     13.57      0.00
  -24    0    2      6.63      0.00
  -22    0    2    -45.44      0.00
  -20    0    2     11.97      0.00
  -18    0    2    -20.82      0.00
  -16    0    2    -25.72      0.00
  -14    0    2     -6.44      0.00
  -12    0    2    -27.92      0.00
  -10    0    2    -26.67      0.00
   -8    0    2     78.69      0.00
   -6    0    2    -32.84      0.00
   -2    0    2   -123.48      0.00
    0    0    2    -61.32      0.00
    4    0    2    -20.99      0.00
    6    0    2     79.97      0.00
    8    0    2    -49.79      0.00
   10    0    2    -12.67      0.00
   12    0    2     -7.23      0.00
   14    0    2    -22.42      0.00
   16    0    2    -27.10      0.00
   18    0    2     20.95      0.00
   20    0    2    -45.23      0.00
   22    0    2      5.60      0.00
   24    0    2     16.95      0.00
   26    0    2    -11.11      0.00
   28    0    2      4.22      0.00
   30    0    2     14.48      0.00
   32    0    2    -22.29      0.00
   34    0    2      8.92      0.00
   36    0    2     -4.39      0.00
   38    0    2     -8.04      0.00
   40    0    2      8.32      0.00
   42    0    2     -1.12      0.00
  -43    1    2      3.52      0.00
  -41    1    2      3.62      0.00
  -39    1    2     -9.67      0.00
  -37    1    2      4.65      0.00
  -35    1    2     -2.33      0.00
  -33    1    2    -10.09      0.00
  -31    1    2      4.99      0.00
  -29    1    2     -6.69      0.00
  -27    1    2     -5.82      0.00
  -25    1    2      9.52      0.00
  -23    1    2     -2.85      0.00
  -21    1    2      6.82      0.00
  -19    1    2     -4.89      0.00
  -17    1    2     -1.10      0.00
  -15    1    2    -11.06      0.00
  -13    1    2      7.91      0.00
  -11    1    2    -14.14      0.00
   -9    1    2     30.90      0.00
   -7    1    2     66.39      0.00
   -3    1    2    123.09      0.00
   -1    1    2     63.90      0.00
    1    1    2   -133.85      0.00
    5    1    2    -48.87      0.00
    7    1    2    -12.89      0.00
    9    1    2     -4.31      0.00
   11    1    2    -12.67      0.00
   13    1    2      4.17      0.00
   15    1    2     -9.13      0.00
   17    1    2     11.25      0.00
   19    1    2    -13.70      0.00
   21    1    2      9.78      0.00
   23    1    2    -11.16      0.00
   25    1    2      8.84      0.00
   27    1    2      4.93      0.00
   29    1    2      0.48      0.00
   31    1    2      6.54      0.00
   33    1    2     -3.17      0.00
   35    1    2      4.75      0.00
   37    1    2     -2.43      0.00
   39    1    2      4.65      0.00
   41    1    2      1.94      0.00
  -44    2    2     -5.40      0.00
  -42    2    2     -0.04      0.00
  -40    2    2      2.92      0.00
  -38    2    2     -5.46      0.00
  -36    2    2      8.66      0.00
  -34    2    2     -4.29      0.00
  -32    2    2      5.91      0.00
  -30    2    2      3.29      0.00
  -28    2    2    -11.94      0.00
  -26    2    2      5.51      0.00
  -24    2    2      5.95      0.00
  -22    2    2    -12.36      0.00
  -20    2    2     44.63      0.00
  -18    2    2    -14.54      0.00
  -16    2    2      2.19      0.00
  -14    2    2     43.78      0.00
  -12    2    2      7.01      0.00
  -10    2    2     -7.02      0.00
   -8    2    2      6.35      0.00
   -6    2    2    -65.32      0.00
   -4    2    2     24.79      0.00
   -2    2    2     72.38      0.00
    0    2    2    107.94      0.00
    2    2    2      2.40      0.00
    4    2    2    -81.45      0.00
    6    2    2     19.78      0.00
    8    2    2    -13.30      0.00
   10    2    2     13.10      0.00
   12    2    2     37.15      0.00
   14    2    2     -0.47      0.00
   16    2    2    -14.79      0.00
   18    2    2     50.05      0.00
   20    2    2    -14.76      0.00
   22    2    2      6.99      0.00
   24    2    2      6.74      0.00
   26    2    2    -16.55      0.00
   28    2    2     -0.68      0.00
   30    2    2      9.28      0.00
   32    2    2     -7.33      0.00
   34    2    2      9.10      0.00
   36    2    2      0.73      0.00
   38    2    2     -1.57      0.00
   40    2    2      3.02      0.00
   42    2    2     -6.19      0.00
  -43    3    2      5.72      0.00
  -41    3    2      0.80      0.00
  -39    3    2     -7.24      0.00
  -37    3    2      7.92      0.00
  -35    3    2      5.38      0.00
  -33    3    2      2.50      0.00
  -31    3    2     14.11      0.00
  -29    3    2      4.23      0.00
  -27    3    2     -3.73      0.00
  -25    3    2     -0.14      0.00
  -23    3    2      0.94      0.00
  -21    3    2     -4.22      0.00
  -19    3    2      4.82      0.00
  -17    3    2      4.31      0.00
  -15    3    2      6.81      0.00
  -13    3    2     -3.20      0.00
  -11    3    2    -32.13      0.00
   -9    3    2      6.30      0.00
   -7    3    2    -63.93      0.00
   -5    3    2    -99.26      0.00
   -3    3    2    -14.18      0.00
   -1    3    2     -0.29      0.00
    1    3    2    -95.01      0.00
    3    3    2     36.18      0.00
    5    3    2     58.98      0.00
    7    3    2     -1.40      0.00
    9    3    2     43.41      0.00
   11    3    2      2.86      0.00
   13    3    2     -1.13      0.00
   15    3    2      2.69      0.00
   17    3    2      3.29      0.00
   19    3    2      7.61      0.00
   21    3    2      3.36      0.00
   23    3    2     -4.46      0.00
   25    3    2     -0.17      0.00
   27    3    2     -9.10      0.00
   29    3    2    -10.55      0.00
   31    3    2      1.47      0.00
   33    3    2     -7.91      0.00
   35    3    2     -3.65      0.00
   37    3    2     -0.17      0.00
   39    3    2     -3.98      0.00
   41    3    2     -6.33      0.00
  -44    4    2      1.21      0.00
  -42    4    2      5.39      0.00
  -40    4    2     -0.49      0.00
  -38    4    2      1.15      0.00
  -36    4    2      2.75      0.00
  -34    4    2     -3.69      0.00
  -32    4    2     -0.20      0.00
  -30    4    2      6.20      0.00
  -28    4    2    -11.97      0.00
  -26    4    2      9.33      0.00
  -24    4    2      9.01      0.00
  -22    4    2    -26.76      0.00
  -20    4    2     15.83      0.00
  -18    4    2     -2.84      0.00
  -16    4    2     -1.12      0.00
  -14    4    2      8.72      0.00
  -12    4    2    -18.68      0.00
  -10    4    2      9.54      0.00
   -8    4    2      5.72      0.00
   -6    4    2     24.36      0.00
   -4    4    2     -7.05      0.00
   -2    4    2    -28.21      0.00
    0    4    2    -24.29      0.00
    2    4    2      4.09      0.00
    4    4    2     18.74      0.00
    6    4    2     36.70      0.00
    8    4    2      1.90      0.00
   10    4    2    -24.11      0.00
   12    4    2     24.32      0.00
   14    4    2    -10.36      0.00
   16    4    2    -16.04      0.00
   18    4    2     20.37      0.00
   20    4    2    -23.96      0.00
   22    4    2      4.67      0.00
   24    4    2      8.37      0.00
   26    4    2    -10.71      0.00
   28    4    2     10.09      0.00
   30    4    2     -2.95      0.00
   32    4    2     -3.15      0.00
   34    4    2      0.30      0.00
   36    4    2      1.76      0.00
   38    4    2     -1.15      0.00
   40    4    2      2.72      0.00
   42    4    2     -0.44      0.00
  -43    5    2      2.07      0.00
  -41    5    2     -6.67      0.00
  -39    5    2     -2.35      0.00
  -37    5    2      0.96      0.00
  -35    5    2     -6.33      0.00
  -33    5    2     -4.82      0.00
  -31    5    2      6.98      0.00
  -29    5    2     -7.09      0.00
  -27    5    2     -1.64      0.00
  -25    5    2     -0.26      0.00
  -23    5    2     -2.35      0.00
  -21    5    2     -2.82      0.00
  -19    5    2     22.03      0.00
  -17    5    2    -12.29      0.00
  -15    5    2      8.46      0.00
  -13    5    2     11.69      0.00
  -11    5    2     -4.78      0.00
   -9    5    2     34.34      0.00
   -7    5    2     -1.84      0.00
   -5    5    2     41.25      0.00
   -1    5    2     60.48      0.00
    3    5    2     -4.92      0.00
    5    5    2     24.75      0.00
    7    5    2    -41.02      0.00
    9    5    2     32.24      0.00
   11    5    2    -24.38      0.00
   13    5    2    -12.27      0.00
   15    5    2     10.27      0.00
   17    5    2    -29.03      0.00
   19    5    2      3.05      0.00
   21    5    2     -3.77      0.00
   23    5    2      1.32      0.00
   25    5    2      6.85      0.00
   27    5    2      7.44      0.00
   29    5    2     -5.57      0.00
   31    5    2      6.98      0.00
   33    5    2     -0.73      0.00
   35    5    2      1.84      0.00
   37    5    2      3.40      0.00
   39    5    2      4.98      0.00
   41    5    2      1.02      0.00
  -42    6    2      3.71      0.00
  -40    6    2     -2.82      0.00
  -38    6    2     -8.83      0.00
  -36    6    2     -1.00      0.00
  -34    6    2      6.82      0.00
  -32    6    2     -1.57      0.00
  -30    6    2      5.40      0.00
  -28    6    2     -6.07      0.00
  -26    6    2      6.41      0.00
  -24    6    2      0.08      0.00
  -22    6    2     -9.82      0.00
  -20    6    2     -0.65      0.00
  -18    6    2    -10.22      0.00
  -16    6    2    -27.42      0.00
  -14    6    2     12.47      0.00
  -12    6    2     -4.90      0.00
  -10    6    2     -1.49      0.00
   -8    6    2     12.63      0.00
   -6    6    2    -41.44      0.00
   -4    6    2    -31.37      0.00
   -2    6    2     12.14      0.00
    0    6    2      2.91      0.00
    2    6    2    -25.89      0.00
    4    6    2    -58.34      0.00
    6    6    2     16.11      0.00
    8    6    2    -23.03      0.00
   10    6    2    -18.48      0.00
   12    6    2     31.76      0.00
   14    6    2    -23.47      0.00
   16    6    2    -11.78      0.00
   18    6    2      5.19      0.00
   20    6    2     -9.87      0.00
   22    6    2     -4.43      0.00
   24    6    2      5.42      0.00
   26    6    2     -5.27      0.00
   28    6    2      8.53      0.00
   30    6    2     -3.71      0.00
   32    6    2      1.96      0.00
   34    6    2     -3.44      0.00
   36    6    2     -1.27      0.00
   38    6    2      0.42      0.00
   40    6    2     -2.86      0.00
  -43    7    2      4.84      0.00
  -41    7    2      5.43      0.00
  -39    7    2      3.03      0.00
  -37    7    2     -0.23      0.00
  -35    7    2      3.05      0.00
  -33    7    2     -9.96      0.00
  -31    7    2      1.32      0.00
  -29    7    2     -5.90      0.00
  -27    7    2     -4.84      0.00
  -25    7    2     -0.64      0.00
  -23    7    2      5.13      0.00
  -21    7    2     -6.19      0.00
  -19    7    2     -0.09      0.00
  -17    7    2    -25.62      0.00
  -15    7    2     -2.42      0.00
  -13    7    2     -7.43      0.00
  -11    7    2     -5.55      0.00
   -9    7    2     41.94      0.00
   -7    7    2     10.83      0.00
   -5    7    2      8.15      0.00
   -3    7    2     14.15      0.00
   -1    7    2     11.09      0.00
    1    7    2    -60.50      0.00
    5    7    2    -14.54      0.00
    7    7    2    -51.64      0.00
    9    7    2     20.58      0.00
   11    7    2    -11.55      0.00
   13    7    2     -3.16      0.00
   15    7    2     24.52      0.00
   17    7    2      0.88      0.00
   19    7    2     15.28      0.00
   21    7    2     -5.68      0.00
   23    7    2     -1.10      0.00
   25    7    2      2.81      0.00
   27    7    2      4.41      0.00
   29    7    2      0.37      0.00
   31    7    2     16.10      0.00
   33    7    2     -9.75      0.00
   35    7    2     -3.52      0.00
   37    7    2     -2.97      0.00
   39    7    2      0.66      0.00
   41    7    2     -5.62      0.00
  -42    8    2      2.84      0.00
  -40    8    2      2.16      0.00
  -38    8    2     -4.53      0.00
  -36    8    2      6.24      0.00
  -34    8    2     -0.39      0.00
  -32    8    2     -2.22      0.00
  -30    8    2      3.76      0.00
  -28    8    2    -10.33      0.00
  -26    8    2      1.18      0.00
  -24    8    2      1.00      0.00
  -22    8    2      0.61      0.00
  -20    8    2      8.72      0.00
  -18    8    2     31.38      0.00
  -16    8    2     -5.85      0.00
  -14    8    2     17.74      0.00
  -12    8    2      1.37      0.00
  -10    8    2    -41.34      0.00
   -8    8    2     37.22      0.00
   -6    8    2      1.21      0.00
   -4    8    2     34.49      0.00
   -2    8    2     24.33      0.00
    0    8    2     15.24      0.00
    2    8    2     32.60      0.00
    4    8    2      6.75      0.00
    6    8    2     57.73      0.00
    8    8    2    -43.72      0.00
   10    8    2     -0.90      0.00
   12    8    2     22.75      0.00
   14    8    2    -11.93      0.00
   16    8    2     30.48      0.00
   18    8    2     16.55      0.00
   20    8    2      8.42      0.00
   22    8    2      0.05      0.00
   24    8    2     -0.98      0.00
   26    8    2     -5.94      0.00
   28    8    2      4.14      0.00
   30    8    2     -1.24      0.00
   32    8    2     -4.00      0.00
   34    8    2      3.95      0.00
   36    8    2      0.75      0.00
   38    8    2      3.02      0.00
   40    8    2      1.32      0.00
  -43    9    2      0.41      0.00
  -41    9    2     -6.45      0.00
  -39    9    2      3.68      0.00
  -37    9    2     -2.62      0.00
  -35    9    2     -1.65      0.00
  -33    9    2      3.96      0.00
  -31    9    2     14.34      0.00
  -29    9    2      2.73      0.00
  -27    9    2      5.06      0.00
  -25    9    2      3.72      0.00
  -23    9    2     -4.72      0.00
  -21    9    2      2.92      0.00
  -19    9    2     31.78      0.00
  -17    9    2    -12.55      0.00
  -15    9    2      1.06      0.00
  -13    9    2      7.56      0.00
  -11    9    2    -44.49      0.00
   -9    9    2     -8.28      0.00
   -7    9    2    -27.31      0.00
   -5    9    2    -45.96      0.00
   -3    9    2     -4.69      0.00
   -1    9    2      6.90      0.00
    1    9    2     -2.10      0.00
    3    9    2     42.81      0.00
    5    9    2     16.88      0.00
    7    9    2      3.54      0.00
    9    9    2     42.24      0.00
   11    9    2     -2.56      0.00
   13    9    2     -5.45      0.00
   15    9    2     18.68      0.00
   17    9    2    -26.79      0.00
   19    9    2     -7.49      0.00
   21    9    2     12.20      0.00
   23    9    2     -6.97      0.00
   25    9    2    -10.20      0.00
   27    9    2     -0.97      0.00
   29    9    2    -15.83      0.00
   31    9    2     -5.08      0.00
   33    9    2      1.62      0.00
   35    9    2      3.92      0.00
   37    9    2      1.23      0.00
   39    9    2      9.82      0.00
   41    9    2     -1.97      0.00
  -42   10    2      0.65      0.00
  -40   10    2      3.54      0.00
  -38   10    2    -10.60      0.00
  -36   10    2      2.73      0.00
  -34   10    2      0.61      0.00
  -32   10    2     -1.83      0.00
  -30   10    2     -0.87      0.00
  -28   10    2      2.54      0.00
  -26   10    2      6.09      0.00
  -24   10    2      5.51      0.00
  -22   10    2     -5.23      0.00
  -20   10    2    -12.42      0.00
  -18   10    2    -14.70      0.00
  -16   10    2    -12.74      0.00
  -14   10    2      2.57      0.00
  -12   10    2     34.70      0.00
  -10   10    2    -16.92      0.00
   -8   10    2     29.13      0.00
   -6   10    2    -21.00      0.00
   -4   10    2    -49.15      0.00
   -2   10    2      3.96      0.00
    0   10    2      2.57      0.00
    2   10    2    -39.03      0.00
    4   10    2    -14.73      0.00
    6   10    2     26.73      0.00
    8   10    2    -30.67      0.00
   10   10    2     41.30      0.00
   12   10    2     10.37      0.00
   14   10    2    -31.74      0.00
   16   10    2    -14.43      0.00
   18   10    2    -18.19      0.00
   20   10    2     -9.14      0.00
   22   10    2      3.32      0.00
   24   10    2     -1.24      0.00
   26   10    2      2.82      0.00
   28   10    2      5.86      0.00
   30   10    2      1.44      0.00
   32   10    2     -3.57      0.00
   34   10    2      1.81      0.00
   36   10    2     -3.08      0.00
   38   10    2      0.18      0.00
   40   10    2     -0.20      0.00
  -41   11    2     -2.88      0.00
  -39   11    2     -3.73      0.00
  -37   11    2      0.00      0.00
  -35   11    2      0.80      0.00
  -33   11    2      0.34      0.00
  -31   11    2     -9.93      0.00
  -29   11    2     -3.46      0.00
  -27   11    2     -1.23      0.00
  -25   11    2     -2.39      0.00
  -23   11    2     -0.32      0.00
  -21   11    2     -7.00      0.00
  -19   11    2      2.60      0.00
  -17   11    2    -15.86      0.00
  -15   11    2     22.08      0.00
  -13   11    2     22.48      0.00
  -11   11    2     -2.13      0.00
   -9   11    2     45.39      0.00
   -7   11    2      3.85      0.00
   -5   11    2      2.44      0.00
   -3   11    2     17.44      0.00
   -1   11    2     -2.17      0.00
    1   11    2    -13.72      0.00
    3   11    2     -1.17      0.00
    5   11    2     11.64      0.00
    7   11    2    -29.59      0.00
    9   11    2     -7.00      0.00
   11   11    2     -0.80      0.00
   13   11    2    -40.92      0.00
   15   11    2     17.70      0.00
   17   11    2     -0.58      0.00
   19   11    2     -6.86      0.00
   21   11    2     10.91      0.00
   23   11    2     -1.33      0.00
   25   11    2      1.25      0.00
   27   11    2      9.14      0.00
   29   11    2      8.20      0.00
   31   11    2      2.67      0.00
   33   11    2      5.99      0.00
   35   11    2    -11.29      0.00
   37   11    2      3.01      0.00
   39   11    2      2.57      0.00
  -42   12    2      0.05      0.00
  -40   12    2      2.06      0.00
  -38   12    2     -2.34      0.00
  -36   12    2     -0.77      0.00
  -34   12    2      1.63      0.00
  -32   12    2     -0.13      0.00
  -30   12    2      1.43      0.00
  -28   12    2     -0.74      0.00
  -26   12    2     -9.15      0.00
  -24   12    2     -0.89      0.00
  -22   12    2      1.50      0.00
  -20   12    2      8.00      0.00
  -18   12    2      1.89      0.00
  -16   12    2     14.72      0.00
  -14   12    2    -22.56      0.00
  -12   12    2     12.32      0.00
  -10   12    2    -58.32      0.00
   -8   12    2      2.12      0.00
   -6   12    2     43.84      0.00
   -4   12    2    -27.39      0.00
   -2   12    2     13.40      0.00
    0   12    2     19.69      0.00
    2   12    2    -25.45      0.00
    4   12    2     34.96      0.00
    6   12    2     -5.25      0.00
    8   12    2    -59.28      0.00
   10   12    2     12.09      0.00
   12   12    2    -16.50      0.00
   14   12    2      5.94      0.00
   16   12    2     21.58      0.00
   18   12    2      9.01      0.00
   20   12    2     -1.82      0.00
   22   12    2      5.31      0.00
   24   12    2    -13.89      0.00
   26   12    2     -2.42      0.00
   28   12    2      3.91      0.00
   30   12    2     -7.83      0.00
   32   12    2      1.21      0.00
   34   12    2      0.41      0.00
   36   12    2     -1.47      0.00
   38   12    2      4.12      0.00
   40   12    2      0.77      0.00
  -41   13    2      1.18      0.00
  -39   13    2     -0.74      0.00
  -37   13    2      8.29      0.00
  -35   13    2     -4.63      0.00
  -33   13    2      7.94      0.00
  -31   13    2     -1.79      0.00
  -29   13    2     -3.54      0.00
  -27   13    2     -4.72      0.00
  -25   13    2      0.71      0.00
  -23   13    2     -6.48      0.00
  -21   13    2      5.05      0.00
  -19   13    2      8.91      0.00
  -17   13    2     -5.87      0.00
  -15   13    2     -7.74      0.00
  -13   13    2    -12.45      0.00
  -11   13    2     -2.27      0.00
   -9   13    2     -8.85      0.00
   -7   13    2     -2.55      0.00
   -5   13    2     12.13      0.00
   -3   13    2     -9.30      0.00
   -1   13    2      4.66      0.00
    1   13    2      5.37      0.00
    3   13    2    -22.46      0.00
    5   13    2     -0.44      0.00
    7   13    2      3.56      0.00
    9   13    2     -8.48      0.00
   11   13    2     32.80      0.00
   13   13    2     -1.34      0.00
   15   13    2     20.38      0.00
   17   13    2     -8.53      0.00
   19   13    2    -16.47      0.00
   21   13    2     23.69      0.00
   23   13    2     -4.80      0.00
   25   13    2     -3.86      0.00
   27   13    2      8.54      0.00
   29   13    2      2.80      0.00
   31   13    2    -11.75      0.00
   33   13    2      8.12      0.00
   35   13    2     -9.70      0.00
   37   13    2      0.06      0.00
   39   13    2     -1.56      0.00
  -40   14    2      1.21      0.00
  -38   14    2      1.16      0.00
  -36   14    2     -3.82      0.00
  -34   14    2      7.21      0.00
  -32   14    2     -3.71      0.00
  -30   14    2      3.78      0.00
  -28   14    2      1.16      0.00
  -26   14    2      1.15      0.00
  -24   14    2      0.86      0.00
  -22   14    2      4.73      0.00
  -20   14    2    -12.55      0.00
  -18   14    2     -0.62      0.00
  -16   14    2      3.79      0.00
  -14   14    2     -9.82      0.00
  -12   14    2     47.39      0.00
  -10   14    2     -3.27      0.00
   -8   14    2     14.15      0.00
   -6   14    2     27.68      0.00
   -4   14    2    -41.76      0.00
   -2   14    2      9.52      0.00
    0   14    2     23.63      0.00
    2   14    2    -42.54      0.00
    4   14    2     32.52      0.00
    6   14    2     10.99      0.00
    8   14    2     -2.61      0.00
   10   14    2     53.07      0.00
   12   14    2      0.25      0.00
   14   14    2     -8.14      0.00
   16   14    2     -2.18      0.00
   18   14    2     -7.90      0.00
   20   14    2      7.29      0.00
   22   14    2      9.18      0.00
   24   14    2     -4.57      0.00
   26   14    2      3.70      0.00
   28   14    2     13.44      0.00
   30   14    2     -7.54      0.00
   32   14    2      8.72      0.00
   34   14    2     -1.72      0.00
   36   14    2     -6.60      0.00
   38   14    2     -1.09      0.00
  -39   15    2     -8.28      0.00
  -37   15    2      0.90      0.00
  -35   15    2     -0.99      0.00
  -33   15    2      1.79      0.00
  -31   15    2     -1.97      0.00
  -29   15    2      6.51      0.00
  -27   15    2     11.66      0.00
  -25   15    2     10.62      0.00
  -23   15    2     -5.14      0.00
  -21   15    2      9.23      0.00
  -19   15    2    -12.54      0.00
  -17   15    2      1.25      0.00
  -15   15    2     -4.86      0.00
  -13   15    2      1.35      0.00
  -11   15    2      3.19      0.00
   -9   15    2    -32.57      0.00
   -7   15    2      5.97      0.00
   -5   15    2     -0.35      0.00
   -3   15    2    -19.50      0.00
   -1   15    2      4.64      0.00
    1   15    2     15.85      0.00
    3   15    2      7.53      0.00
    5   15    2      3.53      0.00
    7   15    2     23.74      0.00
    9   15    2     -6.64      0.00
   11   15    2     -2.24      0.00
   13   15    2    -14.47      0.00
   15   15    2      3.20      0.00
   17   15    2     19.54      0.00
   19   15    2    -19.77      0.00
   21   15    2      6.57      0.00
   23   15    2    -13.34      0.00
   25   15    2    -10.51      0.00
   27   15    2     -7.03      0.00
   29   15    2     -2.37      0.00
   31   15    2     -1.86      0.00
   33   15    2      3.63      0.00
   35   15    2     -2.57      0.00
   37   15    2      4.41      0.00
  -40   16    2      1.89      0.00
  -38   16    2      3.00      0.00
  -36   16    2     -5.22      0.00
  -34   16    2      3.89      0.00
  -32   16    2     -8.00      0.00
  -30   16    2      6.59      0.00
  -28   16    2     -3.39      0.00
  -26   16    2     -0.50      0.00
  -24   16    2     -0.21      0.00
  -22   16    2     17.62      0.00
  -20   16    2    -14.66      0.00
  -18   16    2     11.08      0.00
  -16   16    2     -6.98      0.00
  -14   16    2     -7.02      0.00
  -12   16    2     12.36      0.00
  -10   16    2    -35.12      0.00
   -8   16    2    -23.23      0.00
   -6   16    2     24.54      0.00
   -4   16    2    -31.46      0.00
   -2   16    2      4.91      0.00
    0   16    2     21.59      0.00
    2   16    2    -29.22      0.00
    4   16    2     22.48      0.00
    6   16    2    -23.44      0.00
    8   16    2    -38.51      0.00
   10   16    2      2.93      0.00
   12   16    2    -11.39      0.00
   14   16    2     -7.11      0.00
   16   16    2     11.48      0.00
   18   16    2    -13.20      0.00
   20   16    2      8.29      0.00
   22   16    2      1.34      0.00
   24   16    2     -3.29      0.00
   26   16    2    -11.30      0.00
   28   16    2      5.95      0.00
   30   16    2    -10.38      0.00
   32   16    2      8.08      0.00
   34   16    2      0.34      0.00
   36   16    2     -0.24      0.00
   38   16    2      3.21      0.00
  -39   17    2     -0.01      0.00
  -37   17    2      1.15      0.00
  -35   17    2      3.99      0.00
  -33   17    2     -1.43      0.00
  -31   17    2     -2.56      0.00
  -29   17    2    -13.08      0.00
  -27   17    2     -7.60      0.00
  -25   17    2     -1.49      0.00
  -23   17    2     -8.35      0.00
  -21   17    2      1.38      0.00
  -19   17    2     -1.08      0.00
  -17   17    2      6.91      0.00
  -15   17    2     -3.20      0.00
  -13   17    2     12.63      0.00
  -11   17    2      8.08      0.00
   -9   17    2      4.74      0.00
   -7   17    2     29.35      0.00
   -5   17    2     15.74      0.00
   -3   17    2     -0.16      0.00
   -1   17    2     -1.38      0.00
    1   17    2     -1.93      0.00
    3   17    2    -12.00      0.00
    5   17    2    -31.45      0.00
    7   17    2    -11.94      0.00
    9   17    2     -6.27      0.00
   11   17    2     -4.92      0.00
   13   17    2      2.24      0.00
   15   17    2     -2.78      0.00
   17   17    2      1.43      0.00
   19   17    2    -13.25      0.00
   21   17    2     24.45      0.00
   23   17    2      6.17      0.00
   25   17    2      3.24      0.00
   27   17    2     11.81      0.00
   29   17    2      2.18      0.00
   31   17    2     -0.69      0.00
   33   17    2      4.44      0.00
   35   17    2      2.25      0.00
   37   17    2     -1.97      0.00
  -38   18    2     -0.30      0.00
  -36   18    2     -7.24      0.00
  -34   18    2      4.46      0.00
  -32   18    2     -4.77      0.00
  -30   18    2      4.12      0.00
  -28   18    2     -1.59      0.00
  -26   18    2     -2.46      0.00
  -24   18    2     -3.82      0.00
  -22   18    2      4.40      0.00
  -20   18    2    -15.90      0.00
  -18   18    2     10.97      0.00
  -16   18    2     -6.40      0.00
  -14   18    2    -12.62      0.00
  -12   18    2     18.34      0.00
  -10   18    2     -4.07      0.00
   -8   18    2     -1.63      0.00
   -6   18    2     35.71      0.00
   -4   18    2    -26.58      0.00
   -2   18    2     15.46      0.00
    0   18    2     14.03      0.00
    2   18    2    -23.43      0.00
    4   18    2     31.96      0.00
    6   18    2      6.08      0.00
    8   18    2     -2.38      0.00
   10   18    2     20.98      0.00
   12   18    2      3.79      0.00
   14   18    2     -6.70      0.00
   16   18    2      3.19      0.00
   18   18    2    -13.00      0.00
   20   18    2      2.90      0.00
   22   18    2     -3.20      0.00
   24   18    2      1.80      0.00
   26   18    2     -2.61      0.00
   28   18    2      7.05      0.00
   30   18    2    -10.33      0.00
   32   18    2      3.19      0.00
   34   18    2     -3.20      0.00
   36   18    2     -3.88      0.00
  -37   19    2     -4.11      0.00
  -35   19    2      1.74      0.00
  -33   19    2      0.80      0.00
  -31   19    2      4.87      0.00
  -29   19    2      0.67      0.00
  -27   19    2      5.01      0.00
  -25   19    2     -0.69      0.00
  -23   19    2      0.46      0.00
  -21   19    2     -1.26      0.00
  -19   19    2     10.53      0.00
  -17   19    2     -7.67      0.00
  -15   19    2      7.30      0.00
  -13   19    2      7.75      0.00
  -11   19    2    -13.85      0.00
   -9   19    2     -7.10      0.00
   -7   19    2    -21.73      0.00
   -5   19    2    -15.58      0.00
   -3   19    2    -18.06      0.00
   -1   19    2     -3.30      0.00
    1   19    2     17.13      0.00
    3   19    2     21.82      0.00
    5   19    2     14.33      0.00
    7   19    2     16.61      0.00
    9   19    2     16.29      0.00
   11   19    2     -2.19      0.00
   13   19    2    -16.57      0.00
   15   19    2     14.38      0.00
   17   19    2      6.02      0.00
   19   19    2    -12.57      0.00
   21   19    2     -1.02      0.00
   23   19    2     -4.49      0.00
   25   19    2     -8.82      0.00
   27   19    2      2.13      0.00
   29   19    2     -2.14      0.00
   31   19    2     -2.03      0.00
   33   19    2      1.90      0.00
   35   19    2     -5.73      0.00
  -36   20    2     -2.05      0.00
  -34   20    2      4.17      0.00
  -32   20    2     -3.43      0.00
  -30   20    2      3.94      0.00
  -28   20    2      1.74      0.00
  -26   20    2     -4.72      0.00
  -24   20    2      4.13      0.00
  -22   20    2      5.72      0.00
  -20   20    2     -4.56      0.00
  -18   20    2      3.74      0.00
  -16   20    2      3.47      0.00
  -14   20    2     -1.71      0.00
  -12   20    2     24.59      0.00
  -10   20    2     -7.11      0.00
   -8   20    2    -11.21      0.00
   -6   20    2     20.10      0.00
   -4   20    2    -24.26      0.00
   -2   20    2      7.41      0.00
    0   20    2      0.04      0.00
    2   20    2    -22.64      0.00
    4   20    2     11.58      0.00
    6   20    2     -8.03      0.00
    8   20    2     -8.70      0.00
   10   20    2      8.80      0.00
   12   20    2     -2.60      0.00
   14   20    2      5.35      0.00
   16   20    2      9.99      0.00
   18   20    2     -4.49      0.00
   20   20    2      1.67      0.00
   22   20    2     10.25      0.00
   24   20    2     -1.08      0.00
   26   20    2     -2.32      0.00
   28   20    2      7.47      0.00
   30   20    2      2.32      0.00
   32   20    2      3.36      0.00
   34   20    2      0.47      0.00
  -35   21    2     -1.76      0.00
  -33   21    2      1.51      0.00
  -31   21    2      2.14      0.00
  -29   21    2      1.15      0.00
  -27   21    2      3.32      0.00
  -25   21    2      1.39      0.00
  -23   21    2      6.97      0.00
  -21   21    2     -4.44      0.00
  -19   21    2      9.27      0.00
  -17   21    2    -11.54      0.00
  -15   21    2      0.47      0.00
  -13   21    2    -14.16      0.00
  -11   21    2     -9.21      0.00
   -9   21    2     18.85      0.00
   -7   21    2      4.30      0.00
   -5   21    2     24.00      0.00
   -3   21    2      2.86      0.00
   -1   21    2     -5.22      0.00
    1   21    2     -3.12      0.00
    3   21    2    -14.72      0.00
    5   21    2    -12.32      0.00
    7   21    2    -10.90      0.00
    9   21    2      3.65      0.00
   11   21    2     11.57      0.00
   13   21    2    -10.11      0.00
   15   21    2      7.76      0.00
   17   21    2     -3.64      0.00
   19   21    2     -4.39      0.00
   21   21    2      4.88      0.00
   23   21    2      3.23      0.00
   25   21    2     -6.63      0.00
   27   21    2      2.65      0.00
   29   21    2     -2.96      0.00
   31   21    2     -7.12      0.00
   33   21    2      5.00      0.00
  -36   22    2     -1.62      0.00
  -34   22    2      3.04      0.00
  -32   22    2     -1.80      0.00
  -30   22    2     -0.82      0.00
  -28   22    2     -2.50      0.00
  -26   22    2     -1.79      0.00
  -24   22    2      3.80      0.00
  -22   22    2      0.47      0.00
  -20   22    2     -1.21      0.00
  -18   22    2      1.30      0.00
  -16   22    2     -4.10      0.00
  -14   22    2     -9.15      0.00
  -12   22    2      1.80      0.00
  -10   22    2     -7.83      0.00
   -8   22    2     -3.85      0.00
   -6   22    2     11.13      0.00
   -4   22    2    -11.62      0.00
   -2   22    2      3.01      0.00
    0   22    2      6.78      0.00
    2   22    2     -4.81      0.00
    4   22    2     11.06      0.00
    6   22    2     -6.66      0.00
    8   22    2     -7.74      0.00
   10   22    2     -1.44      0.00
   12   22    2    -12.67      0.00
   14   22    2     -2.20      0.00
   16   22    2      2.66      0.00
   18   22    2     -0.93      0.00
   20   22    2     -0.44      0.00
   22   22    2      1.91      0.00
   24   22    2     -8.23      0.00
   26   22    2     -2.27      0.00
   28   22    2     -3.03      0.00
   30   22    2     -2.48      0.00
   32   22    2     -0.66      0.00
   34   22    2      0.97      0.00
  -35   23    2     -1.34      0.00
  -33   23    2      1.14      0.00
  -31   23    2     -1.44      0.00
  -29   23    2     -5.63      0.00
  -27   23    2     -7.29      0.00
  -25   23    2     -4.86      0.00
  -23   23    2     -0.44      0.00
  -21   23    2     -5.18      0.00
  -19   23    2     -1.84      0.00
  -17   23    2     -0.99      0.00
  -15   23    2      8.85      0.00
  -13   23    2      3.39      0.00
  -11   23    2      7.71      0.00
   -9   23    2      4.51      0.00
   -7   23    2    -15.44      0.00
   -5   23    2      2.78      0.00
   -3   23    2     -0.36      0.00
   -1   23    2     -1.76      0.00
    1   23    2     12.69      0.00
    3   23    2     -2.55      0.00
    5   23    2      3.04      0.00
    7   23    2     -4.71      0.00
    9   23    2    -10.35      0.00
   11   23    2     -4.01      0.00
   13   23    2     -4.53      0.00
   15   23    2      5.07      0.00
   17   23    2      7.50      0.00
   19   23    2     -5.24      0.00
   21   23    2      0.62      0.00
   23   23    2      6.00      0.00
   25   23    2     -1.17      0.00
   27   23    2      5.29      0.00
   29   23    2      3.26      0.00
   31   23    2      3.40      0.00
   33   23    2      4.97      0.00
  -34   24    2      1.46      0.00
  -32   24    2      0.25      0.00
  -30   24    2      1.89      0.00
  -28   24    2      1.92      0.00
  -26   24    2      1.57      0.00
  -24   24    2     -0.78      0.00
  -22   24    2     -1.01      0.00
  -20   24    2     -4.93      0.00
  -18   24    2      2.40      0.00
  -16   24    2     -1.33      0.00
  -14   24    2      3.01      0.00
  -12   24    2      9.00      0.00
  -10   24    2     -3.10      0.00
   -8   24    2     -3.50      0.00
   -6   24    2      0.73      0.00
   -4   24    2      2.48      0.00
   -2   24    2      0.39      0.00
    0   24    2      3.07      0.00
    2   24    2     -2.33      0.00
    4   24    2      2.01      0.00
    6   24    2      0.95      0.00
    8   24    2      8.16      0.00
   10   24    2     14.26      0.00
   12   24    2     -2.16      0.00
   14   24    2      9.16      0.00
   16   24    2      0.92      0.00
   18   24    2    -11.59      0.00
   20   24    2     -0.84      0.00
   22   24    2      3.45      0.00
   24   24    2     -1.48      0.00
   26   24    2      1.64      0.00
   28   24    2      6.19      0.00
   30   24    2      1.13      0.00
   32   24    2     -4.80      0.00
  -33   25    2      2.02      0.00
  -31   25    2      2.78      0.00
  -29   25    2      1.30      0.00
  -27   25    2      1.56      0.00
  -25   25    2      2.05      0.00
  -23   25    2      0.08      0.00
  -21   25    2      8.78      0.00
  -19   25    2     -0.45      0.00
  -17   25    2      0.54      0.00
  -15   25    2     -7.76      0.00
  -13   25    2     -9.51      0.00
  -11   25    2      0.20      0.00
   -9   25    2      2.07      0.00
   -7   25    2     -0.53      0.00
   -5   25    2     -0.72      0.00
   -3   25    2      0.70      0.00
   -1   25    2    -10.32      0.00
    1   25    2      6.37      0.00
    3   25    2     -1.99      0.00
    5   25    2      5.16      0.00
    7   25    2     14.07      0.00
    9   25    2      4.34      0.00
   11   25    2      5.94      0.00
   13   25    2      0.99      0.00
   15   25    2     -3.59      0.00
   17   25    2      8.22      0.00
   19   25    2     -3.96      0.00
   21   25    2     -0.56      0.00
   23   25    2     -2.35      0.00
   25   25    2     -6.21      0.00
   27   25    2      1.75      0.00
   29   25    2     -5.45      0.00
   31   25    2     -6.73      0.00
  -32   26    2     -0.99      0.00
  -30   26    2     -2.26      0.00
  -28   26    2     -0.95      0.00
  -26   26    2     -1.21      0.00
  -24   26    2     -0.45      0.00
  -22   26    2      5.94      0.00
  -20   26    2     -0.90      0.00
  -18   26    2      9.17      0.00
  -16   26    2     -1.68      0.00
  -14   26    2     -7.70      0.00
  -12   26    2     -0.88      0.00
  -10   26    2     -8.68      0.00
   -8   26    2      6.44      0.00
   -6   26    2      2.19      0.00
   -4   26    2     -0.50      0.00
   -2   26    2     -6.04      0.00
    0   26    2     -2.65      0.00
    2   26    2      1.91      0.00
    4   26    2      3.19      0.00
    6   26    2     -2.88      0.00
    8   26    2     -8.17      0.00
   10   26    2     -2.71      0.00
   12   26    2    -15.44      0.00
   14   26    2     -0.02      0.00
   16   26    2      6.95      0.00
   18   26    2      3.63      0.00
   20   26    2      5.57      0.00
   22   26    2      1.10      0.00
   24   26    2     -0.34      0.00
   26   26    2     -0.47      0.00
   28   26    2      1.42      0.00
   30   26    2      0.83      0.00
  -29   27    2     -2.15      0.00
  -27   27    2      0.68      0.00
  -25   27    2      2.53      0.00
  -23   27    2     -3.92      0.00
  -21   27    2      3.38      0.00
  -19   27    2     -4.50      0.00
  -17   27    2      4.88      0.00
  -15   27    2      3.93      0.00
  -13   27    2      6.34      0.00
  -11   27    2      1.63      0.00
   -9   27    2      2.15      0.00
   -7   27    2     -4.11      0.00
   -5   27    2     -5.77      0.00
   -3   27    2      8.26      0.00
   -1   27    2     -5.91      0.00
    1   27    2      0.91      0.00
    3   27    2     -5.66      0.00
    5   27    2     -3.82      0.00
    7   27    2     -1.11      0.00
    9   27    2     -6.77      0.00
   11   27    2     -5.58      0.00
   13   27    2     -4.51      0.00
   15   27    2     -5.07      0.00
   17   27    2      1.71      0.00
   19   27    2     -3.78      0.00
   21   27    2      5.32      0.00
   23   27    2      4.86      0.00
   25   27    2      0.38      0.00
   27   27    2      2.05      0.00
  -28   28    2      1.93      0.00
  -26   28    2     -1.00      0.00
  -24   28    2     -2.42      0.00
  -22   28    2     -2.44      0.00
  -20   28    2     -8.27      0.00
  -18   28    2      0.52      0.00
  -16   28    2     -5.58      0.00
  -14   28    2      4.69      0.00
  -12   28    2     14.17      0.00
  -10   28    2     -0.65      0.00
   -8   28    2     -0.32      0.00
   -6   28    2      1.07      0.00
   -4   28    2     -2.15      0.00
   -2   28    2      4.51      0.00
    0   28    2      4.39      0.00
    2   28    2     -1.47      0.00
    4   28    2      0.20      0.00
    6   28    2     -6.55      0.00
    8   28    2      7.00      0.00
   10   28    2      9.38      0.00
   12   28    2      2.72      0.00
   14   28    2     -0.95      0.00
   16   28    2     -1.16      0.00
   18   28    2     -4.59      0.00
   20   28    2     -3.47      0.00
   22   28    2     -2.71      0.00
   24   28    2     -8.12      0.00
   26   28    2     -2.14      0.00
  -27   29    2      0.28      0.00
  -25   29    2      2.41      0.00
  -23   29    2     -2.74      0.00
  -21   29    2      2.03      0.00
  -19   29    2     -0.57      0.00
  -17   29    2     -3.25      0.00
  -15   29    2     -4.23      0.00
  -13   29    2      1.99      0.00
  -11   29    2     -7.37      0.00
   -9   29    2      3.49      0.00
   -7   29    2     -2.02      0.00
   -5   29    2     -1.78      0.00
   -3   29    2     10.67      0.00
   -1   29    2     -1.37      0.00
    1   29    2      2.67      0.00
    3   29    2     -2.83      0.00
    5   29    2      3.62      0.00
    7   29    2      0.07      0.00
    9   29    2      6.64      0.00
   11   29    2      2.05      0.00
   13   29    2      4.30      0.00
   15   29    2     -0.48      0.00
   17   29    2     -2.47      0.00
   19   29    2     -2.87      0.00
   21   29    2     -4.03      0.00
   23   29    2     -3.05      0.00
   25   29    2     -0.26      0.00
  -26   30    2     -3.23      0.00
  -24   30    2      2.99      0.00
  -22   30    2      1.06      0.00
  -20   30    2      3.93      0.00
  -18   30    2      6.88      0.00
  -16   30    2     -0.32      0.00
  -14   30    2     -3.47      0.00
  -12   30    2     -5.06      0.00
  -10   30    2     -5.08      0.00
   -8   30    2      0.57      0.00
   -6   30    2      4.43      0.00
   -4   30    2     -4.16      0.00
   -2   30    2      1.58      0.00
    0   30    2     -4.27      0.00
    2   30    2     -4.12      0.00
    4   30    2      6.87      0.00
    6   30    2     -5.39      0.00
    8   30    2     -0.24      0.00
   10   30    2     -4.57      0.00
   12   30    2     -3.06      0.00
   14   30    2     -1.53      0.00
   16   30    2      4.48      0.00
   18   30    2      5.75      0.00
   20   30    2      1.51      0.00
   22   30    2      6.23      0.00
   24   30    2      2.79      0.00
  -23   31    2     -2.53      0.00
  -21   31    2      0.14      0.00
  -19   31    2      2.78      0.00
  -17   31    2     -4.07      0.00
  -15   31    2     -2.47      0.00
  -13   31    2      0.63      0.00
  -11   31    2      1.54      0.00
   -9   31    2      6.88      0.00
   -7   31    2      1.88      0.00
   -5   31    2     -6.26      0.00
   -3   31    2      5.88      0.00
   -1   31    2      0.63      0.00
    1   31    2     -0.59      0.00
    3   31    2     -1.93      0.00
    5   31    2     -3.04      0.00
    7   31    2      0.64      0.00
    9   31    2      1.05      0.00
   11   31    2     -1.44      0.00
   13   31    2      3.32      0.00
   15   31    2      4.68      0.00
   17   31    2      3.31      0.00
   19   31    2      4.53      0.00
   21   31    2      0.10      0.00
  -22   32    2     -4.21      0.00
  -20   32    2      1.73      0.00
  -18   32    2     -1.71      0.00
  -16   32    2     -1.85      0.00
  -14   32    2      3.70      0.00
  -12   32    2      5.65      0.00
  -10   32    2     -4.57      0.00
   -8   32    2     -2.03      0.00
   -6   32    2     -2.23      0.00
   -4   32    2     -2.61      0.00
   -2   32    2      2.28      0.00
    0   32    2      1.52      0.00
    2   32    2      4.84      0.00
    4   32    2     -3.10      0.00
    6   32    2     -2.27      0.00
    8   32    2      2.59      0.00
   10   32    2      7.31      0.00
   12   32    2      1.07      0.00
   14   32    2     -0.73      0.00
   16   32    2     -5.45      0.00
   18   32    2     -1.17      0.00
   20   32    2     -3.26      0.00
  -19   33    2      0.67      0.00
  -17   33    2      0.20      0.00
  -15   33    2      6.19      0.00
  -13   33    2      0.41      0.00
  -11   33    2      2.72      0.00
   -9   33    2     -5.75      0.00
   -7   33    2     -1.03      0.00
   -5   33    2     -5.78      0.00
   -3   33    2      1.16      0.00
   -1   33    2     -3.18      0.00
    1   33    2    -10.27      0.00
    3   33    2      5.11      0.00
    5   33    2     -3.09      0.00
    7   33    2      6.14      0.00
    9   33    2     -3.98      0.00
   11   33    2     -1.26      0.00
   13   33    2     -5.84      0.00
   15   33    2     -9.00      0.00
   17   33    2     -2.89      0.00
  -18   34    2      1.08      0.00
  -16   34    2      0.03      0.00
  -14   34    2     -0.58      0.00
  -12   34    2     -2.74      0.00
  -10   34    2      1.83      0.00
   -8   34    2      3.65      0.00
   -6   34    2     -1.96      0.00
   -4   34    2      4.51      0.00
   -2   34    2      3.01      0.00
    0   34    2     -2.43      0.00
    2   34    2      4.68      0.00
    4   34    2     -0.74      0.00
    6   34    2      3.59      0.00
    8   34    2     -2.54      0.00
   10   34    2     -1.90      0.00
   12   34    2     -2.27      0.00
   14   34    2      0.52      0.00
   16   34    2      0.64      0.00
  -15   35    2     -1.97      0.00
  -13   35    2     -5.11      0.00
  -11   35    2      3.96      0.00
   -9   35    2     -0.87      0.00
   -7   35    2     -0.13      0.00
   -5   35    2     -1.35      0.00
   -3   35    2      4.34      0.00
   -1   35    2     12.20      0.00
    1   35    2      1.03      0.00
    3   35    2      4.63      0.00
    5   35    2     -4.74      0.00
    7   35    2      1.75      0.00
    9   35    2      1.33      0.00
   11   35    2      5.23      0.00
   13   35    2      5.04      0.00
  -10   36    2      3.55      0.00
   -8   36    2     -2.42      0.00
   -6   36    2     -1.76      0.00
   -4   36    2      1.12      0.00
   -2   36    2     -3.75      0.00
    0   36    2     -3.86      0.00
    2   36    2      1.21      0.00
    4   36    2     -5.79      0.00
    6   36    2     -5.94      0.00
    8   36    2      0.54      0.00
   -3   37    2     -3.50      0.00
   -1   37    2     -4.36      0.00
    1   37    2     -7.72      0.00
  -43    1    3     -3.32      0.00
  -41    1    3     -2.19      0.00
  -39    1    3      2.33      0.00
  -37    1    3     -2.68      0.00
  -35    1    3     -1.23      0.00
  -33    1    3      6.28      0.00
  -31    1    3     13.46      0.00
  -29    1    3     10.80      0.00
  -27    1    3     -1.49      0.00
  -25    1    3     -1.93      0.00
  -23    1    3     -6.89      0.00
  -21    1    3    -23.44      0.00
  -19    1    3     -9.27      0.00
  -17    1    3    -15.42      0.00
  -15    1    3      8.45      0.00
  -13    1    3      8.86      0.00
  -11    1    3      5.13      0.00
   -9    1    3     16.62      0.00
   -7    1    3     -3.78      0.00
   -5    1    3     -5.49      0.00
   -3    1    3     15.90      0.00
   -1    1    3     26.35      0.00
    1    1    3      0.29      0.00
    3    1    3    -28.05      0.00
    5    1    3      0.11      0.00
    7    1    3     -2.62      0.00
    9    1    3     14.38      0.00
   11    1    3     -5.00      0.00
   13    1    3    -12.85      0.00
   15    1    3    -24.97      0.00
   17    1    3    -22.90      0.00
   19    1    3     -3.74      0.00
   21    1    3      0.63      0.00
   23    1    3      1.06      0.00
   25    1    3      4.36      0.00
   27    1    3      9.29      0.00
   29    1    3      5.63      0.00
   31    1    3      3.69      0.00
   33    1    3     -3.89      0.00
   35    1    3      4.94      0.00
   37    1    3      2.84      0.00
   39    1    3     -3.60      0.00
   41    1    3      3.77      0.00
  -44    2    3     -1.45      0.00
  -42    2    3     -5.28      0.00
  -40    2    3     -9.63      0.00
  -38    2    3     -2.46      0.00
  -36    2    3     -8.13      0.00
  -34    2    3     10.43      0.00
  -32    2    3     -4.42      0.00
  -30    2    3     -0.05      0.00
  -28    2    3      2.76      0.00
  -26    2    3      2.90      0.00
  -24    2    3      5.51      0.00
  -22    2    3     -1.77      0.00
  -20    2    3    -11.70      0.00
  -18    2    3     -9.75      0.00
  -16    2    3     -1.88      0.00
  -14    2    3    -11.55      0.00
  -12    2    3     15.19      0.00
  -10    2    3      6.38      0.00
   -8    2    3     18.47      0.00
   -6    2    3     10.54      0.00
   -4    2    3      3.70      0.00
   -2    2    3     19.15      0.00
    0    2    3    -10.54      0.00
    2    2    3    -23.63      0.00
    4    2    3     29.22      0.00
    6    2    3    -29.15      0.00
    8    2    3     11.51      0.00
   10    2    3      0.67      0.00
   12    2    3     16.72      0.00
   14    2    3      5.60      0.00
   16    2    3      6.33      0.00
   18    2    3      2.80      0.00
   20    2    3      8.93      0.00
   22    2    3     -1.18      0.00
   24    2    3     -1.22      0.00
   26    2    3      4.59      0.00
   28    2    3     -5.98      0.00
   30    2    3      9.71      0.00
   32    2    3      7.31      0.00
   34    2    3      4.37      0.00
   36    2    3     -2.41      0.00
   38    2    3      0.31      0.00
   40    2    3     -3.49      0.00
  -43    3    3      1.66      0.00
  -41    3    3      4.17      0.00
  -39    3    3     -0.71      0.00
  -37    3    3      1.26      0.00
  -35    3    3     -0.48      0.00
  -33    3    3      2.69      0.00
  -31    3    3     -8.75      0.00
  -29    3    3     -4.41      0.00
  -27    3    3     -3.56      0.00
  -25    3    3      1.31      0.00
  -23    3    3      8.45      0.00
  -21    3    3     -4.29      0.00
  -19    3    3      4.46      0.00
  -17    3    3     -4.37      0.00
  -15    3    3     -1.72      0.00
  -13    3    3      7.55      0.00
  -11    3    3    -14.76      0.00
   -9    3    3      3.33      0.00
   -7    3    3     29.80      0.00
   -5    3    3     -9.43      0.00
   -3    3    3      2.83      0.00
   -1    3    3      3.66      0.00
    1    3    3      4.74      0.00
    3    3    3    -19.14      0.00
    5    3    3     20.01      0.00
    7    3    3    -11.75      0.00
    9    3    3      3.32      0.00
   11    3    3      3.89      0.00
   13    3    3     16.51      0.00
   15    3    3     21.22      0.00
   17    3    3      2.80      0.00
   19    3    3      1.78      0.00
   21    3    3     -2.74      0.00
   23    3    3     -4.47      0.00
   25    3    3      3.93      0.00
   27    3    3    -13.04      0.00
   29    3    3    -10.97      0.00
   31    3    3     10.24      0.00
   33    3    3     -2.68      0.00
   35    3    3     -0.22      0.00
   37    3    3      3.08      0.00
   39    3    3      0.39      0.00
   41    3    3      3.65      0.00
  -44    4    3      5.20      0.00
  -42    4    3      4.71      0.00
  -40    4    3      5.53      0.00
  -38    4    3     16.83      0.00
  -36    4    3      1.87      0.00
  -34    4    3      9.90      0.00
  -32    4    3    -10.20      0.00
  -30    4    3      3.38      0.00
  -28    4    3      0.78      0.00
  -26    4    3    -10.74      0.00
  -24    4    3     -4.14      0.00
  -22    4    3      5.83      0.00
  -20    4    3      2.07      0.00
  -18    4    3     15.12      0.00
  -16    4    3     18.65      0.00
  -14    4    3     -6.97      0.00
  -12    4    3     -0.70      0.00
  -10    4    3     -7.08      0.00
   -8    4    3     -8.41      0.00
   -6    4    3    -22.07      0.00
   -4    4    3    -10.76      0.00
   -2    4    3      7.23      0.00
    0    4    3     12.81      0.00
    2    4    3    -27.08      0.00
    4    4    3     51.24      0.00
    6    4    3    -23.98      0.00
    8    4    3     -8.61      0.00
   10    4    3     -2.77      0.00
   12    4    3     -8.69      0.00
   14    4    3    -13.85      0.00
   16    4    3     -6.26      0.00
   18    4    3    -11.48      0.00
   20    4    3     -5.05      0.00
   22    4    3     -4.89      0.00
   24    4    3     -6.85      0.00
   26    4    3     14.60      0.00
   28    4    3    -12.12      0.00
   30    4    3     -6.89      0.00
   32    4    3     -4.21      0.00
   34    4    3     -0.93      0.00
   36    4    3      4.97      0.00
   38    4    3     -2.98      0.00
   40    4    3     -5.73      0.00
  -43    5    3     -4.52      0.00
  -41    5    3      5.63      0.00
  -39    5    3     -3.79      0.00
  -37    5    3     -1.75      0.00
  -35    5    3    -12.30      0.00
  -33    5    3      3.30      0.00
  -31    5    3     -2.44      0.00
  -29    5    3      1.53      0.00
  -27    5    3     -2.30      0.00
  -25    5    3     -9.06      0.00
  -23    5    3     16.60      0.00
  -21    5    3      1.93      0.00
  -19    5    3     -6.32      0.00
  -17    5    3     30.78      0.00
  -15    5    3    -18.47      0.00
  -13    5    3      9.52      0.00
  -11    5    3      0.49      0.00
   -9    5    3    -26.87      0.00
   -7    5    3     27.38      0.00
   -5    5    3    -61.54      0.00
   -3    5    3      4.28      0.00
   -1    5    3     13.32      0.00
    1    5    3      0.15      0.00
    3    5    3    -20.13      0.00
    5    5    3     14.35      0.00
    7    5    3     12.23      0.00
    9    5    3    -12.28      0.00
   11    5    3      6.19      0.00
   13    5    3    -13.81      0.00
   15    5    3      4.96      0.00
   17    5    3     -5.88      0.00
   19    5    3      2.73      0.00
   21    5    3     14.47      0.00
   23    5    3    -11.86      0.00
   25    5    3     10.66      0.00
   27    5    3     -0.84      0.00
   29    5    3     -4.00      0.00
   31    5    3      7.45      0.00
   33    5    3     -3.67      0.00
   35    5    3      1.62      0.00
   37    5    3     -2.04      0.00
   39    5    3     -8.41      0.00
   41    5    3     -1.06      0.00
  -42    6    3     -0.69      0.00
  -40    6    3    -10.53      0.00
  -38    6    3    -14.22      0.00
  -36    6    3    -10.99      0.00
  -34    6    3      2.48      0.00
  -32    6    3     -2.32      0.00
  -30    6    3     -0.36      0.00
  -28    6    3      4.24      0.00
  -26    6    3      4.55      0.00
  -24    6    3      5.72      0.00
  -22    6    3     -1.36      0.00
  -20    6    3    -12.34      0.00
  -18    6    3    -10.53      0.00
  -16    6    3      1.25      0.00
  -14    6    3    -12.60      0.00
  -12    6    3      2.22      0.00
  -10    6    3     10.51      0.00
   -8    6    3     -4.97      0.00
   -6    6    3    -13.22      0.00
   -4    6    3      7.91      0.00
   -2    6    3     -3.32      0.00
    0    6    3     15.54      0.00
    2    6    3    -36.66      0.00
    4    6    3     30.61      0.00
    6    6    3      2.70      0.00
    8    6    3    -18.57      0.00
   10    6    3     25.71      0.00
   12    6    3     -1.64      0.00
   14    6    3     -0.78      0.00
   16    6    3     16.09      0.00
   18    6    3     10.08      0.00
   20    6    3      2.73      0.00
   22    6    3     10.43      0.00
   24    6    3     -5.98      0.00
   26    6    3     13.17      0.00
   28    6    3    -11.49      0.00
   30    6    3     -2.21      0.00
   32    6    3      5.52      0.00
   34    6    3     -7.17      0.00
   36    6    3      0.86      0.00
   38    6    3      5.03      0.00
   40    6    3      4.15      0.00
  -43    7    3     -7.70      0.00
  -41    7    3      5.21      0.00
  -39    7    3      1.49      0.00
  -37    7    3      3.69      0.00
  -35    7    3      6.37      0.00
  -33    7    3     12.65      0.00
  -31    7    3     -2.65      0.00
  -29    7    3      4.78      0.00
  -27    7    3      6.06      0.00
  -25    7    3     -8.65      0.00
  -23    7    3     17.06      0.00
  -21    7    3    -11.62      0.00
  -19    7    3    -13.83      0.00
  -17    7    3     19.96      0.00
  -15    7    3    -19.24      0.00
  -13    7    3      7.62      0.00
  -11    7    3      3.87      0.00
   -9    7    3    -33.96      0.00
   -7    7    3     47.68      0.00
   -5    7    3    -24.06      0.00
   -3    7    3      8.28      0.00
   -1    7    3     30.47      0.00
    1    7    3    -11.56      0.00
    3    7    3     -1.63      0.00
    5    7    3      5.81      0.00
    7    7    3      4.15      0.00
    9    7    3    -28.39      0.00
   11    7    3     11.80      0.00
   13    7    3     -8.96      0.00
   15    7    3     -5.25      0.00
   17    7    3    -10.08      0.00
   19    7    3    -12.84      0.00
   21    7    3     11.13      0.00
   23    7    3     -7.68      0.00
   25    7    3     16.31      0.00
   27    7    3      2.79      0.00
   29    7    3     -8.34      0.00
   31    7    3      8.65      0.00
   33    7    3     -0.66      0.00
   35    7    3     -5.72      0.00
   37    7    3      0.55      0.00
   39    7    3      1.53      0.00
  -42    8    3      1.72      0.00
  -40    8    3      4.91      0.00
  -38    8    3      3.88      0.00
  -36    8    3     16.40      0.00
  -34    8    3     -4.75      0.00
  -32    8    3     -3.88      0.00
  -30    8    3     -0.03      0.00
  -28    8    3     -2.71      0.00
  -26    8    3     -9.39      0.00
  -24    8    3     -1.63      0.00
  -22    8    3      5.72      0.00
  -20    8    3      8.78      0.00
  -18    8    3      0.55      0.00
  -16    8    3     29.13      0.00
  -14    8    3    -21.11      0.00
  -12    8    3     -3.83      0.00
  -10    8    3     14.95      0.00
   -8    8    3     17.96      0.00
   -6    8    3      0.55      0.00
   -4    8    3      8.12      0.00
   -2    8    3      0.67      0.00
    0    8    3      3.52      0.00
    2    8    3    -17.23      0.00
    4    8    3     -7.52      0.00
    6    8    3     11.75      0.00
    8    8    3    -31.96      0.00
   10    8    3     30.62      0.00
   12    8    3     -0.21      0.00
   14    8    3    -13.06      0.00
   16    8    3     -1.05      0.00
   18    8    3     -2.64      0.00
   20    8    3    -13.49      0.00
   22    8    3      6.03      0.00
   24    8    3     -7.76      0.00
   26    8    3     12.55      0.00
   28    8    3     -1.80      0.00
   30    8    3      0.78      0.00
   32    8    3     10.34      0.00
   34    8    3      9.73      0.00
   36    8    3     -2.97      0.00
   38    8    3     -8.23      0.00
   40    8    3    -12.63      0.00
  -43    9    3      1.30      0.00
  -41    9    3      2.84      0.00
  -39    9    3     -1.83      0.00
  -37    9    3     -8.86      0.00
  -35    9    3     -3.82      0.00
  -33    9    3     -5.02      0.00
  -31    9    3    -10.90      0.00
  -29    9    3      6.44      0.00
  -27    9    3     -3.61      0.00
  -25    9    3     -9.75      0.00
  -23    9    3      9.04      0.00
  -21    9    3    -16.14      0.00
  -19    9    3      5.86      0.00
  -17    9    3      6.06      0.00
  -15    9    3     -1.55      0.00
  -13    9    3     -1.65      0.00
  -11    9    3     10.01      0.00
   -9    9    3     -7.37      0.00
   -7    9    3     25.22      0.00
   -5    9    3    -18.13      0.00
   -3    9    3    -12.96      0.00
   -1    9    3     43.73      0.00
    1    9    3    -43.57      0.00
    3    9    3     -5.95      0.00
    5    9    3     -0.42      0.00
    7    9    3      1.76      0.00
    9    9    3     -1.75      0.00
   11    9    3     16.73      0.00
   13    9    3     23.45      0.00
   15    9    3      2.68      0.00
   17    9    3     15.15      0.00
   19    9    3     -5.48      0.00
   21    9    3      4.94      0.00
   23    9    3    -10.90      0.00
   25    9    3     -3.97      0.00
   27    9    3     -7.12      0.00
   29    9    3    -10.47      0.00
   31    9    3     -0.81      0.00
   33    9    3      4.62      0.00
   35    9    3      2.91      0.00
   37    9    3      4.06      0.00
   39    9    3     -5.96      0.00
  -42   10    3      0.19      0.00
  -40   10    3      7.75      0.00
  -38   10    3    -12.99      0.00
  -36   10    3      3.66      0.00
  -34   10    3     -0.49      0.00
  -32   10    3      5.14      0.00
  -30   10    3      3.23      0.00
  -28   10    3      8.06      0.00
  -26   10    3      5.72      0.00
  -24   10    3      0.80      0.00
  -22   10    3     -5.41      0.00
  -20   10    3     -7.83      0.00
  -18   10    3    -26.30      0.00
  -16   10    3     19.56      0.00
  -14   10    3    -20.47      0.00
  -12   10    3     16.55      0.00
  -10   10    3      2.83      0.00
   -8   10    3    -13.36      0.00
   -6   10    3    -28.13      0.00
   -4   10    3     -9.59      0.00
   -2   10    3     15.92      0.00
    0   10    3      2.98      0.00
    2   10    3     15.93      0.00
    4   10    3     -4.62      0.00
    6   10    3     33.09      0.00
    8   10    3    -34.93      0.00
   10   10    3      6.00      0.00
   12   10    3    -13.46      0.00
   14   10    3     -8.92      0.00
   16   10    3     13.28      0.00
   18   10    3     13.53      0.00
   20   10    3    -13.75      0.00
   22   10    3     -0.84      0.00
   24   10    3     -6.87      0.00
   26   10    3      7.52      0.00
   28   10    3     -7.23      0.00
   30   10    3     -8.78      0.00
   32   10    3     -4.63      0.00
   34   10    3     -2.91      0.00
   36   10    3     -2.81      0.00
   38   10    3     12.52      0.00
  -41   11    3      0.08      0.00
  -39   11    3      2.43      0.00
  -37   11    3      0.74      0.00
  -35   11    3      4.14      0.00
  -33   11    3      2.61      0.00
  -31   11    3     -3.55      0.00
  -29   11    3     12.19      0.00
  -27   11    3     -0.73      0.00
  -25   11    3      1.13      0.00
  -23   11    3      2.23      0.00
  -21   11    3     -5.28      0.00
  -19   11    3     -1.17      0.00
  -17   11    3     -5.70      0.00
  -15   11    3      4.80      0.00
  -13   11    3     -7.21      0.00
  -11   11    3     -6.89      0.00
   -9   11    3     -8.77      0.00
   -7   11    3     26.08      0.00
   -5   11    3    -22.32      0.00
   -3   11    3    -18.35      0.00
   -1   11    3     32.44      0.00
    1   11    3    -43.89      0.00
    3   11    3     22.87      0.00
    5   11    3     13.22      0.00
    7   11    3     -4.53      0.00
    9   11    3    -10.61      0.00
   11   11    3    -21.13      0.00
   13   11    3     10.24      0.00
   15   11    3    -28.50      0.00
   17   11    3      4.18      0.00
   19   11    3     -9.38      0.00
   21   11    3     -0.01      0.00
   23   11    3      2.04      0.00
   25   11    3     14.57      0.00
   27   11    3      5.43      0.00
   29   11    3      5.24      0.00
   31   11    3      0.64      0.00
   33   11    3      3.01      0.00
   35   11    3     -3.11      0.00
   37   11    3      1.41      0.00
   39   11    3     -1.82      0.00
  -42   12    3     -7.83      0.00
  -40   12    3      2.97      0.00
  -38   12    3     -8.18      0.00
  -36   12    3     -1.12      0.00
  -34   12    3     -0.94      0.00
  -32   12    3     -0.65      0.00
  -30   12    3     -1.64      0.00
  -28   12    3      9.29      0.00
  -26   12    3    -18.51      0.00
  -24   12    3     -3.73      0.00
  -22   12    3      4.89      0.00
  -20   12    3      9.05      0.00
  -18   12    3      1.83      0.00
  -16   12    3     22.80      0.00
  -14   12    3    -29.03      0.00
  -12   12    3     -9.93      0.00
  -10   12    3      3.79      0.00
   -8   12    3      7.57      0.00
   -6   12    3      7.68      0.00
   -4   12    3     -0.28      0.00
   -2   12    3      2.75      0.00
    0   12    3    -13.24      0.00
    2   12    3    -13.90      0.00
    4   12    3    -18.54      0.00
    6   12    3     22.96      0.00
    8   12    3    -13.19      0.00
   10   12    3     29.99      0.00
   12   12    3      7.93      0.00
   14   12    3     -7.78      0.00
   16   12    3     -3.34      0.00
   18   12    3      6.71      0.00
   20   12    3      3.03      0.00
   22   12    3      4.71      0.00
   24   12    3     -6.49      0.00
   26   12    3      5.41      0.00
   28   12    3      1.52      0.00
   30   12    3     -3.94      0.00
   32   12    3      5.45      0.00
   34   12    3      2.09      0.00
   36   12    3     -2.90      0.00
   38   12    3     -1.76      0.00
  -41   13    3     -1.96      0.00
  -39   13    3     -2.02      0.00
  -37   13    3      2.84      0.00
  -35   13    3      9.52      0.00
  -33   13    3      1.01      0.00
  -31   13    3     -7.87      0.00
  -29   13    3     -0.92      0.00
  -27   13    3     -4.64      0.00
  -25   13    3     -1.93      0.00
  -23   13    3     -4.23      0.00
  -21   13    3      6.41      0.00
  -19   13    3      2.10      0.00
  -17   13    3     18.94      0.00
  -15   13    3      1.65      0.00
  -13   13    3     -9.22      0.00
  -11   13    3      5.64      0.00
   -9   13    3     -3.64      0.00
   -7   13    3     26.22      0.00
   -5   13    3    -28.40      0.00
   -3   13    3     19.82      0.00
   -1   13    3     40.49      0.00
    1   13    3    -21.63      0.00
    3   13    3     23.69      0.00
    5   13    3     -3.17      0.00
    7   13    3      0.91      0.00
    9   13    3      7.04      0.00
   11   13    3    -10.23      0.00
   13   13    3     25.15      0.00
   15   13    3     -4.86      0.00
   17   13    3     15.48      0.00
   19   13    3     -1.30      0.00
   21   13    3     -4.64      0.00
   23   13    3     -5.42      0.00
   25   13    3      0.28      0.00
   27   13    3    -11.82      0.00
   29   13    3      0.21      0.00
   31   13    3     -2.42      0.00
   33   13    3      0.30      0.00
   35   13    3      0.69      0.00
   37   13    3     -2.07      0.00
  -40   14    3      8.20      0.00
  -38   14    3      3.53      0.00
  -36   14    3     -1.14      0.00
  -34   14    3      6.71      0.00
  -32   14    3     -6.21      0.00
  -30   14    3    -19.36      0.00
  -28   14    3     15.33      0.00
  -26   14    3     -7.06      0.00
  -24   14    3      7.63      0.00
  -22   14    3      2.30      0.00
  -20   14    3     -3.79      0.00
  -18   14    3     -2.01      0.00
  -16   14    3      8.35      0.00
  -14   14    3      7.34      0.00
  -12   14    3     20.22      0.00
  -10   14    3     17.84      0.00
   -8   14    3     -6.31      0.00
   -6   14    3     -3.35      0.00
   -4   14    3      3.40      0.00
   -2   14    3      5.19      0.00
    0   14    3     23.62      0.00
    2   14    3     -8.46      0.00
    4   14    3      6.60      0.00
    6   14    3     12.04      0.00
    8   14    3    -22.92      0.00
   10   14    3     -8.20      0.00
   12   14    3     -6.13      0.00
   14   14    3     -7.14      0.00
   16   14    3      0.43      0.00
   18   14    3     -1.71      0.00
   20   14    3      3.25      0.00
   22   14    3      1.12      0.00
   24   14    3      4.45      0.00
   26   14    3      5.85      0.00
   28   14    3      3.57      0.00
   30   14    3     -2.76      0.00
   32   14    3      4.08      0.00
   34   14    3     -1.66      0.00
   36   14    3      1.44      0.00
   38   14    3      2.75      0.00
  -39   15    3     -3.70      0.00
  -37   15    3     -6.96      0.00
  -35   15    3     -2.54      0.00
  -33   15    3    -10.18      0.00
  -31   15    3     -2.72      0.00
  -29   15    3      7.69      0.00
  -27   15    3      4.72      0.00
  -25   15    3     -1.59      0.00
  -23   15    3      5.79      0.00
  -21   15    3      3.09      0.00
  -19   15    3    -12.25      0.00
  -17   15    3      2.70      0.00
  -15   15    3      2.42      0.00
  -13   15    3     -5.10      0.00
  -11   15    3      0.36      0.00
   -9   15    3     -8.41      0.00
   -7   15    3      7.36      0.00
   -5   15    3    -25.55      0.00
   -3   15    3     -0.46      0.00
   -1   15    3      0.53      0.00
    1   15    3    -26.65      0.00
    3   15    3      7.74      0.00
    5   15    3    -11.57      0.00
    7   15    3      3.54      0.00
    9   15    3      8.95      0.00
   11   15    3     -6.99      0.00
   13   15    3      8.89      0.00
   15   15    3     -9.20      0.00
   17   15    3     -3.39      0.00
   19   15    3     10.71      0.00
   21   15    3     -5.17      0.00
   23   15    3      4.22      0.00
   25   15    3      7.49      0.00
   27   15    3     -0.49      0.00
   29   15    3      2.31      0.00
   31   15    3     -2.04      0.00
   33   15    3     -0.62      0.00
   35   15    3      2.13      0.00
   37   15    3      0.00      0.00
  -40   16    3     -4.07      0.00
  -38   16    3     -1.79      0.00
  -36   16    3     -4.14      0.00
  -34   16    3      5.93      0.00
  -32   16    3      1.91      0.00
  -30   16    3      4.15      0.00
  -28   16    3     15.95      0.00
  -26   16    3     -3.10      0.00
  -24   16    3     -7.40      0.00
  -22   16    3      5.34      0.00
  -20   16    3     -4.78      0.00
  -18   16    3      1.93      0.00
  -16   16    3     -7.95      0.00
  -14   16    3    -16.27      0.00
  -12   16    3    -17.99      0.00
  -10   16    3    -10.48      0.00
   -8   16    3     -2.86      0.00
   -6   16    3     -3.28      0.00
   -4   16    3      4.87      0.00
   -2   16    3    -20.05      0.00
    0   16    3     14.96      0.00
    2   16    3    -21.08      0.00
    4   16    3      3.03      0.00
    6   16    3      8.93      0.00
    8   16    3      4.69      0.00
   10   16    3      3.52      0.00
   12   16    3     15.23      0.00
   14   16    3      2.19      0.00
   16   16    3      1.73      0.00
   18   16    3     -4.14      0.00
   20   16    3      0.89      0.00
   22   16    3    -15.35      0.00
   24   16    3    -12.80      0.00
   26   16    3     -3.93      0.00
   28   16    3      3.27      0.00
   30   16    3     -2.55      0.00
   32   16    3     -3.97      0.00
   34   16    3      1.42      0.00
   36   16    3     -0.56      0.00
  -39   17    3      0.53      0.00
  -37   17    3      2.19      0.00
  -35   17    3      8.79      0.00
  -33   17    3      8.11      0.00
  -31   17    3      0.31      0.00
  -29   17    3      3.28      0.00
  -27   17    3      2.60      0.00
  -25   17    3     -0.11      0.00
  -23   17    3      2.28      0.00
  -21   17    3    -11.39      0.00
  -19   17    3      5.44      0.00
  -17   17    3      0.45      0.00
  -15   17    3     -3.13      0.00
  -13   17    3    -11.63      0.00
  -11   17    3      4.37      0.00
   -9   17    3     21.70      0.00
   -7   17    3    -11.30      0.00
   -5   17    3      0.09      0.00
   -3   17    3      4.48      0.00
   -1   17    3      4.90      0.00
    1   17    3     -8.70      0.00
    3   17    3      8.22      0.00
    5   17    3     -8.64      0.00
    7   17    3     -5.96      0.00
    9   17    3     -3.26      0.00
   11   17    3     -9.87      0.00
   13   17    3     -1.78      0.00
   15   17    3      2.29      0.00
   17   17    3     -7.01      0.00
   19   17    3     14.83      0.00
   21   17    3    -20.66      0.00
   23   17    3      9.03      0.00
   25   17    3      2.43      0.00
   27   17    3      0.62      0.00
   29   17    3      1.99      0.00
   31   17    3      1.49      0.00
   33   17    3      0.97      0.00
   35   17    3     -0.91      0.00
  -38   18    3     -2.95      0.00
  -36   18    3      1.80      0.00
  -34   18    3      6.96      0.00
  -32   18    3     -9.25      0.00
  -30   18    3     -4.37      0.00
  -28   18    3     -2.61      0.00
  -26   18    3      6.64      0.00
  -24   18    3    -15.96      0.00
  -22   18    3      9.71      0.00
  -20   18    3     -5.95      0.00
  -18   18    3      0.85      0.00
  -16   18    3     -0.96      0.00
  -14   18    3      9.24      0.00
  -12   18    3     11.52      0.00
  -10   18    3      8.28      0.00
   -8   18    3      3.04      0.00
   -6   18    3    -12.99      0.00
   -4   18    3      8.62      0.00
   -2   18    3    -14.69      0.00
    0   18    3     15.31      0.00
    2   18    3     -8.73      0.00
    4   18    3     -4.72      0.00
    6   18    3      4.17      0.00
    8   18    3     -3.06      0.00
   10   18    3    -12.99      0.00
   12   18    3      1.15      0.00
   14   18    3     -1.25      0.00
   16   18    3     -3.19      0.00
   18   18    3      3.56      0.00
   20   18    3     11.06      0.00
   22   18    3      9.62      0.00
   24   18    3      6.96      0.00
   26   18    3      3.39      0.00
   28   18    3      0.65      0.00
   30   18    3      1.72      0.00
   32   18    3     -3.19      0.00
   34   18    3     -0.68      0.00
  -37   19    3      2.71      0.00
  -35   19    3     -4.17      0.00
  -33   19    3      1.40      0.00
  -31   19    3     -8.96      0.00
  -29   19    3     -0.96      0.00
  -27   19    3    -10.24      0.00
  -25   19    3     -8.62      0.00
  -23   19    3      3.97      0.00
  -21   19    3     -5.22      0.00
  -19   19    3      6.73      0.00
  -17   19    3    -11.63      0.00
  -15   19    3     10.07      0.00
  -13   19    3      5.81      0.00
  -11   19    3    -10.86      0.00
   -9   19    3     24.36      0.00
   -7   19    3    -16.41      0.00
   -5   19    3     13.65      0.00
   -3   19    3      6.45      0.00
   -1   19    3      2.13      0.00
    1   19    3      0.59      0.00
    3   19    3     10.28      0.00
    5   19    3      3.08      0.00
    7   19    3     -0.20      0.00
    9   19    3      3.46      0.00
   11   19    3      6.78      0.00
   13   19    3      4.45      0.00
   15   19    3     -1.27      0.00
   17   19    3     -8.97      0.00
   19   19    3     19.52      0.00
   21   19    3    -21.25      0.00
   23   19    3     -1.84      0.00
   25   19    3     -9.58      0.00
   27   19    3     -2.93      0.00
   29   19    3     -0.93      0.00
   31   19    3      1.09      0.00
   33   19    3     -0.15      0.00
   35   19    3      0.96      0.00
  -36   20    3      1.57      0.00
  -34   20    3      1.70      0.00
  -32   20    3     -7.71      0.00
  -30   20    3      2.49      0.00
  -28   20    3      0.50      0.00
  -26   20    3      4.37      0.00
  -24   20    3    -10.13      0.00
  -22   20    3      8.49      0.00
  -20   20    3     -5.20      0.00
  -18   20    3     10.26      0.00
  -16   20    3      3.83      0.00
  -14   20    3      2.47      0.00
  -12   20    3    -11.95      0.00
  -10   20    3      2.73      0.00
   -8   20    3      7.46      0.00
   -6   20    3      0.74      0.00
   -4   20    3     15.35      0.00
   -2   20    3     -8.01      0.00
    0   20    3      9.98      0.00
    2   20    3      5.07      0.00
    4   20    3    -11.51      0.00
    6   20    3      8.93      0.00
    8   20    3      1.64      0.00
   10   20    3     -1.10      0.00
   12   20    3     -4.51      0.00
   14   20    3      4.32      0.00
   16   20    3    -14.87      0.00
   18   20    3      1.08      0.00
   20   20    3      0.90      0.00
   22   20    3     -1.75      0.00
   24   20    3     -1.50      0.00
   26   20    3      1.22      0.00
   28   20    3      1.76      0.00
   30   20    3     -3.02      0.00
   32   20    3     -0.20      0.00
   34   20    3      2.82      0.00
  -35   21    3     -7.25      0.00
  -33   21    3      6.43      0.00
  -31   21    3     -1.06      0.00
  -29   21    3      4.57      0.00
  -27   21    3      2.85      0.00
  -25   21    3     10.30      0.00
  -23   21    3      4.72      0.00
  -21   21    3     -2.81      0.00
  -19   21    3     10.57      0.00
  -17   21    3     -6.83      0.00
  -15   21    3      3.38      0.00
  -13   21    3     -1.90      0.00
  -11   21    3    -15.99      0.00
   -9   21    3     15.38      0.00
   -7   21    3    -32.64      0.00
   -5   21    3    -14.32      0.00
   -3   21    3      3.81      0.00
   -1   21    3     -9.64      0.00
    1   21    3     -2.47      0.00
    3   21    3      4.05      0.00
    5   21    3      0.11      0.00
    7   21    3      0.08      0.00
    9   21    3      1.49      0.00
   11   21    3     -1.50      0.00
   13   21    3     -3.33      0.00
   15   21    3     -4.44      0.00
   17   21    3     -1.69      0.00
   19   21    3     14.24      0.00
   21   21    3     -2.38      0.00
   23   21    3      8.84      0.00
   25   21    3     12.85      0.00
   27   21    3     -1.48      0.00
   29   21    3     -0.39      0.00
   31   21    3      1.64      0.00
   33   21    3     -3.22      0.00
  -34   22    3      7.61      0.00
  -32   22    3     -5.72      0.00
  -30   22    3      0.20      0.00
  -28   22    3      3.83      0.00
  -26   22    3      2.07      0.00
  -24   22    3      0.21      0.00
  -22   22    3     11.15      0.00
  -20   22    3     -1.77      0.00
  -18   22    3     -0.92      0.00
  -16   22    3    -15.38      0.00
  -14   22    3     -1.93      0.00
  -12   22    3     -5.62      0.00
  -10   22    3      3.08      0.00
   -8   22    3     -4.32      0.00
   -6   22    3    -13.93      0.00
   -4   22    3      1.00      0.00
   -2   22    3     -7.44      0.00
    0   22    3      0.05      0.00
    2   22    3      7.97      0.00
    4   22    3    -12.68      0.00
    6   22    3      7.97      0.00
    8   22    3     -2.95      0.00
   10   22    3      6.28      0.00
   12   22    3      1.33      0.00
   14   22    3     24.24      0.00
   16   22    3     -7.97      0.00
   18   22    3      1.80      0.00
   20   22    3     -7.67      0.00
   22   22    3    -14.13      0.00
   24   22    3     -3.37      0.00
   26   22    3     -3.77      0.00
   28   22    3      2.89      0.00
   30   22    3     -1.46      0.00
   32   22    3      1.24      0.00
  -33   23    3      1.44      0.00
  -31   23    3     -0.23      0.00
  -29   23    3      2.03      0.00
  -27   23    3     -2.95      0.00
  -25   23    3     -0.33      0.00
  -23   23    3     -6.02      0.00
  -21   23    3      1.26      0.00
  -19   23    3     -1.40      0.00
  -17   23    3     -9.86      0.00
  -15   23    3      9.64      0.00
  -13   23    3      5.79      0.00
  -11   23    3     -5.75      0.00
   -9   23    3     19.39      0.00
   -7   23    3      3.35      0.00
   -5   23    3      5.90      0.00
   -3   23    3     25.62      0.00
   -1   23    3    -10.08      0.00
    1   23    3     -0.51      0.00
    3   23    3      2.86      0.00
    5   23    3     -7.56      0.00
    7   23    3     -3.18      0.00
    9   23    3     -2.57      0.00
   11   23    3      0.09      0.00
   13   23    3     10.08      0.00
   15   23    3      1.87      0.00
   17   23    3     -1.88      0.00
   19   23    3      5.14      0.00
   21   23    3     -3.66      0.00
   23   23    3    -17.41      0.00
   25   23    3      5.60      0.00
   27   23    3     -9.54      0.00
   29   23    3      2.35      0.00
   31   23    3     -1.23      0.00
  -32   24    3     -2.26      0.00
  -30   24    3      5.83      0.00
  -28   24    3     -6.54      0.00
  -26   24    3     -2.68      0.00
  -24   24    3     -5.94      0.00
  -22   24    3     -4.87      0.00
  -20   24    3     -8.09      0.00
  -18   24    3      6.84      0.00
  -16   24    3      7.95      0.00
  -14   24    3      5.09      0.00
  -12   24    3      5.27      0.00
  -10   24    3      5.50      0.00
   -8   24    3     10.99      0.00
   -6   24    3      3.23      0.00
   -4   24    3      4.50      0.00
   -2   24    3      0.67      0.00
    0   24    3     -5.05      0.00
    2   24    3      8.67      0.00
    4   24    3    -13.64      0.00
    6   24    3      6.61      0.00
    8   24    3     -0.46      0.00
   10   24    3     -5.84      0.00
   12   24    3    -15.46      0.00
   14   24    3      0.19      0.00
   16   24    3    -10.66      0.00
   18   24    3      9.66      0.00
   20   24    3     14.19      0.00
   22   24    3      5.99      0.00
   24   24    3      8.84      0.00
   26   24    3      3.04      0.00
   28   24    3      2.76      0.00
   30   24    3     -3.28      0.00
  -31   25    3      2.51      0.00
  -29   25    3     -4.21      0.00
  -27   25    3     -4.62      0.00
  -25   25    3      3.99      0.00
  -23   25    3     -5.33      0.00
  -21   25    3      4.62      0.00
  -19   25    3      2.97      0.00
  -17   25    3     -3.34      0.00
  -15   25    3      3.25      0.00
  -13   25    3     -7.78      0.00
  -11   25    3     -0.23      0.00
   -9   25    3     10.12      0.00
   -7   25    3     -5.10      0.00
   -5   25    3    -11.04      0.00
   -3   25    3      8.80      0.00
   -1   25    3    -17.16      0.00
    1   25    3      5.91      0.00
    3   25    3     15.48      0.00
    5   25    3     -2.52      0.00
    7   25    3      7.67      0.00
    9   25    3      2.60      0.00
   11   25    3    -14.19      0.00
   13   25    3     -5.39      0.00
   15   25    3     -5.16      0.00
   17   25    3     -3.64      0.00
   19   25    3      2.99      0.00
   21   25    3      2.28      0.00
   23   25    3     -0.81      0.00
   25   25    3     14.42      0.00
   27   25    3     -4.31      0.00
   29   25    3      8.27      0.00
  -30   26    3      3.69      0.00
  -28   26    3     -2.93      0.00
  -26   26    3      7.27      0.00
  -24   26    3     -0.16      0.00
  -22   26    3      8.71      0.00
  -20   26    3      9.15      0.00
  -18   26    3     -3.35      0.00
  -16   26    3     -4.99      0.00
  -14   26    3     -9.61      0.00
  -12   26    3     -0.52      0.00
  -10   26    3    -12.13      0.00
   -8   26    3     -6.29      0.00
   -6   26    3     -3.37      0.00
   -4   26    3     -4.70      0.00
   -2   26    3      4.99      0.00
    0   26    3     -2.36      0.00
    2   26    3     10.84      0.00
    4   26    3     -6.08      0.00
    6   26    3      5.04      0.00
    8   26    3      7.60      0.00
   10   26    3     -3.72      0.00
   12   26    3      9.88      0.00
   14   26    3      4.27      0.00
   16   26    3     -2.64      0.00
   18   26    3     -5.75      0.00
   20   26    3     -3.47      0.00
   22   26    3     -4.26      0.00
   24   26    3     -4.43      0.00
   26   26    3     -1.67      0.00
   28   26    3     -0.26      0.00
  -29   27    3      2.86      0.00
  -27   27    3      3.80      0.00
  -25   27    3      4.36      0.00
  -23   27    3     -8.43      0.00
  -21   27    3      4.04      0.00
  -19   27    3      2.70      0.00
  -17   27    3     -9.77      0.00
  -15   27    3     12.09      0.00
  -13   27    3     -4.79      0.00
  -11   27    3     -0.41      0.00
   -9   27    3     -6.31      0.00
   -7   27    3    -14.56      0.00
   -5   27    3     -1.02      0.00
   -3   27    3      8.17      0.00
   -1   27    3     -7.71      0.00
    1   27    3     -6.02      0.00
    3   27    3     -2.46      0.00
    5   27    3    -12.54      0.00
    7   27    3      6.73      0.00
    9   27    3      6.07      0.00
   11   27    3      0.50      0.00
   13   27    3      8.86      0.00
   15   27    3      1.52      0.00
   17   27    3      5.71      0.00
   19   27    3     10.17      0.00
   21   27    3     -7.48      0.00
   23   27    3     -6.35      0.00
   25   27    3     -0.04      0.00
   27   27    3     -4.30      0.00
  -28   28    3     -8.37      0.00
  -26   28    3     -1.72      0.00
  -24   28    3     -0.37      0.00
  -22   28    3     -1.57      0.00
  -20   28    3     -4.23      0.00
  -18   28    3     -2.40      0.00
  -16   28    3      4.75      0.00
  -14   28    3      0.32      0.00
  -12   28    3      4.51      0.00
  -10   28    3      1.47      0.00
   -8   28    3      5.22      0.00
   -6   28    3      5.04      0.00
   -4   28    3      0.99      0.00
   -2   28    3     -0.81      0.00
    0   28    3     -6.92      0.00
    2   28    3     -3.11      0.00
    4   28    3     -3.75      0.00
    6   28    3     -5.20      0.00
    8   28    3     10.26      0.00
   10   28    3    -10.42      0.00
   12   28    3      3.97      0.00
   14   28    3     -2.77      0.00
   16   28    3      5.79      0.00
   18   28    3      1.77      0.00
   20   28    3     -0.23      0.00
   22   28    3      0.94      0.00
   24   28    3      0.19      0.00
   26   28    3      1.63      0.00
  -27   29    3     -5.09      0.00
  -25   29    3      5.36      0.00
  -23   29    3     -4.83      0.00
  -21   29    3      2.55      0.00
  -19   29    3      3.39      0.00
  -17   29    3     -9.29      0.00
  -15   29    3      6.56      0.00
  -13   29    3    -12.13      0.00
  -11   29    3      9.61      0.00
   -9   29    3     10.07      0.00
   -7   29    3      0.09      0.00
   -5   29    3     11.04      0.00
   -3   29    3     -2.25      0.00
   -1   29    3     -0.90      0.00
    1   29    3      4.18      0.00
    3   29    3     11.13      0.00
    5   29    3     -6.13      0.00
    7   29    3      3.69      0.00
    9   29    3     -8.49      0.00
   11   29    3     -5.32      0.00
   13   29    3     -2.32      0.00
   15   29    3     -5.67      0.00
   17   29    3      0.78      0.00
   19   29    3      1.90      0.00
   21   29    3     -6.17      0.00
   23   29    3      1.36      0.00
  -26   30    3      0.19      0.00
  -24   30    3     -2.43      0.00
  -22   30    3      0.55      0.00
  -20   30    3      2.30      0.00
  -18   30    3      4.22      0.00
  -16   30    3     -4.94      0.00
  -14   30    3      2.71      0.00
  -12   30    3      3.53      0.00
  -10   30    3     -2.33      0.00
   -8   30    3      0.80      0.00
   -6   30    3     -1.90      0.00
   -4   30    3      2.51      0.00
   -2   30    3     -0.12      0.00
    0   30    3      2.02      0.00
    2   30    3     -0.33      0.00
    4   30    3      3.14      0.00
    6   30    3     -8.22      0.00
    8   30    3      6.47      0.00
   10   30    3     -8.06      0.00
   12   30    3     -0.15      0.00
   14   30    3     -0.39      0.00
   16   30    3     -4.21      0.00
   18   30    3     -0.98      0.00
   20   30    3     -0.53      0.00
   22   30    3     -0.63      0.00
  -23   31    3     -6.35      0.00
  -21   31    3      5.26      0.00
  -19   31    3      1.94      0.00
  -17   31    3     -0.76      0.00
  -15   31    3      8.57      0.00
  -13   31    3     -3.11      0.00
  -11   31    3      0.47      0.00
   -9   31    3     -4.38      0.00
   -7   31    3     -7.99      0.00
   -5   31    3      2.24      0.00
   -3   31    3     -3.06      0.00
   -1   31    3      3.38      0.00
    1   31    3     -1.76      0.00
    3   31    3      0.86      0.00
    5   31    3     -3.86      0.00
    7   31    3     13.94      0.00
    9   31    3     -2.93      0.00
   11   31    3      2.47      0.00
   13   31    3     -2.70      0.00
   15   31    3     -7.68      0.00
   17   31    3      4.89      0.00
   19   31    3      3.99      0.00
   21   31    3     -1.18      0.00
  -22   32    3      2.13      0.00
  -20   32    3     -4.68      0.00
  -18   32    3      2.14      0.00
  -16   32    3     -4.96      0.00
  -14   32    3     -1.46      0.00
  -12   32    3     -3.79      0.00
  -10   32    3     -5.74      0.00
   -8   32    3     -1.00      0.00
   -6   32    3     -0.77      0.00
   -4   32    3      3.09      0.00
   -2   32    3      2.27      0.00
    0   32    3     -5.82      0.00
    2   32    3      3.61      0.00
    4   32    3      3.26      0.00
    6   32    3      2.20      0.00
    8   32    3     10.13      0.00
   10   32    3      2.34      0.00
   12   32    3     -4.66      0.00
   14   32    3      1.88      0.00
   16   32    3     -1.72      0.00
   18   32    3      3.08      0.00
  -19   33    3     -5.67      0.00
  -17   33    3     -1.35      0.00
  -15   33    3     -3.59      0.00
  -13   33    3     -1.05      0.00
  -11   33    3      2.84      0.00
   -9   33    3      3.51      0.00
   -7   33    3      1.29      0.00
   -5   33    3      1.05      0.00
   -3   33    3     -0.51      0.00
   -1   33    3     -1.43      0.00
    1   33    3      0.47      0.00
    3   33    3     -2.50      0.00
    5   33    3     -5.62      0.00
    7   33    3      2.81      0.00
    9   33    3     -3.64      0.00
   11   33    3      1.46      0.00
   13   33    3      6.16      0.00
   15   33    3      1.02      0.00
   17   33    3      4.99      0.00
  -16   34    3      1.46      0.00
  -14   34    3      2.49      0.00
  -12   34    3      5.47      0.00
  -10   34    3      3.20      0.00
   -8   34    3     -1.76      0.00
   -6   34    3      0.96      0.00
   -4   34    3      0.80      0.00
   -2   34    3      2.91      0.00
    0   34    3     -6.59      0.00
    2   34    3      4.85      0.00
    4   34    3     -6.00      0.00
    6   34    3     -2.65      0.00
    8   34    3     -5.73      0.00
   10   34    3     -0.16      0.00
   12   34    3     -0.28      0.00
   14   34    3      3.06      0.00
  -13   35    3      1.11      0.00
  -11   35    3     -1.74      0.00
   -9   35    3      1.30      0.00
   -7   35    3      0.44      0.00
   -5   35    3     -5.86      0.00
   -3   35    3     -0.42      0.00
   -1   35    3      0.40      0.00
    1   35    3      7.26      0.00
    3   35    3     -2.69      0.00
    5   35    3      2.67      0.00
    7   35    3     -0.10      0.00
    9   35    3      1.36      0.00
   11   35    3     -3.18      0.00
   -8   36    3     -2.87      0.00
   -6   36    3      0.34      0.00
   -4   36    3      2.18      0.00
   -2   36    3     -1.73      0.00
    0   36    3     -0.42      0.00
    2   36    3      0.37      0.00
    4   36    3     -4.01      0.00
    6   36    3      6.14      0.00
  -44    0    4     -3.72      0.00
  -42    0    4     -6.13      0.00
  -40    0    4     -4.34      0.00
  -38    0    4      0.23      0.00
  -36    0    4     -5.67      0.00
  -34    0    4     -3.37      0.00
  -32    0    4     -2.06      0.00
  -30    0    4     -8.61      0.00
  -28    0    4     -1.27      0.00
  -26    0    4    -10.78      0.00
  -24    0    4      8.81      0.00
  -22    0    4      8.20      0.00
  -20    0    4      0.00      0.00
  -18    0    4     38.06      0.00
  -16    0    4    -23.18      0.00
  -14    0    4     29.52      0.00
  -12    0    4     10.62      0.00
  -10    0    4    -20.63      0.00
   -8    0    4    -47.73      0.00
   -6    0    4    -16.11      0.00
   -4    0    4     22.30      0.00
   -2    0    4    -35.30      0.00
    0    0    4     12.39      0.00
    2    0    4    -23.01      0.00
    4    0    4    -40.79      0.00
    6    0    4    -33.55      0.00
    8    0    4     -3.83      0.00
   10    0    4     34.21      0.00
   12    0    4    -22.22      0.00
   14    0    4     16.44      0.00
   16    0    4     12.70      0.00
   18    0    4      3.58      0.00
   20    0    4      8.29      0.00
   22    0    4     -9.17      0.00
   24    0    4      0.04      0.00
   26    0    4    -17.78      0.00
   28    0    4      2.47      0.00
   30    0    4     -4.57      0.00
   32    0    4      0.32      0.00
   34    0    4     -0.68      0.00
   36    0    4     -0.95      0.00
   38    0    4      5.49      0.00
   40    0    4     -4.69      0.00
  -43    1    4     -0.95      0.00
  -41    1    4     -0.36      0.00
  -39    1    4      2.14      0.00
  -37    1    4     -6.04      0.00
  -35    1    4     -3.30      0.00
  -33    1    4     10.24      0.00
  -31    1    4     -9.16      0.00
  -29    1    4     -0.02      0.00
  -27    1    4      6.53      0.00
  -25    1    4    -14.77      0.00
  -23    1    4     13.34      0.00
  -21    1    4     -8.15      0.00
  -19    1    4     -4.60      0.00
  -17    1    4      2.10      0.00
  -15    1    4     -1.72      0.00
  -13    1    4     -2.17      0.00
  -11    1    4     17.36      0.00
   -9    1    4    -11.74      0.00
   -7    1    4      2.44      0.00
   -5    1    4      4.54      0.00
   -3    1    4    -18.79      0.00
   -1    1    4     26.90      0.00
    1    1    4    -23.54      0.00
    3    1    4     -9.25      0.00
    5    1    4     19.38      0.00
    7    1    4    -26.07      0.00
    9    1    4      8.96      0.00
   11    1    4     -4.22      0.00
   13    1    4    -12.98      0.00
   15    1    4     11.27      0.00
   17    1    4      7.02      0.00
   19    1    4    -12.33      0.00
   21    1    4     10.89      0.00
   23    1    4     -0.88      0.00
   25    1    4    -10.60      0.00
   27    1    4     10.05      0.00
   29    1    4     -5.90      0.00
   31    1    4      2.51      0.00
   33    1    4      6.60      0.00
   35    1    4     -8.41      0.00
   37    1    4      3.35      0.00
   39    1    4      0.80      0.00
  -44    2    4      0.60      0.00
  -42    2    4      2.80      0.00
  -40    2    4      0.53      0.00
  -38    2    4      1.14      0.00
  -36    2    4      2.38      0.00
  -34    2    4      3.87      0.00
  -32    2    4     -2.76      0.00
  -30    2    4      3.80      0.00
  -28    2    4     17.98      0.00
  -26    2    4     -8.67      0.00
  -24    2    4      1.21      0.00
  -22    2    4     -3.99      0.00
  -20    2    4    -14.51      0.00
  -18    2    4      2.75      0.00
  -16    2    4    -25.28      0.00
  -14    2    4     10.96      0.00
  -12    2    4     -2.37      0.00
  -10    2    4      7.70      0.00
   -8    2    4     12.40      0.00
   -6    2    4     27.93      0.00
   -4    2    4      9.91      0.00
   -2    2    4    -33.10      0.00
    0    2    4      0.57      0.00
    2    2    4     28.53      0.00
    4    2    4     26.98      0.00
    6    2    4      5.84      0.00
    8    2    4     -5.89      0.00
   10    2    4     10.92      0.00
   12    2    4    -16.82      0.00
   14    2    4     -1.33      0.00
   16    2    4     -5.68      0.00
   18    2    4    -11.02      0.00
   20    2    4      1.22      0.00
   22    2    4      0.25      0.00
   24    2    4     13.23      0.00
   26    2    4     -4.96      0.00
   28    2    4      4.09      0.00
   30    2    4      7.34      0.00
   32    2    4      0.38      0.00
   34    2    4     -6.35      0.00
   36    2    4     -2.59      0.00
   38    2    4      5.80      0.00
   40    2    4     -3.50      0.00
  -43    3    4     -1.86      0.00
  -41    3    4      2.63      0.00
  -39    3    4      1.36      0.00
  -37    3    4     -1.07      0.00
  -35    3    4      4.84      0.00
  -33    3    4      7.72      0.00
  -31    3    4     -3.60      0.00
  -29    3    4     -3.35      0.00
  -27    3    4      2.71      0.00
  -25    3    4     -6.09      0.00
  -23    3    4      8.63      0.00
  -21    3    4      6.73      0.00
  -19    3    4      4.70      0.00
  -17    3    4      7.09      0.00
  -15    3    4    -15.62      0.00
  -13    3    4      0.28      0.00
  -11    3    4     -2.01      0.00
   -9    3    4     -9.98      0.00
   -7    3    4     14.17      0.00
   -5    3    4      5.12      0.00
   -3    3    4     -0.09      0.00
   -1    3    4     12.41      0.00
    1    3    4     -5.44      0.00
    3    3    4    -10.71      0.00
    5    3    4     23.37      0.00
    7    3    4     -2.73      0.00
    9    3    4     14.64      0.00
   11    3    4     21.87      0.00
   13    3    4    -19.71      0.00
   15    3    4      7.90      0.00
   17    3    4    -10.18      0.00
   19    3    4     -6.80      0.00
   21    3    4      9.17      0.00
   23    3    4      1.91      0.00
   25    3    4     -2.29      0.00
   27    3    4      1.69      0.00
   29    3    4     -5.83      0.00
   31    3    4     -5.42      0.00
   33    3    4      2.62      0.00
   35    3    4     -4.70      0.00
   37    3    4      2.58      0.00
   39    3    4      2.31      0.00
  -42    4    4      0.38      0.00
  -40    4    4      2.42      0.00
  -38    4    4      4.20      0.00
  -36    4    4      0.65      0.00
  -34    4    4      4.52      0.00
  -32    4    4     -1.44      0.00
  -30    4    4     -6.16      0.00
  -28    4    4      1.37      0.00
  -26    4    4     -9.94      0.00
  -24    4    4      9.40      0.00
  -22    4    4      0.29      0.00
  -20    4    4      1.78      0.00
  -18    4    4     -4.30      0.00
  -16    4    4     -3.02      0.00
  -14    4    4     -0.49      0.00
  -12    4    4      1.92      0.00
  -10    4    4     -3.65      0.00
   -8    4    4    -26.55      0.00
   -6    4    4     18.00      0.00
   -4    4    4      1.13      0.00
   -2    4    4     36.02      0.00
    0    4    4      0.51      0.00
    2    4    4     31.03      0.00
    4    4    4    -22.04      0.00
    6    4    4     -6.52      0.00
    8    4    4     15.54      0.00
   10    4    4     -3.21      0.00
   12    4    4      1.25      0.00
   14    4    4     -3.64      0.00
   16    4    4      6.27      0.00
   18    4    4     -2.47      0.00
   20    4    4      2.26      0.00
   22    4    4     -1.47      0.00
   24    4    4     -4.97      0.00
   26    4    4     -4.92      0.00
   28    4    4      0.63      0.00
   30    4    4      6.12      0.00
   32    4    4     -2.27      0.00
   34    4    4      3.75      0.00
   36    4    4      0.77      0.00
   38    4    4     -0.25      0.00
  -43    5    4      1.48      0.00
  -41    5    4      0.50      0.00
  -39    5    4     -2.78      0.00
  -37    5    4     -0.08      0.00
  -35    5    4      0.38      0.00
  -33    5    4     -5.11      0.00
  -31    5    4     -2.40      0.00
  -29    5    4      5.24      0.00
  -27    5    4     -5.39      0.00
  -25    5    4      0.63      0.00
  -23    5    4      1.79      0.00
  -21    5    4      4.24      0.00
  -19    5    4     -9.26      0.00
  -17    5    4      6.62      0.00
  -15    5    4     -6.15      0.00
  -13    5    4      5.77      0.00
  -11    5    4      6.53      0.00
   -9    5    4     -1.95      0.00
   -7    5    4     -2.24      0.00
   -5    5    4      6.18      0.00
   -3    5    4    -10.39      0.00
   -1    5    4      4.44      0.00
    1    5    4    -11.85      0.00
    3    5    4     -6.36      0.00
    5    5    4     14.80      0.00
    7    5    4    -20.61      0.00
    9    5    4      7.58      0.00
   11    5    4      4.22      0.00
   13    5    4    -25.48      0.00
   15    5    4     19.32      0.00
   17    5    4     -3.79      0.00
   19    5    4     -3.98      0.00
   21    5    4      3.11      0.00
   23    5    4      1.60      0.00
   25    5    4     -3.78      0.00
   27    5    4      1.59      0.00
   29    5    4      9.93      0.00
   31    5    4      4.22      0.00
   33    5    4      0.56      0.00
   35    5    4     -1.38      0.00
   37    5    4     -0.99      0.00
   39    5    4     -1.12      0.00
  -42    6    4     -2.03      0.00
  -40    6    4     -0.28      0.00
  -38    6    4     -5.45      0.00
  -36    6    4     -3.52      0.00
  -34    6    4      2.42      0.00
  -32    6    4     -0.72      0.00
  -30    6    4     -2.17      0.00
  -28    6    4      7.29      0.00
  -26    6    4     -7.67      0.00
  -24    6    4     -4.23      0.00
  -22    6    4      9.32      0.00
  -20    6    4      6.66      0.00
  -18    6    4     -6.36      0.00
  -16    6    4     21.36      0.00
  -14    6    4     -4.30      0.00
  -12    6    4      3.11      0.00
  -10    6    4      8.18      0.00
   -8    6    4    -24.61      0.00
   -6    6    4     15.02      0.00
   -4    6    4    -45.51      0.00
   -2    6    4      3.67      0.00
    0    6    4    -55.29      0.00
    2    6    4     18.77      0.00
    4    6    4    -29.70      0.00
    6    6    4      0.16      0.00
    8    6    4      3.79      0.00
   10    6    4    -19.22      0.00
   12    6    4     22.98      0.00
   14    6    4     -3.66      0.00
   16    6    4      6.41      0.00
   18    6    4      4.72      0.00
   20    6    4     -3.47      0.00
   22    6    4      4.05      0.00
   24    6    4      2.22      0.00
   26    6    4     -0.11      0.00
   28    6    4     -3.20      0.00
   30    6    4      3.74      0.00
   32    6    4     -8.33      0.00
   34    6    4     -2.34      0.00
   36    6    4     -2.20      0.00
   38    6    4      1.61      0.00
  -43    7    4      1.90      0.00
  -41    7    4     -5.89      0.00
  -39    7    4     -2.56      0.00
  -37    7    4     -2.63      0.00
  -35    7    4      1.22      0.00
  -33    7    4      6.77      0.00
  -31    7    4     -1.55      0.00
  -29    7    4      5.48      0.00
  -27    7    4     -6.07      0.00
  -25    7    4     -0.94      0.00
  -23    7    4     -9.55      0.00
  -21    7    4      5.16      0.00
  -19    7    4     -4.88      0.00
  -17    7    4     -0.39      0.00
  -15    7    4     -4.40      0.00
  -13    7    4     -4.62      0.00
  -11    7    4     10.19      0.00
   -9    7    4     -2.50      0.00
   -7    7    4    -19.07      0.00
   -5    7    4     10.19      0.00
   -3    7    4    -24.82      0.00
   -1    7    4     25.03      0.00
    1    7    4     -2.82      0.00
    3    7    4     14.40      0.00
    5    7    4      3.75      0.00
    7    7    4    -32.09      0.00
    9    7    4     25.48      0.00
   11    7    4      0.86      0.00
   13    7    4     -2.69      0.00
   15    7    4      9.98      0.00
   17    7    4     -6.44      0.00
   19    7    4     -0.12      0.00
   21    7    4      7.66      0.00
   23    7    4      3.15      0.00
   25    7    4     -7.10      0.00
   27    7    4      1.50      0.00
   29    7    4     -7.88      0.00
   31    7    4     -1.18      0.00
   33    7    4      0.16      0.00
   35    7    4      0.29      0.00
   37    7    4      0.82      0.00
   39    7    4     -1.39      0.00
  -42    8    4     -0.55      0.00
  -40    8    4      1.83      0.00
  -38    8    4     -3.38      0.00
  -36    8    4      0.39      0.00
  -34    8    4      1.62      0.00
  -32    8    4      0.96      0.00
  -30    8    4      0.14      0.00
  -28    8    4      3.93      0.00
  -26    8    4      2.56      0.00
  -24    8    4     -4.52      0.00
  -22    8    4     12.78      0.00
  -20    8    4    -11.85      0.00
  -18    8    4    -19.62      0.00
  -16    8    4     18.46      0.00
  -14    8    4     -6.48      0.00
  -12    8    4      9.06      0.00
  -10    8    4     19.45      0.00
   -8    8    4    -15.30      0.00
   -6    8    4     28.60      0.00
   -4    8    4     -9.09      0.00
   -2    8    4     36.43      0.00
    0    8    4     -4.13      0.00
    2    8    4     35.79      0.00
    4    8    4    -23.67      0.00
    6    8    4     21.49      0.00
    8    8    4     13.68      0.00
   10    8    4    -14.50      0.00
   12    8    4     13.42      0.00
   14    8    4    -17.23      0.00
   16    8    4     -8.41      0.00
   18    8    4      4.45      0.00
   20    8    4     -0.44      0.00
   22    8    4      5.41      0.00
   24    8    4     -1.83      0.00
   26    8    4     -2.89      0.00
   28    8    4      1.20      0.00
   30    8    4      5.13      0.00
   32    8    4     -2.64      0.00
   34    8    4      6.38      0.00
   36    8    4      2.41      0.00
   38    8    4     -0.32      0.00
  -41    9    4     -2.84      0.00
  -39    9    4      4.83      0.00
  -37    9    4      7.58      0.00
  -35    9    4      1.56      0.00
  -33    9    4     -5.99      0.00
  -31    9    4     -4.84      0.00
  -29    9    4      2.04      0.00
  -27    9    4      2.01      0.00
  -25    9    4      2.87      0.00
  -23    9    4      9.29      0.00
  -21    9    4      4.91      0.00
  -19    9    4     -4.35      0.00
  -17    9    4      7.38      0.00
  -15    9    4     -1.21      0.00
  -13    9    4     -8.89      0.00
  -11    9    4      4.89      0.00
   -9    9    4     15.50      0.00
   -7    9    4     -6.73      0.00
   -5    9    4     23.72      0.00
   -3    9    4     11.21      0.00
   -1    9    4     -5.89      0.00
    1    9    4    -21.49      0.00
    3    9    4     11.26      0.00
    5    9    4    -11.20      0.00
    7    9    4    -12.17      0.00
    9    9    4     22.11      0.00
   11    9    4    -13.87      0.00
   13    9    4     -5.79      0.00
   15    9    4      8.47      0.00
   17    9    4      2.13      0.00
   19    9    4     -9.90      0.00
   21    9    4      2.26      0.00
   23    9    4      1.47      0.00
   25    9    4     -9.56      0.00
   27    9    4      9.64      0.00
   29    9    4     -0.41      0.00
   31    9    4     -0.26      0.00
   33    9    4     -2.99      0.00
   35    9    4     -0.44      0.00
   37    9    4      2.72      0.00
  -42   10    4      0.16      0.00
  -40   10    4      2.66      0.00
  -38   10    4     -0.85      0.00
  -36   10    4     -0.98      0.00
  -34   10    4      0.93      0.00
  -32   10    4     -1.21      0.00
  -30   10    4     -2.71      0.00
  -28   10    4     -3.45      0.00
  -26   10    4      0.02      0.00
  -24   10    4    -11.16      0.00
  -22   10    4      7.27      0.00
  -20   10    4      0.69      0.00
  -18   10    4     -7.85      0.00
  -16   10    4      9.90      0.00
  -14   10    4    -21.52      0.00
  -12   10    4    -11.59      0.00
  -10   10    4      1.45      0.00
   -8   10    4    -13.57      0.00
   -6   10    4     15.23      0.00
   -4   10    4     -3.13      0.00
   -2   10    4     -0.64      0.00
    0   10    4     -7.05      0.00
    2   10    4     18.84      0.00
    4   10    4    -15.78      0.00
    6   10    4      4.88      0.00
    8   10    4    -11.48      0.00
   10   10    4    -14.43      0.00
   12   10    4     23.25      0.00
   14   10    4     -2.30      0.00
   16   10    4      1.34      0.00
   18   10    4      5.99      0.00
   20   10    4     -9.77      0.00
   22   10    4     -6.09      0.00
   24   10    4      1.07      0.00
   26   10    4     -0.44      0.00
   28   10    4     -1.70      0.00
   30   10    4      2.70      0.00
   32   10    4     -2.70      0.00
   34   10    4      0.29      0.00
   36   10    4     -0.58      0.00
   38   10    4      0.09      0.00
  -41   11    4     -2.93      0.00
  -39   11    4     -4.79      0.00
  -37   11    4     -4.39      0.00
  -35   11    4     -0.22      0.00
  -33   11    4      0.77      0.00
  -31   11    4      9.63      0.00
  -29   11    4    -10.13      0.00
  -27   11    4     -0.62      0.00
  -25   11    4    -11.22      0.00
  -23   11    4      0.59      0.00
  -21   11    4      0.65      0.00
  -19   11    4      3.64      0.00
  -17   11    4      9.72      0.00
  -15   11    4     -7.22      0.00
  -13   11    4      2.27      0.00
  -11   11    4     -8.76      0.00
   -9   11    4     11.51      0.00
   -7   11    4    -21.02      0.00
   -5   11    4    -19.76      0.00
   -3   11    4     23.66      0.00
   -1   11    4    -26.68      0.00
    1   11    4     14.62      0.00
    3   11    4     16.35      0.00
    5   11    4    -18.18      0.00
    7   11    4      9.21      0.00
    9   11    4     10.31      0.00
   11   11    4      2.64      0.00
   13   11    4     -8.73      0.00
   15   11    4     -9.42      0.00
   17   11    4     -5.12      0.00
   19   11    4     -5.65      0.00
   21   11    4      9.32      0.00
   23   11    4      0.69      0.00
   25   11    4      0.94      0.00
   27   11    4      2.39      0.00
   29   11    4     -1.00      0.00
   31   11    4      0.68      0.00
   33   11    4      4.63      0.00
   35   11    4      1.14      0.00
   37   11    4     -1.85      0.00
  -40   12    4      0.47      0.00
  -38   12    4      0.48      0.00
  -36   12    4     -1.49      0.00
  -34   12    4      2.87      0.00
  -32   12    4     -2.80      0.00
  -30   12    4      5.46      0.00
  -28   12    4      6.71      0.00
  -26   12    4     -0.35      0.00
  -24   12    4     -4.58      0.00
  -22   12    4     11.11      0.00
  -20   12    4      3.77      0.00
  -18   12    4    -15.36      0.00
  -16   12    4     15.89      0.00
  -14   12    4      4.47      0.00
  -12   12    4      5.34      0.00
  -10   12    4      2.60      0.00
   -8   12    4     -7.78      0.00
   -6   12    4    -19.35      0.00
   -4   12    4    -11.28      0.00
   -2   12    4    -16.83      0.00
    0   12    4     -3.97      0.00
    2   12    4    -13.09      0.00
    4   12    4    -11.29      0.00
    6   12    4      4.46      0.00
    8   12    4      2.37      0.00
   10   12    4    -14.40      0.00
   12   12    4     16.31      0.00
   14   12    4    -19.26      0.00
   16   12    4     -7.38      0.00
   18   12    4     11.07      0.00
   20   12    4      2.11      0.00
   22   12    4      3.31      0.00
   24   12    4      6.27      0.00
   26   12    4     -1.51      0.00
   28   12    4     -0.87      0.00
   30   12    4      1.24      0.00
   32   12    4     -5.30      0.00
   34   12    4     -0.27      0.00
   36   12    4     -1.60      0.00
  -41   13    4      1.27      0.00
  -39   13    4      0.73      0.00
  -37   13    4      4.10      0.00
  -35   13    4     -0.97      0.00
  -33   13    4     -5.32      0.00
  -31   13    4      7.16      0.00
  -29   13    4     -2.28      0.00
  -27   13    4     13.15      0.00
  -25   13    4      2.66      0.00
  -23   13    4     -0.39      0.00
  -21   13    4     -8.59      0.00
  -19   13    4    -12.49      0.00
  -17   13    4     -0.58      0.00
  -15   13    4     -6.95      0.00
  -13   13    4      6.21      0.00
  -11   13    4     -2.67      0.00
   -9   13    4      8.75      0.00
   -7   13    4     -8.44      0.00
   -5   13    4    -17.19      0.00
   -3   13    4     37.55      0.00
   -1   13    4    -36.21      0.00
    1   13    4     17.71      0.00
    3   13    4      2.00      0.00
    5   13    4    -11.19      0.00
    7   13    4      2.59      0.00
    9   13    4     -9.81      0.00
   11   13    4      2.15      0.00
   13   13    4      3.65      0.00
   15   13    4     13.52      0.00
   17   13    4     11.10      0.00
   19   13    4     -2.16      0.00
   21   13    4      1.26      0.00
   23   13    4     -9.47      0.00
   25   13    4      2.91      0.00
   27   13    4     -1.60      0.00
   29   13    4      0.21      0.00
   31   13    4     -4.30      0.00
   33   13    4     -3.82      0.00
   35   13    4     -1.21      0.00
   37   13    4     -2.37      0.00
  -40   14    4      1.95      0.00
  -38   14    4      3.45      0.00
  -36   14    4     -5.64      0.00
  -34   14    4      3.09      0.00
  -32   14    4     -4.49      0.00
  -30   14    4      0.14      0.00
  -28   14    4      1.15      0.00
  -26   14    4     -1.15      0.00
  -24   14    4     -3.96      0.00
  -22   14    4      1.82      0.00
  -20   14    4     -2.54      0.00
  -18   14    4     -7.96      0.00
  -16   14    4     21.89      0.00
  -14   14    4     -8.54      0.00
  -12   14    4     -1.05      0.00
  -10   14    4      2.75      0.00
   -8   14    4     17.19      0.00
   -6   14    4      2.68      0.00
   -4   14    4     28.16      0.00
   -2   14    4      1.00      0.00
    0   14    4     29.56      0.00
    2   14    4      0.76      0.00
    4   14    4     11.29      0.00
    6   14    4      9.04      0.00
    8   14    4      7.28      0.00
   10   14    4    -13.73      0.00
   12   14    4     29.45      0.00
   14   14    4     -7.66      0.00
   16   14    4     -6.02      0.00
   18   14    4      7.11      0.00
   20   14    4     -4.42      0.00
   22   14    4     -4.64      0.00
   24   14    4      3.62      0.00
   26   14    4     -7.30      0.00
   28   14    4     -0.72      0.00
   30   14    4      1.88      0.00
   32   14    4      1.31      0.00
   34   14    4      5.10      0.00
   36   14    4     -2.52      0.00
  -39   15    4     -0.41      0.00
  -37   15    4      3.73      0.00
  -35   15    4     -0.24      0.00
  -33   15    4      4.35      0.00
  -31   15    4     -0.92      0.00
  -29   15    4    -11.44      0.00
  -27   15    4     -4.90      0.00
  -25   15    4     -1.51      0.00
  -23   15    4      4.20      0.00
  -21   15    4      9.75      0.00
  -19   15    4      5.69      0.00
  -17   15    4     11.41      0.00
  -15   15    4      4.70      0.00
  -13   15    4     -4.58      0.00
  -11   15    4     -1.01      0.00
   -9   15    4      2.18      0.00
   -7   15    4     10.17      0.00
   -5   15    4     -6.11      0.00
   -3   15    4     32.15      0.00
   -1   15    4    -24.41      0.00
    1   15    4     12.83      0.00
    3   15    4     -9.50      0.00
    5   15    4     -6.71      0.00
    7   15    4      5.51      0.00
    9   15    4      8.23      0.00
   11   15    4      4.79      0.00
   13   15    4     -6.73      0.00
   15   15    4     -7.47      0.00
   17   15    4     -2.78      0.00
   19   15    4     -1.98      0.00
   21   15    4      1.59      0.00
   23   15    4      0.61      0.00
   25   15    4      2.26      0.00
   27   15    4      0.88      0.00
   29   15    4      0.65      0.00
   31   15    4      5.69      0.00
   33   15    4     -0.21      0.00
   35   15    4     -0.13      0.00
  -38   16    4      1.72      0.00
  -36   16    4     -4.94      0.00
  -34   16    4      3.01      0.00
  -32   16    4     -3.86      0.00
  -30   16    4      1.17      0.00
  -28   16    4     10.26      0.00
  -26   16    4     -5.01      0.00
  -24   16    4    -11.06      0.00
  -22   16    4      4.68      0.00
  -20   16    4      1.26      0.00
  -18   16    4    -16.22      0.00
  -16   16    4     13.64      0.00
  -14   16    4    -18.60      0.00
  -12   16    4      2.60      0.00
  -10   16    4      1.27      0.00
   -8   16    4      0.36      0.00
   -6   16    4    -17.33      0.00
   -4   16    4      9.27      0.00
   -2   16    4    -24.20      0.00
    0   16    4     15.07      0.00
    2   16    4    -20.12      0.00
    4   16    4     -7.35      0.00
    6   16    4      5.41      0.00
    8   16    4     -3.57      0.00
   10   16    4    -17.35      0.00
   12   16    4     19.36      0.00
   14   16    4     -5.46      0.00
   16   16    4     -7.19      0.00
   18   16    4      4.51      0.00
   20   16    4      0.10      0.00
   22   16    4     -6.09      0.00
   24   16    4     10.69      0.00
   26   16    4     -5.39      0.00
   28   16    4      1.61      0.00
   30   16    4      3.24      0.00
   32   16    4     -2.06      0.00
   34   16    4      0.44      0.00
  -39   17    4     -1.63      0.00
  -37   17    4     -2.39      0.00
  -35   17    4     -6.82      0.00
  -33   17    4      2.72      0.00
  -31   17    4      3.39      0.00
  -29   17    4      2.39      0.00
  -27   17    4      4.22      0.00
  -25   17    4     -3.53      0.00
  -23   17    4     -8.47      0.00
  -21   17    4     -3.43      0.00
  -19   17    4     -6.08      0.00
  -17   17    4     -6.63      0.00
  -15   17    4      3.22      0.00
  -13   17    4     -1.18      0.00
  -11   17    4      1.70      0.00
   -9   17    4     -2.97      0.00
   -7   17    4     -8.95      0.00
   -5   17    4     -9.91      0.00
   -3   17    4     15.84      0.00
   -1   17    4    -13.27      0.00
    1   17    4      8.10      0.00
    3   17    4     11.47      0.00
    5   17    4      1.46      0.00
    7   17    4      3.68      0.00
    9   17    4     -3.78      0.00
   11   17    4     -5.74      0.00
   13   17    4      1.05      0.00
   15   17    4     -1.56      0.00
   17   17    4      3.82      0.00
   19   17    4      5.46      0.00
   21   17    4     -3.83      0.00
   23   17    4     -0.65      0.00
   25   17    4     -3.88      0.00
   27   17    4      0.86      0.00
   29   17    4     -3.37      0.00
   31   17    4      1.33      0.00
   33   17    4     -0.21      0.00
   35   17    4      0.07      0.00
  -38   18    4      3.81      0.00
  -36   18    4     -1.89      0.00
  -34   18    4     -3.49      0.00
  -32   18    4      3.18      0.00
  -30   18    4     -5.45      0.00
  -28   18    4      4.70      0.00
  -26   18    4     -2.88      0.00
  -24   18    4     10.55      0.00
  -22   18    4      8.84      0.00
  -20   18    4      2.51      0.00
  -18   18    4     -8.55      0.00
  -16   18    4     22.65      0.00
  -14   18    4     -9.50      0.00
  -12   18    4     -0.68      0.00
  -10   18    4      9.13      0.00
   -8   18    4     -9.91      0.00
   -6   18    4     -6.53      0.00
   -4   18    4      6.12      0.00
   -2   18    4    -16.67      0.00
    0   18    4     13.11      0.00
    2   18    4    -10.28      0.00
    4   18    4     -8.61      0.00
    6   18    4     13.02      0.00
    8   18    4     -2.98      0.00
   10   18    4    -10.61      0.00
   12   18    4      7.49      0.00
   14   18    4      1.59      0.00
   16   18    4     -3.98      0.00
   18   18    4      1.87      0.00
   20   18    4      9.80      0.00
   22   18    4     -5.89      0.00
   24   18    4      9.09      0.00
   26   18    4     -2.75      0.00
   28   18    4     -2.56      0.00
   30   18    4      2.66      0.00
   32   18    4     -1.45      0.00
   34   18    4      2.96      0.00
  -37   19    4      1.50      0.00
  -35   19    4      1.58      0.00
  -33   19    4      0.59      0.00
  -31   19    4      3.07      0.00
  -29   19    4     -4.25      0.00
  -27   19    4      0.59      0.00
  -25   19    4      4.50      0.00
  -23   19    4      3.51      0.00
  -21   19    4      9.18      0.00
  -19   19    4     -0.22      0.00
  -17   19    4     -4.53      0.00
  -15   19    4      5.36      0.00
  -13   19    4     -5.42      0.00
  -11   19    4     -4.80      0.00
   -9   19    4     14.62      0.00
   -7   19    4     -3.65      0.00
   -5   19    4      3.87      0.00
   -3   19    4      4.52      0.00
   -1   19    4    -10.00      0.00
    1   19    4     -5.18      0.00
    3   19    4      0.28      0.00
    5   19    4    -19.96      0.00
    7   19    4      0.37      0.00
    9   19    4      1.53      0.00
   11   19    4     -0.57      0.00
   13   19    4      7.25      0.00
   15   19    4     -0.75      0.00
   17   19    4     -7.95      0.00
   19   19    4     -0.40      0.00
   21   19    4      1.06      0.00
   23   19    4      4.35      0.00
   25   19    4      2.15      0.00
   27   19    4     -2.77      0.00
   29   19    4      1.80      0.00
   31   19    4     -0.11      0.00
   33   19    4     -0.08      0.00
  -36   20    4      1.72      0.00
  -34   20    4     -0.15      0.00
  -32   20    4      5.09      0.00
  -30   20    4     -7.78      0.00
  -28   20    4      7.04      0.00
  -26   20    4     -3.00      0.00
  -24   20    4     -2.82      0.00
  -22   20    4    -11.94      0.00
  -20   20    4      2.95      0.00
  -18   20    4     -7.54      0.00
  -16   20    4      2.54      0.00
  -14   20    4     -1.66      0.00
  -12   20    4     -4.46      0.00
  -10   20    4     15.36      0.00
   -8   20    4    -13.99      0.00
   -6   20    4      8.47      0.00
   -4   20    4     10.29      0.00
   -2   20    4      8.86      0.00
    0   20    4     11.05      0.00
    2   20    4      5.44      0.00
    4   20    4     -2.56      0.00
    6   20    4      8.25      0.00
    8   20    4     -2.18      0.00
   10   20    4      0.51      0.00
   12   20    4      3.70      0.00
   14   20    4      0.56      0.00
   16   20    4     -3.96      0.00
   18   20    4     -2.26      0.00
   20   20    4      4.41      0.00
   22   20    4     -7.14      0.00
   24   20    4     -0.18      0.00
   26   20    4     -2.34      0.00
   28   20    4     -5.78      0.00
   30   20    4      3.87      0.00
   32   20    4     -1.50      0.00
  -35   21    4     -0.34      0.00
  -33   21    4     -3.70      0.00
  -31   21    4      1.74      0.00
  -29   21    4     -1.35      0.00
  -27   21    4      0.35      0.00
  -25   21    4      0.73      0.00
  -23   21    4     -6.71      0.00
  -21   21    4      2.75      0.00
  -19   21    4      0.03      0.00
  -17   21    4      2.31      0.00
  -15   21    4     11.90      0.00
  -13   21    4     -2.08      0.00
  -11   21    4     -3.96      0.00
   -9   21    4      1.38      0.00
   -7   21    4    -15.03      0.00
   -5   21    4     -1.88      0.00
   -3   21    4      6.54      0.00
   -1   21    4     -3.27      0.00
    1   21    4      1.22      0.00
    3   21    4     11.03      0.00
    5   21    4      3.33      0.00
    7   21    4      4.88      0.00
    9   21    4     -3.19      0.00
   11   21    4     -3.67      0.00
   13   21    4      3.52      0.00
   15   21    4      3.73      0.00
   17   21    4     -1.72      0.00
   19   21    4      6.23      0.00
   21   21    4     -0.62      0.00
   23   21    4     -7.78      0.00
   25   21    4      6.69      0.00
   27   21    4     -2.67      0.00
   29   21    4      1.14      0.00
   31   21    4      3.63      0.00
  -34   22    4     -2.57      0.00
  -32   22    4      2.33      0.00
  -30   22    4      1.50      0.00
  -28   22    4     -1.16      0.00
  -26   22    4     -1.37      0.00
  -24   22    4      4.51      0.00
  -22   22    4     -4.04      0.00
  -20   22    4      1.82      0.00
  -18   22    4     -6.64      0.00
  -16   22    4      0.22      0.00
  -14   22    4      7.88      0.00
  -12   22    4     -9.56      0.00
  -10   22    4      6.73      0.00
   -8   22    4     -5.67      0.00
   -6   22    4     -1.42      0.00
   -4   22    4     -8.88      0.00
   -2   22    4     -6.81      0.00
    0   22    4    -13.22      0.00
    2   22    4     -1.96      0.00
    4   22    4     -4.22      0.00
    6   22    4      2.32      0.00
    8   22    4     -5.76      0.00
   10   22    4     -0.97      0.00
   12   22    4     -0.87      0.00
   14   22    4     -2.24      0.00
   16   22    4     -4.28      0.00
   18   22    4     -6.63      0.00
   20   22    4     -2.72      0.00
   22   22    4      1.73      0.00
   24   22    4      2.53      0.00
   26   22    4      6.30      0.00
   28   22    4     -1.69      0.00
   30   22    4      0.59      0.00
  -33   23    4      2.96      0.00
  -31   23    4      0.75      0.00
  -29   23    4      1.20      0.00
  -27   23    4     -7.09      0.00
  -25   23    4     -5.36      0.00
  -23   23    4     -0.99      0.00
  -21   23    4      2.53      0.00
  -19   23    4      2.22      0.00
  -17   23    4    -13.82      0.00
  -15   23    4     -4.84      0.00
  -13   23    4     -9.70      0.00
  -11   23    4      5.47      0.00
   -9   23    4      7.51      0.00
   -7   23    4      4.35      0.00
   -5   23    4      0.02      0.00
   -3   23    4      2.58      0.00
   -1   23    4     -1.49      0.00
    1   23    4     -1.07      0.00
    3   23    4     -1.15      0.00
    5   23    4     -2.23      0.00
    7   23    4      1.76      0.00
    9   23    4      1.77      0.00
   11   23    4     -1.03      0.00
   13   23    4      8.58      0.00
   15   23    4     -1.09      0.00
   17   23    4     -9.63      0.00
   19   23    4     -0.62      0.00
   21   23    4      3.04      0.00
   23   23    4     -5.97      0.00
   25   23    4      1.81      0.00
   27   23    4     -1.52      0.00
   29   23    4     -4.66      0.00
  -32   24    4     -4.10      0.00
  -30   24    4     -2.59      0.00
  -28   24    4     -5.23      0.00
  -26   24    4      5.13      0.00
  -24   24    4      5.62      0.00
  -22   24    4     -0.50      0.00
  -20   24    4      7.49      0.00
  -18   24    4      4.33      0.00
  -16   24    4     -2.44      0.00
  -14   24    4      3.33      0.00
  -12   24    4     -0.77      0.00
  -10   24    4      0.47      0.00
   -8   24    4      2.85      0.00
   -6   24    4     -5.84      0.00
   -4   24    4      7.05      0.00
   -2   24    4      3.90      0.00
    0   24    4      0.74      0.00
    2   24    4      3.49      0.00
    4   24    4      1.77      0.00
    6   24    4      3.37      0.00
    8   24    4     -7.12      0.00
   10   24    4      3.36      0.00
   12   24    4      7.27      0.00
   14   24    4      7.11      0.00
   16   24    4      7.14      0.00
   18   24    4      5.55      0.00
   20   24    4      1.41      0.00
   22   24    4     -0.27      0.00
   24   24    4     -4.11      0.00
   26   24    4     -0.70      0.00
   28   24    4     -1.24      0.00
  -31   25    4     -3.29      0.00
  -29   25    4      7.89      0.00
  -27   25    4      0.43      0.00
  -25   25    4      4.54      0.00
  -23   25    4      5.55      0.00
  -21   25    4     -6.03      0.00
  -19   25    4      6.05      0.00
  -17   25    4     -3.80      0.00
  -15   25    4     13.87      0.00
  -13   25    4     -2.44      0.00
  -11   25    4      1.20      0.00
   -9   25    4      3.46      0.00
   -7   25    4     -1.71      0.00
   -5   25    4     -2.31      0.00
   -3   25    4      0.97      0.00
   -1   25    4      4.20      0.00
    1   25    4     -4.69      0.00
    3   25    4      2.22      0.00
    5   25    4     -0.08      0.00
    7   25    4     -6.03      0.00
    9   25    4     -2.32      0.00
   11   25    4    -12.33      0.00
   13   25    4      7.05      0.00
   15   25    4     -6.81      0.00
   17   25    4      1.08      0.00
   19   25    4      1.86      0.00
   21   25    4     -0.15      0.00
   23   25    4      2.13      0.00
   25   25    4      3.66      0.00
   27   25    4      1.57      0.00
  -30   26    4      3.81      0.00
  -28   26    4      0.60      0.00
  -26   26    4     -0.38      0.00
  -24   26    4      0.03      0.00
  -22   26    4     -5.64      0.00
  -20   26    4     -6.52      0.00
  -18   26    4     -0.69      0.00
  -16   26    4     -4.32      0.00
  -14   26    4      5.17      0.00
  -12   26    4      1.26      0.00
  -10   26    4     -4.93      0.00
   -8   26    4      5.84      0.00
   -6   26    4      0.45      0.00
   -4   26    4      7.17      0.00
   -2   26    4     -2.37      0.00
    0   26    4      6.07      0.00
    2   26    4      0.03      0.00
    4   26    4      1.64      0.00
    6   26    4      3.30      0.00
    8   26    4     -1.14      0.00
   10   26    4     -0.61      0.00
   12   26    4     -4.53      0.00
   14   26    4     -2.49      0.00
   16   26    4     -4.39      0.00
   18   26    4     -1.51      0.00
   20   26    4     -1.56      0.00
   22   26    4     -0.06      0.00
   24   26    4      2.85      0.00
   26   26    4     -0.92      0.00
  -29   27    4      0.34      0.00
  -27   27    4     -4.76      0.00
  -25   27    4     -0.19      0.00
  -23   27    4     -1.70      0.00
  -21   27    4      2.76      0.00
  -19   27    4      8.85      0.00
  -17   27    4     -6.94      0.00
  -15   27    4      3.14      0.00
  -13   27    4     -2.09      0.00
  -11   27    4     -3.18      0.00
   -9   27    4     -0.66      0.00
   -7   27    4     -4.69      0.00
   -5   27    4     -0.58      0.00
   -3   27    4      1.86      0.00
   -1   27    4      1.49      0.00
    1   27    4     -1.80      0.00
    3   27    4      1.23      0.00
    5   27    4      5.73      0.00
    7   27    4      1.41      0.00
    9   27    4      6.85      0.00
   11   27    4     -3.38      0.00
   13   27    4     15.35      0.00
   15   27    4     -3.55      0.00
   17   27    4      1.69      0.00
   19   27    4      3.08      0.00
   21   27    4     -1.09      0.00
   23   27    4     -0.74      0.00
   25   27    4     -1.30      0.00
  -28   28    4      1.20      0.00
  -26   28    4     -0.99      0.00
  -24   28    4      2.50      0.00
  -22   28    4     -0.27      0.00
  -20   28    4      0.64      0.00
  -18   28    4      7.91      0.00
  -16   28    4     -5.33      0.00
  -14   28    4     -0.92      0.00
  -12   28    4     -0.06      0.00
  -10   28    4     -1.35      0.00
   -8   28    4     -2.43      0.00
   -6   28    4     -0.97      0.00
   -4   28    4     -2.40      0.00
   -2   28    4     -7.36      0.00
    0   28    4     -0.91      0.00
    2   28    4     -4.59      0.00
    4   28    4      3.82      0.00
    6   28    4     -2.38      0.00
    8   28    4     -6.51      0.00
   10   28    4     -4.26      0.00
   12   28    4      0.13      0.00
   14   28    4      5.96      0.00
   16   28    4     -3.20      0.00
   18   28    4      1.25      0.00
   20   28    4      1.15      0.00
   22   28    4     -0.21      0.00
   24   28    4      2.94      0.00
  -25   29    4      0.69      0.00
  -23   29    4     -0.73      0.00
  -21   29    4      2.86      0.00
  -19   29    4     -6.90      0.00
  -17   29    4     -4.57      0.00
  -15   29    4     -0.80      0.00
  -13   29    4     -1.59      0.00
  -11   29    4      0.71      0.00
   -9   29    4      9.74      0.00
   -7   29    4      3.13      0.00
   -5   29    4     -3.83      0.00
   -3   29    4     -1.40      0.00
   -1   29    4     -1.31      0.00
    1   29    4     -0.99      0.00
    3   29    4     -5.61      0.00
    5   29    4     -1.66      0.00
    7   29    4      0.31      0.00
    9   29    4     -0.44      0.00
   11   29    4     -2.79      0.00
   13   29    4      2.23      0.00
   15   29    4     -3.65      0.00
   17   29    4     -0.60      0.00
   19   29    4     -2.70      0.00
   21   29    4     -1.39      0.00
  -24   30    4     -1.64      0.00
  -22   30    4     -1.76      0.00
  -20   30    4      0.39      0.00
  -18   30    4      2.99      0.00
  -16   30    4     -1.44      0.00
  -14   30    4      2.20      0.00
  -12   30    4      2.85      0.00
  -10   30    4     -2.30      0.00
   -8   30    4     -3.88      0.00
   -6   30    4      4.30      0.00
   -4   30    4     -1.81      0.00
   -2   30    4     -1.13      0.00
    0   30    4      2.75      0.00
    2   30    4     -0.66      0.00
    4   30    4      0.34      0.00
    6   30    4      2.79      0.00
    8   30    4      4.69      0.00
   10   30    4      5.81      0.00
   12   30    4     -1.30      0.00
   14   30    4      3.04      0.00
   16   30    4      0.23      0.00
   18   30    4     -0.29      0.00
   20   30    4     -2.47      0.00
  -23   31    4     -1.53      0.00
  -21   31    4      1.06      0.00
  -19   31    4     -0.47      0.00
  -17   31    4      4.25      0.00
  -15   31    4      3.54      0.00
  -13   31    4      1.45      0.00
  -11   31    4     -2.65      0.00
   -9   31    4     -3.90      0.00
   -7   31    4     -5.19      0.00
   -5   31    4      5.77      0.00
   -3   31    4     -1.67      0.00
   -1   31    4      3.55      0.00
    1   31    4     -4.38      0.00
    3   31    4      2.66      0.00
    5   31    4      1.42      0.00
    7   31    4      3.27      0.00
    9   31    4     -5.08      0.00
   11   31    4     -1.74      0.00
   13   31    4     -1.91      0.00
   15   31    4     -4.86      0.00
   17   31    4     -0.64      0.00
   19   31    4      0.61      0.00
  -20   32    4     -0.39      0.00
  -18   32    4      0.22      0.00
  -16   32    4     -1.30      0.00
  -14   32    4     -1.71      0.00
  -12   32    4      1.27      0.00
  -10   32    4      1.02      0.00
   -8   32    4     -1.54      0.00
   -6   32    4      5.87      0.00
   -4   32    4      0.33      0.00
   -2   32    4      0.16      0.00
    0   32    4     -2.66      0.00
    2   32    4      0.79      0.00
    4   32    4      0.25      0.00
    6   32    4      0.88      0.00
    8   32    4     -8.03      0.00
   10   32    4     -0.90      0.00
   12   32    4     -3.38      0.00
   14   32    4     -1.44      0.00
   16   32    4      1.17      0.00
  -17   33    4     -3.62      0.00
  -15   33    4     -1.37      0.00
  -13   33    4     -3.81      0.00
  -11   33    4      0.88      0.00
   -9   33    4     -0.71      0.00
   -7   33    4     -1.85      0.00
   -5   33    4      5.18      0.00
   -3   33    4     -5.15      0.00
   -1   33    4      8.45      0.00
    1   33    4     -1.82      0.00
    3   33    4      0.12      0.00
    5   33    4     -2.07      0.00
    7   33    4      2.59      0.00
    9   33    4      5.16      0.00
   11   33    4      1.77      0.00
   13   33    4      4.32      0.00
  -14   34    4     -0.35      0.00
  -12   34    4     -1.27      0.00
  -10   34    4     -0.30      0.00
   -8   34    4     -4.34      0.00
   -6   34    4      2.28      0.00
   -4   34    4     -1.95      0.00
   -2   34    4      3.03      0.00
    0   34    4      1.94      0.00
    2   34    4      2.00      0.00
    4   34    4     -2.09      0.00
    6   34    4      0.32      0.00
    8   34    4     -1.32      0.00
   10   34    4      2.85      0.00
  -11   35    4      7.40      0.00
   -9   35    4     -0.73      0.00
   -7   35    4      3.28      0.00
   -5   35    4      1.13      0.00
   -3   35    4     -0.77      0.00
   -1   35    4     -4.52      0.00
    1   35    4     -2.28      0.00
    3   35    4     -0.82      0.00
    5   35    4      1.02      0.00
    7   35    4     -4.25      0.00
  -43    1    5     -3.41      0.00
  -41    1    5     -3.94      0.00
  -39    1    5      0.20      0.00
  -37    1    5      0.47      0.00
  -35    1    5      0.87      0.00
  -33    1    5      0.78      0.00
  -31    1    5     -5.04      0.00
  -29    1    5     -4.28      0.00
  -27    1    5      9.85      0.00
  -25    1    5      1.12      0.00
  -23    1    5     -1.14      0.00
  -21    1    5     -5.54      0.00
  -19    1    5     -4.80      0.00
  -17    1    5      1.99      0.00
  -15    1    5     -0.40      0.00
  -13    1    5     14.24      0.00
  -11    1    5     -9.46      0.00
   -9    1    5     -4.21      0.00
   -7    1    5    -20.03      0.00
   -5    1    5    -10.80      0.00
   -3    1    5    -25.17      0.00
   -1    1    5    -28.92      0.00
    1    1    5     -9.86      0.00
    3    1    5    -17.48      0.00
    5    1    5     -8.78      0.00
    7    1    5     -6.94      0.00
    9    1    5     -0.46      0.00
   11    1    5      5.66      0.00
   13    1    5     -0.05      0.00
   15    1    5      3.80      0.00
   17    1    5     -7.66      0.00
   19    1    5     -2.78      0.00
   21    1    5     -6.82      0.00
   23    1    5      3.08      0.00
   25    1    5     -6.78      0.00
   27    1    5     -1.91      0.00
   29    1    5     -1.81      0.00
   31    1    5      4.12      0.00
   33    1    5      0.04      0.00
   35    1    5     -4.54      0.00
   37    1    5      1.75      0.00
  -42    2    5     -0.22      0.00
  -40    2    5      2.06      0.00
  -38    2    5     -0.12      0.00
  -36    2    5     -4.34      0.00
  -34    2    5      4.10      0.00
  -32    2    5     -6.08      0.00
  -30    2    5     -6.41      0.00
  -28    2    5     -4.24      0.00
  -26    2    5     -8.12      0.00
  -24    2    5    -15.81      0.00
  -22    2    5      9.37      0.00
  -20    2    5     -3.13      0.00
  -18    2    5     -2.69      0.00
  -16    2    5      5.16      0.00
  -14    2    5      2.08      0.00
  -12    2    5     -0.74      0.00
  -10    2    5     26.08      0.00
   -8    2    5    -11.79      0.00
   -6    2    5     21.05      0.00
   -4    2    5     -2.95      0.00
   -2    2    5     10.93      0.00
    0    2    5    -25.26      0.00
    2    2    5     -9.82      0.00
    4    2    5     -6.01      0.00
    6    2    5    -23.83      0.00
    8    2    5      0.25      0.00
   10    2    5    -10.47      0.00
   12    2    5     -4.50      0.00
   14    2    5     -3.82      0.00
   16    2    5     -2.30      0.00
   18    2    5      0.61      0.00
   20    2    5      2.39      0.00
   22    2    5      8.05      0.00
   24    2    5      2.55      0.00
   26    2    5      7.05      0.00
   28    2    5      0.64      0.00
   30    2    5      6.31      0.00
   32    2    5      2.91      0.00
   34    2    5      2.39      0.00
   36    2    5      2.54      0.00
   38    2    5     -1.71      0.00
  -43    3    5      2.77      0.00
  -41    3    5     -1.04      0.00
  -39    3    5      2.63      0.00
  -37    3    5     -3.00      0.00
  -35    3    5     -0.68      0.00
  -33    3    5      2.06      0.00
  -31    3    5      3.10      0.00
  -29    3    5     -0.77      0.00
  -27    3    5     -2.25      0.00
  -25    3    5    -11.44      0.00
  -23    3    5     -4.95      0.00
  -21    3    5      4.85      0.00
  -19    3    5     -2.70      0.00
  -17    3    5      0.52      0.00
  -15    3    5     -4.05      0.00
  -13    3    5      5.33      0.00
  -11    3    5     -4.14      0.00
   -9    3    5      8.42      0.00
   -7    3    5     -0.46      0.00
   -5    3    5     18.09      0.00
   -3    3    5     -8.11      0.00
   -1    3    5     -1.19      0.00
    1    3    5     18.64      0.00
    3    3    5     -4.20      0.00
    5    3    5     -0.23      0.00
    7    3    5      9.64      0.00
    9    3    5      3.38      0.00
   11    3    5      2.85      0.00
   13    3    5    -10.84      0.00
   15    3    5     -0.58      0.00
   17    3    5     -5.42      0.00
   19    3    5      3.60      0.00
   21    3    5     -6.37      0.00
   23    3    5      2.76      0.00
   25    3    5     -5.68      0.00
   27    3    5     10.03      0.00
   29    3    5     -4.24      0.00
   31    3    5     -3.53      0.00
   33    3    5      1.65      0.00
   35    3    5     -1.15      0.00
   37    3    5     -4.23      0.00
  -42    4    5     -4.13      0.00
  -40    4    5     -0.11      0.00
  -38    4    5      0.01      0.00
  -36    4    5     -1.82      0.00
  -34    4    5     12.01      0.00
  -32    4    5     -0.41      0.00
  -30    4    5     -5.13      0.00
  -28    4    5     13.59      0.00
  -26    4    5     11.27      0.00
  -24    4    5      4.33      0.00
  -22    4    5      1.67      0.00
  -20    4    5     -1.99      0.00
  -18    4    5     -4.16      0.00
  -16    4    5      7.88      0.00
  -14    4    5      6.96      0.00
  -12    4    5    -27.31      0.00
  -10    4    5     21.08      0.00
   -8    4    5    -29.79      0.00
   -6    4    5      2.15      0.00
   -4    4    5     -6.43      0.00
   -2    4    5     13.84      0.00
    0    4    5     -9.52      0.00
    2    4    5     19.57      0.00
    4    4    5     32.12      0.00
    6    4    5      1.47      0.00
    8    4    5     13.72      0.00
   10    4    5      5.85      0.00
   12    4    5      5.37      0.00
   14    4    5      8.24      0.00
   16    4    5     -5.19      0.00
   18    4    5     -0.63      0.00
   20    4    5     -9.44      0.00
   22    4    5     -2.58      0.00
   24    4    5     -8.32      0.00
   26    4    5     -9.79      0.00
   28    4    5     -4.54      0.00
   30    4    5      1.29      0.00
   32    4    5      0.20      0.00
   34    4    5     -9.06      0.00
   36    4    5      2.54      0.00
   38    4    5     -1.53      0.00
  -43    5    5     -0.37      0.00
  -41    5    5     -1.19      0.00
  -39    5    5      8.59      0.00
  -37    5    5     -3.46      0.00
  -35    5    5      2.12      0.00
  -33    5    5     -0.98      0.00
  -31    5    5     -7.26      0.00
  -29    5    5      2.93      0.00
  -27    5    5      5.17      0.00
  -25    5    5      5.80      0.00
  -23    5    5     -3.96      0.00
  -21    5    5     13.84      0.00
  -19    5    5     -3.36      0.00
  -17    5    5     -0.33      0.00
  -15    5    5      2.50      0.00
  -13    5    5    -11.67      0.00
  -11    5    5     11.37      0.00
   -9    5    5    -15.67      0.00
   -7    5    5      8.06      0.00
   -5    5    5     32.47      0.00
   -3    5    5     -5.69      0.00
   -1    5    5     15.76      0.00
    1    5    5     22.14      0.00
    3    5    5     10.90      0.00
    5    5    5    -12.45      0.00
    7    5    5      8.17      0.00
    9    5    5     -3.97      0.00
   11    5    5      2.86      0.00
   13    5    5      4.82      0.00
   15    5    5      3.96      0.00
   17    5    5      9.99      0.00
   19    5    5      1.10      0.00
   21    5    5      1.80      0.00
   23    5    5      8.68      0.00
   25    5    5     -5.26      0.00
   27    5    5      2.70      0.00
   29    5    5     -0.80      0.00
   31    5    5      1.44      0.00
   33    5    5      2.54      0.00
   35    5    5      1.61      0.00
   37    5    5      3.86      0.00
  -42    6    5      0.49      0.00
  -40    6    5     -2.84      0.00
  -38    6    5      4.67      0.00
  -36    6    5     -2.16      0.00
  -34    6    5      2.55      0.00
  -32    6    5     -5.57      0.00
  -30    6    5     -1.64      0.00
  -28    6    5      8.41      0.00
  -26    6    5    -12.44      0.00
  -24    6    5     -4.76      0.00
  -22    6    5     -4.25      0.00
  -20    6    5     20.10      0.00
  -18    6    5    -16.18      0.00
  -16    6    5     -9.76      0.00
  -14    6    5      9.26      0.00
  -12    6    5    -20.39      0.00
  -10    6    5     23.65      0.00
   -8    6    5    -12.73      0.00
   -6    6    5      6.41      0.00
   -4    6    5      6.70      0.00
   -2    6    5      2.55      0.00
    0    6    5    -13.26      0.00
    2    6    5     -3.44      0.00
    4    6    5     -3.33      0.00
    6    6    5    -22.26      0.00
    8    6    5     -5.69      0.00
   10    6    5      7.77      0.00
   12    6    5     -9.15      0.00
   14    6    5      0.76      0.00
   16    6    5     -4.24      0.00
   18    6    5      8.10      0.00
   20    6    5      2.23      0.00
   22    6    5      7.86      0.00
   24    6    5      7.66      0.00
   26    6    5     -5.02      0.00
   28    6    5      1.73      0.00
   30    6    5      1.42      0.00
   32    6    5      5.30      0.00
   34    6    5     -1.77      0.00
   36    6    5      1.73      0.00
   38    6    5     -5.76      0.00
  -41    7    5     -4.96      0.00
  -39    7    5      1.56      0.00
  -37    7    5     -6.87      0.00
  -35    7    5     -2.91      0.00
  -33    7    5      3.26      0.00
  -31    7    5     -4.74      0.00
  -29    7    5      6.20      0.00
  -27    7    5     -4.01      0.00
  -25    7    5     -1.77      0.00
  -23    7    5      0.76      0.00
  -21    7    5      9.39      0.00
  -19    7    5     -6.36      0.00
  -17    7    5      8.03      0.00
  -15    7    5      1.02      0.00
  -13    7    5    -14.00      0.00
  -11    7    5     20.38      0.00
   -9    7    5    -24.99      0.00
   -7    7    5    -10.06      0.00
   -5    7    5      1.34      0.00
   -3    7    5    -37.36      0.00
   -1    7    5    -15.36      0.00
    1    7    5    -15.84      0.00
    3    7    5    -12.76      0.00
    5    7    5    -21.25      0.00
    7    7    5      7.49      0.00
    9    7    5     -4.66      0.00
   11    7    5    -10.93      0.00
   13    7    5      3.74      0.00
   15    7    5    -11.94      0.00
   17    7    5      4.51      0.00
   19    7    5     -5.58      0.00
   21    7    5     -2.53      0.00
   23    7    5      5.22      0.00
   25    7    5    -11.70      0.00
   27    7    5      0.13      0.00
   29    7    5      1.01      0.00
   31    7    5     -3.58      0.00
   33    7    5      6.86      0.00
   35    7    5      2.53      0.00
   37    7    5     -6.51      0.00
  -42    8    5      2.51      0.00
  -40    8    5     -4.87      0.00
  -38    8    5      2.62      0.00
  -36    8    5     -7.81      0.00
  -34    8    5      7.23      0.00
  -32    8    5     -3.70      0.00
  -30    8    5     -4.21      0.00
  -28    8    5      1.25      0.00
  -26    8    5     -2.08      0.00
  -24    8    5      7.61      0.00
  -22    8    5     -9.22      0.00
  -20    8    5     12.73      0.00
  -18    8    5    -12.96      0.00
  -16    8    5     12.67      0.00
  -14    8    5     10.42      0.00
  -12    8    5     -4.12      0.00
  -10    8    5      8.93      0.00
   -8    8    5    -12.70      0.00
   -6    8    5     -4.13      0.00
   -4    8    5     -2.35      0.00
   -2    8    5      4.08      0.00
    0    8    5     -9.29      0.00
    2    8    5      7.71      0.00
    4    8    5     11.87      0.00
    6    8    5      0.15      0.00
    8    8    5    -11.69      0.00
   10    8    5      6.51      0.00
   12    8    5     -7.14      0.00
   14    8    5      0.17      0.00
   16    8    5      5.20      0.00
   18    8    5     -0.98      0.00
   20    8    5     -2.77      0.00
   22    8    5      3.32      0.00
   24    8    5      7.75      0.00
   26    8    5     -5.50      0.00
   28    8    5      1.19      0.00
   30    8    5      1.74      0.00
   32    8    5     -2.24      0.00
   34    8    5     -3.90      0.00
   36    8    5     -1.93      0.00
  -41    9    5      3.54      0.00
  -39    9    5      2.15      0.00
  -37    9    5      4.46      0.00
  -35    9    5      2.96      0.00
  -33    9    5      9.17      0.00
  -31    9    5     -2.10      0.00
  -29    9    5      6.76      0.00
  -27    9    5      1.84      0.00
  -25    9    5    -13.00      0.00
  -23    9    5     -1.21      0.00
  -21    9    5     -6.90      0.00
  -19    9    5     -1.70      0.00
  -17    9    5      2.21      0.00
  -15    9    5     -3.27      0.00
  -13    9    5      0.18      0.00
  -11    9    5     13.88      0.00
   -9    9    5     -2.33      0.00
   -7    9    5      7.15      0.00
   -5    9    5     26.48      0.00
   -3    9    5     -2.07      0.00
   -1    9    5     11.19      0.00
    1    9    5     22.48      0.00
    3    9    5      9.25      0.00
    5    9    5      7.22      0.00
    7    9    5      6.39      0.00
    9    9    5     10.45      0.00
   11    9    5     -6.87      0.00
   13    9    5     11.80      0.00
   15    9    5     -7.45      0.00
   17    9    5      4.62      0.00
   19    9    5     -6.14      0.00
   21    9    5     -8.62      0.00
   23    9    5     19.35      0.00
   25    9    5      1.38      0.00
   27    9    5      1.95      0.00
   29    9    5      6.96      0.00
   31    9    5    -10.95      0.00
   33    9    5     -6.75      0.00
   35    9    5     -1.86      0.00
   37    9    5     -2.41      0.00
  -40   10    5     -9.36      0.00
  -38   10    5      7.12      0.00
  -36   10    5      1.92      0.00
  -34   10    5      3.57      0.00
  -32   10    5     -2.52      0.00
  -30   10    5      7.13      0.00
  -28   10    5      8.85      0.00
  -26   10    5    -11.02      0.00
  -24   10    5     -5.98      0.00
  -22   10    5      4.86      0.00
  -20   10    5     19.06      0.00
  -18   10    5    -10.78      0.00
  -16   10    5     -3.51      0.00
  -14   10    5    -16.97      0.00
  -12   10    5      1.17      0.00
  -10   10    5      4.75      0.00
   -8   10    5     -0.61      0.00
   -6   10    5     17.20      0.00
   -4   10    5      3.62      0.00
   -2   10    5     -0.78      0.00
    0   10    5    -12.72      0.00
    2   10    5     10.69      0.00
    4   10    5     -4.78      0.00
    6   10    5      4.31      0.00
    8   10    5      1.68      0.00
   10   10    5     28.62      0.00
   12   10    5      2.28      0.00
   14   10    5    -11.74      0.00
   16   10    5      6.21      0.00
   18   10    5     -6.41      0.00
   20   10    5     -3.68      0.00
   22   10    5     -1.17      0.00
   24   10    5     -6.77      0.00
   26   10    5    -12.37      0.00
   28   10    5      4.00      0.00
   30   10    5      1.23      0.00
   32   10    5      3.37      0.00
   34   10    5      5.90      0.00
   36   10    5     -2.87      0.00
  -41   11    5      2.41      0.00
  -39   11    5     -4.03      0.00
  -37   11    5      4.76      0.00
  -35   11    5     -6.48      0.00
  -33   11    5     -7.06      0.00
  -31   11    5     -0.04      0.00
  -29   11    5     -3.52      0.00
  -27   11    5     -1.45      0.00
  -25   11    5     -0.02      0.00
  -23   11    5     11.31      0.00
  -21   11    5     -2.02      0.00
  -19   11    5     15.07      0.00
  -17   11    5     -5.90      0.00
  -15   11    5     -3.51      0.00
  -13   11    5     -8.16      0.00
  -11   11    5      2.44      0.00
   -9   11    5      6.90      0.00
   -7   11    5     -8.74      0.00
   -5   11    5     10.25      0.00
   -3   11    5     -5.85      0.00
   -1   11    5     -9.51      0.00
    1   11    5      8.06      0.00
    3   11    5    -10.33      0.00
    5   11    5      6.24      0.00
    7   11    5     -8.74      0.00
    9   11    5      6.01      0.00
   11   11    5     -5.31      0.00
   13   11    5     13.40      0.00
   15   11    5      4.07      0.00
   17   11    5      7.75      0.00
   19   11    5      1.19      0.00
   21   11    5    -13.17      0.00
   23   11    5      4.04      0.00
   25   11    5     -6.78      0.00
   27   11    5     -9.22      0.00
   29   11    5      9.16      0.00
   31   11    5      0.81      0.00
   33   11    5      4.53      0.00
   35   11    5     13.28      0.00
  -40   12    5      1.53      0.00
  -38   12    5      4.29      0.00
  -36   12    5     -0.99      0.00
  -34   12    5    -10.30      0.00
  -32   12    5      0.61      0.00
  -30   12    5     -7.50      0.00
  -28   12    5      1.54      0.00
  -26   12    5     -1.64      0.00
  -24   12    5     -9.51      0.00
  -22   12    5     -0.65      0.00
  -20   12    5    -10.59      0.00
  -18   12    5     -2.82      0.00
  -16   12    5      7.79      0.00
  -14   12    5      7.11      0.00
  -12   12    5     14.37      0.00
  -10   12    5      7.98      0.00
   -8   12    5    -14.83      0.00
   -6   12    5     -9.65      0.00
   -4   12    5      3.57      0.00
   -2   12    5     -0.71      0.00
    0   12    5     -3.94      0.00
    2   12    5     11.01      0.00
    4   12    5    -10.55      0.00
    6   12    5      3.28      0.00
    8   12    5    -32.43      0.00
   10   12    5     -0.63      0.00
   12   12    5     -6.19      0.00
   14   12    5     -6.84      0.00
   16   12    5     11.00      0.00
   18   12    5     -4.32      0.00
   20   12    5      0.59      0.00
   22   12    5     10.67      0.00
   24   12    5      8.22      0.00
   26   12    5     -0.84      0.00
   28   12    5      8.77      0.00
   30   12    5     -3.89      0.00
   32   12    5      2.62      0.00
   34   12    5      0.75      0.00
   36   12    5     -1.24      0.00
  -39   13    5     -9.25      0.00
  -37   13    5      2.54      0.00
  -35   13    5      0.65      0.00
  -33   13    5     -6.88      0.00
  -31   13    5      7.28      0.00
  -29   13    5     -1.67      0.00
  -27   13    5     -3.18      0.00
  -25   13    5     -0.13      0.00
  -23   13    5     -7.43      0.00
  -21   13    5      0.79      0.00
  -19   13    5      6.73      0.00
  -17   13    5    -12.36      0.00
  -15   13    5     11.51      0.00
  -13   13    5     -2.31      0.00
  -11   13    5     -5.26      0.00
   -9   13    5     -2.38      0.00
   -7   13    5    -19.39      0.00
   -5   13    5     -1.41      0.00
   -3   13    5     -4.79      0.00
   -1   13    5    -14.87      0.00
    1   13    5      1.76      0.00
    3   13    5    -13.87      0.00
    5   13    5     -0.26      0.00
    7   13    5     -6.92      0.00
    9   13    5     -5.35      0.00
   11   13    5     -7.65      0.00
   13   13    5    -14.01      0.00
   15   13    5     -9.93      0.00
   17   13    5      1.00      0.00
   19   13    5      3.32      0.00
   21   13    5     -6.62      0.00
   23   13    5      6.76      0.00
   25   13    5      4.10      0.00
   27   13    5     -8.58      0.00
   29   13    5      1.23      0.00
   31   13    5      0.25      0.00
   33   13    5     -9.56      0.00
   35   13    5      7.85      0.00
  -40   14    5     -9.20      0.00
  -38   14    5     -3.87      0.00
  -36   14    5      7.47      0.00
  -34   14    5     -7.93      0.00
  -32   14    5     12.66      0.00
  -30   14    5      3.04      0.00
  -28   14    5      5.74      0.00
  -26   14    5      5.91      0.00
  -24   14    5     -6.98      0.00
  -22   14    5     28.06      0.00
  -20   14    5      4.88      0.00
  -18   14    5      7.47      0.00
  -16   14    5    -13.45      0.00
  -14   14    5     -9.04      0.00
  -12   14    5     -9.52      0.00
  -10   14    5     -4.14      0.00
   -8   14    5     -0.91      0.00
   -6   14    5      1.50      0.00
   -4   14    5     17.02      0.00
   -2   14    5    -11.15      0.00
    0   14    5     -3.48      0.00
    2   14    5      8.47      0.00
    4   14    5    -10.15      0.00
    6   14    5     22.16      0.00
    8   14    5     -4.16      0.00
   10   14    5     21.26      0.00
   12   14    5     -4.62      0.00
   14   14    5     -6.71      0.00
   16   14    5      7.88      0.00
   18   14    5     -5.63      0.00
   20   14    5      0.03      0.00
   22   14    5     -0.65      0.00
   24   14    5     -7.64      0.00
   26   14    5     -4.83      0.00
   28   14    5      1.79      0.00
   30   14    5     -7.49      0.00
   32   14    5     -3.05      0.00
   34   14    5     -3.44      0.00
  -39   15    5     -0.44      0.00
  -37   15    5      8.03      0.00
  -35   15    5      1.68      0.00
  -33   15    5     -5.64      0.00
  -31   15    5     12.91      0.00
  -29   15    5      2.19      0.00
  -27   15    5     -0.46      0.00
  -25   15    5      2.27      0.00
  -23   15    5     -3.19      0.00
  -21   15    5      5.08      0.00
  -19   15    5     -0.58      0.00
  -17   15    5     -3.35      0.00
  -15   15    5     -3.48      0.00
  -13   15    5     -5.85      0.00
  -11   15    5      3.32      0.00
   -9   15    5     18.45      0.00
   -7   15    5      4.04      0.00
   -5   15    5     11.51      0.00
   -3   15    5     14.01      0.00
   -1   15    5      6.82      0.00
    1   15    5     15.14      0.00
    3   15    5     11.22      0.00
    5   15    5      2.03      0.00
    7   15    5      7.42      0.00
    9   15    5     -4.68      0.00
   11   15    5     17.47      0.00
   13   15    5      4.59      0.00
   15   15    5      6.37      0.00
   17   15    5      4.61      0.00
   19   15    5      1.38      0.00
   21   15    5     -5.61      0.00
   23   15    5      5.09      0.00
   25   15    5      9.97      0.00
   27   15    5      2.28      0.00
   29   15    5     -2.17      0.00
   31   15    5      2.98      0.00
   33   15    5     -9.47      0.00
  -38   16    5      5.95      0.00
  -36   16    5      5.58      0.00
  -34   16    5     -6.47      0.00
  -32   16    5      0.49      0.00
  -30   16    5     -2.48      0.00
  -28   16    5      1.94      0.00
  -26   16    5      3.09      0.00
  -24   16    5    -17.34      0.00
  -22   16    5     -1.72      0.00
  -20   16    5    -10.87      0.00
  -18   16    5     -0.15      0.00
  -16   16    5     -1.93      0.00
  -14   16    5      7.27      0.00
  -12   16    5      9.42      0.00
  -10   16    5     -1.50      0.00
   -8   16    5     -1.79      0.00
   -6   16    5    -10.07      0.00
   -4   16    5      5.70      0.00
   -2   16    5     -2.72      0.00
    0   16    5     -1.75      0.00
    2   16    5      4.70      0.00
    4   16    5     -5.56      0.00
    6   16    5      7.35      0.00
    8   16    5    -14.28      0.00
   10   16    5      6.77      0.00
   12   16    5     -1.39      0.00
   14   16    5     -1.87      0.00
   16   16    5      9.48      0.00
   18   16    5     -6.31      0.00
   20   16    5      0.92      0.00
   22   16    5      3.01      0.00
   24   16    5     -4.29      0.00
   26   16    5      4.48      0.00
   28   16    5     -1.17      0.00
   30   16    5      2.66      0.00
   32   16    5      4.51      0.00
   34   16    5      0.94      0.00
  -37   17    5      1.04      0.00
  -35   17    5      0.42      0.00
  -33   17    5     -6.77      0.00
  -31   17    5      1.59      0.00
  -29   17    5     -3.01      0.00
  -27   17    5      1.87      0.00
  -25   17    5    -10.30      0.00
  -23   17    5      5.75      0.00
  -21   17    5      4.05      0.00
  -19   17    5     -1.02      0.00
  -17   17    5      4.25      0.00
  -15   17    5     -2.53      0.00
  -13   17    5     10.96      0.00
  -11   17    5     -0.50      0.00
   -9   17    5      2.50      0.00
   -7   17    5    -13.55      0.00
   -5   17    5    -12.59      0.00
   -3   17    5    -10.81      0.00
   -1   17    5    -10.16      0.00
    1   17    5    -16.46      0.00
    3   17    5      1.89      0.00
    5   17    5     -5.39      0.00
    7   17    5      6.27      0.00
    9   17    5     -8.88      0.00
   11   17    5      5.19      0.00
   13   17    5     -7.52      0.00
   15   17    5     -3.17      0.00
   17   17    5     -0.67      0.00
   19   17    5      1.43      0.00
   21   17    5     -7.37      0.00
   23   17    5     -7.21      0.00
   25   17    5     -2.07      0.00
   27   17    5     -2.79      0.00
   29   17    5      0.48      0.00
   31   17    5      7.75      0.00
   33   17    5     -1.27      0.00
  -36   18    5     -1.43      0.00
  -34   18    5     -0.32      0.00
  -32   18    5     -6.28      0.00
  -30   18    5     -1.17      0.00
  -28   18    5     -3.66      0.00
  -26   18    5    -10.01      0.00
  -24   18    5     -0.54      0.00
  -22   18    5      1.01      0.00
  -20   18    5      7.85      0.00
  -18   18    5     -1.80      0.00
  -16   18    5      7.44      0.00
  -14   18    5     -1.86      0.00
  -12   18    5      4.26      0.00
  -10   18    5     -8.02      0.00
   -8   18    5      4.23      0.00
   -6   18    5      9.71      0.00
   -4   18    5     -1.07      0.00
   -2   18    5      3.14      0.00
    0   18    5     -4.06      0.00
    2   18    5     -2.10      0.00
    4   18    5     -6.19      0.00
    6   18    5     -1.61      0.00
    8   18    5      6.18      0.00
   10   18    5     -0.50      0.00
   12   18    5     -4.15      0.00
   14   18    5     -9.79      0.00
   16   18    5      6.54      0.00
   18   18    5     -4.86      0.00
   20   18    5      0.99      0.00
   22   18    5      9.38      0.00
   24   18    5     -2.18      0.00
   26   18    5      6.87      0.00
   28   18    5      0.69      0.00
   30   18    5     -1.43      0.00
   32   18    5      0.35      0.00
  -37   19    5      3.28      0.00
  -35   19    5     -1.78      0.00
  -33   19    5     -5.71      0.00
  -31   19    5      5.64      0.00
  -29   19    5      1.66      0.00
  -27   19    5     -0.72      0.00
  -25   19    5     -7.15      0.00
  -23   19    5      9.65      0.00
  -21   19    5     -5.55      0.00
  -19   19    5     -3.44      0.00
  -17   19    5      0.83      0.00
  -15   19    5     -8.74      0.00
  -13   19    5      2.95      0.00
  -11   19    5     -6.24      0.00
   -9   19    5      4.08      0.00
   -7   19    5     -5.64      0.00
   -5   19    5      3.91      0.00
   -3   19    5     12.52      0.00
   -1   19    5     18.08      0.00
    1   19    5     -4.59      0.00
    3   19    5      4.17      0.00
    5   19    5     -4.56      0.00
    7   19    5     -2.72      0.00
    9   19    5      2.20      0.00
   11   19    5      0.11      0.00
   13   19    5     -6.48      0.00
   15   19    5      0.68      0.00
   17   19    5      3.29      0.00
   19   19    5      7.09      0.00
   21   19    5      1.63      0.00
   23   19    5      0.11      0.00
   25   19    5      5.53      0.00
   27   19    5     -4.54      0.00
   29   19    5     -2.55      0.00
   31   19    5     -0.49      0.00
  -36   20    5      1.36      0.00
  -34   20    5      5.61      0.00
  -32   20    5     -6.74      0.00
  -30   20    5      7.22      0.00
  -28   20    5     11.78      0.00
  -26   20    5      6.28      0.00
  -24   20    5     11.66      0.00
  -22   20    5     -1.57      0.00
  -20   20    5      1.83      0.00
  -18   20    5    -13.88      0.00
  -16   20    5      1.88      0.00
  -14   20    5     -9.91      0.00
  -12   20    5     13.12      0.00
  -10   20    5     -1.01      0.00
   -8   20    5     -6.55      0.00
   -6   20    5      6.27      0.00
   -4   20    5     -6.78      0.00
   -2   20    5      7.87      0.00
    0   20    5     -2.61      0.00
    2   20    5      2.61      0.00
    4   20    5      4.23      0.00
    6   20    5     -7.31      0.00
    8   20    5      6.47      0.00
   10   20    5     -0.02      0.00
   12   20    5     11.76      0.00
   14   20    5     -2.83      0.00
   16   20    5      9.64      0.00
   18   20    5     -1.42      0.00
   20   20    5    -10.30      0.00
   22   20    5     -0.03      0.00
   24   20    5     -5.35      0.00
   26   20    5     -2.74      0.00
   28   20    5      0.54      0.00
   30   20    5     -2.85      0.00
  -35   21    5      0.05      0.00
  -33   21    5     -1.50      0.00
  -31   21    5      4.33      0.00
  -29   21    5      3.69      0.00
  -27   21    5     -4.30      0.00
  -25   21    5      1.04      0.00
  -23   21    5      1.08      0.00
  -21   21    5      1.07      0.00
  -19   21    5      2.82      0.00
  -17   21    5     -0.51      0.00
  -15   21    5     -0.49      0.00
  -13   21    5      2.75      0.00
  -11   21    5      0.56      0.00
   -9   21    5      8.27      0.00
   -7   21    5     -2.04      0.00
   -5   21    5     -0.56      0.00
   -3   21    5      1.03      0.00
   -1   21    5      0.85      0.00
    1   21    5     -7.05      0.00
    3   21    5      7.60      0.00
    5   21    5      9.33      0.00
    7   21    5     -8.78      0.00
    9   21    5      5.41      0.00
   11   21    5      1.36      0.00
   13   21    5      3.99      0.00
   15   21    5      0.80      0.00
   17   21    5     -1.22      0.00
   19   21    5     -2.31      0.00
   21   21    5      0.36      0.00
   23   21    5     -1.19      0.00
   25   21    5      0.55      0.00
   27   21    5     -0.57      0.00
   29   21    5      3.31      0.00
  -34   22    5      3.87      0.00
  -32   22    5     -4.42      0.00
  -30   22    5      3.47      0.00
  -28   22    5     -5.41      0.00
  -26   22    5     -9.02      0.00
  -24   22    5     -5.89      0.00
  -22   22    5     -0.57      0.00
  -20   22    5      2.99      0.00
  -18   22    5      3.62      0.00
  -16   22    5     15.18      0.00
  -14   22    5     -9.94      0.00
  -12   22    5      2.47      0.00
  -10   22    5     -9.89      0.00
   -8   22    5    -10.29      0.00
   -6   22    5     10.42      0.00
   -4   22    5     -8.72      0.00
   -2   22    5      3.01      0.00
    0   22    5      3.04      0.00
    2   22    5      1.71      0.00
    4   22    5     -0.87      0.00
    6   22    5     -0.33      0.00
    8   22    5      3.92      0.00
   10   22    5     -9.01      0.00
   12   22    5     -1.78      0.00
   14   22    5    -14.13      0.00
   16   22    5      0.43      0.00
   18   22    5      2.49      0.00
   20   22    5      1.89      0.00
   22   22    5      6.35      0.00
   24   22    5     -0.85      0.00
   26   22    5     -0.56      0.00
   28   22    5      4.33      0.00
  -33   23    5     -4.58      0.00
  -31   23    5      4.02      0.00
  -29   23    5      2.11      0.00
  -27   23    5     -8.66      0.00
  -25   23    5      5.26      0.00
  -23   23    5     -0.96      0.00
  -21   23    5      0.72      0.00
  -19   23    5     -2.66      0.00
  -17   23    5     -1.95      0.00
  -15   23    5      5.08      0.00
  -13   23    5     -1.46      0.00
  -11   23    5      3.76      0.00
   -9   23    5      1.30      0.00
   -7   23    5    -10.32      0.00
   -5   23    5    -11.07      0.00
   -3   23    5     -2.08      0.00
   -1   23    5     -3.35      0.00
    1   23    5     -5.21      0.00
    3   23    5     -3.30      0.00
    5   23    5      5.40      0.00
    7   23    5    -13.48      0.00
    9   23    5      7.53      0.00
   11   23    5     -5.65      0.00
   13   23    5     -3.93      0.00
   15   23    5     -4.96      0.00
   17   23    5      7.42      0.00
   19   23    5     -3.07      0.00
   21   23    5     -3.71      0.00
   23   23    5      0.86      0.00
   25   23    5     -1.23      0.00
   27   23    5      3.71      0.00
  -32   24    5     -2.71      0.00
  -30   24    5     -0.42      0.00
  -28   24    5     -1.71      0.00
  -26   24    5     -0.06      0.00
  -24   24    5      3.26      0.00
  -22   24    5      4.04      0.00
  -20   24    5     -5.15      0.00
  -18   24    5     -5.73      0.00
  -16   24    5      3.10      0.00
  -14   24    5     -9.34      0.00
  -12   24    5     11.35      0.00
  -10   24    5      7.08      0.00
   -8   24    5     -6.30      0.00
   -6   24    5      8.79      0.00
   -4   24    5     -4.75      0.00
   -2   24    5     -0.12      0.00
    0   24    5     -1.98      0.00
    2   24    5     -6.20      0.00
    4   24    5     -4.31      0.00
    6   24    5     -0.79      0.00
    8   24    5     -1.99      0.00
   10   24    5      3.50      0.00
   12   24    5     12.31      0.00
   14   24    5     -0.27      0.00
   16   24    5      3.06      0.00
   18   24    5     -3.31      0.00
   20   24    5     -3.96      0.00
   22   24    5      3.19      0.00
   24   24    5      0.09      0.00
   26   24    5     -0.73      0.00
  -31   25    5      3.42      0.00
  -29   25    5     -1.11      0.00
  -27   25    5     -4.68      0.00
  -25   25    5      4.99      0.00
  -23   25    5      2.71      0.00
  -21   25    5     -4.04      0.00
  -19   25    5     -5.41      0.00
  -17   25    5      0.21      0.00
  -15   25    5     -1.06      0.00
  -13   25    5     -2.63      0.00
  -11   25    5     -1.49      0.00
   -9   25    5      1.36      0.00
   -7   25    5      0.67      0.00
   -5   25    5      8.83      0.00
   -3   25    5     13.55      0.00
   -1   25    5      3.47      0.00
    1   25    5     -2.17      0.00
    3   25    5     -2.87      0.00
    5   25    5     16.79      0.00
    7   25    5    -11.11      0.00
    9   25    5      7.54      0.00
   11   25    5     -1.48      0.00
   13   25    5     -0.39      0.00
   15   25    5     -2.99      0.00
   17   25    5      6.41      0.00
   19   25    5      3.90      0.00
   21   25    5      1.07      0.00
   23   25    5      3.16      0.00
   25   25    5     -7.39      0.00
  -30   26    5     -2.23      0.00
  -28   26    5      3.35      0.00
  -26   26    5     -0.67      0.00
  -24   26    5      2.90      0.00
  -22   26    5      3.13      0.00
  -20   26    5     -2.03      0.00
  -18   26    5     -2.91      0.00
  -16   26    5      5.06      0.00
  -14   26    5     -3.90      0.00
  -12   26    5      4.45      0.00
  -10   26    5     -2.57      0.00
   -8   26    5     -5.39      0.00
   -6   26    5     11.04      0.00
   -4   26    5     -2.93      0.00
   -2   26    5      0.22      0.00
    0   26    5      5.71      0.00
    2   26    5      0.32      0.00
    4   26    5      3.24      0.00
    6   26    5      3.54      0.00
    8   26    5     -1.02      0.00
   10   26    5     -1.61      0.00
   12   26    5     -0.23      0.00
   14   26    5     -2.94      0.00
   16   26    5      1.41      0.00
   18   26    5      1.62      0.00
   20   26    5     -2.20      0.00
   22   26    5     -0.18      0.00
   24   26    5     -2.73      0.00
  -27   27    5     -2.35      0.00
  -25   27    5     -1.70      0.00
  -23   27    5      3.91      0.00
  -21   27    5     -3.69      0.00
  -19   27    5      4.15      0.00
  -17   27    5      8.81      0.00
  -15   27    5     -6.13      0.00
  -13   27    5      7.65      0.00
  -11   27    5     -3.44      0.00
   -9   27    5      3.64      0.00
   -7   27    5     -3.18      0.00
   -5   27    5     -5.11      0.00
   -3   27    5    -10.19      0.00
   -1   27    5     -2.96      0.00
    1   27    5      1.32      0.00
    3   27    5      0.85      0.00
    5   27    5      8.78      0.00
    7   27    5    -16.14      0.00
    9   27    5      0.42      0.00
   11   27    5      6.09      0.00
   13   27    5      0.23      0.00
   15   27    5      2.41      0.00
   17   27    5     -1.78      0.00
   19   27    5     -2.69      0.00
   21   27    5     -5.92      0.00
   23   27    5      1.80      0.00
  -26   28    5     -5.12      0.00
  -24   28    5     -0.81      0.00
  -22   28    5      2.84      0.00
  -20   28    5     -3.16      0.00
  -18   28    5     -0.19      0.00
  -16   28    5      3.07      0.00
  -14   28    5     -9.86      0.00
  -12   28    5      2.07      0.00
  -10   28    5     -2.59      0.00
   -8   28    5     -1.89      0.00
   -6   28    5     -2.16      0.00
   -4   28    5     -3.08      0.00
   -2   28    5      2.37      0.00
    0   28    5      3.52      0.00
    2   28    5     -3.08      0.00
    4   28    5      0.61      0.00
    6   28    5     -1.76      0.00
    8   28    5     -3.42      0.00
   10   28    5      0.75      0.00
   12   28    5      0.19      0.00
   14   28    5      1.30      0.00
   16   28    5      0.73      0.00
   18   28    5      1.00      0.00
   20   28    5     -4.92      0.00
   22   28    5      2.97      0.00
  -25   29    5      1.20      0.00
  -23   29    5      9.18      0.00
  -21   29    5     -7.72      0.00
  -19   29    5     -1.34      0.00
  -17   29    5      3.11      0.00
  -15   29    5     -6.95      0.00
  -13   29    5      6.97      0.00
  -11   29    5     -4.12      0.00
   -9   29    5      0.14      0.00
   -7   29    5      1.45      0.00
   -5   29    5      4.31      0.00
   -3   29    5      3.68      0.00
   -1   29    5      6.23      0.00
    1   29    5     -8.99      0.00
    3   29    5      2.43      0.00
    5   29    5      8.57      0.00
    7   29    5      0.70      0.00
    9   29    5     -6.41      0.00
   11   29    5      1.79      0.00
   13   29    5     -8.30      0.00
   15   29    5      1.35      0.00
   17   29    5      4.61      0.00
   19   29    5      3.27      0.00
  -22   30    5      3.51      0.00
  -20   30    5     -0.98      0.00
  -18   30    5      1.37      0.00
  -16   30    5      5.97      0.00
  -14   30    5      0.91      0.00
  -12   30    5      5.60      0.00
  -10   30    5     -4.22      0.00
   -8   30    5      5.65      0.00
   -6   30    5      2.31      0.00
   -4   30    5      3.02      0.00
   -2   30    5     -7.68      0.00
    0   30    5     -3.74      0.00
    2   30    5     -3.65      0.00
    4   30    5      1.49      0.00
    6   30    5      3.95      0.00
    8   30    5      0.02      0.00
   10   30    5      2.74      0.00
   12   30    5     -1.21      0.00
   14   30    5     -3.83      0.00
   16   30    5      1.14      0.00
   18   30    5      6.08      0.00
  -21   31    5     -4.63      0.00
  -19   31    5      1.43      0.00
  -17   31    5     -2.76      0.00
  -15   31    5     -1.94      0.00
  -13   31    5      5.13      0.00
  -11   31    5      2.10      0.00
   -9   31    5     -6.70      0.00
   -7   31    5      5.55      0.00
   -5   31    5     -1.25      0.00
   -3   31    5     -9.56      0.00
   -1   31    5      0.94      0.00
    1   31    5     -3.71      0.00
    3   31    5      6.00      0.00
    5   31    5     -2.53      0.00
    7   31    5      1.72      0.00
    9   31    5     -3.53      0.00
   11   31    5      6.00      0.00
   13   31    5      2.25      0.00
   15   31    5     -0.38      0.00
  -18   32    5      0.55      0.00
  -16   32    5     -0.53      0.00
  -14   32    5     -4.81      0.00
  -12   32    5     -2.46      0.00
  -10   32    5      0.64      0.00
   -8   32    5     -0.10      0.00
   -6   32    5     -6.52      0.00
   -4   32    5      5.45      0.00
   -2   32    5      2.24      0.00
    0   32    5      9.15      0.00
    2   32    5     -0.83      0.00
    4   32    5     -2.53      0.00
    6   32    5      0.32      0.00
    8   32    5     -4.11      0.00
   10   32    5     -1.50      0.00
   12   32    5      3.36      0.00
   14   32    5     -2.13      0.00
  -15   33    5      2.43      0.00
  -13   33    5     -5.46      0.00
  -11   33    5      1.53      0.00
   -9   33    5     -4.65      0.00
   -7   33    5      2.54      0.00
   -5   33    5      0.35      0.00
   -3   33    5      1.20      0.00
   -1   33    5      4.70      0.00
    1   33    5     -3.27      0.00
    3   33    5      1.95      0.00
    5   33    5     -0.85      0.00
    7   33    5     -4.10      0.00
    9   33    5     -4.04      0.00
   11   33    5     -2.61      0.00
  -12   34    5     -2.12      0.00
  -10   34    5      3.44      0.00
   -8   34    5      0.70      0.00
   -6   34    5      1.93      0.00
   -4   34    5      1.12      0.00
   -2   34    5     -6.55      0.00
    0   34    5     -1.53      0.00
    2   34    5     -3.17      0.00
    4   34    5      0.97      0.00
    6   34    5      3.82      0.00
   -5   35    5      1.02      0.00
   -3   35    5     -4.36      0.00
   -1   35    5     -0.33      0.00
  -42    0    6      4.08      0.00
  -40    0    6     -1.20      0.00
  -38    0    6     -3.89      0.00
  -36    0    6      7.63      0.00
  -34    0    6      9.54      0.00
  -32    0    6    -11.79      0.00
  -30    0    6     12.40      0.00
  -28    0    6      7.90      0.00
  -26    0    6      1.68      0.00
  -24    0    6      1.50      0.00
  -22    0    6      6.61      0.00
  -20    0    6     -5.11      0.00
  -18    0    6     10.53      0.00
  -16    0    6     -0.56      0.00
  -14    0    6     -7.81      0.00
  -12    0    6      2.43      0.00
  -10    0    6     -1.45      0.00
   -8    0    6      6.35      0.00
   -6    0    6     25.67      0.00
   -4    0    6     21.62      0.00
   -2    0    6     17.90      0.00
    0    0    6     38.40      0.00
    2    0    6      2.73      0.00
    4    0    6     -1.65      0.00
    6    0    6    -10.95      0.00
    8    0    6     -7.15      0.00
   10    0    6     -7.74      0.00
   12    0    6      0.78      0.00
   14    0    6     -8.12      0.00
   16    0    6     11.73      0.00
   18    0    6      5.47      0.00
   20    0    6      5.80      0.00
   22    0    6     10.00      0.00
   24    0    6      3.38      0.00
   26    0    6     -4.60      0.00
   28    0    6      5.51      0.00
   30    0    6      6.58      0.00
   32    0    6     -0.70      0.00
   34    0    6     -2.11      0.00
   36    0    6      2.87      0.00
  -41    1    6     -3.07      0.00
  -39    1    6      0.92      0.00
  -37    1    6      3.03      0.00
  -35    1    6     -2.13      0.00
  -33    1    6      9.00      0.00
  -31    1    6     -3.71      0.00
  -29    1    6      8.84      0.00
  -27    1    6     -8.20      0.00
  -25    1    6     10.68      0.00
  -23    1    6     -1.78      0.00
  -21    1    6      4.14      0.00
  -19    1    6     -4.71      0.00
  -17    1    6      4.71      0.00
  -15    1    6    -12.58      0.00
  -13    1    6      3.07      0.00
  -11    1    6     -7.54      0.00
   -9    1    6     -5.06      0.00
   -7    1    6     21.53      0.00
   -5    1    6    -21.37      0.00
   -3    1    6    -14.92      0.00
   -1    1    6     32.47      0.00
    1    1    6    -11.03      0.00
    3    1    6     -3.79      0.00
    5    1    6     -1.46      0.00
    7    1    6      4.90      0.00
    9    1    6      5.98      0.00
   11    1    6      1.26      0.00
   13    1    6     -4.32      0.00
   15    1    6     -0.74      0.00
   17    1    6      5.13      0.00
   19    1    6     -5.05      0.00
   21    1    6      4.58      0.00
   23    1    6     -9.39      0.00
   25    1    6     -0.79      0.00
   27    1    6     -2.73      0.00
   29    1    6      1.25      0.00
   31    1    6     -5.15      0.00
   33    1    6      3.55      0.00
   35    1    6     -1.36      0.00
  -42    2    6     -0.41      0.00
  -40    2    6      0.36      0.00
  -38    2    6      1.27      0.00
  -36    2    6     -3.50      0.00
  -34    2    6     -0.38      0.00
  -32    2    6     -7.88      0.00
  -30    2    6     -0.15      0.00
  -28    2    6     -1.48      0.00
  -26    2    6     -8.03      0.00
  -24    2    6      3.17      0.00
  -22    2    6     -0.13      0.00
  -20    2    6    -12.22      0.00
  -18    2    6      9.57      0.00
  -16    2    6     -4.32      0.00
  -14    2    6      2.50      0.00
  -12    2    6      7.27      0.00
  -10    2    6      6.37      0.00
   -8    2    6    -18.54      0.00
   -6    2    6     -8.13      0.00
   -4    2    6    -20.74      0.00
   -2    2    6    -27.77      0.00
    0    2    6     -4.45      0.00
    2    2    6    -25.18      0.00
    4    2    6     12.69      0.00
    6    2    6      5.41      0.00
    8    2    6      8.12      0.00
   10    2    6      0.02      0.00
   12    2    6     15.42      0.00
   14    2    6     -7.02      0.00
   16    2    6     -0.55      0.00
   18    2    6     -0.62      0.00
   20    2    6    -11.09      0.00
   22    2    6     -3.47      0.00
   24    2    6     -3.66      0.00
   26    2    6     -2.86      0.00
   28    2    6      0.73      0.00
   30    2    6     -0.84      0.00
   32    2    6      0.04      0.00
   34    2    6     -2.39      0.00
   36    2    6     -0.20      0.00
  -41    3    6      1.03      0.00
  -39    3    6     -0.15      0.00
  -37    3    6     -0.73      0.00
  -35    3    6     -3.13      0.00
  -33    3    6     -7.39      0.00
  -31    3    6     -2.37      0.00
  -29    3    6     -2.13      0.00
  -27    3    6     -6.25      0.00
  -25    3    6      1.60      0.00
  -23    3    6     -2.06      0.00
  -21    3    6     -2.42      0.00
  -19    3    6      6.24      0.00
  -17    3    6      1.28      0.00
  -15    3    6     -1.74      0.00
  -13    3    6     14.70      0.00
  -11    3    6     -1.30      0.00
   -9    3    6     -3.14      0.00
   -7    3    6     30.36      0.00
   -5    3    6    -17.10      0.00
   -3    3    6    -11.84      0.00
   -1    3    6     27.34      0.00
    1    3    6    -18.92      0.00
    3    3    6     -5.71      0.00
    5    3    6      2.78      0.00
    7    3    6     -9.99      0.00
    9    3    6      2.03      0.00
   11    3    6      0.11      0.00
   13    3    6     -9.75      0.00
   15    3    6      2.63      0.00
   17    3    6      3.75      0.00
   19    3    6      0.70      0.00
   21    3    6      6.37      0.00
   23    3    6      1.30      0.00
   25    3    6      5.16      0.00
   27    3    6      8.25      0.00
   29    3    6      6.59      0.00
   31    3    6     -3.66      0.00
   33    3    6      1.07      0.00
   35    3    6     -2.90      0.00
  -42    4    6      4.73      0.00
  -40    4    6     -3.74      0.00
  -38    4    6     -0.81      0.00
  -36    4    6      3.44      0.00
  -34    4    6      1.73      0.00
  -32    4    6     -0.15      0.00
  -30    4    6     -3.23      0.00
  -28    4    6     13.97      0.00
  -26    4    6     -7.12      0.00
  -24    4    6      5.76      0.00
  -22    4    6      1.92      0.00
  -20    4    6     -8.79      0.00
  -18    4    6      5.93      0.00
  -16    4    6    -10.79      0.00
  -14    4    6      6.85      0.00
  -12    4    6    -12.73      0.00
  -10    4    6      1.15      0.00
   -8    4    6    -12.73      0.00
   -6    4    6     16.81      0.00
   -4    4    6      1.73      0.00
   -2    4    6      1.65      0.00
    0    4    6     27.32      0.00
    2    4    6    -14.26      0.00
    4    4    6      1.86      0.00
    6    4    6    -10.94      0.00
    8    4    6      7.70      0.00
   10    4    6    -15.15      0.00
   12    4    6      2.28      0.00
   14    4    6    -10.45      0.00
   16    4    6     -0.44      0.00
   18    4    6      6.68      0.00
   20    4    6     -7.39      0.00
   22    4    6      8.65      0.00
   24    4    6     -0.66      0.00
   26    4    6     -2.97      0.00
   28    4    6      3.26      0.00
   30    4    6      0.22      0.00
   32    4    6     -4.21      0.00
   34    4    6     -0.65      0.00
   36    4    6      0.39      0.00
  -41    5    6     -0.66      0.00
  -39    5    6     -2.08      0.00
  -37    5    6      6.63      0.00
  -35    5    6      4.72      0.00
  -33    5    6     -0.80      0.00
  -31    5    6     11.08      0.00
  -29    5    6     -6.85      0.00
  -27    5    6     -2.42      0.00
  -25    5    6      7.03      0.00
  -23    5    6     -0.16      0.00
  -21    5    6    -17.68      0.00
  -19    5    6     12.17      0.00
  -17    5    6     -7.94      0.00
  -15    5    6     -8.59      0.00
  -13    5    6      9.06      0.00
  -11    5    6     -4.09      0.00
   -9    5    6     -3.01      0.00
   -7    5    6     13.46      0.00
   -5    5    6    -22.81      0.00
   -3    5    6      0.00      0.00
   -1    5    6     24.16      0.00
    1    5    6     -4.60      0.00
    3    5    6     -4.75      0.00
    5    5    6     14.77      0.00
    7    5    6    -11.47      0.00
    9    5    6      9.10      0.00
   11    5    6     10.44      0.00
   13    5    6    -14.99      0.00
   15    5    6      5.25      0.00
   17    5    6     -4.28      0.00
   19    5    6     -2.72      0.00
   21    5    6      1.74      0.00
   23    5    6     -2.95      0.00
   25    5    6     -9.14      0.00
   27    5    6     -1.67      0.00
   29    5    6     -5.59      0.00
   31    5    6     -3.77      0.00
   33    5    6      4.81      0.00
   35    5    6      1.26      0.00
  -42    6    6      0.51      0.00
  -40    6    6      0.70      0.00
  -38    6    6     -1.42      0.00
  -36    6    6      5.45      0.00
  -34    6    6     -5.85      0.00
  -32    6    6      2.27      0.00
  -30    6    6     -3.31      0.00
  -28    6    6      1.79      0.00
  -26    6    6     -3.94      0.00
  -24    6    6      3.12      0.00
  -22    6    6      2.73      0.00
  -20    6    6     -4.81      0.00
  -18    6    6      3.84      0.00
  -16    6    6     -4.56      0.00
  -14    6    6      9.29      0.00
  -12    6    6      4.24      0.00
  -10    6    6     12.30      0.00
   -8    6    6      5.84      0.00
   -6    6    6     10.85      0.00
   -4    6    6      0.62      0.00
   -2    6    6     -0.60      0.00
    0    6    6     17.57      0.00
    2    6    6      1.34      0.00
    4    6    6      4.10      0.00
    6    6    6      7.43      0.00
    8    6    6      7.32      0.00
   10    6    6     -7.44      0.00
   12    6    6     10.67      0.00
   14    6    6     -7.47      0.00
   16    6    6      0.91      0.00
   18    6    6     11.23      0.00
   20    6    6      1.80      0.00
   22    6    6      0.62      0.00
   24    6    6      2.96      0.00
   26    6    6      0.64      0.00
   28    6    6      1.72      0.00
   30    6    6      4.65      0.00
   32    6    6     -1.00      0.00
   34    6    6      4.66      0.00
   36    6    6     -2.82      0.00
  -41    7    6      3.04      0.00
  -39    7    6     -5.54      0.00
  -37    7    6      5.10      0.00
  -35    7    6     -2.44      0.00
  -33    7    6     -5.22      0.00
  -31    7    6      2.32      0.00
  -29    7    6     -1.19      0.00
  -27    7    6      2.67      0.00
  -25    7    6      6.31      0.00
  -23    7    6      6.24      0.00
  -21    7    6     -5.41      0.00
  -19    7    6     20.03      0.00
  -17    7    6    -10.52      0.00
  -15    7    6     -5.88      0.00
  -13    7    6      3.70      0.00
  -11    7    6    -15.81      0.00
   -9    7    6     -1.76      0.00
   -7    7    6      8.80      0.00
   -5    7    6    -14.14      0.00
   -3    7    6      2.62      0.00
   -1    7    6      3.07      0.00
    1    7    6     -3.03      0.00
    3    7    6     -7.79      0.00
    5    7    6     18.23      0.00
    7    7    6    -10.45      0.00
    9    7    6      6.74      0.00
   11    7    6     11.57      0.00
   13    7    6    -14.71      0.00
   15    7    6      9.11      0.00
   17    7    6     -1.24      0.00
   19    7    6     -2.52      0.00
   21    7    6      2.55      0.00
   23    7    6     -2.52      0.00
   25    7    6     -3.63      0.00
   27    7    6      9.63      0.00
   29    7    6      2.15      0.00
   31    7    6     -1.91      0.00
   33    7    6     -0.50      0.00
   35    7    6     -0.94      0.00
  -40    8    6     -0.36      0.00
  -38    8    6     -7.39      0.00
  -36    8    6      7.96      0.00
  -34    8    6     -4.91      0.00
  -32    8    6     -0.13      0.00
  -30    8    6      1.60      0.00
  -28    8    6     -7.35      0.00
  -26    8    6      1.21      0.00
  -24    8    6     -7.80      0.00
  -22    8    6      1.90      0.00
  -20    8    6      2.96      0.00
  -18    8    6      1.17      0.00
  -16    8    6      2.57      0.00
  -14    8    6      0.10      0.00
  -12    8    6      2.62      0.00
  -10    8    6    -21.48      0.00
   -8    8    6     -9.52      0.00
   -6    8    6     -7.93      0.00
   -4    8    6    -12.01      0.00
   -2    8    6    -14.71      0.00
    0    8    6     -3.93      0.00
    2    8    6     -6.48      0.00
    4    8    6    -28.94      0.00
    6    8    6      7.60      0.00
    8    8    6      1.58      0.00
   10    8    6     -4.33      0.00
   12    8    6     12.81      0.00
   14    8    6      2.09      0.00
   16    8    6      3.71      0.00
   18    8    6     -8.61      0.00
   20    8    6     -4.56      0.00
   22    8    6     -8.91      0.00
   24    8    6     -1.93      0.00
   26    8    6     -2.46      0.00
   28    8    6     -3.81      0.00
   30    8    6      1.38      0.00
   32    8    6     -7.26      0.00
   34    8    6      4.84      0.00
  -41    9    6     -1.15      0.00
  -39    9    6     -6.63      0.00
  -37    9    6      2.40      0.00
  -35    9    6     -1.42      0.00
  -33    9    6     -1.18      0.00
  -31    9    6      0.36      0.00
  -29    9    6     -3.52      0.00
  -27    9    6     -8.90      0.00
  -25    9    6      0.98      0.00
  -23    9    6      1.73      0.00
  -21    9    6    -10.05      0.00
  -19    9    6      9.53      0.00
  -17    9    6      0.72      0.00
  -15    9    6      0.17      0.00
  -13    9    6     11.59      0.00
  -11    9    6      3.87      0.00
   -9    9    6      6.97      0.00
   -7    9    6      9.80      0.00
   -5    9    6     -6.09      0.00
   -3    9    6      4.30      0.00
   -1    9    6      4.80      0.00
    1    9    6     -6.60      0.00
    3    9    6    -10.40      0.00
    5    9    6     -4.26      0.00
    7    9    6    -13.93      0.00
    9    9    6      5.49      0.00
   11    9    6      0.71      0.00
   13    9    6     -9.66      0.00
   15    9    6      6.95      0.00
   17    9    6      1.89      0.00
   19    9    6     -2.33      0.00
   21    9    6     10.42      0.00
   23    9    6      0.10      0.00
   25    9    6     -2.85      0.00
   27    9    6      3.43      0.00
   29    9    6     -1.07      0.00
   31    9    6     -0.92      0.00
   33    9    6      6.64      0.00
   35    9    6      0.61      0.00
  -40   10    6      2.32      0.00
  -38   10    6     -3.55      0.00
  -36   10    6      7.26      0.00
  -34   10    6     -2.55      0.00
  -32   10    6      0.12      0.00
  -30   10    6      6.34      0.00
  -28   10    6      2.42      0.00
  -26   10    6      8.56      0.00
  -24   10    6      2.97      0.00
  -22   10    6      4.15      0.00
  -20   10    6     -0.51      0.00
  -18   10    6    -11.85      0.00
  -16   10    6     -5.21      0.00
  -14   10    6     -5.71      0.00
  -12   10    6     10.67      0.00
  -10   10    6     -3.70      0.00
   -8   10    6     10.37      0.00
   -6   10    6     14.99      0.00
   -4   10    6      4.47      0.00
   -2   10    6      5.26      0.00
    0   10    6     10.71      0.00
    2   10    6     14.13      0.00
    4   10    6     -6.13      0.00
    6   10    6     13.07      0.00
    8   10    6     -4.57      0.00
   10   10    6    -12.88      0.00
   12   10    6     -6.87      0.00
   14   10    6    -14.79      0.00
   16   10    6      0.89      0.00
   18   10    6      5.69      0.00
   20   10    6      4.09      0.00
   22   10    6      5.74      0.00
   24   10    6      4.19      0.00
   26   10    6      4.98      0.00
   28   10    6     -2.83      0.00
   30   10    6      3.14      0.00
   32   10    6     -3.45      0.00
   34   10    6      0.70      0.00
  -39   11    6      1.59      0.00
  -37   11    6      2.02      0.00
  -35   11    6      5.99      0.00
  -33   11    6     -1.09      0.00
  -31   11    6     -1.21      0.00
  -29   11    6      7.02      0.00
  -27   11    6     -2.05      0.00
  -25   11    6      9.76      0.00
  -23   11    6     -5.99      0.00
  -21   11    6     -7.67      0.00
  -19   11    6     -1.01      0.00
  -17   11    6     -0.45      0.00
  -15   11    6    -12.71      0.00
  -13   11    6      5.65      0.00
  -11   11    6     -2.26      0.00
   -9   11    6    -10.01      0.00
   -7   11    6      4.76      0.00
   -5   11    6    -10.78      0.00
   -3   11    6     -0.91      0.00
   -1   11    6     11.25      0.00
    1   11    6     -5.32      0.00
    3   11    6     12.60      0.00
    5   11    6     -0.83      0.00
    7   11    6     -2.78      0.00
    9   11    6      9.78      0.00
   11   11    6      3.46      0.00
   13   11    6     -5.92      0.00
   15   11    6     -1.13      0.00
   17   11    6      3.02      0.00
   19   11    6    -10.50      0.00
   21   11    6      4.86      0.00
   23   11    6     -4.35      0.00
   25   11    6     -2.32      0.00
   27   11    6      1.92      0.00
   29   11    6     -2.04      0.00
   31   11    6     -4.93      0.00
   33   11    6     -0.11      0.00
  -40   12    6     -2.41      0.00
  -38   12    6     -2.99      0.00
  -36   12    6      2.05      0.00
  -34   12    6     -1.51      0.00
  -32   12    6     -1.39      0.00
  -30   12    6     -2.95      0.00
  -28   12    6     -1.33      0.00
  -26   12    6     -6.65      0.00
  -24   12    6     -1.96      0.00
  -22   12    6     -8.86      0.00
  -20   12    6     11.89      0.00
  -18   12    6      7.92      0.00
  -16   12    6      4.61      0.00
  -14   12    6      4.75      0.00
  -12   12    6      5.28      0.00
  -10   12    6     -4.65      0.00
   -8   12    6     -5.54      0.00
   -6   12    6      6.19      0.00
   -4   12    6    -10.52      0.00
   -2   12    6     -5.46      0.00
    0   12    6      2.96      0.00
    2   12    6     -5.80      0.00
    4   12    6     -3.27      0.00
    6   12    6      7.42      0.00
    8   12    6      7.88      0.00
   10   12    6      3.58      0.00
   12   12    6     11.54      0.00
   14   12    6     11.72      0.00
   16   12    6     -2.91      0.00
   18   12    6      5.49      0.00
   20   12    6     -8.23      0.00
   22   12    6      5.73      0.00
   24   12    6     -4.44      0.00
   26   12    6     -3.12      0.00
   28   12    6     -1.31      0.00
   30   12    6      4.17      0.00
   32   12    6     -0.07      0.00
   34   12    6      2.50      0.00
  -39   13    6     -6.66      0.00
  -37   13    6     -0.43      0.00
  -35   13    6      4.55      0.00
  -33   13    6     -1.85      0.00
  -31   13    6      2.28      0.00
  -29   13    6      3.97      0.00
  -27   13    6    -18.85      0.00
  -25   13    6     10.41      0.00
  -23   13    6     -2.17      0.00
  -21   13    6      5.51      0.00
  -19   13    6      9.24      0.00
  -17   13    6      1.41      0.00
  -15   13    6    -10.52      0.00
  -13   13    6      6.62      0.00
  -11   13    6     -7.39      0.00
   -9   13    6    -11.57      0.00
   -7   13    6     13.11      0.00
   -5   13    6     -7.52      0.00
   -3   13    6     -1.63      0.00
   -1   13    6      6.02      0.00
    1   13    6    -10.86      0.00
    3   13    6     11.05      0.00
    5   13    6     -4.26      0.00
    7   13    6      3.52      0.00
    9   13    6      4.31      0.00
   11   13    6      5.03      0.00
   13   13    6    -11.48      0.00
   15   13    6      2.32      0.00
   17   13    6      9.82      0.00
   19   13    6     -9.40      0.00
   21   13    6      7.68      0.00
   23   13    6     -3.32      0.00
   25   13    6     -3.53      0.00
   27   13    6      4.82      0.00
   29   13    6     -0.55      0.00
   31   13    6     -0.36      0.00
   33   13    6      3.81      0.00
  -38   14    6     -3.05      0.00
  -36   14    6     -0.02      0.00
  -34   14    6      1.86      0.00
  -32   14    6      0.43      0.00
  -30   14    6      3.66      0.00
  -28   14    6      0.38      0.00
  -26   14    6     -3.43      0.00
  -24   14    6      4.99      0.00
  -22   14    6    -11.87      0.00
  -20   14    6      7.41      0.00
  -18   14    6     -8.50      0.00
  -16   14    6     -9.97      0.00
  -14   14    6     -0.75      0.00
  -12   14    6     -4.44      0.00
  -10   14    6     -4.60      0.00
   -8   14    6     -5.47      0.00
   -6   14    6     10.00      0.00
   -4   14    6     -4.89      0.00
   -2   14    6     -4.35      0.00
    0   14    6      6.45      0.00
    2   14    6     -8.62      0.00
    4   14    6      1.75      0.00
    6   14    6     -6.07      0.00
    8   14    6     -5.68      0.00
   10   14    6     -6.76      0.00
   12   14    6     -7.94      0.00
   14   14    6      4.77      0.00
   16   14    6    -12.74      0.00
   18   14    6      5.67      0.00
   20   14    6    -10.65      0.00
   22   14    6      0.03      0.00
   24   14    6      4.88      0.00
   26   14    6     -2.85      0.00
   28   14    6     -2.11      0.00
   30   14    6     -0.20      0.00
   32   14    6     -6.32      0.00
  -37   15    6     -1.72      0.00
  -35   15    6     -0.37      0.00
  -33   15    6     -3.94      0.00
  -31   15    6      1.34      0.00
  -29   15    6     -0.60      0.00
  -27   15    6     -5.73      0.00
  -25   15    6     10.19      0.00
  -23   15    6    -10.08      0.00
  -21   15    6     -8.33      0.00
  -19   15    6     15.21      0.00
  -17   15    6     -3.40      0.00
  -15   15    6      2.03      0.00
  -13   15    6     15.10      0.00
  -11   15    6      1.78      0.00
   -9   15    6     -1.48      0.00
   -7   15    6     11.98      0.00
   -5   15    6     -2.34      0.00
   -3   15    6      6.40      0.00
   -1   15    6      5.24      0.00
    1   15    6    -12.64      0.00
    3   15    6      5.03      0.00
    5   15    6     -7.02      0.00
    7   15    6    -10.18      0.00
    9   15    6     -2.89      0.00
   11   15    6      9.67      0.00
   13   15    6    -13.04      0.00
   15   15    6      2.35      0.00
   17   15    6      8.10      0.00
   19   15    6     -5.87      0.00
   21   15    6      3.65      0.00
   23   15    6      1.63      0.00
   25   15    6     -0.22      0.00
   27   15    6      4.32      0.00
   29   15    6     -0.47      0.00
   31   15    6      1.97      0.00
  -38   16    6      0.32      0.00
  -36   16    6      4.69      0.00
  -34   16    6     -0.34      0.00
  -32   16    6     -6.76      0.00
  -30   16    6      1.77      0.00
  -28   16    6     -2.34      0.00
  -26   16    6      4.21      0.00
  -24   16    6      6.58      0.00
  -22   16    6     -7.38      0.00
  -20   16    6      8.75      0.00
  -18   16    6      1.68      0.00
  -16   16    6      2.71      0.00
  -14   16    6      2.47      0.00
  -12   16    6      3.56      0.00
  -10   16    6      4.42      0.00
   -8   16    6      1.22      0.00
   -6   16    6     10.75      0.00
   -4   16    6     -2.69      0.00
   -2   16    6     -0.28      0.00
    0   16    6      8.15      0.00
    2   16    6     -4.99      0.00
    4   16    6      7.20      0.00
    6   16    6      8.80      0.00
    8   16    6      2.16      0.00
   10   16    6     -0.52      0.00
   12   16    6     -2.58      0.00
   14   16    6      7.73      0.00
   16   16    6     -6.85      0.00
   18   16    6      4.65      0.00
   20   16    6      4.75      0.00
   22   16    6     -1.53      0.00
   24   16    6      4.58      0.00
   26   16    6     -2.30      0.00
   28   16    6      0.90      0.00
   30   16    6      7.31      0.00
   32   16    6     -0.84      0.00
  -37   17    6      1.91      0.00
  -35   17    6      5.12      0.00
  -33   17    6     -1.62      0.00
  -31   17    6      6.02      0.00
  -29   17    6     -3.51      0.00
  -27   17    6      1.63      0.00
  -25   17    6      4.42      0.00
  -23   17    6      6.25      0.00
  -21   17    6     -1.65      0.00
  -19   17    6      7.51      0.00
  -17   17    6    -18.12      0.00
  -15   17    6     -5.92      0.00
  -13   17    6     -0.13      0.00
  -11   17    6     -8.49      0.00
   -9   17    6     -2.65      0.00
   -7   17    6      6.20      0.00
   -5   17    6     -2.71      0.00
   -3   17    6     -0.38      0.00
   -1   17    6      0.93      0.00
    1   17    6     -4.94      0.00
    3   17    6      5.27      0.00
    5   17    6      2.88      0.00
    7   17    6     -3.76      0.00
    9   17    6     10.26      0.00
   11   17    6      6.89      0.00
   13   17    6     -8.48      0.00
   15   17    6      2.43      0.00
   17   17    6     -3.69      0.00
   19   17    6     -3.52      0.00
   21   17    6     -0.09      0.00
   23   17    6     -0.73      0.00
   25   17    6     -4.43      0.00
   27   17    6     -0.30      0.00
   29   17    6     -3.49      0.00
   31   17    6     -1.57      0.00
  -36   18    6     -3.05      0.00
  -34   18    6     -0.76      0.00
  -32   18    6      3.78      0.00
  -30   18    6      1.34      0.00
  -28   18    6      0.63      0.00
  -26   18    6     -2.76      0.00
  -24   18    6      0.22      0.00
  -22   18    6     -2.92      0.00
  -20   18    6      0.71      0.00
  -18   18    6      5.97      0.00
  -16   18    6     -2.68      0.00
  -14   18    6     -1.62      0.00
  -12   18    6      0.88      0.00
  -10   18    6     -6.19      0.00
   -8   18    6    -10.71      0.00
   -6   18    6      5.57      0.00
   -4   18    6     -5.18      0.00
   -2   18    6     -3.85      0.00
    0   18    6      3.96      0.00
    2   18    6     -7.65      0.00
    4   18    6     -5.89      0.00
    6   18    6     -0.76      0.00
    8   18    6      0.49      0.00
   10   18    6     -0.09      0.00
   12   18    6      5.05      0.00
   14   18    6      2.90      0.00
   16   18    6     -1.64      0.00
   18   18    6      1.94      0.00
   20   18    6      5.84      0.00
   22   18    6     -2.52      0.00
   24   18    6     -1.17      0.00
   26   18    6      0.18      0.00
   28   18    6     -4.61      0.00
   30   18    6      0.03      0.00
  -35   19    6      2.47      0.00
  -33   19    6     -0.81      0.00
  -31   19    6      2.88      0.00
  -29   19    6     -1.08      0.00
  -27   19    6      0.84      0.00
  -25   19    6     -7.44      0.00
  -23   19    6     -8.25      0.00
  -21   19    6     -5.13      0.00
  -19   19    6      5.91      0.00
  -17   19    6      6.36      0.00
  -15   19    6      5.77      0.00
  -13   19    6      3.42      0.00
  -11   19    6     -1.95      0.00
   -9   19    6     -6.19      0.00
   -7   19    6     -3.70      0.00
   -5   19    6     -4.81      0.00
   -3   19    6      1.47      0.00
   -1   19    6     -4.13      0.00
    1   19    6     -0.03      0.00
    3   19    6      5.45      0.00
    5   19    6      3.31      0.00
    7   19    6     -6.00      0.00
    9   19    6      3.67      0.00
   11   19    6     -0.72      0.00
   13   19    6     -4.62      0.00
   15   19    6     12.36      0.00
   17   19    6      2.52      0.00
   19   19    6     -0.08      0.00
   21   19    6     -1.68      0.00
   23   19    6      0.78      0.00
   25   19    6      1.18      0.00
   27   19    6      1.68      0.00
   29   19    6     -0.98      0.00
  -34   20    6      1.46      0.00
  -32   20    6     -0.94      0.00
  -30   20    6     -4.36      0.00
  -28   20    6     10.31      0.00
  -26   20    6     -8.54      0.00
  -24   20    6      4.69      0.00
  -22   20    6      1.49      0.00
  -20   20    6    -10.59      0.00
  -18   20    6      3.64      0.00
  -16   20    6     -8.58      0.00
  -14   20    6      0.81      0.00
  -12   20    6     -0.68      0.00
  -10   20    6      4.74      0.00
   -8   20    6     -0.73      0.00
   -6   20    6      9.04      0.00
   -4   20    6     -0.55      0.00
   -2   20    6     -5.44      0.00
    0   20    6      6.69      0.00
    2   20    6     -2.09      0.00
    4   20    6      4.88      0.00
    6   20    6     -1.79      0.00
    8   20    6     -0.10      0.00
   10   20    6     -6.42      0.00
   12   20    6      1.21      0.00
   14   20    6     -4.55      0.00
   16   20    6     -6.68      0.00
   18   20    6     -1.66      0.00
   20   20    6     -3.45      0.00
   22   20    6      2.70      0.00
   24   20    6      0.59      0.00
   26   20    6      1.30      0.00
   28   20    6     -0.38      0.00
  -33   21    6      0.29      0.00
  -31   21    6     -2.40      0.00
  -29   21    6     -1.63      0.00
  -27   21    6     -4.06      0.00
  -25   21    6      3.23      0.00
  -23   21    6      4.43      0.00
  -21   21    6      5.52      0.00
  -19   21    6     -1.61      0.00
  -17   21    6      0.44      0.00
  -15   21    6     -6.90      0.00
  -13   21    6     -1.00      0.00
  -11   21    6      7.09      0.00
   -9   21    6      3.07      0.00
   -7   21    6      8.55      0.00
   -5   21    6      3.86      0.00
   -3   21    6      5.27      0.00
   -1   21    6     -1.22      0.00
    1   21    6     -0.31      0.00
    3   21    6     -6.59      0.00
    5   21    6     -8.28      0.00
    7   21    6     -1.14      0.00
    9   21    6      1.72      0.00
   11   21    6      0.17      0.00
   13   21    6     -9.76      0.00
   15   21    6      1.06      0.00
   17   21    6     -6.45      0.00
   19   21    6     -1.10      0.00
   21   21    6      8.12      0.00
   23   21    6      2.67      0.00
   25   21    6     -0.94      0.00
   27   21    6      1.36      0.00
  -32   22    6     -1.51      0.00
  -30   22    6     -3.85      0.00
  -28   22    6      4.45      0.00
  -26   22    6     -7.10      0.00
  -24   22    6      6.82      0.00
  -22   22    6     -0.14      0.00
  -20   22    6     -3.59      0.00
  -18   22    6     10.33      0.00
  -16   22    6      0.20      0.00
  -14   22    6      6.80      0.00
  -12   22    6      3.45      0.00
  -10   22    6      0.07      0.00
   -8   22    6     -9.47      0.00
   -6   22    6      1.22      0.00
   -4   22    6      0.93      0.00
   -2   22    6     -2.76      0.00
    0   22    6      8.44      0.00
    2   22    6     -5.31      0.00
    4   22    6      0.41      0.00
    6   22    6      0.73      0.00
    8   22    6      4.45      0.00
   10   22    6      3.47      0.00
   12   22    6      6.82      0.00
   14   22    6      0.97      0.00
   16   22    6     -2.31      0.00
   18   22    6      7.35      0.00
   20   22    6     -3.55      0.00
   22   22    6     -1.38      0.00
   24   22    6     -0.31      0.00
   26   22    6     -1.67      0.00
  -31   23    6     -0.67      0.00
  -29   23    6      5.52      0.00
  -27   23    6      2.38      0.00
  -25   23    6      1.01      0.00
  -23   23    6     -0.57      0.00
  -21   23    6     -2.82      0.00
  -19   23    6      2.12      0.00
  -17   23    6      3.15      0.00
  -15   23    6     -5.74      0.00
  -13   23    6     -3.40      0.00
  -11   23    6     -4.93      0.00
   -9   23    6     -5.72      0.00
   -7   23    6     -3.28      0.00
   -5   23    6     -2.98      0.00
   -3   23    6     -3.50      0.00
   -1   23    6      2.66      0.00
    1   23    6      5.10      0.00
    3   23    6      5.46      0.00
    5   23    6      4.30      0.00
    7   23    6      1.51      0.00
    9   23    6      2.51      0.00
   11   23    6      4.68      0.00
   13   23    6     -1.97      0.00
   15   23    6      7.28      0.00
   17   23    6     -2.35      0.00
   19   23    6     -7.41      0.00
   21   23    6     -1.41      0.00
   23   23    6     -0.02      0.00
   25   23    6     -3.79      0.00
  -30   24    6      3.75      0.00
  -28   24    6      1.22      0.00
  -26   24    6     -3.70      0.00
  -24   24    6      0.82      0.00
  -22   24    6      2.19      0.00
  -20   24    6     -4.85      0.00
  -18   24    6     -2.56      0.00
  -16   24    6     -1.80      0.00
  -14   24    6     -9.55      0.00
  -12   24    6      5.00      0.00
  -10   24    6     -2.73      0.00
   -8   24    6     -0.30      0.00
   -6   24    6      4.21      0.00
   -4   24    6     -2.36      0.00
   -2   24    6     -4.31      0.00
    0   24    6      2.39      0.00
    2   24    6      1.15      0.00
    4   24    6     -4.37      0.00
    6   24    6      1.30      0.00
    8   24    6     -6.64      0.00
   10   24    6      1.07      0.00
   12   24    6     -0.13      0.00
   14   24    6     -7.02      0.00
   16   24    6     -1.06      0.00
   18   24    6      3.18      0.00
   20   24    6     -1.70      0.00
   22   24    6      4.05      0.00
   24   24    6      3.09      0.00
  -29   25    6     -2.19      0.00
  -27   25    6     -2.06      0.00
  -25   25    6     -2.01      0.00
  -23   25    6      0.64      0.00
  -21   25    6     -5.68      0.00
  -19   25    6      3.73      0.00
  -17   25    6      0.72      0.00
  -15   25    6     -1.75      0.00
  -13   25    6      8.33      0.00
  -11   25    6      1.76      0.00
   -9   25    6      8.36      0.00
   -7   25    6      0.16      0.00
   -5   25    6     -1.63      0.00
   -3   25    6     -1.81      0.00
   -1   25    6      2.54      0.00
    1   25    6     -5.15      0.00
    3   25    6     -8.93      0.00
    5   25    6     -0.21      0.00
    7   25    6     -3.75      0.00
    9   25    6      1.15      0.00
   11   25    6      4.54      0.00
   13   25    6     -1.17      0.00
   15   25    6      2.68      0.00
   17   25    6     -2.99      0.00
   19   25    6      1.03      0.00
   21   25    6      2.52      0.00
   23   25    6      3.45      0.00
  -28   26    6     -1.17      0.00
  -26   26    6      1.28      0.00
  -24   26    6      0.32      0.00
  -22   26    6      3.36      0.00
  -20   26    6     -4.58      0.00
  -18   26    6      4.34      0.00
  -16   26    6      6.75      0.00
  -14   26    6     -9.63      0.00
  -12   26    6     11.58      0.00
  -10   26    6     -6.54      0.00
   -8   26    6      1.50      0.00
   -6   26    6      3.43      0.00
   -4   26    6     -2.10      0.00
   -2   26    6      2.40      0.00
    0   26    6      4.36      0.00
    2   26    6      0.65      0.00
    4   26    6     -5.63      0.00
    6   26    6      4.92      0.00
    8   26    6     -8.04      0.00
   10   26    6      2.09      0.00
   12   26    6      7.99      0.00
   14   26    6     -4.24      0.00
   16   26    6      2.60      0.00
   18   26    6      0.61      0.00
   20   26    6     -3.89      0.00
   22   26    6     -0.06      0.00
  -27   27    6      1.82      0.00
  -25   27    6     -2.83      0.00
  -23   27    6      1.39      0.00
  -21   27    6      1.71      0.00
  -19   27    6      1.89      0.00
  -17   27    6     -2.84      0.00
  -15   27    6     -0.25      0.00
  -13   27    6      2.77      0.00
  -11   27    6     -5.24      0.00
   -9   27    6      3.94      0.00
   -7   27    6      1.32      0.00
   -5   27    6     -1.91      0.00
   -3   27    6      3.68      0.00
   -1   27    6      3.48      0.00
    1   27    6      2.78      0.00
    3   27    6     -0.65      0.00
    5   27    6      0.85      0.00
    7   27    6     -2.71      0.00
    9   27    6     -3.78      0.00
   11   27    6      1.31      0.00
   13   27    6     -3.92      0.00
   15   27    6     -0.36      0.00
   17   27    6     -0.77      0.00
   19   27    6      0.75      0.00
   21   27    6      0.95      0.00
  -24   28    6      1.72      0.00
  -22   28    6     -0.10      0.00
  -20   28    6     -5.42      0.00
  -18   28    6      5.15      0.00
  -16   28    6     -0.68      0.00
  -14   28    6     -6.55      0.00
  -12   28    6     10.43      0.00
  -10   28    6     -2.51      0.00
   -8   28    6     -1.56      0.00
   -6   28    6     -1.21      0.00
   -4   28    6     -4.33      0.00
   -2   28    6     -2.32      0.00
    0   28    6      2.29      0.00
    2   28    6     -1.24      0.00
    4   28    6      2.05      0.00
    6   28    6      4.49      0.00
    8   28    6     -0.20      0.00
   10   28    6      1.85      0.00
   12   28    6      2.83      0.00
   14   28    6     -5.49      0.00
   16   28    6      3.09      0.00
   18   28    6      1.74      0.00
  -23   29    6      1.99      0.00
  -21   29    6      1.30      0.00
  -19   29    6      0.31      0.00
  -17   29    6     -0.52      0.00
  -15   29    6      0.51      0.00
  -13   29    6     -7.62      0.00
  -11   29    6     -5.08      0.00
   -9   29    6      1.50      0.00
   -7   29    6     -1.19      0.00
   -5   29    6     -5.79      0.00
   -3   29    6     -0.49      0.00
   -1   29    6     -1.09      0.00
    1   29    6     -0.47      0.00
    3   29    6      1.95      0.00
    5   29    6      3.41      0.00
    7   29    6      4.51      0.00
    9   29    6      0.95      0.00
   11   29    6      2.96      0.00
   13   29    6      2.23      0.00
   15   29    6     -3.02      0.00
   17   29    6     -0.53      0.00
  -20   30    6     -1.06      0.00
  -18   30    6      4.03      0.00
  -16   30    6     -3.06      0.00
  -14   30    6     -1.47      0.00
  -12   30    6      1.35      0.00
  -10   30    6     -1.63      0.00
   -8   30    6      1.97      0.00
   -6   30    6      0.27      0.00
   -4   30    6     -2.25      0.00
   -2   30    6      1.23      0.00
    0   30    6      1.48      0.00
    2   30    6     -1.88      0.00
    4   30    6      1.56      0.00
    6   30    6     -2.46      0.00
    8   30    6     -4.27      0.00
   10   30    6     -0.95      0.00
   12   30    6      2.85      0.00
   14   30    6     -4.54      0.00
  -19   31    6     -2.11      0.00
  -17   31    6     -3.74      0.00
  -15   31    6      5.09      0.00
  -13   31    6      2.34      0.00
  -11   31    6      2.40      0.00
   -9   31    6      2.43      0.00
   -7   31    6     -0.32      0.00
   -5   31    6      2.61      0.00
   -3   31    6      0.39      0.00
   -1   31    6      2.55      0.00
    1   31    6     -1.30      0.00
    3   31    6     -5.17      0.00
    5   31    6     -4.91      0.00
    7   31    6     -3.37      0.00
    9   31    6      3.08      0.00
   11   31    6     -1.92      0.00
   13   31    6      2.31      0.00
  -16   32    6     -2.40      0.00
  -14   32    6     -2.86      0.00
  -12   32    6      1.63      0.00
  -10   32    6     -0.61      0.00
   -8   32    6      1.92      0.00
   -6   32    6     -0.88      0.00
   -4   32    6      2.43      0.00
   -2   32    6      2.60      0.00
    0   32    6     -2.29      0.00
    2   32    6      1.57      0.00
    4   32    6      1.11      0.00
    6   32    6     -0.84      0.00
    8   32    6     -0.61      0.00
   10   32    6     -1.27      0.00
  -11   33    6     -0.19      0.00
   -9   33    6      3.76      0.00
   -7   33    6     -1.70      0.00
   -5   33    6     -0.33      0.00
   -3   33    6     -4.35      0.00
   -1   33    6      0.40      0.00
    1   33    6      0.45      0.00
    3   33    6      1.37      0.00
    5   33    6      4.36      0.00
  -41    1    7      0.00      0.00
  -39    1    7     -4.40      0.00
  -37    1    7     -1.99      0.00
  -35    1    7      6.30      0.00
  -33    1    7      0.16      0.00
  -31    1    7      9.95      0.00
  -29    1    7     -0.13      0.00
  -27    1    7     -2.97      0.00
  -25    1    7      5.68      0.00
  -23    1    7      5.03      0.00
  -21    1    7     12.09      0.00
  -19    1    7      7.77      0.00
  -17    1    7     -0.22      0.00
  -15    1    7     -6.71      0.00
  -13    1    7     -0.03      0.00
  -11    1    7      4.51      0.00
   -9    1    7      8.61      0.00
   -7    1    7      1.33      0.00
   -5    1    7     -1.99      0.00
   -3    1    7      1.77      0.00
   -1    1    7     -3.82      0.00
    1    1    7     11.62      0.00
    3    1    7      7.72      0.00
    5    1    7      2.82      0.00
    7    1    7      4.69      0.00
    9    1    7     -2.90      0.00
   11    1    7      5.86      0.00
   13    1    7      1.66      0.00
   15    1    7      7.26      0.00
   17    1    7      8.42      0.00
   19    1    7     11.44      0.00
   21    1    7      7.58      0.00
   23    1    7     10.93      0.00
   25    1    7      5.57      0.00
   27    1    7      5.43      0.00
   29    1    7      3.84      0.00
   31    1    7      1.93      0.00
   33    1    7     -4.76      0.00
  -40    2    7      3.10      0.00
  -38    2    7      1.95      0.00
  -36    2    7     -5.42      0.00
  -34    2    7      7.38      0.00
  -32    2    7    -18.57      0.00
  -30    2    7     17.20      0.00
  -28    2    7     -8.34      0.00
  -26    2    7      5.52      0.00
  -24    2    7     -7.25      0.00
  -22    2    7      3.83      0.00
  -20    2    7      2.74      0.00
  -18    2    7      2.35      0.00
  -16    2    7     13.14      0.00
  -14    2    7      9.53      0.00
  -12    2    7    -20.59      0.00
  -10    2    7     18.87      0.00
   -8    2    7    -17.27      0.00
   -6    2    7      6.76      0.00
   -4    2    7    -10.73      0.00
   -2    2    7      1.14      0.00
    0    2    7      7.04      0.00
    2    2    7     -6.58      0.00
    4    2    7     -0.44      0.00
    6    2    7     -7.28      0.00
    8    2    7      6.88      0.00
   10    2    7     -8.96      0.00
   12    2    7     10.27      0.00
   14    2    7     -2.71      0.00
   16    2    7      5.29      0.00
   18    2    7      0.69      0.00
   20    2    7      0.40      0.00
   22    2    7     -1.89      0.00
   24    2    7      2.94      0.00
   26    2    7     -0.64      0.00
   28    2    7     -0.83      0.00
   30    2    7     -1.64      0.00
   32    2    7     -2.65      0.00
   34    2    7     -3.48      0.00
  -41    3    7      5.26      0.00
  -39    3    7     -0.20      0.00
  -37    3    7     -3.59      0.00
  -35    3    7      5.36      0.00
  -33    3    7    -14.30      0.00
  -31    3    7      3.54      0.00
  -29    3    7     -1.22      0.00
  -27    3    7     -1.76      0.00
  -25    3    7      2.06      0.00
  -23    3    7     -9.60      0.00
  -21    3    7     -2.18      0.00
  -19    3    7      2.74      0.00
  -17    3    7      1.08      0.00
  -15    3    7      5.52      0.00
  -13    3    7      6.42      0.00
  -11    3    7    -12.25      0.00
   -9    3    7     -6.73      0.00
   -7    3    7      2.69      0.00
   -5    3    7     -7.96      0.00
   -3    3    7      2.68      0.00
   -1    3    7    -11.39      0.00
    1    3    7      4.45      0.00
    3    3    7    -10.76      0.00
    5    3    7    -12.36      0.00
    7    3    7     12.00      0.00
    9    3    7     -5.74      0.00
   11    3    7      8.54      0.00
   13    3    7     -0.66      0.00
   15    3    7     -5.43      0.00
   17    3    7     -3.79      0.00
   19    3    7     -0.86      0.00
   21    3    7    -10.65      0.00
   23    3    7     -4.03      0.00
   25    3    7     -2.83      0.00
   27    3    7     -0.20      0.00
   29    3    7     -3.04      0.00
   31    3    7      3.40      0.00
   33    3    7     -1.52      0.00
  -40    4    7      2.89      0.00
  -38    4    7     -3.30      0.00
  -36    4    7      5.16      0.00
  -34    4    7     10.51      0.00
  -32    4    7    -15.89      0.00
  -30    4    7     16.85      0.00
  -28    4    7    -15.39      0.00
  -26    4    7      6.86      0.00
  -24    4    7     -8.34      0.00
  -22    4    7     10.94      0.00
  -20    4    7     -5.52      0.00
  -18    4    7    -17.13      0.00
  -16    4    7     -9.26      0.00
  -14    4    7      7.69      0.00
  -12    4    7    -14.65      0.00
  -10    4    7     13.70      0.00
   -8    4    7     -6.08      0.00
   -6    4    7      6.55      0.00
   -4    4    7     -7.07      0.00
   -2    4    7      5.61      0.00
    0    4    7      3.77      0.00
    2    4    7     -3.84      0.00
    4    4    7      2.97      0.00
    6    4    7      4.12      0.00
    8    4    7      7.93      0.00
   10    4    7    -10.11      0.00
   12    4    7      1.15      0.00
   14    4    7     -9.19      0.00
   16    4    7     -1.07      0.00
   18    4    7     -7.53      0.00
   20    4    7      1.20      0.00
   22    4    7     -4.65      0.00
   24    4    7      2.70      0.00
   26    4    7     -4.84      0.00
   28    4    7     -1.02      0.00
   30    4    7      5.24      0.00
   32    4    7      6.59      0.00
   34    4    7      2.86      0.00
  -41    5    7      4.15      0.00
  -39    5    7      0.77      0.00
  -37    5    7     -1.84      0.00
  -35    5    7      2.94      0.00
  -33    5    7     -6.56      0.00
  -31    5    7      5.45      0.00
  -29    5    7     -0.22      0.00
  -27    5    7     -4.79      0.00
  -25    5    7      2.48      0.00
  -23    5    7      2.54      0.00
  -21    5    7     -3.23      0.00
  -19    5    7     -4.62      0.00
  -17    5    7     -5.09      0.00
  -15    5    7     -8.19      0.00
  -13    5    7     -0.13      0.00
  -11    5    7      4.91      0.00
   -9    5    7      5.33      0.00
   -7    5    7     11.95      0.00
   -5    5    7     -8.77      0.00
   -3    5    7      2.21      0.00
   -1    5    7     -6.87      0.00
    1    5    7      5.09      0.00
    3    5    7     11.66      0.00
    5    5    7    -11.47      0.00
    7    5    7      9.14      0.00
    9    5    7    -11.57      0.00
   11    5    7     -8.04      0.00
   13    5    7     -4.51      0.00
   15    5    7    -11.76      0.00
   17    5    7      0.35      0.00
   19    5    7      0.50      0.00
   21    5    7     -2.28      0.00
   23    5    7      2.11      0.00
   25    5    7     -5.73      0.00
   27    5    7     -1.31      0.00
   29    5    7      1.80      0.00
   31    5    7      0.80      0.00
   33    5    7     -6.13      0.00
  -40    6    7      5.26      0.00
  -38    6    7     -7.83      0.00
  -36    6    7      4.65      0.00
  -34    6    7     -8.86      0.00
  -32    6    7     -5.80      0.00
  -30    6    7     11.45      0.00
  -28    6    7     -6.00      0.00
  -26    6    7     11.51      0.00
  -24    6    7     -3.52      0.00
  -22    6    7      6.00      0.00
  -20    6    7      3.13      0.00
  -18    6    7      4.63      0.00
  -16    6    7      2.99      0.00
  -14    6    7     10.98      0.00
  -12    6    7    -10.77      0.00
  -10    6    7      3.37      0.00
   -8    6    7     14.81      0.00
   -6    6    7     -4.53      0.00
   -4    6    7     -7.45      0.00
   -2    6    7      7.89      0.00
    0    6    7     -3.52      0.00
    2    6    7     -0.24      0.00
    4    6    7     -6.58      0.00
    6    6    7      3.22      0.00
    8    6    7     -7.89      0.00
   10    6    7      0.87      0.00
   12    6    7      4.21      0.00
   14    6    7      1.99      0.00
   16    6    7     10.31      0.00
   18    6    7     -1.16      0.00
   20    6    7      8.15      0.00
   22    6    7     -1.36      0.00
   24    6    7      1.56      0.00
   26    6    7      5.43      0.00
   28    6    7     -0.80      0.00
   30    6    7     -1.18      0.00
   32    6    7     -1.85      0.00
   34    6    7     -4.63      0.00
  -39    7    7     -3.29      0.00
  -37    7    7      5.62      0.00
  -35    7    7      1.81      0.00
  -33    7    7      0.97      0.00
  -31    7    7      4.68      0.00
  -29    7    7      4.16      0.00
  -27    7    7      1.53      0.00
  -25    7    7     -4.24      0.00
  -23    7    7      2.99      0.00
  -21    7    7      4.93      0.00
  -19    7    7     -0.62      0.00
  -17    7    7      6.46      0.00
  -15    7    7      2.00      0.00
  -13    7    7     -1.95      0.00
  -11    7    7     -5.91      0.00
   -9    7    7     -3.81      0.00
   -7    7    7      7.06      0.00
   -5    7    7     -3.50      0.00
   -3    7    7     11.62      0.00
   -1    7    7     10.43      0.00
    1    7    7      1.20      0.00
    3    7    7      5.64      0.00
    5    7    7    -17.93      0.00
    7    7    7     13.32      0.00
    9    7    7      8.84      0.00
   11    7    7      1.59      0.00
   13    7    7     20.40      0.00
   15    7    7      3.43      0.00
   17    7    7     11.36      0.00
   19    7    7      8.39      0.00
   21    7    7     -0.40      0.00
   23    7    7      5.18      0.00
   25    7    7      5.96      0.00
   27    7    7      2.90      0.00
   29    7    7      0.23      0.00
   31    7    7     -3.43      0.00
   33    7    7     -0.29      0.00
  -40    8    7     -0.25      0.00
  -38    8    7      1.21      0.00
  -36    8    7      9.84      0.00
  -34    8    7     -8.38      0.00
  -32    8    7     10.00      0.00
  -30    8    7      1.98      0.00
  -28    8    7     -3.92      0.00
  -26    8    7     -4.76      0.00
  -24    8    7     -4.78      0.00
  -22    8    7     -1.80      0.00
  -20    8    7      6.62      0.00
  -18    8    7    -11.98      0.00
  -16    8    7     -9.60      0.00
  -14    8    7     11.20      0.00
  -12    8    7     -6.66      0.00
  -10    8    7     -4.14      0.00
   -8    8    7      2.84      0.00
   -6    8    7     -7.99      0.00
   -4    8    7     -1.61      0.00
   -2    8    7      7.22      0.00
    0    8    7     -2.40      0.00
    2    8    7      2.53      0.00
    4    8    7     -6.74      0.00
    6    8    7     10.70      0.00
    8    8    7     -2.83      0.00
   10    8    7      6.26      0.00
   12    8    7      3.48      0.00
   14    8    7     -5.06      0.00
   16    8    7      2.62      0.00
   18    8    7     -9.90      0.00
   20    8    7      4.26      0.00
   22    8    7      4.06      0.00
   24    8    7    -14.57      0.00
   26    8    7      4.03      0.00
   28    8    7     -4.74      0.00
   30    8    7      0.61      0.00
   32    8    7      5.80      0.00
  -39    9    7     -3.18      0.00
  -37    9    7      4.00      0.00
  -35    9    7     -8.34      0.00
  -33    9    7     -4.51      0.00
  -31    9    7      3.44      0.00
  -29    9    7     -6.72      0.00
  -27    9    7     -7.07      0.00
  -25    9    7      0.28      0.00
  -23    9    7      7.56      0.00
  -21    9    7      4.12      0.00
  -19    9    7     -8.50      0.00
  -17    9    7      3.24      0.00
  -15    9    7      0.15      0.00
  -13    9    7      1.98      0.00
  -11    9    7     -3.54      0.00
   -9    9    7     11.98      0.00
   -7    9    7     -2.26      0.00
   -5    9    7    -13.65      0.00
   -3    9    7     -9.79      0.00
   -1    9    7    -11.68      0.00
    1    9    7      0.90      0.00
    3    9    7      7.67      0.00
    5    9    7    -11.49      0.00
    7    9    7      8.53      0.00
    9    9    7      4.19      0.00
   11    9    7    -21.14      0.00
   13    9    7      0.80      0.00
   15    9    7     -8.50      0.00
   17    9    7     -8.91      0.00
   19    9    7     -1.81      0.00
   21    9    7     -5.45      0.00
   23    9    7     -6.35      0.00
   25    9    7     -5.08      0.00
   27    9    7     -4.44      0.00
   29    9    7      4.91      0.00
   31    9    7      1.36      0.00
   33    9    7     -1.17      0.00
  -38   10    7      6.96      0.00
  -36   10    7     -0.32      0.00
  -34   10    7     -9.72      0.00
  -32   10    7      4.91      0.00
  -30   10    7    -13.28      0.00
  -28   10    7      3.16      0.00
  -26   10    7     -1.66      0.00
  -24   10    7      5.98      0.00
  -22   10    7     -2.57      0.00
  -20   10    7      6.57      0.00
  -18   10    7     -7.02      0.00
  -16   10    7      5.62      0.00
  -14   10    7      5.08      0.00
  -12   10    7     -3.82      0.00
  -10   10    7      5.47      0.00
   -8   10    7      0.86      0.00
   -6   10    7     -7.87      0.00
   -4   10    7      0.31      0.00
   -2   10    7      2.19      0.00
    0   10    7      5.72      0.00
    2   10    7      1.83      0.00
    4   10    7      0.93      0.00
    6   10    7      1.99      0.00
    8   10    7     -4.60      0.00
   10   10    7     -7.63      0.00
   12   10    7      6.19      0.00
   14   10    7     -5.71      0.00
   16   10    7      4.69      0.00
   18   10    7     -6.96      0.00
   20   10    7     -0.42      0.00
   22   10    7      7.71      0.00
   24   10    7     -9.67      0.00
   26   10    7     10.13      0.00
   28   10    7     -3.18      0.00
   30   10    7     -2.99      0.00
   32   10    7      4.07      0.00
  -39   11    7     -2.88      0.00
  -37   11    7      3.06      0.00
  -35   11    7      1.89      0.00
  -33   11    7     -3.18      0.00
  -31   11    7      2.77      0.00
  -29   11    7      5.52      0.00
  -27   11    7     -4.21      0.00
  -25   11    7      4.22      0.00
  -23   11    7     -2.68      0.00
  -21   11    7      0.10      0.00
  -19   11    7     -5.23      0.00
  -17   11    7     -4.32      0.00
  -15   11    7      0.44      0.00
  -13   11    7      7.65      0.00
  -11   11    7    -11.62      0.00
   -9   11    7      9.32      0.00
   -7   11    7      2.27      0.00
   -5   11    7      3.22      0.00
   -3   11    7     12.63      0.00
   -1   11    7     -1.54      0.00
    1   11    7      3.48      0.00
    3   11    7     -0.89      0.00
    5   11    7    -11.53      0.00
    7   11    7      6.81      0.00
    9   11    7      3.20      0.00
   11   11    7    -13.30      0.00
   13   11    7      3.37      0.00
   15   11    7     -0.91      0.00
   17   11    7     -3.54      0.00
   19   11    7      7.51      0.00
   21   11    7     -0.55      0.00
   23   11    7      1.03      0.00
   25   11    7     11.39      0.00
   27   11    7      3.60      0.00
   29   11    7     -2.18      0.00
   31   11    7      0.63      0.00
  -38   12    7      3.82      0.00
  -36   12    7    -10.46      0.00
  -34   12    7     -1.07      0.00
  -32   12    7     10.83      0.00
  -30   12    7      0.37      0.00
  -28   12    7      5.81      0.00
  -26   12    7     -6.43      0.00
  -24   12    7      1.54      0.00
  -22   12    7      7.60      0.00
  -20   12    7      4.09      0.00
  -18   12    7     -4.84      0.00
  -16   12    7      0.47      0.00
  -14   12    7     -6.24      0.00
  -12   12    7      4.77      0.00
  -10   12    7      5.94      0.00
   -8   12    7      3.02      0.00
   -6   12    7      3.12      0.00
   -4   12    7      6.17      0.00
   -2   12    7     -8.53      0.00
    0   12    7     -1.63      0.00
    2   12    7     -9.77      0.00
    4   12    7      2.04      0.00
    6   12    7     -1.10      0.00
    8   12    7      6.98      0.00
   10   12    7    -11.08      0.00
   12   12    7      4.63      0.00
   14   12    7     -3.60      0.00
   16   12    7      5.41      0.00
   18   12    7     -2.46      0.00
   20   12    7      6.30      0.00
   22   12    7      5.52      0.00
   24   12    7     -3.49      0.00
   26   12    7      1.62      0.00
   28   12    7      3.37      0.00
   30   12    7     -0.08      0.00
   32   12    7      2.85      0.00
  -37   13    7     -1.63      0.00
  -35   13    7      1.33      0.00
  -33   13    7      0.86      0.00
  -31   13    7      1.40      0.00
  -29   13    7      8.02      0.00
  -27   13    7    -20.44      0.00
  -25   13    7     10.68      0.00
  -23   13    7      1.50      0.00
  -21   13    7      0.36      0.00
  -19   13    7      7.67      0.00
  -17   13    7     -5.03      0.00
  -15   13    7      1.85      0.00
  -13   13    7      4.68      0.00
  -11   13    7     -6.73      0.00
   -9   13    7     -0.13      0.00
   -7   13    7      4.11      0.00
   -5   13    7    -15.51      0.00
   -3   13    7     -6.37      0.00
   -1   13    7     -1.66      0.00
    1   13    7      9.23      0.00
    3   13    7      6.92      0.00
    5   13    7    -11.38      0.00
    7   13    7     11.20      0.00
    9   13    7      8.16      0.00
   11   13    7     -0.24      0.00
   13   13    7     16.37      0.00
   15   13    7     12.34      0.00
   17   13    7     -0.53      0.00
   19   13    7      5.63      0.00
   21   13    7     -2.97      0.00
   23   13    7     -2.25      0.00
   25   13    7     -1.62      0.00
   27   13    7     -4.83      0.00
   29   13    7     -5.26      0.00
   31   13    7     -1.22      0.00
  -38   14    7      9.14      0.00
  -36   14    7     -4.60      0.00
  -34   14    7      5.53      0.00
  -32   14    7     -4.09      0.00
  -30   14    7      0.41      0.00
  -28   14    7      2.17      0.00
  -26   14    7      0.43      0.00
  -24   14    7     -4.55      0.00
  -22   14    7      2.17      0.00
  -20   14    7     -9.90      0.00
  -18   14    7      0.95      0.00
  -16   14    7      0.58      0.00
  -14   14    7     -1.17      0.00
  -12   14    7     -3.60      0.00
  -10   14    7     -3.41      0.00
   -8   14    7     -9.80      0.00
   -6   14    7     -7.90      0.00
   -4   14    7      0.79      0.00
   -2   14    7      3.39      0.00
    0   14    7     11.03      0.00
    2   14    7     -6.70      0.00
    4   14    7      1.76      0.00
    6   14    7     -3.14      0.00
    8   14    7      4.05      0.00
   10   14    7      0.21      0.00
   12   14    7      5.07      0.00
   14   14    7     -1.23      0.00
   16   14    7      2.56      0.00
   18   14    7     -7.55      0.00
   20   14    7     -2.65      0.00
   22   14    7     -7.91      0.00
   24   14    7      1.96      0.00
   26   14    7     -6.87      0.00
   28   14    7      0.39      0.00
   30   14    7     -1.14      0.00
  -37   15    7     -2.09      0.00
  -35   15    7      4.21      0.00
  -33   15    7     -2.13      0.00
  -31   15    7     -4.64      0.00
  -29   15    7     11.16      0.00
  -27   15    7    -13.35      0.00
  -25   15    7      7.68      0.00
  -23   15    7     -0.20      0.00
  -21   15    7     -3.46      0.00
  -19   15    7      5.01      0.00
  -17   15    7    -13.75      0.00
  -15   15    7     -1.74      0.00
  -13   15    7      2.73      0.00
  -11   15    7     -1.68      0.00
   -9   15    7     -5.70      0.00
   -7   15    7     11.92      0.00
   -5   15    7     -2.56      0.00
   -3   15    7      4.38      0.00
   -1   15    7     -0.30      0.00
    1   15    7     -9.59      0.00
    3   15    7      2.21      0.00
    5   15    7     -5.22      0.00
    7   15    7      0.60      0.00
    9   15    7     -8.11      0.00
   11   15    7    -17.79      0.00
   13   15    7     -6.92      0.00
   15   15    7     -9.35      0.00
   17   15    7    -10.02      0.00
   19   15    7      4.15      0.00
   21   15    7     -8.30      0.00
   23   15    7     -1.76      0.00
   25   15    7      3.34      0.00
   27   15    7      0.53      0.00
   29   15    7      3.69      0.00
  -36   16    7     -6.19      0.00
  -34   16    7      4.38      0.00
  -32   16    7     -0.14      0.00
  -30   16    7      0.92      0.00
  -28   16    7     -7.77      0.00
  -26   16    7     -4.22      0.00
  -24   16    7      0.05      0.00
  -22   16    7      6.17      0.00
  -20   16    7     -3.89      0.00
  -18   16    7      6.24      0.00
  -16   16    7     -6.44      0.00
  -14   16    7      8.46      0.00
  -12   16    7     -2.74      0.00
  -10   16    7      9.16      0.00
   -8   16    7      1.02      0.00
   -6   16    7      5.19      0.00
   -4   16    7      4.18      0.00
   -2   16    7     -7.55      0.00
    0   16    7      0.32      0.00
    2   16    7     -9.06      0.00
    4   16    7      5.99      0.00
    6   16    7      3.71      0.00
    8   16    7     -2.20      0.00
   10   16    7     -1.07      0.00
   12   16    7     -7.03      0.00
   14   16    7      1.08      0.00
   16   16    7      5.46      0.00
   18   16    7      0.25      0.00
   20   16    7      3.78      0.00
   22   16    7      2.48      0.00
   24   16    7      5.14      0.00
   26   16    7     -2.09      0.00
   28   16    7      0.36      0.00
  -35   17    7      0.22      0.00
  -33   17    7     -2.63      0.00
  -31   17    7      1.56      0.00
  -29   17    7      0.14      0.00
  -27   17    7     -4.22      0.00
  -25   17    7      2.44      0.00
  -23   17    7      3.55      0.00
  -21   17    7     -5.65      0.00
  -19   17    7      5.86      0.00
  -17   17    7      0.46      0.00
  -15   17    7     -0.85      0.00
  -13   17    7      8.49      0.00
  -11   17    7     -4.20      0.00
   -9   17    7      1.61      0.00
   -7   17    7      7.30      0.00
   -5   17    7     -2.20      0.00
   -3   17    7      3.46      0.00
   -1   17    7      5.72      0.00
    1   17    7      3.62      0.00
    3   17    7      0.00      0.00
    5   17    7      1.84      0.00
    7   17    7      4.82      0.00
    9   17    7      4.47      0.00
   11   17    7     -4.55      0.00
   13   17    7      7.43      0.00
   15   17    7     11.73      0.00
   17   17    7     -3.45      0.00
   19   17    7      6.18      0.00
   21   17    7      2.46      0.00
   23   17    7      3.28      0.00
   25   17    7      5.17      0.00
   27   17    7     -1.84      0.00
   29   17    7      0.59      0.00
  -34   18    7     -1.34      0.00
  -32   18    7      0.20      0.00
  -30   18    7     -1.36      0.00
  -28   18    7      7.89      0.00
  -26   18    7      1.16      0.00
  -24   18    7      1.74      0.00
  -22   18    7      2.22      0.00
  -20   18    7     -0.57      0.00
  -18   18    7      3.90      0.00
  -16   18    7     -3.92      0.00
  -14   18    7      9.03      0.00
  -12   18    7     -8.90      0.00
  -10   18    7     -0.41      0.00
   -8   18    7     -6.64      0.00
   -6   18    7     -2.08      0.00
   -4   18    7      5.05      0.00
   -2   18    7      1.13      0.00
    0   18    7      8.70      0.00
    2   18    7     -4.08      0.00
    4   18    7      5.16      0.00
    6   18    7     -0.55      0.00
    8   18    7      1.52      0.00
   10   18    7      5.78      0.00
   12   18    7     -7.13      0.00
   14   18    7      0.90      0.00
   16   18    7      1.64      0.00
   18   18    7      1.92      0.00
   20   18    7     -5.71      0.00
   22   18    7      1.56      0.00
   24   18    7      0.49      0.00
   26   18    7      3.85      0.00
   28   18    7      0.29      0.00
  -33   19    7     -1.88      0.00
  -31   19    7      4.96      0.00
  -29   19    7      1.03      0.00
  -27   19    7     -0.56      0.00
  -25   19    7     -7.81      0.00
  -23   19    7      8.32      0.00
  -21   19    7     -1.09      0.00
  -19   19    7      1.58      0.00
  -17   19    7      2.19      0.00
  -15   19    7     -7.09      0.00
  -13   19    7     13.39      0.00
  -11   19    7     -6.51      0.00
   -9   19    7      6.53      0.00
   -7   19    7     -7.72      0.00
   -5   19    7    -12.88      0.00
   -3   19    7     -2.87      0.00
   -1   19    7    -10.09      0.00
    1   19    7     -1.07      0.00
    3   19    7      0.38      0.00
    5   19    7      8.10      0.00
    7   19    7      1.63      0.00
    9   19    7      4.58      0.00
   11   19    7      2.57      0.00
   13   19    7      0.89      0.00
   15   19    7      7.78      0.00
   17   19    7     -7.44      0.00
   19   19    7      0.22      0.00
   21   19    7      1.47      0.00
   23   19    7     -6.84      0.00
   25   19    7     -2.68      0.00
   27   19    7     -1.59      0.00
  -32   20    7      5.55      0.00
  -30   20    7     -4.74      0.00
  -28   20    7      1.03      0.00
  -26   20    7     -4.93      0.00
  -24   20    7     -0.65      0.00
  -22   20    7     -2.52      0.00
  -20   20    7     -0.91      0.00
  -18   20    7     -1.27      0.00
  -16   20    7     -1.65      0.00
  -14   20    7      1.66      0.00
  -12   20    7     -0.42      0.00
  -10   20    7      0.50      0.00
   -8   20    7     -0.37      0.00
   -6   20    7      5.00      0.00
   -4   20    7      2.51      0.00
   -2   20    7     -0.86      0.00
    0   20    7     -3.53      0.00
    2   20    7     -5.95      0.00
    4   20    7      0.15      0.00
    6   20    7     -5.50      0.00
    8   20    7      4.53      0.00
   10   20    7      3.60      0.00
   12   20    7     -8.27      0.00
   14   20    7      4.69      0.00
   16   20    7     -1.89      0.00
   18   20    7      1.50      0.00
   20   20    7     -3.62      0.00
   22   20    7     -1.57      0.00
   24   20    7     -5.59      0.00
   26   20    7      1.78      0.00
  -31   21    7     -0.09      0.00
  -29   21    7      1.77      0.00
  -27   21    7     -0.85      0.00
  -25   21    7     -0.30      0.00
  -23   21    7      2.34      0.00
  -21   21    7     -8.66      0.00
  -19   21    7      1.14      0.00
  -17   21    7      3.17      0.00
  -15   21    7     -9.05      0.00
  -13   21    7      5.56      0.00
  -11   21    7    -11.72      0.00
   -9   21    7      3.14      0.00
   -7   21    7      3.26      0.00
   -5   21    7      5.87      0.00
   -3   21    7     16.27      0.00
   -1   21    7      3.32      0.00
    1   21    7     -2.88      0.00
    3   21    7     -5.15      0.00
    5   21    7     -2.97      0.00
    7   21    7     -6.11      0.00
    9   21    7     -4.35      0.00
   11   21    7    -11.44      0.00
   13   21    7     -8.46      0.00
   15   21    7      6.79      0.00
   17   21    7     -3.43      0.00
   19   21    7     -1.86      0.00
   21   21    7      2.71      0.00
   23   21    7     -1.21      0.00
   25   21    7      1.60      0.00
  -30   22    7     -4.78      0.00
  -28   22    7      0.69      0.00
  -26   22    7      2.25      0.00
  -24   22    7      1.63      0.00
  -22   22    7     -3.39      0.00
  -20   22    7      3.79      0.00
  -18   22    7     -1.35      0.00
  -16   22    7     -1.66      0.00
  -14   22    7      1.33      0.00
  -12   22    7      7.12      0.00
  -10   22    7     -5.27      0.00
   -8   22    7     -1.91      0.00
   -6   22    7      2.22      0.00
   -4   22    7     -2.18      0.00
   -2   22    7     -0.57      0.00
    0   22    7     -5.97      0.00
    2   22    7      1.62      0.00
    4   22    7      1.31      0.00
    6   22    7     -7.78      0.00
    8   22    7      4.20      0.00
   10   22    7      3.31      0.00
   12   22    7     -8.69      0.00
   14   22    7      7.73      0.00
   16   22    7      0.53      0.00
   18   22    7     -0.55      0.00
   20   22    7      2.90      0.00
   22   22    7      2.16      0.00
   24   22    7      3.67      0.00
  -29   23    7      3.09      0.00
  -27   23    7     -8.92      0.00
  -25   23    7      5.77      0.00
  -23   23    7      5.62      0.00
  -21   23    7     -0.95      0.00
  -19   23    7      1.71      0.00
  -17   23    7     -2.29      0.00
  -15   23    7     -3.82      0.00
  -13   23    7      6.19      0.00
  -11   23    7     -0.62      0.00
   -9   23    7      2.22      0.00
   -7   23    7      0.83      0.00
   -5   23    7     -7.49      0.00
   -3   23    7     -2.57      0.00
   -1   23    7     -4.16      0.00
    1   23    7     -3.87      0.00
    3   23    7      7.66      0.00
    5   23    7      7.30      0.00
    7   23    7     -2.05      0.00
    9   23    7      9.61      0.00
   11   23    7     -0.50      0.00
   13   23    7     -1.64      0.00
   15   23    7      5.24      0.00
   17   23    7      2.05      0.00
   19   23    7      1.88      0.00
   21   23    7      1.93      0.00
   23   23    7     -0.09      0.00
  -28   24    7      0.86      0.00
  -26   24    7      2.53      0.00
  -24   24    7      1.87      0.00
  -22   24    7     -5.06      0.00
  -20   24    7      7.69      0.00
  -18   24    7      3.70      0.00
  -16   24    7     -3.35      0.00
  -14   24    7      1.16      0.00
  -12   24    7      0.11      0.00
  -10   24    7    -11.63      0.00
   -8   24    7     -0.62      0.00
   -6   24    7     -1.92      0.00
   -4   24    7      2.37      0.00
   -2   24    7      8.07      0.00
    0   24    7      1.42      0.00
    2   24    7      3.87      0.00
    4   24    7      4.88      0.00
    6   24    7     -4.33      0.00
    8   24    7      9.00      0.00
   10   24    7      1.57      0.00
   12   24    7     -6.08      0.00
   14   24    7      2.34      0.00
   16   24    7     -0.91      0.00
   18   24    7     -2.55      0.00
   20   24    7     -0.16      0.00
   22   24    7     -6.24      0.00
  -27   25    7     -3.78      0.00
  -25   25    7      4.68      0.00
  -23   25    7     -8.55      0.00
  -21   25    7     -4.45      0.00
  -19   25    7      4.99      0.00
  -17   25    7      0.07      0.00
  -15   25    7      1.19      0.00
  -13   25    7      1.68      0.00
  -11   25    7     -3.94      0.00
   -9   25    7     -3.82      0.00
   -7   25    7     -0.17      0.00
   -5   25    7     -5.63      0.00
   -3   25    7      3.74      0.00
   -1   25    7      1.47      0.00
    1   25    7      1.08      0.00
    3   25    7     -1.54      0.00
    5   25    7      0.73      0.00
    7   25    7     -9.48      0.00
    9   25    7      4.22      0.00
   11   25    7      2.31      0.00
   13   25    7     -2.31      0.00
   15   25    7     -0.09      0.00
   17   25    7     -1.49      0.00
   19   25    7     -4.11      0.00
   21   25    7     -2.76      0.00
  -26   26    7      0.32      0.00
  -24   26    7     -0.18      0.00
  -22   26    7     -8.43      0.00
  -20   26    7      3.64      0.00
  -18   26    7     -3.31      0.00
  -16   26    7    -10.42      0.00
  -14   26    7      5.12      0.00
  -12   26    7      5.89      0.00
  -10   26    7      1.58      0.00
   -8   26    7      3.07      0.00
   -6   26    7      2.58      0.00
   -4   26    7     -0.67      0.00
   -2   26    7     -1.03      0.00
    0   26    7     -6.23      0.00
    2   26    7      1.04      0.00
    4   26    7     -2.01      0.00
    6   26    7    -14.77      0.00
    8   26    7      7.14      0.00
   10   26    7     -4.16      0.00
   12   26    7     -1.57      0.00
   14   26    7      2.41      0.00
   16   26    7     -1.10      0.00
   18   26    7     -0.54      0.00
  -25   27    7      6.69      0.00
  -23   27    7     -0.41      0.00
  -21   27    7      0.34      0.00
  -19   27    7      1.37      0.00
  -17   27    7     -3.73      0.00
  -15   27    7      3.01      0.00
  -13   27    7      3.58      0.00
  -11   27    7      2.72      0.00
   -9   27    7      4.94      0.00
   -7   27    7      4.51      0.00
   -5   27    7      1.51      0.00
   -3   27    7      3.69      0.00
   -1   27    7     -7.60      0.00
    1   27    7      1.63      0.00
    3   27    7      0.11      0.00
    5   27    7      5.70      0.00
    7   27    7     -0.76      0.00
    9   27    7     -1.00      0.00
   11   27    7     -1.13      0.00
   13   27    7     -6.32      0.00
   15   27    7      2.44      0.00
   17   27    7      5.79      0.00
  -22   28    7     -0.16      0.00
  -20   28    7      7.73      0.00
  -18   28    7      0.81      0.00
  -16   28    7      2.04      0.00
  -14   28    7      3.43      0.00
  -12   28    7     -6.07      0.00
  -10   28    7      1.91      0.00
   -8   28    7     -3.67      0.00
   -6   28    7      2.02      0.00
   -4   28    7     -1.79      0.00
   -2   28    7      2.99      0.00
    0   28    7     -6.64      0.00
    2   28    7      3.23      0.00
    4   28    7      4.70      0.00
    6   28    7     -3.38      0.00
    8   28    7      8.96      0.00
   10   28    7     -2.11      0.00
   12   28    7      2.48      0.00
   14   28    7      4.62      0.00
   16   28    7     -3.24      0.00
  -21   29    7      1.86      0.00
  -19   29    7      0.59      0.00
  -17   29    7     -3.10      0.00
  -15   29    7      0.96      0.00
  -13   29    7     -3.87      0.00
  -11   29    7     -5.14      0.00
   -9   29    7      0.44      0.00
   -7   29    7     -4.14      0.00
   -5   29    7     -1.29      0.00
   -3   29    7     -0.77      0.00
   -1   29    7      0.71      0.00
    1   29    7      4.14      0.00
    3   29    7     -0.46      0.00
    5   29    7     -3.25      0.00
    7   29    7     -3.31      0.00
    9   29    7     -0.65      0.00
   11   29    7      5.28      0.00
   13   29    7      2.60      0.00
  -18   30    7     -4.69      0.00
  -16   30    7     -0.51      0.00
  -14   30    7      1.26      0.00
  -12   30    7     -1.56      0.00
  -10   30    7      2.39      0.00
   -8   30    7     -5.23      0.00
   -6   30    7      2.06      0.00
   -4   30    7      3.92      0.00
   -2   30    7      2.72      0.00
    0   30    7      3.67      0.00
    2   30    7      4.89      0.00
    4   30    7     -4.38      0.00
    6   30    7     -7.29      0.00
    8   30    7      4.45      0.00
   10   30    7      0.07      0.00
  -15   31    7      0.25      0.00
  -13   31    7      0.43      0.00
  -11   31    7      3.12      0.00
   -9   31    7      1.45      0.00
   -7   31    7     -4.90      0.00
   -5   31    7      3.49      0.00
   -3   31    7     -2.08      0.00
   -1   31    7      0.68      0.00
    1   31    7     -0.40      0.00
    3   31    7      4.01      0.00
    5   31    7      0.35      0.00
    7   31    7     -0.69      0.00
  -10   32    7      2.62      0.00
   -8   32    7      1.64      0.00
   -6   32    7     -4.69      0.00
   -4   32    7      1.28      0.00
   -2   32    7     -7.62      0.00
    0   32    7     -2.61      0.00
    2   32    7     -0.96      0.00
    4   32    7      2.99      0.00
  -40    0    8      4.07      0.00
  -38    0    8      0.24      0.00
  -36    0    8      0.17      0.00
  -34    0    8      0.16      0.00
  -32    0    8     -0.78      0.00
  -30    0    8      0.47      0.00
  -28    0    8     -9.66      0.00
  -26    0    8      3.03      0.00
  -24    0    8     -3.87      0.00
  -22    0    8    -10.04      0.00
  -20    0    8      4.31      0.00
  -18    0    8    -15.19      0.00
  -16    0    8     -3.34      0.00
  -14    0    8     -2.48      0.00
  -12    0    8     -1.66      0.00
  -10    0    8     12.25      0.00
   -8    0    8     10.87      0.00
   -6    0    8    -15.99      0.00
   -4    0    8      5.91      0.00
   -2    0    8     -2.44      0.00
    0    0    8      0.10      0.00
    2    0    8     11.24      0.00
    4    0    8      0.27      0.00
    6    0    8     -6.96      0.00
    8    0    8     -5.37      0.00
   10    0    8    -18.66      0.00
   12    0    8      1.09      0.00
   14    0    8     -0.16      0.00
   16    0    8     -2.90      0.00
   18    0    8      6.05      0.00
   20    0    8     -8.56      0.00
   22    0    8     -0.65      0.00
   24    0    8      4.76      0.00
   26    0    8      0.73      0.00
   28    0    8      4.50      0.00
   30    0    8      0.28      0.00
   32    0    8      2.05      0.00
  -39    1    8     -3.28      0.00
  -37    1    8      2.60      0.00
  -35    1    8     -8.29      0.00
  -33    1    8      3.03      0.00
  -31    1    8      9.05      0.00
  -29    1    8    -12.79      0.00
  -27    1    8      6.27      0.00
  -25    1    8      5.14      0.00
  -23    1    8     -4.76      0.00
  -21    1    8      2.67      0.00
  -19    1    8      4.61      0.00
  -17    1    8    -13.06      0.00
  -15    1    8      9.09      0.00
  -13    1    8     -8.08      0.00
  -11    1    8      2.81      0.00
   -9    1    8      2.16      0.00
   -7    1    8      0.82      0.00
   -5    1    8      2.85      0.00
   -3    1    8     -0.95      0.00
   -1    1    8      2.32      0.00
    1    1    8     -0.18      0.00
    3    1    8     -0.03      0.00
    5    1    8      5.06      0.00
    7    1    8     -9.74      0.00
    9    1    8     13.73      0.00
   11    1    8     -5.40      0.00
   13    1    8     -0.06      0.00
   15    1    8      0.82      0.00
   17    1    8     -0.62      0.00
   19    1    8     -3.44      0.00
   21    1    8      5.32      0.00
   23    1    8     -3.86      0.00
   25    1    8     -5.32      0.00
   27    1    8      4.47      0.00
   29    1    8     -0.54      0.00
   31    1    8     -0.94      0.00
  -40    2    8     -4.24      0.00
  -38    2    8     -3.22      0.00
  -36    2    8      1.44      0.00
  -34    2    8      1.82      0.00
  -32    2    8      0.01      0.00
  -30    2    8      2.61      0.00
  -28    2    8      3.74      0.00
  -26    2    8      9.44      0.00
  -24    2    8     -3.68      0.00
  -22    2    8      0.32      0.00
  -20    2    8     10.21      0.00
  -18    2    8     -0.76      0.00
  -16    2    8      9.04      0.00
  -14    2    8      9.11      0.00
  -12    2    8     -9.29      0.00
  -10    2    8      0.86      0.00
   -8    2    8      0.33      0.00
   -6    2    8    -15.70      0.00
   -4    2    8     21.90      0.00
   -2    2    8     -1.02      0.00
    0    2    8     -6.98      0.00
    2    2    8     -2.16      0.00
    4    2    8     -5.28      0.00
    6    2    8      4.56      0.00
    8    2    8     14.72      0.00
   10    2    8      2.34      0.00
   12    2    8      8.58      0.00
   14    2    8     -0.80      0.00
   16    2    8     -7.43      0.00
   18    2    8      8.95      0.00
   20    2    8     -3.23      0.00
   22    2    8      1.42      0.00
   24    2    8      3.06      0.00
   26    2    8     -2.94      0.00
   28    2    8     -0.42      0.00
   30    2    8     -2.50      0.00
   32    2    8      0.96      0.00
  -39    3    8      3.16      0.00
  -37    3    8      4.42      0.00
  -35    3    8     -1.32      0.00
  -33    3    8      1.99      0.00
  -31    3    8      5.42      0.00
  -29    3    8    -11.82      0.00
  -27    3    8     -2.99      0.00
  -25    3    8      2.22      0.00
  -23    3    8    -12.24      0.00
  -21    3    8      1.20      0.00
  -19    3    8      1.23      0.00
  -17    3    8     -5.74      0.00
  -15    3    8     16.72      0.00
  -13    3    8     -0.84      0.00
  -11    3    8      3.10      0.00
   -9    3    8     -1.59      0.00
   -7    3    8     -6.13      0.00
   -5    3    8     -5.01      0.00
   -3    3    8     -0.88      0.00
   -1    3    8      2.32      0.00
    1    3    8     -6.11      0.00
    3    3    8     -0.26      0.00
    5    3    8      2.73      0.00
    7    3    8    -10.72      0.00
    9    3    8      6.65      0.00
   11    3    8     -0.70      0.00
   13    3    8     -8.43      0.00
   15    3    8     10.16      0.00
   17    3    8     -3.17      0.00
   19    3    8      0.89      0.00
   21    3    8     12.45      0.00
   23    3    8     -3.56      0.00
   25    3    8     -1.54      0.00
   27    3    8      4.00      0.00
   29    3    8     -0.21      0.00
   31    3    8     -0.61      0.00
  -40    4    8      1.36      0.00
  -38    4    8      0.58      0.00
  -36    4    8     -3.66      0.00
  -34    4    8     -0.56      0.00
  -32    4    8     -0.75      0.00
  -30    4    8     -4.75      0.00
  -28    4    8      0.77      0.00
  -26    4    8      3.50      0.00
  -24    4    8     -5.56      0.00
  -22    4    8      5.59      0.00
  -20    4    8      0.81      0.00
  -18    4    8     -4.58      0.00
  -16    4    8     -2.32      0.00
  -14    4    8      0.75      0.00
  -12    4    8     -9.96      0.00
  -10    4    8     12.10      0.00
   -8    4    8      1.52      0.00
   -6    4    8    -21.40      0.00
   -4    4    8     14.82      0.00
   -2    4    8    -10.94      0.00
    0    4    8     -0.94      0.00
    2    4    8     11.73      0.00
    4    4    8     -4.43      0.00
    6    4    8     -4.43      0.00
    8    4    8      2.12      0.00
   10    4    8     -5.55      0.00
   12    4    8     -0.19      0.00
   14    4    8      5.77      0.00
   16    4    8     -2.39      0.00
   18    4    8      8.07      0.00
   20    4    8     -5.84      0.00
   22    4    8     -1.29      0.00
   24    4    8     -0.85      0.00
   26    4    8     -2.27      0.00
   28    4    8      2.43      0.00
   30    4    8     -1.00      0.00
   32    4    8     -0.91      0.00
  -39    5    8     -0.34      0.00
  -37    5    8     -2.13      0.00
  -35    5    8     -2.35      0.00
  -33    5    8      0.62      0.00
  -31    5    8      1.68      0.00
  -29    5    8     -3.38      0.00
  -27    5    8      4.05      0.00
  -25    5    8     12.71      0.00
  -23    5    8      1.80      0.00
  -21    5    8      6.92      0.00
  -19    5    8      2.03      0.00
  -17    5    8    -11.05      0.00
  -15    5    8      0.06      0.00
  -13    5    8    -11.13      0.00
  -11    5    8     -5.58      0.00
   -9    5    8      7.22      0.00
   -7    5    8      0.85      0.00
   -5    5    8      0.42      0.00
   -3    5    8      2.27      0.00
   -1    5    8      5.94      0.00
    1    5    8     -8.21      0.00
    3    5    8      9.38      0.00
    5    5    8      6.07      0.00
    7    5    8     -8.23      0.00
    9    5    8      9.12      0.00
   11    5    8      0.70      0.00
   13    5    8    -15.56      0.00
   15    5    8      8.50      0.00
   17    5    8     -7.34      0.00
   19    5    8     -5.70      0.00
   21    5    8      3.29      0.00
   23    5    8     -6.89      0.00
   25    5    8     -1.12      0.00
   27    5    8      2.42      0.00
   29    5    8     -2.05      0.00
   31    5    8      2.25      0.00
  -38    6    8      2.08      0.00
  -36    6    8     -0.60      0.00
  -34    6    8      3.52      0.00
  -32    6    8     -0.49      0.00
  -30    6    8     -1.95      0.00
  -28    6    8     -0.86      0.00
  -26    6    8     -3.03      0.00
  -24    6    8     -8.72      0.00
  -22    6    8     -3.99      0.00
  -20    6    8     -3.69      0.00
  -18    6    8     -6.92      0.00
  -16    6    8      3.67      0.00
  -14    6    8     -0.74      0.00
  -12    6    8     -6.55      0.00
  -10    6    8      3.71      0.00
   -8    6    8     -0.92      0.00
   -6    6    8     -4.29      0.00
   -4    6    8     17.34      0.00
   -2    6    8     -0.35      0.00
    0    6    8     -6.86      0.00
    2    6    8      4.52      0.00
    4    6    8     -5.33      0.00
    6    6    8     -4.49      0.00
    8    6    8      0.60      0.00
   10    6    8     -3.79      0.00
   12    6    8     -3.64      0.00
   14    6    8     -3.58      0.00
   16    6    8    -11.29      0.00
   18    6    8      0.52      0.00
   20    6    8     -5.42      0.00
   22    6    8      1.85      0.00
   24    6    8      2.52      0.00
   26    6    8      2.31      0.00
   28    6    8     -0.99      0.00
   30    6    8      0.31      0.00
  -39    7    8      0.43      0.00
  -37    7    8      0.79      0.00
  -35    7    8     -4.19      0.00
  -33    7    8      3.25      0.00
  -31    7    8      0.81      0.00
  -29    7    8     -2.07      0.00
  -27    7    8     -2.20      0.00
  -25    7    8     -5.99      0.00
  -23    7    8     -5.99      0.00
  -21    7    8     -8.22      0.00
  -19    7    8      4.12      0.00
  -17    7    8     -2.42      0.00
  -15    7    8     15.70      0.00
  -13    7    8      7.13      0.00
  -11    7    8     -5.88      0.00
   -9    7    8     11.27      0.00
   -7    7    8     -3.18      0.00
   -5    7    8     -5.09      0.00
   -3    7    8      1.50      0.00
   -1    7    8      7.75      0.00
    1    7    8    -13.68      0.00
    3    7    8      3.21      0.00
    5    7    8      0.44      0.00
    7    7    8    -15.97      0.00
    9    7    8      7.63      0.00
   11    7    8      0.87      0.00
   13    7    8      0.45      0.00
   15    7    8      9.75      0.00
   17    7    8     -1.98      0.00
   19    7    8      0.96      0.00
   21    7    8      5.94      0.00
   23    7    8     -0.86      0.00
   25    7    8     -2.62      0.00
   27    7    8      1.60      0.00
   29    7    8     -2.13      0.00
   31    7    8      4.37      0.00
  -38    8    8     -3.09      0.00
  -36    8    8      0.27      0.00
  -34    8    8     -0.48      0.00
  -32    8    8     -2.46      0.00
  -30    8    8      3.96      0.00
  -28    8    8      2.75      0.00
  -26    8    8      5.12      0.00
  -24    8    8      7.59      0.00
  -22    8    8      3.70      0.00
  -20    8    8     11.04      0.00
  -18    8    8     -2.88      0.00
  -16    8    8      3.72      0.00
  -14    8    8      0.20      0.00
  -12    8    8      8.18      0.00
  -10    8    8      4.77      0.00
   -8    8    8     -1.45      0.00
   -6    8    8     -5.48      0.00
   -4    8    8     -6.04      0.00
   -2    8    8      0.52      0.00
    0    8    8     -5.12      0.00
    2    8    8      7.51      0.00
    4    8    8      2.49      0.00
    6    8    8      2.88      0.00
    8    8    8      5.28      0.00
   10    8    8      0.11      0.00
   12    8    8      6.42      0.00
   14    8    8      4.41      0.00
   16    8    8      6.59      0.00
   18    8    8      6.77      0.00
   20    8    8      0.81      0.00
   22    8    8      1.60      0.00
   24    8    8     -5.04      0.00
   26    8    8      0.14      0.00
   28    8    8      1.31      0.00
   30    8    8      2.12      0.00
  -37    9    8      5.91      0.00
  -35    9    8     -3.35      0.00
  -33    9    8      3.52      0.00
  -31    9    8     -2.57      0.00
  -29    9    8     -1.73      0.00
  -27    9    8      3.83      0.00
  -25    9    8      6.30      0.00
  -23    9    8      8.07      0.00
  -21    9    8     -1.40      0.00
  -19    9    8      4.49      0.00
  -17    9    8    -12.39      0.00
  -15    9    8      2.34      0.00
  -13    9    8     -2.81      0.00
  -11    9    8    -14.37      0.00
   -9    9    8      5.35      0.00
   -7    9    8     -2.17      0.00
   -5    9    8     -8.61      0.00
   -3    9    8      7.37      0.00
   -1    9    8      2.34      0.00
    1    9    8     -8.66      0.00
    3    9    8      6.77      0.00
    5    9    8      7.13      0.00
    7    9    8     -5.67      0.00
    9    9    8     13.90      0.00
   11    9    8     -4.40      0.00
   13    9    8     -5.01      0.00
   15    9    8     -1.55      0.00
   17    9    8     -4.50      0.00
   19    9    8     -0.52      0.00
   21    9    8      2.61      0.00
   23    9    8     -2.29      0.00
   25    9    8     -0.65      0.00
   27    9    8      2.49      0.00
   29    9    8     -3.69      0.00
  -38   10    8     -0.04      0.00
  -36   10    8      3.76      0.00
  -34   10    8     -4.55      0.00
  -32   10    8      4.23      0.00
  -30   10    8      1.40      0.00
  -28   10    8     -2.98      0.00
  -26   10    8     -2.46      0.00
  -24   10    8     -2.09      0.00
  -22   10    8     -6.98      0.00
  -20   10    8      0.81      0.00
  -18   10    8     -1.08      0.00
  -16   10    8     -2.00      0.00
  -14   10    8     -0.76      0.00
  -12   10    8     -1.73      0.00
  -10   10    8     -8.52      0.00
   -8   10    8      1.48      0.00
   -6   10    8      2.09      0.00
   -4   10    8      4.02      0.00
   -2   10    8      5.11      0.00
    0   10    8     -4.83      0.00
    2   10    8     -4.87      0.00
    4   10    8     -4.79      0.00
    6   10    8      0.36      0.00
    8   10    8     -1.84      0.00
   10   10    8     -1.69      0.00
   12   10    8      2.54      0.00
   14   10    8     -6.32      0.00
   16   10    8     -2.33      0.00
   18   10    8     -3.52      0.00
   20   10    8      1.72      0.00
   22   10    8      3.37      0.00
   24   10    8      0.94      0.00
   26   10    8      0.45      0.00
   28   10    8     -0.03      0.00
   30   10    8     -0.56      0.00
  -37   11    8      0.81      0.00
  -35   11    8     -4.15      0.00
  -33   11    8      4.32      0.00
  -31   11    8     -0.26      0.00
  -29   11    8     -1.46      0.00
  -27   11    8     -2.76      0.00
  -25   11    8     -1.95      0.00
  -23   11    8     -3.78      0.00
  -21   11    8      3.48      0.00
  -19   11    8     -2.66      0.00
  -17   11    8     -6.85      0.00
  -15   11    8      9.74      0.00
  -13   11    8      4.40      0.00
  -11   11    8     -7.18      0.00
   -9   11    8     11.50      0.00
   -7   11    8     10.66      0.00
   -5   11    8    -16.11      0.00
   -3   11    8     10.74      0.00
   -1   11    8     -1.62      0.00
    1   11    8     -6.47      0.00
    3   11    8      9.53      0.00
    5   11    8     -2.85      0.00
    7   11    8    -11.07      0.00
    9   11    8      2.18      0.00
   11   11    8     -0.98      0.00
   13   11    8      4.48      0.00
   15   11    8      4.43      0.00
   17   11    8     -0.48      0.00
   19   11    8     -1.42      0.00
   21   11    8      6.44      0.00
   23   11    8     -5.51      0.00
   25   11    8     -0.69      0.00
   27   11    8      1.65      0.00
   29   11    8     -1.72      0.00
  -36   12    8      5.23      0.00
  -34   12    8     -4.16      0.00
  -32   12    8      1.38      0.00
  -30   12    8     -6.72      0.00
  -28   12    8     -0.20      0.00
  -26   12    8     -2.72      0.00
  -24   12    8     -3.19      0.00
  -22   12    8      6.78      0.00
  -20   12    8     -1.03      0.00
  -18   12    8      0.93      0.00
  -16   12    8     -6.74      0.00
  -14   12    8      4.26      0.00
  -12   12    8      2.59      0.00
  -10   12    8     -0.82      0.00
   -8   12    8     11.42      0.00
   -6   12    8     -6.03      0.00
   -4   12    8      0.68      0.00
   -2   12    8     -2.31      0.00
    0   12    8      7.09      0.00
    2   12    8      2.39      0.00
    4   12    8      3.01      0.00
    6   12    8      5.33      0.00
    8   12    8     -6.33      0.00
   10   12    8      0.38      0.00
   12   12    8     -4.27      0.00
   14   12    8      3.74      0.00
   16   12    8      0.05      0.00
   18   12    8     -8.57      0.00
   20   12    8      0.73      0.00
   22   12    8     -3.89      0.00
   24   12    8     -1.92      0.00
   26   12    8     -3.62      0.00
   28   12    8      2.07      0.00
  -37   13    8      2.29      0.00
  -35   13    8     -3.78      0.00
  -33   13    8      0.91      0.00
  -31   13    8      0.80      0.00
  -29   13    8     -3.18      0.00
  -27   13    8      0.38      0.00
  -25   13    8      0.70      0.00
  -23   13    8     -4.91      0.00
  -21   13    8     11.20      0.00
  -19   13    8     -3.70      0.00
  -17   13    8      2.13      0.00
  -15   13    8      2.42      0.00
  -13   13    8      3.83      0.00
  -11   13    8    -11.09      0.00
   -9   13    8      2.63      0.00
   -7   13    8      4.51      0.00
   -5   13    8    -14.01      0.00
   -3   13    8     16.26      0.00
   -1   13    8     -1.70      0.00
    1   13    8    -12.28      0.00
    3   13    8     15.58      0.00
    5   13    8     -8.85      0.00
    7   13    8      0.41      0.00
    9   13    8      5.22      0.00
   11   13    8     -1.05      0.00
   13   13    8     -0.84      0.00
   15   13    8     -1.04      0.00
   17   13    8     -0.95      0.00
   19   13    8     -2.70      0.00
   21   13    8     11.37      0.00
   23   13    8     -3.63      0.00
   25   13    8      0.49      0.00
   27   13    8      5.78      0.00
   29   13    8     -1.54      0.00
  -36   14    8     -0.96      0.00
  -34   14    8      0.69      0.00
  -32   14    8      0.17      0.00
  -30   14    8      1.94      0.00
  -28   14    8      5.42      0.00
  -26   14    8      4.35      0.00
  -24   14    8      1.23      0.00
  -22   14    8     10.68      0.00
  -20   14    8     -4.71      0.00
  -18   14    8      2.52      0.00
  -16   14    8     -1.13      0.00
  -14   14    8      2.05      0.00
  -12   14    8     -0.17      0.00
  -10   14    8     -7.05      0.00
   -8   14    8      3.91      0.00
   -6   14    8     -4.77      0.00
   -4   14    8      2.94      0.00
   -2   14    8     -3.04      0.00
    0   14    8      2.26      0.00
    2   14    8     -3.80      0.00
    4   14    8      0.57      0.00
    6   14    8      4.15      0.00
    8   14    8     -0.88      0.00
   10   14    8      9.15      0.00
   12   14    8     -5.88      0.00
   14   14    8      9.67      0.00
   16   14    8      6.12      0.00
   18   14    8     -0.30      0.00
   20   14    8     10.75      0.00
   22   14    8      0.04      0.00
   24   14    8      2.20      0.00
   26   14    8      0.64      0.00
   28   14    8      2.53      0.00
  -35   15    8      0.64      0.00
  -33   15    8      1.56      0.00
  -31   15    8      0.66      0.00
  -29   15    8     -2.55      0.00
  -27   15    8      5.69      0.00
  -25   15    8      1.74      0.00
  -23   15    8     -1.78      0.00
  -21   15    8      9.26      0.00
  -19   15    8    -13.03      0.00
  -17   15    8     -2.39      0.00
  -15   15    8     -1.61      0.00
  -13   15    8      7.78      0.00
  -11   15    8    -13.96      0.00
   -9   15    8      9.43      0.00
   -7   15    8      0.79      0.00
   -5   15    8    -12.51      0.00
   -3   15    8      9.67      0.00
   -1   15    8     -0.08      0.00
    1   15    8    -12.82      0.00
    3   15    8     17.98      0.00
    5   15    8     -7.94      0.00
    7   15    8     -0.24      0.00
    9   15    8      1.32      0.00
   11   15    8      2.48      0.00
   13   15    8     -1.15      0.00
   15   15    8     -2.12      0.00
   17   15    8     -4.21      0.00
   19   15    8     -5.66      0.00
   21   15    8      0.80      0.00
   23   15    8     -5.00      0.00
   25   15    8     -3.89      0.00
   27   15    8      1.49      0.00
  -34   16    8      5.05      0.00
  -32   16    8     -5.74      0.00
  -30   16    8      4.23      0.00
  -28   16    8     -6.68      0.00
  -26   16    8     -4.73      0.00
  -24   16    8     -7.74      0.00
  -22   16    8     -0.24      0.00
  -20   16    8     -6.49      0.00
  -18   16    8     -1.45      0.00
  -16   16    8      0.67      0.00
  -14   16    8     -1.46      0.00
  -12   16    8     -1.91      0.00
  -10   16    8     -2.85      0.00
   -8   16    8      4.62      0.00
   -6   16    8      3.23      0.00
   -4   16    8     -9.09      0.00
   -2   16    8     -1.64      0.00
    0   16    8     -0.74      0.00
    2   16    8     -7.02      0.00
    4   16    8     -3.42      0.00
    6   16    8     -3.28      0.00
    8   16    8     -2.84      0.00
   10   16    8     -1.82      0.00
   12   16    8     -9.58      0.00
   14   16    8     -2.63      0.00
   16   16    8     -4.63      0.00
   18   16    8     -9.05      0.00
   20   16    8      1.90      0.00
   22   16    8     -2.04      0.00
   24   16    8     -1.30      0.00
   26   16    8     -1.75      0.00
  -33   17    8     -0.89      0.00
  -31   17    8      2.89      0.00
  -29   17    8     -1.90      0.00
  -27   17    8     -3.48      0.00
  -25   17    8     -3.50      0.00
  -23   17    8     -4.18      0.00
  -21   17    8      7.10      0.00
  -19   17    8      0.51      0.00
  -17   17    8      0.81      0.00
  -15   17    8     -3.83      0.00
  -13   17    8      7.35      0.00
  -11   17    8    -10.34      0.00
   -9   17    8     13.27      0.00
   -7   17    8     -0.70      0.00
   -5   17    8     -4.20      0.00
   -3   17    8      5.88      0.00
   -1   17    8     -2.39      0.00
    1   17    8    -10.07      0.00
    3   17    8      9.03      0.00
    5   17    8     -6.14      0.00
    7   17    8     -2.84      0.00
    9   17    8     -3.10      0.00
   11   17    8      0.18      0.00
   13   17    8     -1.26      0.00
   15   17    8      7.05      0.00
   17   17    8     -0.23      0.00
   19   17    8      3.79      0.00
   21   17    8      2.25      0.00
   23   17    8      2.30      0.00
   25   17    8      0.01      0.00
  -32   18    8     -5.29      0.00
  -30   18    8      5.11      0.00
  -28   18    8     -5.23      0.00
  -26   18    8      4.75      0.00
  -24   18    8      4.08      0.00
  -22   18    8      5.07      0.00
  -20   18    8     -0.16      0.00
  -18   18    8      1.52      0.00
  -16   18    8      0.07      0.00
  -14   18    8      3.64      0.00
  -12   18    8      1.16      0.00
  -10   18    8      0.34      0.00
   -8   18    8      0.62      0.00
   -6   18    8      8.88      0.00
   -4   18    8     -6.19      0.00
   -2   18    8      3.63      0.00
    0   18    8      5.47      0.00
    2   18    8      2.13      0.00
    4   18    8      7.53      0.00
    6   18    8      2.42      0.00
    8   18    8      2.35      0.00
   10   18    8      1.01      0.00
   12   18    8      2.83      0.00
   14   18    8      4.25      0.00
   16   18    8     -0.78      0.00
   18   18    8     -1.71      0.00
   20   18    8      2.48      0.00
   22   18    8      0.51      0.00
   24   18    8     -0.72      0.00
  -31   19    8      2.13      0.00
  -29   19    8     -0.76      0.00
  -27   19    8     -1.25      0.00
  -25   19    8      4.94      0.00
  -23   19    8      0.88      0.00
  -21   19    8     -0.69      0.00
  -19   19    8      0.37      0.00
  -17   19    8     -2.89      0.00
  -15   19    8      1.55      0.00
  -13   19    8      4.15      0.00
  -11   19    8    -10.41      0.00
   -9   19    8      4.63      0.00
   -7   19    8     -0.75      0.00
   -5   19    8     -3.48      0.00
   -3   19    8      5.48      0.00
   -1   19    8      1.13      0.00
    1   19    8     -5.95      0.00
    3   19    8      7.37      0.00
    5   19    8      1.28      0.00
    7   19    8      3.46      0.00
    9   19    8      3.14      0.00
   11   19    8      3.79      0.00
   13   19    8     -1.63      0.00
   15   19    8      0.20      0.00
   17   19    8     -3.93      0.00
   19   19    8      1.15      0.00
   21   19    8     -1.70      0.00
   23   19    8     -0.34      0.00
  -30   20    8      1.28      0.00
  -28   20    8     -2.29      0.00
  -26   20    8      3.08      0.00
  -24   20    8     -0.19      0.00
  -22   20    8      3.09      0.00
  -20   20    8     -2.84      0.00
  -18   20    8      1.46      0.00
  -16   20    8     -3.19      0.00
  -14   20    8      3.85      0.00
  -12   20    8     -6.99      0.00
  -10   20    8     -3.61      0.00
   -8   20    8     -1.43      0.00
   -6   20    8      2.70      0.00
   -4   20    8     -4.27      0.00
   -2   20    8      1.60      0.00
    0   20    8      3.81      0.00
    2   20    8     -8.25      0.00
    4   20    8     -1.56      0.00
    6   20    8      2.50      0.00
    8   20    8     -0.76      0.00
   10   20    8      1.79      0.00
   12   20    8     -0.70      0.00
   14   20    8      5.59      0.00
   16   20    8     -1.21      0.00
   18   20    8      5.58      0.00
   20   20    8      3.96      0.00
   22   20    8     -1.05      0.00
  -29   21    8     -0.48      0.00
  -27   21    8     -1.93      0.00
  -25   21    8     -1.64      0.00
  -23   21    8     -0.98      0.00
  -21   21    8     -1.96      0.00
  -19   21    8      3.93      0.00
  -17   21    8     -3.15      0.00
  -15   21    8      2.15      0.00
  -13   21    8      1.94      0.00
  -11   21    8     -2.37      0.00
   -9   21    8      2.20      0.00
   -7   21    8      3.04      0.00
   -5   21    8     -4.75      0.00
   -3   21    8      4.20      0.00
   -1   21    8      2.48      0.00
    1   21    8     -5.57      0.00
    3   21    8      1.59      0.00
    5   21    8     -5.36      0.00
    7   21    8      0.06      0.00
    9   21    8      0.29      0.00
   11   21    8     -3.86      0.00
   13   21    8     -0.22      0.00
   15   21    8      0.30      0.00
   17   21    8      0.58      0.00
   19   21    8     -1.07      0.00
   21   21    8      2.30      0.00
  -28   22    8     -0.28      0.00
  -26   22    8     -1.03      0.00
  -24   22    8     -3.81      0.00
  -22   22    8      1.59      0.00
  -20   22    8     -4.09      0.00
  -18   22    8     -1.57      0.00
  -16   22    8      0.19      0.00
  -14   22    8      7.17      0.00
  -12   22    8     -1.30      0.00
  -10   22    8      4.64      0.00
   -8   22    8      1.12      0.00
   -6   22    8      3.63      0.00
   -4   22    8     -1.30      0.00
   -2   22    8     -3.62      0.00
    0   22    8     -0.66      0.00
    2   22    8     -2.66      0.00
    4   22    8      1.47      0.00
    6   22    8      3.61      0.00
    8   22    8     -4.41      0.00
   10   22    8     -0.89      0.00
   12   22    8     -5.42      0.00
   14   22    8      0.88      0.00
   16   22    8    -10.91      0.00
   18   22    8     -2.13      0.00
   20   22    8      2.31      0.00
  -27   23    8     -1.24      0.00
  -25   23    8      2.82      0.00
  -23   23    8      3.88      0.00
  -21   23    8     -0.35      0.00
  -19   23    8      1.69      0.00
  -17   23    8     -1.67      0.00
  -15   23    8      2.53      0.00
  -13   23    8     -2.46      0.00
  -11   23    8     -3.37      0.00
   -9   23    8      1.52      0.00
   -7   23    8      0.51      0.00
   -5   23    8     -5.04      0.00
   -3   23    8      2.37      0.00
   -1   23    8     -0.14      0.00
    1   23    8     -2.74      0.00
    3   23    8      2.21      0.00
    5   23    8      1.20      0.00
    7   23    8      0.34      0.00
    9   23    8      2.29      0.00
   11   23    8     -2.88      0.00
   13   23    8      1.20      0.00
   15   23    8     -1.02      0.00
   17   23    8     -0.56      0.00
   19   23    8     -2.52      0.00
  -26   24    8      0.79      0.00
  -24   24    8     -0.15      0.00
  -22   24    8      3.78      0.00
  -20   24    8      2.74      0.00
  -18   24    8     -4.23      0.00
  -16   24    8      3.00      0.00
  -14   24    8     -0.24      0.00
  -12   24    8     -5.14      0.00
  -10   24    8      1.26      0.00
   -8   24    8     -4.24      0.00
   -6   24    8      3.05      0.00
   -4   24    8      0.02      0.00
   -2   24    8      3.62      0.00
    0   24    8      3.78      0.00
    2   24    8     -0.47      0.00
    4   24    8     -0.06      0.00
    6   24    8      0.53      0.00
    8   24    8      0.64      0.00
   10   24    8      3.25      0.00
   12   24    8      2.02      0.00
   14   24    8      3.53      0.00
   16   24    8     -1.98      0.00
   18   24    8      3.72      0.00
  -25   25    8     -0.39      0.00
  -23   25    8     -3.52      0.00
  -21   25    8      0.08      0.00
  -19   25    8     -0.68      0.00
  -17   25    8     -4.97      0.00
  -15   25    8      2.81      0.00
  -13   25    8     -0.44      0.00
  -11   25    8     -2.67      0.00
   -9   25    8      5.51      0.00
   -7   25    8     -0.32      0.00
   -5   25    8      1.95      0.00
   -3   25    8      3.21      0.00
   -1   25    8      1.23      0.00
    1   25    8     -2.79      0.00
    3   25    8     -2.69      0.00
    5   25    8      1.68      0.00
    7   25    8      0.78      0.00
    9   25    8      5.86      0.00
   11   25    8      0.33      0.00
   13   25    8      0.15      0.00
   15   25    8      0.94      0.00
   17   25    8      0.72      0.00
  -22   26    8     -1.49      0.00
  -20   26    8     -0.82      0.00
  -18   26    8     -5.47      0.00
  -16   26    8      2.99      0.00
  -14   26    8     -0.80      0.00
  -12   26    8      1.89      0.00
  -10   26    8      0.11      0.00
   -8   26    8     -5.31      0.00
   -6   26    8      0.01      0.00
   -4   26    8     -4.04      0.00
   -2   26    8     -5.80      0.00
    0   26    8     -1.26      0.00
    2   26    8     -4.96      0.00
    4   26    8      2.13      0.00
    6   26    8      1.56      0.00
    8   26    8     -0.44      0.00
   10   26    8     -2.51      0.00
   12   26    8     -1.77      0.00
   14   26    8     -0.33      0.00
  -21   27    8      1.16      0.00
  -19   27    8      1.54      0.00
  -17   27    8      0.48      0.00
  -15   27    8      4.07      0.00
  -13   27    8      0.52      0.00
  -11   27    8     -2.82      0.00
   -9   27    8      2.68      0.00
   -7   27    8     -5.60      0.00
   -5   27    8     -0.01      0.00
   -3   27    8     -0.85      0.00
   -1   27    8      3.33      0.00
    1   27    8     -2.27      0.00
    3   27    8     -1.06      0.00
    5   27    8     -2.14      0.00
    7   27    8     -2.96      0.00
    9   27    8     -0.98      0.00
   11   27    8     -2.69      0.00
   13   27    8     -1.55      0.00
  -18   28    8      1.90      0.00
  -16   28    8      0.28      0.00
  -14   28    8     -1.87      0.00
  -12   28    8      1.86      0.00
  -10   28    8     -1.42      0.00
   -8   28    8      2.74      0.00
   -6   28    8      4.00      0.00
   -4   28    8      3.96      0.00
   -2   28    8      1.18      0.00
    0   28    8      7.94      0.00
    2   28    8     -2.26      0.00
    4   28    8     -1.33      0.00
    6   28    8     -1.23      0.00
    8   28    8     -1.28      0.00
   10   28    8      2.29      0.00
  -15   29    8     -1.32      0.00
  -13   29    8      1.49      0.00
  -11   29    8     -2.31      0.00
   -9   29    8     -0.28      0.00
   -7   29    8     -1.00      0.00
   -5   29    8      1.97      0.00
   -3   29    8     -0.49      0.00
   -1   29    8     -1.16      0.00
    1   29    8     -2.07      0.00
    3   29    8      1.08      0.00
    5   29    8      0.80      0.00
    7   29    8      1.40      0.00
    9   29    8      2.65      0.00
  -12   30    8      3.69      0.00
  -10   30    8     -0.06      0.00
   -8   30    8      0.29      0.00
   -6   30    8     -2.05      0.00
   -4   30    8     -2.98      0.00
   -2   30    8     -3.87      0.00
    0   30    8      1.34      0.00
    2   30    8     -0.24      0.00
    4   30    8      1.66      0.00
   -5   31    8      0.53      0.00
   -3   31    8      2.02      0.00
  -37    1    9     -0.89      0.00
  -35    1    9     -3.54      0.00
  -33    1    9     -1.69      0.00
  -31    1    9      1.23      0.00
  -29    1    9      3.46      0.00
  -27    1    9      1.87      0.00
  -25    1    9      2.78      0.00
  -23    1    9     -3.74      0.00
  -21    1    9     -1.59      0.00
  -19    1    9     -2.63      0.00
  -17    1    9      9.76      0.00
  -15    1    9     -1.93      0.00
  -13    1    9      5.31      0.00
  -11    1    9     -7.62      0.00
   -9    1    9     -3.48      0.00
   -7    1    9      3.59      0.00
   -5    1    9     -0.52      0.00
   -3    1    9      7.11      0.00
   -1    1    9      3.01      0.00
    1    1    9     -7.58      0.00
    3    1    9     -0.66      0.00
    5    1    9     -4.13      0.00
    7    1    9      0.65      0.00
    9    1    9      0.10      0.00
   11    1    9      4.74      0.00
   13    1    9     -3.41      0.00
   15    1    9     -2.22      0.00
   17    1    9     -4.24      0.00
   19    1    9     -1.04      0.00
   21    1    9     -3.78      0.00
   23    1    9     -1.89      0.00
   25    1    9     -1.75      0.00
   27    1    9     -2.75      0.00
   29    1    9     -4.15      0.00
  -38    2    9      1.62      0.00
  -36    2    9     -0.51      0.00
  -34    2    9      4.32      0.00
  -32    2    9     -5.14      0.00
  -30    2    9      1.63      0.00
  -28    2    9      5.62      0.00
  -26    2    9     -0.68      0.00
  -24    2    9      4.40      0.00
  -22    2    9      7.59      0.00
  -20    2    9     -7.19      0.00
  -18    2    9     -0.99      0.00
  -16    2    9     -1.00      0.00
  -14    2    9     -1.88      0.00
  -12    2    9      3.15      0.00
  -10    2    9     -5.57      0.00
   -8    2    9      0.43      0.00
   -6    2    9      0.62      0.00
   -4    2    9      3.79      0.00
   -2    2    9      3.10      0.00
    0    2    9     13.63      0.00
    2    2    9     -8.97      0.00
    4    2    9     10.19      0.00
    6    2    9     -6.05      0.00
    8    2    9      6.75      0.00
   10    2    9     -5.04      0.00
   12    2    9      2.47      0.00
   14    2    9     -3.04      0.00
   16    2    9     -0.97      0.00
   18    2    9      2.07      0.00
   20    2    9     -1.67      0.00
   22    2    9      0.79      0.00
   24    2    9      1.38      0.00
   26    2    9     -3.51      0.00
   28    2    9      3.02      0.00
  -37    3    9      1.92      0.00
  -35    3    9      0.67      0.00
  -33    3    9      2.89      0.00
  -31    3    9     -2.69      0.00
  -29    3    9      1.14      0.00
  -27    3    9     -2.60      0.00
  -25    3    9      3.27      0.00
  -23    3    9     -0.75      0.00
  -21    3    9      8.43      0.00
  -19    3    9      0.00      0.00
  -17    3    9      4.88      0.00
  -15    3    9    -13.60      0.00
  -13    3    9      9.17      0.00
  -11    3    9      1.83      0.00
   -9    3    9      4.10      0.00
   -7    3    9      2.32      0.00
   -5    3    9     -6.10      0.00
   -3    3    9     -2.49      0.00
   -1    3    9      6.24      0.00
    1    3    9     -8.71      0.00
    3    3    9     11.15      0.00
    5    3    9     -3.01      0.00
    7    3    9      1.08      0.00
    9    3    9     -1.65      0.00
   11    3    9      4.71      0.00
   13    3    9     -1.78      0.00
   15    3    9      7.15      0.00
   17    3    9     -4.85      0.00
   19    3    9      3.26      0.00
   21    3    9     -0.46      0.00
   23    3    9      1.72      0.00
   25    3    9     -2.03      0.00
   27    3    9      1.74      0.00
   29    3    9      1.23      0.00
  -38    4    9     -0.29      0.00
  -36    4    9     -3.92      0.00
  -34    4    9      3.75      0.00
  -32    4    9     -6.72      0.00
  -30    4    9      2.69      0.00
  -28    4    9     -2.36      0.00
  -26    4    9     -9.40      0.00
  -24    4    9     -4.07      0.00
  -22    4    9      1.90      0.00
  -20    4    9      2.33      0.00
  -18    4    9      4.89      0.00
  -16    4    9      5.27      0.00
  -14    4    9     -4.67      0.00
  -12    4    9      4.30      0.00
  -10    4    9     -2.74      0.00
   -8    4    9      2.15      0.00
   -6    4    9     -3.36      0.00
   -4    4    9     -6.76      0.00
   -2    4    9     -9.22      0.00
    0    4    9      2.03      0.00
    2    4    9     -9.77      0.00
    4    4    9      3.97      0.00
    6    4    9     -6.83      0.00
    8    4    9      8.02      0.00
   10    4    9     -7.41      0.00
   12    4    9      4.44      0.00
   14    4    9     -1.87      0.00
   16    4    9      6.00      0.00
   18    4    9      1.85      0.00
   20    4    9     -4.10      0.00
   22    4    9      0.49      0.00
   24    4    9     -0.30      0.00
   26    4    9      1.04      0.00
   28    4    9      3.76      0.00
  -37    5    9     -1.21      0.00
  -35    5    9     -3.79      0.00
  -33    5    9      2.09      0.00
  -31    5    9     -3.65      0.00
  -29    5    9      5.52      0.00
  -27    5    9     -2.64      0.00
  -25    5    9     -1.33      0.00
  -23    5    9     -6.56      0.00
  -21    5    9     -2.93      0.00
  -19    5    9     -1.26      0.00
  -17    5    9      3.47      0.00
  -15    5    9     -0.92      0.00
  -13    5    9     -2.80      0.00
  -11    5    9     -1.29      0.00
   -9    5    9     -0.51      0.00
   -7    5    9     -2.26      0.00
   -5    5    9      2.84      0.00
   -3    5    9     -3.10      0.00
   -1    5    9     10.70      0.00
    1    5    9    -14.49      0.00
    3    5    9      9.56      0.00
    5    5    9     -2.19      0.00
    7    5    9     -0.58      0.00
    9    5    9      3.98      0.00
   11    5    9     -3.00      0.00
   13    5    9     -4.78      0.00
   15    5    9      4.60      0.00
   17    5    9      0.15      0.00
   19    5    9      8.39      0.00
   21    5    9     -3.14      0.00
   23    5    9      4.98      0.00
   25    5    9      4.04      0.00
   27    5    9      0.25      0.00
   29    5    9     -1.10      0.00
  -36    6    9     -0.62      0.00
  -34    6    9      3.19      0.00
  -32    6    9     -4.45      0.00
  -30    6    9      7.48      0.00
  -28    6    9      6.94      0.00
  -26    6    9      2.29      0.00
  -24    6    9      4.53      0.00
  -22    6    9     -2.78      0.00
  -20    6    9      0.02      0.00
  -18    6    9     -9.98      0.00
  -16    6    9     -1.75      0.00
  -14    6    9      1.24      0.00
  -12    6    9      5.29      0.00
  -10    6    9     -0.61      0.00
   -8    6    9      5.26      0.00
   -6    6    9      0.05      0.00
   -4    6    9      5.69      0.00
   -2    6    9      5.28      0.00
    0    6    9     -0.64      0.00
    2    6    9      1.15      0.00
    4    6    9     -4.03      0.00
    6    6    9      2.20      0.00
    8    6    9      3.95      0.00
   10    6    9     -7.57      0.00
   12    6    9      5.43      0.00
   14    6    9     -7.52      0.00
   16    6    9      2.49      0.00
   18    6    9      1.81      0.00
   20    6    9     -2.63      0.00
   22    6    9      2.17      0.00
   24    6    9     -4.72      0.00
   26    6    9      4.40      0.00
   28    6    9     -1.34      0.00
  -37    7    9     -3.15      0.00
  -35    7    9      5.11      0.00
  -33    7    9      2.24      0.00
  -31    7    9     -1.39      0.00
  -29    7    9      5.19      0.00
  -27    7    9     -0.71      0.00
  -25    7    9      1.77      0.00
  -23    7    9      3.07      0.00
  -21    7    9     -1.77      0.00
  -19    7    9      1.03      0.00
  -17    7    9     -3.46      0.00
  -15    7    9     -1.45      0.00
  -13    7    9     -3.38      0.00
  -11    7    9     11.42      0.00
   -9    7    9     -1.96      0.00
   -7    7    9     -4.52      0.00
   -5    7    9     -2.63      0.00
   -3    7    9     -3.60      0.00
   -1    7    9      5.11      0.00
    1    7    9     -6.66      0.00
    3    7    9      6.85      0.00
    5    7    9      0.06      0.00
    7    7    9    -12.49      0.00
    9    7    9     11.71      0.00
   11    7    9     -9.19      0.00
   13    7    9      1.38      0.00
   15    7    9     -2.83      0.00
   17    7    9    -11.57      0.00
   19    7    9      1.70      0.00
   21    7    9     -4.47      0.00
   23    7    9     -5.11      0.00
   25    7    9     -0.65      0.00
   27    7    9     -3.71      0.00
  -36    8    9      2.28      0.00
  -34    8    9     -0.05      0.00
  -32    8    9     -1.90      0.00
  -30    8    9     -5.99      0.00
  -28    8    9     -2.17      0.00
  -26    8    9     -3.35      0.00
  -24    8    9      2.90      0.00
  -22    8    9     -8.96      0.00
  -20    8    9      4.61      0.00
  -18    8    9      1.89      0.00
  -16    8    9     -4.54      0.00
  -14    8    9      0.21      0.00
  -12    8    9     -0.47      0.00
  -10    8    9     -6.08      0.00
   -8    8    9      0.00      0.00
   -6    8    9     -8.24      0.00
   -4    8    9      3.95      0.00
   -2    8    9      2.61      0.00
    0    8    9     -2.11      0.00
    2    8    9     10.72      0.00
    4    8    9     -7.60      0.00
    6    8    9      7.34      0.00
    8    8    9      2.51      0.00
   10    8    9     -3.04      0.00
   12    8    9      5.59      0.00
   14    8    9     -1.51      0.00
   16    8    9      1.37      0.00
   18    8    9      1.66      0.00
   20    8    9     -7.81      0.00
   22    8    9      1.20      0.00
   24    8    9     -5.31      0.00
   26    8    9      4.87      0.00
   28    8    9     -4.49      0.00
  -35    9    9      5.56      0.00
  -33    9    9     -7.24      0.00
  -31    9    9     -3.14      0.00
  -29    9    9     -0.83      0.00
  -27    9    9     -3.24      0.00
  -25    9    9     -1.42      0.00
  -23    9    9      1.71      0.00
  -21    9    9     -3.88      0.00
  -19    9    9      3.82      0.00
  -17    9    9      4.32      0.00
  -15    9    9      1.14      0.00
  -13    9    9     -4.66      0.00
  -11    9    9      2.43      0.00
   -9    9    9     -6.79      0.00
   -7    9    9     10.86      0.00
   -5    9    9     -1.48      0.00
   -3    9    9      6.88      0.00
   -1    9    9      1.25      0.00
    1    9    9     -5.85      0.00
    3    9    9     -2.03      0.00
    5    9    9      4.99      0.00
    7    9    9    -11.50      0.00
    9    9    9     21.90      0.00
   11    9    9     -7.58      0.00
   13    9    9      2.17      0.00
   15    9    9      5.16      0.00
   17    9    9      1.37      0.00
   19    9    9      5.32      0.00
   21    9    9      0.83      0.00
   23    9    9     -1.24      0.00
   25    9    9      9.83      0.00
   27    9    9     -4.91      0.00
  -36   10    9     -1.59      0.00
  -34   10    9     -2.26      0.00
  -32   10    9      3.75      0.00
  -30   10    9     -3.83      0.00
  -28   10    9      5.61      0.00
  -26   10    9      0.41      0.00
  -24   10    9      1.50      0.00
  -22   10    9     -0.83      0.00
  -20   10    9     11.17      0.00
  -18   10    9      2.91      0.00
  -16   10    9     -4.54      0.00
  -14   10    9      4.18      0.00
  -12   10    9      3.37      0.00
  -10   10    9     -0.60      0.00
   -8   10    9      6.31      0.00
   -6   10    9     -7.52      0.00
   -4   10    9      2.08      0.00
   -2   10    9     -2.24      0.00
    0   10    9     -5.13      0.00
    2   10    9      2.35      0.00
    4   10    9     -9.01      0.00
    6   10    9      5.18      0.00
    8   10    9     -6.75      0.00
   10   10    9     -6.02      0.00
   12   10    9     -1.88      0.00
   14   10    9      0.92      0.00
   16   10    9     -0.59      0.00
   18   10    9     10.38      0.00
   20   10    9     -1.98      0.00
   22   10    9      4.04      0.00
   24   10    9      0.41      0.00
   26   10    9      5.59      0.00
  -35   11    9      1.49      0.00
  -33   11    9     -0.85      0.00
  -31   11    9      3.72      0.00
  -29   11    9      2.45      0.00
  -27   11    9     -0.55      0.00
  -25   11    9      1.39      0.00
  -23   11    9      1.69      0.00
  -21   11    9     -3.00      0.00
  -19   11    9      2.64      0.00
  -17   11    9     -4.46      0.00
  -15   11    9     -5.18      0.00
  -13   11    9      3.04      0.00
  -11   11    9      8.96      0.00
   -9   11    9     -7.82      0.00
   -7   11    9      4.66      0.00
   -5   11    9    -10.65      0.00
   -3   11    9     -0.57      0.00
   -1   11    9      0.96      0.00
    1   11    9     -1.38      0.00
    3   11    9      6.74      0.00
    5   11    9      8.03      0.00
    7   11    9    -14.98      0.00
    9   11    9      5.69      0.00
   11   11    9     -4.98      0.00
   13   11    9     -1.27      0.00
   15   11    9      2.21      0.00
   17   11    9     -4.05      0.00
   19   11    9      1.09      0.00
   21   11    9      4.85      0.00
   23   11    9     -8.00      0.00
   25   11    9      0.88      0.00
   27   11    9     -0.88      0.00
  -34   12    9     -1.05      0.00
  -32   12    9      2.64      0.00
  -30   12    9     -3.31      0.00
  -28   12    9      1.60      0.00
  -26   12    9      6.41      0.00
  -24   12    9     -5.97      0.00
  -22   12    9     -7.12      0.00
  -20   12    9     -1.52      0.00
  -18   12    9     -4.36      0.00
  -16   12    9      1.93      0.00
  -14   12    9      1.39      0.00
  -12   12    9     -3.86      0.00
  -10   12    9      1.55      0.00
   -8   12    9      5.88      0.00
   -6   12    9    -10.75      0.00
   -4   12    9      9.67      0.00
   -2   12    9     -1.25      0.00
    0   12    9      0.32      0.00
    2   12    9     -1.31      0.00
    4   12    9     -5.38      0.00
    6   12    9      8.42      0.00
    8   12    9      0.63      0.00
   10   12    9      0.99      0.00
   12   12    9      1.30      0.00
   14   12    9      1.37      0.00
   16   12    9     -3.52      0.00
   18   12    9      1.57      0.00
   20   12    9     -7.64      0.00
   22   12    9     -3.10      0.00
   24   12    9     -2.36      0.00
   26   12    9      0.06      0.00
  -35   13    9     -0.57      0.00
  -33   13    9      4.38      0.00
  -31   13    9     -2.75      0.00
  -29   13    9      1.31      0.00
  -27   13    9      0.78      0.00
  -25   13    9      1.64      0.00
  -23   13    9      3.19      0.00
  -21   13    9     -1.14      0.00
  -19   13    9      0.37      0.00
  -17   13    9     -0.14      0.00
  -15   13    9      1.80      0.00
  -13   13    9      1.37      0.00
  -11   13    9      0.81      0.00
   -9   13    9     -5.78      0.00
   -7   13    9      3.94      0.00
   -5   13    9     -0.31      0.00
   -3   13    9     -1.67      0.00
   -1   13    9      2.02      0.00
    1   13    9     -8.27      0.00
    3   13    9      0.29      0.00
    5   13    9      2.33      0.00
    7   13    9     -8.35      0.00
    9   13    9      5.83      0.00
   11   13    9      1.97      0.00
   13   13    9     -6.87      0.00
   15   13    9      0.47      0.00
   17   13    9     -0.82      0.00
   19   13    9     -4.84      0.00
   21   13    9      3.24      0.00
   23   13    9     -1.60      0.00
   25   13    9      2.61      0.00
  -34   14    9      3.76      0.00
  -32   14    9     -2.67      0.00
  -30   14    9     -3.67      0.00
  -28   14    9     -2.23      0.00
  -26   14    9      8.64      0.00
  -24   14    9    -10.42      0.00
  -22   14    9      8.37      0.00
  -20   14    9      6.36      0.00
  -18   14    9     -6.66      0.00
  -16   14    9     -0.41      0.00
  -14   14    9      1.79      0.00
  -12   14    9     -6.51      0.00
  -10   14    9      4.61      0.00
   -8   14    9      3.94      0.00
   -6   14    9    -17.03      0.00
   -4   14    9     15.28      0.00
   -2   14    9     -6.77      0.00
    0   14    9      8.07      0.00
    2   14    9      7.62      0.00
    4   14    9     -2.78      0.00
    6   14    9      5.61      0.00
    8   14    9     -0.48      0.00
   10   14    9     -3.15      0.00
   12   14    9      4.82      0.00
   14   14    9     -1.04      0.00
   16   14    9      1.42      0.00
   18   14    9      0.73      0.00
   20   14    9     -0.25      0.00
   22   14    9      1.50      0.00
   24   14    9      1.73      0.00
  -33   15    9      4.12      0.00
  -31   15    9     -5.94      0.00
  -29   15    9     -1.04      0.00
  -27   15    9     -0.14      0.00
  -25   15    9     -4.47      0.00
  -23   15    9     -2.25      0.00
  -21   15    9      2.79      0.00
  -19   15    9     -1.38      0.00
  -17   15    9      2.96      0.00
  -15   15    9     -4.12      0.00
  -13   15    9      3.54      0.00
  -11   15    9      2.65      0.00
   -9   15    9     -1.20      0.00
   -7   15    9      0.88      0.00
   -5   15    9      4.30      0.00
   -3   15    9     -0.04      0.00
   -1   15    9      5.22      0.00
    1   15    9     -1.12      0.00
    3   15    9      5.98      0.00
    5   15    9      8.37      0.00
    7   15    9     -1.91      0.00
    9   15    9      0.48      0.00
   11   15    9      5.18      0.00
   13   15    9      4.64      0.00
   15   15    9      2.95      0.00
   17   15    9      0.33      0.00
   19   15    9      0.09      0.00
   21   15    9      7.23      0.00
   23   15    9     -2.81      0.00
  -32   16    9     -0.62      0.00
  -30   16    9      4.06      0.00
  -28   16    9     -1.19      0.00
  -26   16    9      7.19      0.00
  -24   16    9    -11.81      0.00
  -22   16    9      8.78      0.00
  -20   16    9     -2.18      0.00
  -18   16    9     -2.84      0.00
  -16   16    9      8.62      0.00
  -14   16    9      0.09      0.00
  -12   16    9    -12.32      0.00
  -10   16    9     10.31      0.00
   -8   16    9      6.30      0.00
   -6   16    9    -13.17      0.00
   -4   16    9     14.22      0.00
   -2   16    9    -11.50      0.00
    0   16    9     -2.36      0.00
    2   16    9     -3.38      0.00
    4   16    9    -10.50      0.00
    6   16    9      5.19      0.00
    8   16    9     -4.06      0.00
   10   16    9     -7.41      0.00
   12   16    9      3.96      0.00
   14   16    9     -2.18      0.00
   16   16    9      3.02      0.00
   18   16    9      3.38      0.00
   20   16    9      1.50      0.00
   22   16    9     -1.72      0.00
  -31   17    9     -0.93      0.00
  -29   17    9      0.64      0.00
  -27   17    9      0.81      0.00
  -25   17    9      0.69      0.00
  -23   17    9      3.78      0.00
  -21   17    9      1.97      0.00
  -19   17    9     -8.39      0.00
  -17   17    9      3.67      0.00
  -15   17    9    -11.01      0.00
  -13   17    9     -1.63      0.00
  -11   17    9      2.22      0.00
   -9   17    9      0.40      0.00
   -7   17    9     -0.37      0.00
   -5   17    9      0.05      0.00
   -3   17    9     -5.20      0.00
   -1   17    9     -2.87      0.00
    1   17    9     -3.40      0.00
    3   17    9      1.25      0.00
    5   17    9     -3.88      0.00
    7   17    9     -3.13      0.00
    9   17    9     -7.10      0.00
   11   17    9     -2.47      0.00
   13   17    9     -2.96      0.00
   15   17    9     -1.37      0.00
   17   17    9      0.48      0.00
   19   17    9     -2.44      0.00
   21   17    9     -0.64      0.00
   23   17    9     -4.63      0.00
  -30   18    9     -2.18      0.00
  -28   18    9     -1.86      0.00
  -26   18    9      5.20      0.00
  -24   18    9    -12.91      0.00
  -22   18    9      5.34      0.00
  -20   18    9      0.80      0.00
  -18   18    9     -3.74      0.00
  -16   18    9      3.01      0.00
  -14   18    9      0.18      0.00
  -12   18    9     -1.17      0.00
  -10   18    9      8.60      0.00
   -8   18    9     -9.56      0.00
   -6   18    9     -2.19      0.00
   -4   18    9      7.53      0.00
   -2   18    9     -6.67      0.00
    0   18    9      4.80      0.00
    2   18    9      6.92      0.00
    4   18    9     -3.34      0.00
    6   18    9      4.84      0.00
    8   18    9     -3.53      0.00
   10   18    9     -0.55      0.00
   12   18    9      1.79      0.00
   14   18    9     -0.79      0.00
   16   18    9     -4.25      0.00
   18   18    9     -0.57      0.00
   20   18    9     -2.29      0.00
   22   18    9     -4.88      0.00
  -29   19    9      0.63      0.00
  -27   19    9      2.26      0.00
  -25   19    9     -3.23      0.00
  -23   19    9      0.90      0.00
  -21   19    9     -2.38      0.00
  -19   19    9      0.81      0.00
  -17   19    9      8.37      0.00
  -15   19    9      1.40      0.00
  -13   19    9      3.96      0.00
  -11   19    9      2.41      0.00
   -9   19    9     -4.60      0.00
   -7   19    9      0.03      0.00
   -5   19    9      1.29      0.00
   -3   19    9     -0.56      0.00
   -1   19    9      2.34      0.00
    1   19    9     -2.82      0.00
    3   19    9     -1.41      0.00
    5   19    9      0.97      0.00
    7   19    9      8.59      0.00
    9   19    9     -8.53      0.00
   11   19    9      2.19      0.00
   13   19    9      5.30      0.00
   15   19    9     -3.01      0.00
   17   19    9     -2.40      0.00
   19   19    9     -0.79      0.00
   21   19    9      1.44      0.00
  -28   20    9     -0.47      0.00
  -26   20    9      3.74      0.00
  -24   20    9     -1.15      0.00
  -22   20    9      6.18      0.00
  -20   20    9      1.56      0.00
  -18   20    9     -5.59      0.00
  -16   20    9      3.40      0.00
  -14   20    9     -2.36      0.00
  -12   20    9     -6.99      0.00
  -10   20    9      5.16      0.00
   -8   20    9     -5.89      0.00
   -6   20    9      7.53      0.00
   -4   20    9     -1.79      0.00
   -2   20    9      0.00      0.00
    0   20    9      3.03      0.00
    2   20    9     -0.51      0.00
    4   20    9      0.54      0.00
    6   20    9      7.45      0.00
    8   20    9     -1.25      0.00
   10   20    9      3.15      0.00
   12   20    9      2.90      0.00
   14   20    9      2.75      0.00
   16   20    9     -3.41      0.00
   18   20    9      3.96      0.00
   20   20    9      0.70      0.00
  -27   21    9      0.44      0.00
  -25   21    9     -0.97      0.00
  -23   21    9      9.46      0.00
  -21   21    9     -6.64      0.00
  -19   21    9      1.90      0.00
  -17   21    9      0.15      0.00
  -15   21    9     -5.63      0.00
  -13   21    9     -5.41      0.00
  -11   21    9      4.49      0.00
   -9   21    9      0.27      0.00
   -7   21    9      1.02      0.00
   -5   21    9      0.08      0.00
   -3   21    9     -4.19      0.00
   -1   21    9      0.02      0.00
    1   21    9      7.06      0.00
    3   21    9      2.66      0.00
    5   21    9      1.59      0.00
    7   21    9      5.53      0.00
    9   21    9     -3.53      0.00
   11   21    9      1.20      0.00
   13   21    9      3.64      0.00
   15   21    9     -0.25      0.00
   17   21    9      6.15      0.00
   19   21    9      0.60      0.00
  -26   22    9      1.13      0.00
  -24   22    9     -6.10      0.00
  -22   22    9     -4.71      0.00
  -20   22    9      5.76      0.00
  -18   22    9     -0.54      0.00
  -16   22    9      0.09      0.00
  -14   22    9      2.15      0.00
  -12   22    9      1.60      0.00
  -10   22    9      1.78      0.00
   -8   22    9     -6.62      0.00
   -6   22    9      4.84      0.00
   -4   22    9     -1.31      0.00
   -2   22    9     -1.61      0.00
    0   22    9     -2.95      0.00
    2   22    9     -0.62      0.00
    4   22    9     -3.99      0.00
    6   22    9     -3.67      0.00
    8   22    9     -4.99      0.00
   10   22    9     -2.50      0.00
   12   22    9     -2.04      0.00
   14   22    9      1.57      0.00
   16   22    9      0.53      0.00
  -25   23    9     -7.16      0.00
  -23   23    9      3.98      0.00
  -21   23    9     -4.25      0.00
  -19   23    9      0.70      0.00
  -17   23    9      1.96      0.00
  -15   23    9      1.57      0.00
  -13   23    9     -3.05      0.00
  -11   23    9      0.26      0.00
   -9   23    9     -0.66      0.00
   -7   23    9      2.46      0.00
   -5   23    9      0.52      0.00
   -3   23    9      0.32      0.00
   -1   23    9     -2.67      0.00
    1   23    9     -3.12      0.00
    3   23    9    -10.06      0.00
    5   23    9      1.93      0.00
    7   23    9      2.12      0.00
    9   23    9     -6.02      0.00
   11   23    9     -1.35      0.00
   13   23    9      1.67      0.00
   15   23    9     -3.91      0.00
  -22   24    9      4.26      0.00
  -20   24    9      1.32      0.00
  -18   24    9     -6.87      0.00
  -16   24    9     -0.59      0.00
  -14   24    9      1.91      0.00
  -12   24    9     -1.05      0.00
  -10   24    9      0.50      0.00
   -8   24    9      3.45      0.00
   -6   24    9      0.85      0.00
   -4   24    9     -1.36      0.00
   -2   24    9     -1.17      0.00
    0   24    9     -0.16      0.00
    2   24    9     -0.63      0.00
    4   24    9     -1.40      0.00
    6   24    9      1.66      0.00
    8   24    9      3.49      0.00
   10   24    9      0.30      0.00
   12   24    9      0.00      0.00
   14   24    9     -0.28      0.00
  -21   25    9     -2.95      0.00
  -19   25    9     -2.64      0.00
  -17   25    9      2.63      0.00
  -15   25    9      0.24      0.00
  -13   25    9      0.01      0.00
  -11   25    9      4.27      0.00
   -9   25    9     -1.14      0.00
   -7   25    9      1.47      0.00
   -5   25    9      1.36      0.00
   -3   25    9      1.56      0.00
   -1   25    9      0.22      0.00
    1   25    9      9.03      0.00
    3   25    9      1.61      0.00
    5   25    9      0.36      0.00
    7   25    9      0.88      0.00
    9   25    9     -1.03      0.00
   11   25    9      1.56      0.00
  -18   26    9      3.59      0.00
  -16   26    9      4.17      0.00
  -14   26    9     -3.02      0.00
  -12   26    9     -2.21      0.00
  -10   26    9     -3.16      0.00
   -8   26    9     -4.74      0.00
   -6   26    9     -1.35      0.00
   -4   26    9      5.70      0.00
   -2   26    9      0.88      0.00
    0   26    9      7.39      0.00
    2   26    9      2.75      0.00
    4   26    9      3.28      0.00
    6   26    9     -0.11      0.00
    8   26    9      3.15      0.00
   10   26    9      0.95      0.00
  -17   27    9      1.24      0.00
  -15   27    9     -0.13      0.00
  -13   27    9     -2.48      0.00
  -11   27    9     -2.02      0.00
   -9   27    9     -0.25      0.00
   -7   27    9     -0.72      0.00
   -5   27    9     -2.45      0.00
   -3   27    9     -3.24      0.00
   -1   27    9     -2.76      0.00
    1   27    9     -0.06      0.00
    3   27    9     -4.18      0.00
    5   27    9      1.21      0.00
    7   27    9      2.01      0.00
  -12   28    9      3.52      0.00
  -10   28    9      4.14      0.00
   -8   28    9      1.28      0.00
   -6   28    9      1.60      0.00
   -4   28    9     -0.69      0.00
   -2   28    9     -5.34      0.00
    0   28    9      0.46      0.00
    2   28    9     -9.08      0.00
    4   28    9     -5.79      0.00
   -7   29    9     -1.22      0.00
   -5   29    9      4.13      0.00
   -3   29    9     -3.02      0.00
  -36    0   10      0.60      0.00
  -34    0   10      5.00      0.00
  -32    0   10     -4.34      0.00
  -30    0   10      0.80      0.00
  -28    0   10      3.29      0.00
  -26    0   10     -8.97      0.00
  -24    0   10      8.05      0.00
  -22    0   10     -5.84      0.00
  -20    0   10     -0.23      0.00
  -18    0   10      7.94      0.00
  -16    0   10      2.14      0.00
  -14    0   10      5.69      0.00
  -12    0   10      0.06      0.00
  -10    0   10     -4.43      0.00
   -8    0   10      2.04      0.00
   -6    0   10      1.38      0.00
   -4    0   10     -4.48      0.00
   -2    0   10      4.67      0.00
    0    0   10     -6.88      0.00
    2    0   10     -2.26      0.00
    4    0   10      3.43      0.00
    6    0   10     -2.06      0.00
    8    0   10     14.71      0.00
   10    0   10      4.77      0.00
   12    0   10     -1.90      0.00
   14    0   10      4.80      0.00
   16    0   10     -2.64      0.00
   18    0   10      3.00      0.00
   20    0   10      3.42      0.00
   22    0   10     -3.69      0.00
   24    0   10      1.90      0.00
   26    0   10      1.40      0.00
  -35    1   10      2.67      0.00
  -33    1   10      1.21      0.00
  -31    1   10     -0.80      0.00
  -29    1   10     -0.11      0.00
  -27    1   10      0.77      0.00
  -25    1   10     -1.59      0.00
  -23    1   10      4.28      0.00
  -21    1   10     -2.28      0.00
  -19    1   10      1.57      0.00
  -17    1   10      4.12      0.00
  -15    1   10     -0.40      0.00
  -13    1   10      2.67      0.00
  -11    1   10     -4.30      0.00
   -9    1   10      1.34      0.00
   -7    1   10    -10.36      0.00
   -5    1   10     -1.84      0.00
   -3    1   10      4.33      0.00
   -1    1   10     -7.54      0.00
    1    1   10      6.03      0.00
    3    1   10      0.80      0.00
    5    1   10     -1.75      0.00
    7    1   10     -1.59      0.00
    9    1   10     -1.07      0.00
   11    1   10      3.13      0.00
   13    1   10     -4.60      0.00
   15    1   10      3.21      0.00
   17    1   10      4.15      0.00
   19    1   10      3.92      0.00
   21    1   10      3.24      0.00
   23    1   10     -0.04      0.00
   25    1   10     -2.87      0.00
  -36    2   10     -2.26      0.00
  -34    2   10      3.69      0.00
  -32    2   10     -2.26      0.00
  -30    2   10      1.79      0.00
  -28    2   10      3.15      0.00
  -26    2   10     -6.46      0.00
  -24    2   10      5.98      0.00
  -22    2   10     -2.41      0.00
  -20    2   10     -4.88      0.00
  -18    2   10     -1.20      0.00
  -16    2   10     -7.13      0.00
  -14    2   10     -0.05      0.00
  -12    2   10      2.08      0.00
  -10    2   10     -0.83      0.00
   -8    2   10      4.97      0.00
   -6    2   10     -3.03      0.00
   -4    2   10     -5.88      0.00
   -2    2   10     10.20      0.00
    0    2   10      0.30      0.00
    2    2   10      2.07      0.00
    4    2   10      1.65      0.00
    6    2   10    -10.35      0.00
    8    2   10     -1.85      0.00
   10    2   10     -7.62      0.00
   12    2   10     -2.06      0.00
   14    2   10      5.25      0.00
   16    2   10     -7.59      0.00
   18    2   10      1.10      0.00
   20    2   10     -1.42      0.00
   22    2   10     -6.24      0.00
   24    2   10      4.19      0.00
   26    2   10      1.28      0.00
  -35    3   10      2.99      0.00
  -33    3   10     -1.11      0.00
  -31    3   10     -2.06      0.00
  -29    3   10     -0.91      0.00
  -27    3   10     -0.51      0.00
  -25    3   10      1.23      0.00
  -23    3   10      0.59      0.00
  -21    3   10     -4.15      0.00
  -19    3   10     -1.84      0.00
  -17    3   10     -3.94      0.00
  -15    3   10     -4.36      0.00
  -13    3   10     -1.51      0.00
  -11    3   10      4.53      0.00
   -9    3   10      8.00      0.00
   -7    3   10      4.18      0.00
   -5    3   10      8.45      0.00
   -3    3   10      4.63      0.00
   -1    3   10     -3.86      0.00
    1    3   10     -0.40      0.00
    3    3   10      0.41      0.00
    5    3   10     -1.85      0.00
    7    3   10      5.42      0.00
    9    3   10      1.63      0.00
   11    3   10      3.55      0.00
   13    3   10     -5.86      0.00
   15    3   10     -1.86      0.00
   17    3   10     -3.48      0.00
   19    3   10     -5.03      0.00
   21    3   10     -2.02      0.00
   23    3   10     -4.35      0.00
   25    3   10     -2.22      0.00
  -36    4   10      1.16      0.00
  -34    4   10      1.00      0.00
  -32    4   10     -5.86      0.00
  -30    4   10     -0.89      0.00
  -28    4   10      0.65      0.00
  -26    4   10     -2.75      0.00
  -24    4   10      5.77      0.00
  -22    4   10      3.84      0.00
  -20    4   10     -0.40      0.00
  -18    4   10      6.08      0.00
  -16    4   10     -0.37      0.00
  -14    4   10     -2.06      0.00
  -12    4   10      2.81      0.00
  -10    4   10     -7.05      0.00
   -8    4   10      0.14      0.00
   -6    4   10      2.91      0.00
   -4    4   10     -2.19      0.00
   -2    4   10      2.36      0.00
    0    4   10     -6.44      0.00
    2    4   10      4.15      0.00
    4    4   10     -3.38      0.00
    6    4   10     -1.47      0.00
    8    4   10     11.83      0.00
   10    4   10     -0.62      0.00
   12    4   10     -0.10      0.00
   14    4   10      6.99      0.00
   16    4   10     -6.48      0.00
   18    4   10      4.91      0.00
   20    4   10      2.11      0.00
   22    4   10     -2.48      0.00
   24    4   10      3.76      0.00
  -35    5   10      0.01      0.00
  -33    5   10     -4.60      0.00
  -31    5   10      2.36      0.00
  -29    5   10     -1.12      0.00
  -27    5   10      0.38      0.00
  -25    5   10     -0.05      0.00
  -23    5   10      1.33      0.00
  -21    5   10     -0.25      0.00
  -19    5   10      2.52      0.00
  -17    5   10      3.67      0.00
  -15    5   10      3.08      0.00
  -13    5   10     -2.21      0.00
  -11    5   10     -2.98      0.00
   -9    5   10     -6.40      0.00
   -7    5   10     -8.80      0.00
   -5    5   10      0.03      0.00
   -3    5   10      0.41      0.00
   -1    5   10     -3.56      0.00
    1    5   10      6.20      0.00
    3    5   10      1.90      0.00
    5    5   10     -5.03      0.00
    7    5   10      0.43      0.00
    9    5   10     -4.57      0.00
   11    5   10     -1.48      0.00
   13    5   10     -5.47      0.00
   15    5   10      4.04      0.00
   17    5   10      0.57      0.00
   19    5   10      4.03      0.00
   21    5   10      4.47      0.00
   23    5   10     -0.05      0.00
   25    5   10     -0.01      0.00
  -34    6   10      2.62      0.00
  -32    6   10     -1.19      0.00
  -30    6   10      4.52      0.00
  -28    6   10      3.93      0.00
  -26    6   10     -5.20      0.00
  -24    6   10     -0.37      0.00
  -22    6   10      0.32      0.00
  -20    6   10     -3.10      0.00
  -18    6   10     -1.08      0.00
  -16    6   10      2.31      0.00
  -14    6   10     -1.75      0.00
  -12    6   10      9.45      0.00
  -10    6   10     -0.31      0.00
   -8    6   10     -0.61      0.00
   -6    6   10     -1.27      0.00
   -4    6   10     -4.83      0.00
   -2    6   10      4.44      0.00
    0    6   10     -3.62      0.00
    2    6   10      7.76      0.00
    4    6   10     -4.79      0.00
    6    6   10      0.82      0.00
    8    6   10      1.40      0.00
   10    6   10     -5.18      0.00
   12    6   10      2.57      0.00
   14    6   10      3.58      0.00
   16    6   10     -6.09      0.00
   18    6   10      4.57      0.00
   20    6   10     -1.32      0.00
   22    6   10     -4.41      0.00
   24    6   10      3.85      0.00
  -35    7   10      4.95      0.00
  -33    7   10      1.20      0.00
  -31    7   10      1.74      0.00
  -29    7   10     -3.66      0.00
  -27    7   10      5.22      0.00
  -25    7   10     -2.80      0.00
  -23    7   10      2.65      0.00
  -21    7   10     -0.02      0.00
  -19    7   10     -4.75      0.00
  -17    7   10     -1.77      0.00
  -15    7   10      1.85      0.00
  -13    7   10      2.78      0.00
  -11    7   10      2.76      0.00
   -9    7   10      7.15      0.00
   -7    7   10     -4.19      0.00
   -5    7   10      1.94      0.00
   -3    7   10      0.45      0.00
   -1    7   10    -11.62      0.00
    1    7   10      4.88      0.00
    3    7   10     -3.68      0.00
    5    7   10     -1.44      0.00
    7    7   10      4.62      0.00
    9    7   10      2.77      0.00
   11    7   10      2.73      0.00
   13    7   10     -2.32      0.00
   15    7   10      5.33      0.00
   17    7   10     -3.66      0.00
   19    7   10      4.76      0.00
   21    7   10     -3.02      0.00
   23    7   10     -0.56      0.00
   25    7   10      0.74      0.00
  -34    8   10      4.45      0.00
  -32    8   10     -3.20      0.00
  -30    8   10      0.34      0.00
  -28    8   10      1.44      0.00
  -26    8   10     -4.14      0.00
  -24    8   10      0.36      0.00
  -22    8   10      0.36      0.00
  -20    8   10     -1.97      0.00
  -18    8   10     -1.69      0.00
  -16    8   10     -0.08      0.00
  -14    8   10    -10.92      0.00
  -12    8   10      4.77      0.00
  -10    8   10     -4.31      0.00
   -8    8   10     -2.78      0.00
   -6    8   10      4.12      0.00
   -4    8   10      5.35      0.00
   -2    8   10      0.09      0.00
    0    8   10     -3.43      0.00
    2    8   10      4.07      0.00
    4    8   10    -10.79      0.00
    6    8   10     -0.58      0.00
    8    8   10      2.42      0.00
   10    8   10     -4.86      0.00
   12    8   10      0.44      0.00
   14    8   10     -0.52      0.00
   16    8   10     -4.65      0.00
   18    8   10     -1.43      0.00
   20    8   10      0.24      0.00
   22    8   10     -0.05      0.00
   24    8   10      0.69      0.00
  -33    9   10      0.95      0.00
  -31    9   10     -1.30      0.00
  -29    9   10     -0.41      0.00
  -27    9   10      1.66      0.00
  -25    9   10     -4.70      0.00
  -23    9   10      1.03      0.00
  -21    9   10      2.09      0.00
  -19    9   10     -2.62      0.00
  -17    9   10      1.61      0.00
  -15    9   10      5.35      0.00
  -13    9   10     -5.97      0.00
  -11    9   10     -5.32      0.00
   -9    9   10      2.25      0.00
   -7    9   10     -5.62      0.00
   -5    9   10      8.07      0.00
   -3    9   10      5.78      0.00
   -1    9   10     -2.64      0.00
    1    9   10      7.47      0.00
    3    9   10      0.93      0.00
    5    9   10     -2.20      0.00
    7    9   10     -1.46      0.00
    9    9   10      0.91      0.00
   11    9   10     -1.42      0.00
   13    9   10     -0.31      0.00
   15    9   10      2.49      0.00
   17    9   10     -4.98      0.00
   19    9   10      3.30      0.00
   21    9   10     -4.89      0.00
   23    9   10      1.28      0.00
  -34   10   10     -0.90      0.00
  -32   10   10     -3.96      0.00
  -30   10   10      2.23      0.00
  -28   10   10      0.02      0.00
  -26   10   10     -1.25      0.00
  -24   10   10      0.79      0.00
  -22   10   10      7.27      0.00
  -20   10   10     -1.14      0.00
  -18   10   10      0.74      0.00
  -16   10   10      7.82      0.00
  -14   10   10     -4.58      0.00
  -12   10   10      9.44      0.00
  -10   10   10      2.92      0.00
   -8   10   10     -2.90      0.00
   -6   10   10     -6.35      0.00
   -4   10   10      2.52      0.00
   -2   10   10     -5.33      0.00
    0   10   10      1.98      0.00
    2   10   10      5.57      0.00
    4   10   10     -0.77      0.00
    6   10   10      7.72      0.00
    8   10   10      3.48      0.00
   10   10   10     -1.27      0.00
   12   10   10      7.45      0.00
   14   10   10     -0.17      0.00
   16   10   10      1.53      0.00
   18   10   10      2.26      0.00
   20   10   10      3.58      0.00
   22   10   10     -3.41      0.00
   24   10   10      2.11      0.00
  -33   11   10      0.64      0.00
  -31   11   10     -2.58      0.00
  -29   11   10      1.24      0.00
  -27   11   10     -0.38      0.00
  -25   11   10      4.42      0.00
  -23   11   10     -1.25      0.00
  -21   11   10      4.05      0.00
  -19   11   10     -5.13      0.00
  -17   11   10     -5.05      0.00
  -15   11   10      6.70      0.00
  -13   11   10     -3.59      0.00
  -11   11   10      2.91      0.00
   -9   11   10      1.72      0.00
   -7   11   10     -3.16      0.00
   -5   11   10      3.17      0.00
   -3   11   10     -6.92      0.00
   -1   11   10     -2.85      0.00
    1   11   10     -3.98      0.00
    3   11   10      2.16      0.00
    5   11   10     -0.10      0.00
    7   11   10      0.82      0.00
    9   11   10      4.20      0.00
   11   11   10     -4.18      0.00
   13   11   10      0.85      0.00
   15   11   10     -4.09      0.00
   17   11   10      0.92      0.00
   19   11   10      4.79      0.00
   21   11   10     -2.19      0.00
   23   11   10      1.67      0.00
  -32   12   10     -2.32      0.00
  -30   12   10      2.04      0.00
  -28   12   10     -1.81      0.00
  -26   12   10      2.51      0.00
  -24   12   10     -2.93      0.00
  -22   12   10      1.78      0.00
  -20   12   10     -3.93      0.00
  -18   12   10     -3.37      0.00
  -16   12   10      2.14      0.00
  -14   12   10    -10.24      0.00
  -12   12   10      4.49      0.00
  -10   12   10      2.18      0.00
   -8   12   10     -5.67      0.00
   -6   12   10      2.28      0.00
   -4   12   10     12.63      0.00
   -2   12   10     -6.68      0.00
    0   12   10      4.00      0.00
    2   12   10     -0.01      0.00
    4   12   10    -11.59      0.00
    6   12   10      1.65      0.00
    8   12   10     -2.20      0.00
   10   12   10     -6.78      0.00
   12   12   10      1.54      0.00
   14   12   10     -3.65      0.00
   16   12   10      0.14      0.00
   18   12   10     -3.88      0.00
   20   12   10      3.95      0.00
   22   12   10     -1.95      0.00
  -31   13   10      4.09      0.00
  -29   13   10     -0.79      0.00
  -27   13   10     -2.28      0.00
  -25   13   10      3.52      0.00
  -23   13   10     -6.16      0.00
  -21   13   10      3.94      0.00
  -19   13   10     -4.32      0.00
  -17   13   10      0.21      0.00
  -15   13   10      6.03      0.00
  -13   13   10      0.07      0.00
  -11   13   10      1.87      0.00
   -9   13   10      0.32      0.00
   -7   13   10     -1.75      0.00
   -5   13   10      1.89      0.00
   -3   13   10      0.99      0.00
   -1   13   10      5.57      0.00
    1   13   10     -2.46      0.00
    3   13   10      1.01      0.00
    5   13   10     -0.76      0.00
    7   13   10     -4.44      0.00
    9   13   10      0.80      0.00
   11   13   10     -3.84      0.00
   13   13   10      7.31      0.00
   15   13   10     -1.78      0.00
   17   13   10      0.82      0.00
   19   13   10     -1.01      0.00
   21   13   10     -1.07      0.00
  -30   14   10      2.92      0.00
  -28   14   10     -2.66      0.00
  -26   14   10     -3.03      0.00
  -24   14   10      0.32      0.00
  -22   14   10      3.79      0.00
  -20   14   10     -0.41      0.00
  -18   14   10     -1.32      0.00
  -16   14   10      6.77      0.00
  -14   14   10     -4.37      0.00
  -12   14   10      1.61      0.00
  -10   14   10      4.27      0.00
   -8   14   10     -9.40      0.00
   -6   14   10     -2.42      0.00
   -4   14   10      3.42      0.00
   -2   14   10    -10.95      0.00
    0   14   10      4.79      0.00
    2   14   10      0.94      0.00
    4   14   10     -2.89      0.00
    6   14   10      7.92      0.00
    8   14   10     -0.30      0.00
   10   14   10      0.02      0.00
   12   14   10      4.66      0.00
   14   14   10     -2.71      0.00
   16   14   10     -1.15      0.00
   18   14   10     -1.14      0.00
   20   14   10      1.90      0.00
  -31   15   10      5.26      0.00
  -29   15   10     -5.00      0.00
  -27   15   10      3.17      0.00
  -25   15   10      1.23      0.00
  -23   15   10     -2.73      0.00
  -21   15   10      5.75      0.00
  -19   15   10     -2.41      0.00
  -17   15   10     -0.03      0.00
  -15   15   10     -4.60      0.00
  -13   15   10      0.75      0.00
  -11   15   10     -5.79      0.00
   -9   15   10      0.01      0.00
   -7   15   10      0.40      0.00
   -5   15   10     -1.73      0.00
   -3   15   10      3.28      0.00
   -1   15   10     -2.44      0.00
    1   15   10      0.38      0.00
    3   15   10      0.34      0.00
    5   15   10      4.73      0.00
    7   15   10      0.40      0.00
    9   15   10      3.81      0.00
   11   15   10     -2.58      0.00
   13   15   10      1.76      0.00
   15   15   10     -2.84      0.00
   17   15   10     -0.39      0.00
   19   15   10      0.58      0.00
  -30   16   10     -1.69      0.00
  -28   16   10      3.23      0.00
  -26   16   10      1.09      0.00
  -24   16   10      3.22      0.00
  -22   16   10     -0.12      0.00
  -20   16   10     -0.56      0.00
  -18   16   10     -0.79      0.00
  -16   16   10     -0.39      0.00
  -14   16   10     -0.73      0.00
  -12   16   10      1.99      0.00
  -10   16   10      5.64      0.00
   -8   16   10     -5.02      0.00
   -6   16   10      6.71      0.00
   -4   16   10      6.29      0.00
   -2   16   10     -6.48      0.00
    0   16   10      5.92      0.00
    2   16   10     -0.60      0.00
    4   16   10     -2.88      0.00
    6   16   10      3.22      0.00
    8   16   10     -1.69      0.00
   10   16   10      0.38      0.00
   12   16   10      2.00      0.00
   14   16   10      1.79      0.00
   16   16   10      0.29      0.00
   18   16   10      1.61      0.00
   20   16   10      1.79      0.00
  -29   17   10     -2.69      0.00
  -27   17   10      5.58      0.00
  -25   17   10     -3.63      0.00
  -23   17   10      0.35      0.00
  -21   17   10      1.10      0.00
  -19   17   10     -2.34      0.00
  -17   17   10      2.72      0.00
  -15   17   10     -0.26      0.00
  -13   17   10      2.01      0.00
  -11   17   10      0.82      0.00
   -9   17   10      4.36      0.00
   -7   17   10     -1.20      0.00
   -5   17   10     -6.96      0.00
   -3   17   10      5.42      0.00
   -1   17   10     -4.51      0.00
    1   17   10     -3.26      0.00
    3   17   10     -2.35      0.00
    5   17   10      0.92      0.00
    7   17   10     -3.10      0.00
    9   17   10     -1.02      0.00
   11   17   10     -1.99      0.00
   13   17   10      1.58      0.00
   15   17   10      2.17      0.00
   17   17   10     -0.88      0.00
   19   17   10      0.68      0.00
  -28   18   10     -1.47      0.00
  -26   18   10     -5.77      0.00
  -24   18   10      0.12      0.00
  -22   18   10      0.67      0.00
  -20   18   10     -2.93      0.00
  -18   18   10     -2.84      0.00
  -16   18   10     -2.16      0.00
  -14   18   10      0.91      0.00
  -12   18   10     -2.31      0.00
  -10   18   10      1.62      0.00
   -8   18   10     -6.54      0.00
   -6   18   10      1.20      0.00
   -4   18   10      0.34      0.00
   -2   18   10     -5.47      0.00
    0   18   10      1.36      0.00
    2   18   10      0.56      0.00
    4   18   10     -2.15      0.00
    6   18   10      2.80      0.00
    8   18   10     -4.92      0.00
   10   18   10     -2.49      0.00
   12   18   10     -1.59      0.00
   14   18   10     -2.70      0.00
   16   18   10     -3.02      0.00
   18   18   10     -1.62      0.00
  -27   19   10      2.46      0.00
  -25   19   10     -4.59      0.00
  -23   19   10      1.69      0.00
  -21   19   10      0.06      0.00
  -19   19   10     -0.16      0.00
  -17   19   10     -1.85      0.00
  -15   19   10      1.33      0.00
  -13   19   10     -2.80      0.00
  -11   19   10      5.47      0.00
   -9   19   10     -0.54      0.00
   -7   19   10      0.08      0.00
   -5   19   10     -1.05      0.00
   -3   19   10      4.89      0.00
   -1   19   10      1.04      0.00
    1   19   10     -2.50      0.00
    3   19   10      3.88      0.00
    5   19   10      1.35      0.00
    7   19   10      0.11      0.00
    9   19   10      1.44      0.00
   11   19   10     -0.91      0.00
   13   19   10     -1.16      0.00
   15   19   10      0.24      0.00
   17   19   10     -0.66      0.00
  -24   20   10      0.95      0.00
  -22   20   10      0.44      0.00
  -20   20   10      3.27      0.00
  -18   20   10      3.82      0.00
  -16   20   10      2.02      0.00
  -14   20   10      1.56      0.00
  -12   20   10     -1.74      0.00
  -10   20   10      2.24      0.00
   -8   20   10     -2.52      0.00
   -6   20   10      2.40      0.00
   -4   20   10      2.27      0.00
   -2   20   10     -4.49      0.00
    0   20   10      1.63      0.00
    2   20   10      2.08      0.00
    4   20   10     -2.48      0.00
    6   20   10      6.26      0.00
    8   20   10     -1.07      0.00
   10   20   10      0.52      0.00
   12   20   10      5.21      0.00
   14   20   10      1.19      0.00
  -23   21   10      1.53      0.00
  -21   21   10     -1.61      0.00
  -19   21   10      0.59      0.00
  -17   21   10      0.55      0.00
  -15   21   10      1.74      0.00
  -13   21   10     -7.82      0.00
  -11   21   10      2.25      0.00
   -9   21   10     -1.35      0.00
   -7   21   10      0.27      0.00
   -5   21   10     -1.46      0.00
   -3   21   10      0.95      0.00
   -1   21   10      2.97      0.00
    1   21   10     -3.58      0.00
    3   21   10      3.08      0.00
    5   21   10      0.84      0.00
    7   21   10     -1.06      0.00
    9   21   10      1.13      0.00
   11   21   10      1.48      0.00
   13   21   10      1.01      0.00
  -22   22   10     -0.15      0.00
  -20   22   10     -1.60      0.00
  -18   22   10     -2.68      0.00
  -16   22   10     -1.65      0.00
  -14   22   10      1.05      0.00
  -12   22   10     -0.19      0.00
  -10   22   10      2.98      0.00
   -8   22   10     -0.23      0.00
   -6   22   10      2.27      0.00
   -4   22   10      4.99      0.00
   -2   22   10     -5.26      0.00
    0   22   10      2.06      0.00
    2   22   10     -0.60      0.00
    4   22   10     -0.33      0.00
    6   22   10      2.59      0.00
    8   22   10     -1.15      0.00
   10   22   10     -2.51      0.00
   12   22   10      0.08      0.00
  -21   23   10      1.46      0.00
  -19   23   10      0.64      0.00
  -17   23   10     -0.36      0.00
  -15   23   10     -0.59      0.00
  -13   23   10      0.67      0.00
  -11   23   10      1.96      0.00
   -9   23   10      1.06      0.00
   -7   23   10      1.69      0.00
   -5   23   10     -1.63      0.00
   -3   23   10     -0.28      0.00
   -1   23   10     -1.12      0.00
    1   23   10     -3.24      0.00
    3   23   10     -0.62      0.00
    5   23   10      0.21      0.00
    7   23   10     -0.48      0.00
    9   23   10     -1.62      0.00
   11   23   10     -2.67      0.00
  -18   24   10      1.25      0.00
  -16   24   10     -0.92      0.00
  -14   24   10     -1.22      0.00
  -12   24   10     -1.39      0.00
  -10   24   10     -0.33      0.00
   -8   24   10     -1.00      0.00
   -6   24   10     -3.39      0.00
   -4   24   10      0.20      0.00
   -2   24   10     -3.75      0.00
    0   24   10      0.24      0.00
    2   24   10     -2.27      0.00
    4   24   10      2.16      0.00
    6   24   10      0.72      0.00
    8   24   10     -2.37      0.00
  -15   25   10      1.34      0.00
  -13   25   10      0.81      0.00
  -11   25   10     -3.20      0.00
   -9   25   10      0.39      0.00
   -7   25   10     -0.12      0.00
   -5   25   10     -4.01      0.00
   -3   25   10      1.21      0.00
   -1   25   10      1.09      0.00
    1   25   10      0.28      0.00
    3   25   10      0.01      0.00
    5   25   10     -0.03      0.00
  -12   26   10      0.46      0.00
  -10   26   10     -1.99      0.00
   -8   26   10      2.38      0.00
   -6   26   10     -0.81      0.00
   -4   26   10      2.27      0.00
   -2   26   10      1.71      0.00
    0   26   10     -1.58      0.00
    2   26   10      3.06      0.00
  -33    1   11     -1.58      0.00
  -31    1   11     -1.65      0.00
  -29    1   11     -2.84      0.00
  -27    1   11     -2.07      0.00
  -25    1   11     -0.41      0.00
  -23    1   11      3.22      0.00
  -21    1   11      5.87      0.00
  -19    1   11     -1.25      0.00
  -17    1   11      0.09      0.00
  -15    1   11      0.72      0.00
  -13    1   11     -1.58      0.00
  -11    1   11      0.59      0.00
   -9    1   11      0.92      0.00
   -7    1   11     -0.83      0.00
   -5    1   11     -0.07      0.00
   -3    1   11      6.41      0.00
   -1    1   11      7.29      0.00
    1    1   11      3.08      0.00
    3    1   11      4.56      0.00
    5    1   11     -1.74      0.00
    7    1   11     -1.23      0.00
    9    1   11    -10.39      0.00
   11    1   11      3.87      0.00
   13    1   11      1.71      0.00
   15    1   11     -0.88      0.00
   17    1   11     -2.85      0.00
   19    1   11     -3.31      0.00
   21    1   11      4.61      0.00
  -32    2   11      0.29      0.00
  -30    2   11      4.17      0.00
  -28    2   11      0.45      0.00
  -26    2   11      3.01      0.00
  -24    2   11      0.66      0.00
  -22    2   11      3.98      0.00
  -20    2   11      1.04      0.00
  -18    2   11     -2.77      0.00
  -16    2   11      1.78      0.00
  -14    2   11     -2.57      0.00
  -12    2   11      0.49      0.00
  -10    2   11      7.64      0.00
   -8    2   11     -5.91      0.00
   -6    2   11      5.18      0.00
   -4    2   11     -6.00      0.00
   -2    2   11     -0.92      0.00
    0    2   11      0.72      0.00
    2    2   11      0.43      0.00
    4    2   11      2.24      0.00
    6    2   11      1.99      0.00
    8    2   11      1.63      0.00
   10    2   11      1.76      0.00
   12    2   11      1.59      0.00
   14    2   11      3.78      0.00
   16    2   11      1.05      0.00
   18    2   11      4.07      0.00
   20    2   11     -5.22      0.00
   22    2   11      0.81      0.00
  -33    3   11      0.35      0.00
  -31    3   11      2.78      0.00
  -29    3   11     -2.19      0.00
  -27    3   11      1.53      0.00
  -25    3   11     -2.04      0.00
  -23    3   11     -1.40      0.00
  -21    3   11     -1.27      0.00
  -19    3   11     -2.39      0.00
  -17    3   11      4.70      0.00
  -15    3   11     -2.37      0.00
  -13    3   11     -1.31      0.00
  -11    3   11      1.53      0.00
   -9    3   11      2.12      0.00
   -7    3   11     -6.13      0.00
   -5    3   11      1.72      0.00
   -3    3   11     -0.65      0.00
   -1    3   11     -4.84      0.00
    1    3   11     -4.71      0.00
    3    3   11      4.12      0.00
    5    3   11     -3.28      0.00
    7    3   11      6.33      0.00
    9    3   11     -1.57      0.00
   11    3   11      8.49      0.00
   13    3   11     -7.81      0.00
   15    3   11      2.68      0.00
   17    3   11      7.02      0.00
   19    3   11     -5.75      0.00
   21    3   11      1.12      0.00
  -32    4   11     -4.86      0.00
  -30    4   11      1.80      0.00
  -28    4   11     -4.29      0.00
  -26    4   11     -1.24      0.00
  -24    4   11     -4.69      0.00
  -22    4   11      2.29      0.00
  -20    4   11     -1.23      0.00
  -18    4   11     -2.49      0.00
  -16    4   11      5.81      0.00
  -14    4   11     -1.32      0.00
  -12    4   11     -0.15      0.00
  -10    4   11      0.24      0.00
   -8    4   11     -6.22      0.00
   -6    4   11     10.51      0.00
   -4    4   11     -3.77      0.00
   -2    4   11      5.55      0.00
    0    4   11     -3.12      0.00
    2    4   11      2.54      0.00
    4    4   11     -5.86      0.00
    6    4   11     -0.04      0.00
    8    4   11     -0.45      0.00
   10    4   11     -0.95      0.00
   12    4   11     -6.47      0.00
   14    4   11     -2.59      0.00
   16    4   11     -3.01      0.00
   18    4   11      4.80      0.00
   20    4   11     -5.41      0.00
   22    4   11      3.28      0.00
  -31    5   11      2.31      0.00
  -29    5   11      0.74      0.00
  -27    5   11      4.45      0.00
  -25    5   11     -0.95      0.00
  -23    5   11      7.81      0.00
  -21    5   11      0.02      0.00
  -19    5   11     -2.13      0.00
  -17    5   11      4.26      0.00
  -15    5   11     -1.99      0.00
  -13    5   11      1.93      0.00
  -11    5   11     -2.19      0.00
   -9    5   11      5.18      0.00
   -7    5   11     -4.55      0.00
   -5    5   11      3.22      0.00
   -3    5   11     -2.73      0.00
   -1    5   11      1.10      0.00
    1    5   11     -2.67      0.00
    3    5   11     -2.38      0.00
    5    5   11      4.28      0.00
    7    5   11     -1.99      0.00
    9    5   11     -4.06      0.00
   11    5   11      6.71      0.00
   13    5   11     -4.82      0.00
   15    5   11      0.72      0.00
   17    5   11     -1.66      0.00
   19    5   11     -0.28      0.00
   21    5   11      5.68      0.00
  -32    6   11     -2.42      0.00
  -30    6   11      3.96      0.00
  -28    6   11     -1.89      0.00
  -26    6   11      4.18      0.00
  -24    6   11     -0.51      0.00
  -22    6   11      1.70      0.00
  -20    6   11      0.13      0.00
  -18    6   11     -0.89      0.00
  -16    6   11     -0.85      0.00
  -14    6   11     -5.47      0.00
  -12    6   11      4.72      0.00
  -10    6   11     -1.13      0.00
   -8    6   11     -4.31      0.00
   -6    6   11      1.79      0.00
   -4    6   11     -6.81      0.00
   -2    6   11      5.74      0.00
    0    6   11     -6.75      0.00
    2    6   11      8.51      0.00
    4    6   11     -4.71      0.00
    6    6   11      3.49      0.00
    8    6   11      2.35      0.00
   10    6   11     -2.87      0.00
   12    6   11      2.12      0.00
   14    6   11      3.26      0.00
   16    6   11      0.98      0.00
   18    6   11      5.63      0.00
   20    6   11     -3.46      0.00
  -31    7   11     -0.41      0.00
  -29    7   11      0.87      0.00
  -27    7   11     -4.14      0.00
  -25    7   11     -8.47      0.00
  -23    7   11     -2.64      0.00
  -21    7   11     -4.30      0.00
  -19    7   11     -0.46      0.00
  -17    7   11     -1.06      0.00
  -15    7   11     -1.20      0.00
  -13    7   11      1.50      0.00
  -11    7   11      1.60      0.00
   -9    7   11      0.33      0.00
   -7    7   11      0.39      0.00
   -5    7   11      4.03      0.00
   -3    7   11     -1.05      0.00
   -1    7   11      6.89      0.00
    1    7   11      4.13      0.00
    3    7   11     -3.08      0.00
    5    7   11      5.95      0.00
    7    7   11     -6.86      0.00
    9    7   11      1.44      0.00
   11    7   11      0.59      0.00
   13    7   11     -6.68      0.00
   15    7   11      6.51      0.00
   17    7   11      0.12      0.00
   19    7   11     -2.12      0.00
   21    7   11     -3.06      0.00
  -30    8   11      0.82      0.00
  -28    8   11     -1.20      0.00
  -26    8   11     -0.12      0.00
  -24    8   11     -1.60      0.00
  -22    8   11      1.64      0.00
  -20    8   11      2.54      0.00
  -18    8   11     -1.18      0.00
  -16    8   11     -1.60      0.00
  -14    8   11     -0.16      0.00
  -12    8   11      4.11      0.00
  -10    8   11     -0.27      0.00
   -8    8   11      2.44      0.00
   -6    8   11      1.36      0.00
   -4    8   11     -1.71      0.00
   -2    8   11      4.50      0.00
    0    8   11     -6.60      0.00
    2    8   11      5.81      0.00
    4    8   11     -6.85      0.00
    6    8   11     -0.59      0.00
    8    8   11      5.48      0.00
   10    8   11     -8.48      0.00
   12    8   11      2.04      0.00
   14    8   11     -0.76      0.00
   16    8   11      1.09      0.00
   18    8   11      2.12      0.00
   20    8   11     -5.27      0.00
  -31    9   11     -1.79      0.00
  -29    9   11      3.19      0.00
  -27    9   11     -3.11      0.00
  -25    9   11      5.15      0.00
  -23    9   11      2.44      0.00
  -21    9   11      2.14      0.00
  -19    9   11      1.08      0.00
  -17    9   11     -5.49      0.00
  -15    9   11      2.80      0.00
  -13    9   11     -3.31      0.00
  -11    9   11      0.05      0.00
   -9    9   11     -3.57      0.00
   -7    9   11      0.38      0.00
   -5    9   11     -3.26      0.00
   -3    9   11     -5.85      0.00
   -1    9   11     -0.54      0.00
    1    9   11     -2.42      0.00
    3    9   11     -5.56      0.00
    5    9   11      4.16      0.00
    7    9   11     -3.86      0.00
    9    9   11      4.57      0.00
   11    9   11      0.15      0.00
   13    9   11     -2.81      0.00
   15    9   11      0.30      0.00
   17    9   11     -4.03      0.00
   19    9   11     -1.00      0.00
  -30   10   11      0.44      0.00
  -28   10   11      0.46      0.00
  -26   10   11     -0.97      0.00
  -24   10   11     -0.78      0.00
  -22   10   11     -4.98      0.00
  -20   10   11     -0.91      0.00
  -18   10   11      1.70      0.00
  -16   10   11     -1.88      0.00
  -14   10   11      0.64      0.00
  -12   10   11     -1.20      0.00
  -10   10   11     -0.88      0.00
   -8   10   11      0.67      0.00
   -6   10   11     -2.05      0.00
   -4   10   11      0.64      0.00
   -2   10   11     -0.19      0.00
    0   10   11     -4.62      0.00
    2   10   11      5.35      0.00
    4   10   11     -1.79      0.00
    6   10   11      1.35      0.00
    8   10   11      7.06      0.00
   10   10   11     -4.93      0.00
   12   10   11      0.35      0.00
   14   10   11     -1.46      0.00
   16   10   11     -2.52      0.00
   18   10   11      3.66      0.00
  -29   11   11      6.25      0.00
  -27   11   11      0.07      0.00
  -25   11   11      0.97      0.00
  -23   11   11     -0.69      0.00
  -21   11   11      4.69      0.00
  -19   11   11      4.99      0.00
  -17   11   11     -1.75      0.00
  -15   11   11      6.23      0.00
  -13   11   11      0.93      0.00
  -11   11   11     -0.60      0.00
   -9   11   11     -0.46      0.00
   -7   11   11     -1.15      0.00
   -5   11   11      1.62      0.00
   -3   11   11     -1.51      0.00
   -1   11   11     -0.36      0.00
    1   11   11      2.74      0.00
    3   11   11     -2.60      0.00
    5   11   11      1.81      0.00
    7   11   11     -0.70      0.00
    9   11   11      4.89      0.00
   11   11   11     -2.20      0.00
   13   11   11      0.21      0.00
   15   11   11      3.09      0.00
   17   11   11      4.50      0.00
   19   11   11      0.17      0.00
  -28   12   11      1.98      0.00
  -26   12   11     -1.49      0.00
  -24   12   11      4.36      0.00
  -22   12   11      3.40      0.00
  -20   12   11      2.93      0.00
  -18   12   11      4.20      0.00
  -16   12   11     -2.18      0.00
  -14   12   11      1.34      0.00
  -12   12   11     -0.51      0.00
  -10   12   11     -0.93      0.00
   -8   12   11     -0.05      0.00
   -6   12   11     -6.43      0.00
   -4   12   11      2.53      0.00
   -2   12   11      5.33      0.00
    0   12   11      2.13      0.00
    2   12   11      2.04      0.00
    4   12   11     -3.72      0.00
    6   12   11     -2.45      0.00
    8   12   11      1.44      0.00
   10   12   11     -2.02      0.00
   12   12   11     -2.11      0.00
   14   12   11      7.67      0.00
   16   12   11     -0.02      0.00
   18   12   11      1.96      0.00
  -29   13   11     -2.04      0.00
  -27   13   11     -0.61      0.00
  -25   13   11     -5.79      0.00
  -23   13   11     -1.39      0.00
  -21   13   11     -4.60      0.00
  -19   13   11     -5.25      0.00
  -17   13   11     -2.82      0.00
  -15   13   11     -4.02      0.00
  -13   13   11     -0.41      0.00
  -11   13   11      4.41      0.00
   -9   13   11      2.18      0.00
   -7   13   11     -2.42      0.00
   -5   13   11      5.36      0.00
   -3   13   11      2.63      0.00
   -1   13   11      2.91      0.00
    1   13   11      4.43      0.00
    3   13   11     -1.86      0.00
    5   13   11      1.97      0.00
    7   13   11     -2.27      0.00
    9   13   11      0.00      0.00
   11   13   11     -1.50      0.00
   13   13   11     -2.09      0.00
   15   13   11     -1.42      0.00
   17   13   11      0.56      0.00
  -28   14   11     -0.40      0.00
  -26   14   11     -2.91      0.00
  -24   14   11      1.90      0.00
  -22   14   11     -2.03      0.00
  -20   14   11     -6.04      0.00
  -18   14   11     -0.76      0.00
  -16   14   11     -3.45      0.00
  -14   14   11      0.92      0.00
  -12   14   11      1.34      0.00
  -10   14   11      0.85      0.00
   -8   14   11      9.06      0.00
   -6   14   11     -0.34      0.00
   -4   14   11     -2.45      0.00
   -2   14   11     -2.83      0.00
    0   14   11     -3.35      0.00
    2   14   11      0.55      0.00
    4   14   11     -0.47      0.00
    6   14   11     -2.81      0.00
    8   14   11      2.51      0.00
   10   14   11     -0.24      0.00
   12   14   11     -4.88      0.00
   14   14   11      1.19      0.00
   16   14   11     -1.79      0.00
  -27   15   11      5.45      0.00
  -25   15   11     -2.42      0.00
  -23   15   11      5.89      0.00
  -21   15   11      4.33      0.00
  -19   15   11      0.33      0.00
  -17   15   11      4.89      0.00
  -15   15   11     -5.04      0.00
  -13   15   11      3.99      0.00
  -11   15   11      7.01      0.00
   -9   15   11     -7.66      0.00
   -7   15   11     -1.04      0.00
   -5   15   11      1.84      0.00
   -3   15   11     -5.80      0.00
   -1   15   11     -0.32      0.00
    1   15   11     -1.94      0.00
    3   15   11     -1.43      0.00
    5   15   11      0.37      0.00
    7   15   11     -0.10      0.00
    9   15   11      2.91      0.00
   11   15   11      3.18      0.00
   13   15   11     -2.73      0.00
   15   15   11      0.67      0.00
  -26   16   11     -1.97      0.00
  -24   16   11     -0.40      0.00
  -22   16   11      0.57      0.00
  -20   16   11      2.67      0.00
  -18   16   11      5.35      0.00
  -16   16   11     -2.19      0.00
  -14   16   11      1.22      0.00
  -12   16   11     -0.96      0.00
  -10   16   11     -3.75      0.00
   -8   16   11     -0.41      0.00
   -6   16   11     -5.37      0.00
   -4   16   11      0.69      0.00
   -2   16   11      7.20      0.00
    0   16   11      0.98      0.00
    2   16   11      2.83      0.00
    4   16   11      1.07      0.00
    6   16   11      0.28      0.00
    8   16   11      4.60      0.00
   10   16   11      0.13      0.00
   12   16   11      1.37      0.00
   14   16   11      2.15      0.00
  -25   17   11     -3.00      0.00
  -23   17   11      0.85      0.00
  -21   17   11     -3.10      0.00
  -19   17   11     -1.81      0.00
  -17   17   11      5.19      0.00
  -15   17   11     -6.04      0.00
  -13   17   11      1.48      0.00
  -11   17   11      2.49      0.00
   -9   17   11     -5.86      0.00
   -7   17   11      1.86      0.00
   -5   17   11     -0.73      0.00
   -3   17   11     -0.23      0.00
   -1   17   11      4.90      0.00
    1   17   11     -6.42      0.00
    3   17   11      0.66      0.00
    5   17   11      0.65      0.00
    7   17   11     -1.21      0.00
    9   17   11      0.16      0.00
   11   17   11      1.26      0.00
   13   17   11     -1.87      0.00
  -22   18   11      1.01      0.00
  -20   18   11     -1.24      0.00
  -18   18   11     -2.23      0.00
  -16   18   11     -1.91      0.00
  -14   18   11      5.69      0.00
  -12   18   11     -1.64      0.00
  -10   18   11     -0.22      0.00
   -8   18   11      4.71      0.00
   -6   18   11     -2.99      0.00
   -4   18   11     -2.18      0.00
   -2   18   11      0.02      0.00
    0   18   11     -5.04      0.00
    2   18   11      1.48      0.00
    4   18   11     -2.77      0.00
    6   18   11     -2.94      0.00
    8   18   11     -2.03      0.00
   10   18   11     -1.01      0.00
   12   18   11     -0.85      0.00
  -21   19   11     -1.47      0.00
  -19   19   11      3.19      0.00
  -17   19   11     -5.44      0.00
  -15   19   11     -7.11      0.00
  -13   19   11      6.40      0.00
  -11   19   11      1.41      0.00
   -9   19   11     -2.94      0.00
   -7   19   11     -1.28      0.00
   -5   19   11     -2.29      0.00
   -3   19   11      2.29      0.00
   -1   19   11      1.53      0.00
    1   19   11      1.44      0.00
    3   19   11      2.31      0.00
    5   19   11     -2.34      0.00
    7   19   11     -1.88      0.00
    9   19   11      1.57      0.00
   11   19   11     -1.81      0.00
  -20   20   11      3.89      0.00
  -18   20   11     -0.82      0.00
  -16   20   11     -5.60      0.00
  -14   20   11     -1.55      0.00
  -12   20   11     -0.16      0.00
  -10   20   11      1.24      0.00
   -8   20   11     -0.26      0.00
   -6   20   11     -3.58      0.00
   -4   20   11      3.37      0.00
   -2   20   11      3.57      0.00
    0   20   11     -1.88      0.00
    2   20   11      3.58      0.00
    4   20   11     -0.33      0.00
    6   20   11     -1.05      0.00
    8   20   11     -2.27      0.00
  -17   21   11     -0.62      0.00
  -15   21   11      3.65      0.00
  -13   21   11      0.27      0.00
  -11   21   11     -1.79      0.00
   -9   21   11      4.57      0.00
   -7   21   11      3.50      0.00
   -5   21   11     -1.76      0.00
   -3   21   11      3.99      0.00
   -1   21   11     -4.44      0.00
    1   21   11     -0.37      0.00
    3   21   11     -2.98      0.00
    5   21   11      1.42      0.00
    7   21   11      1.88      0.00
  -16   22   11      3.56      0.00
  -14   22   11      2.21      0.00
  -12   22   11     -0.03      0.00
  -10   22   11      0.98      0.00
   -8   22   11     -0.50      0.00
   -6   22   11      0.46      0.00
   -4   22   11      0.94      0.00
   -2   22   11     -0.43      0.00
    0   22   11     -3.37      0.00
    2   22   11      2.19      0.00
    4   22   11      2.05      0.00
  -13   23   11      0.80      0.00
  -11   23   11      4.32      0.00
   -9   23   11     -4.91      0.00
   -7   23   11     -2.80      0.00
   -5   23   11     -2.15      0.00
   -3   23   11      2.43      0.00
   -1   23   11     -0.81      0.00
    1   23   11      3.31      0.00
  -28    0   12      0.19      0.00
  -26    0   12      1.41      0.00
  -24    0   12      3.69      0.00
  -22    0   12     -8.59      0.00
  -20    0   12      6.96      0.00
  -18    0   12      0.20      0.00
  -16    0   12     -2.86      0.00
  -14    0   12     -2.86      0.00
  -12    0   12     -0.22      0.00
  -10    0   12      3.17      0.00
   -8    0   12     -4.45      0.00
   -6    0   12      8.16      0.00
   -4    0   12     -5.40      0.00
   -2    0   12      1.40      0.00
    0    0   12      4.12      0.00
    2    0   12     -5.58      0.00
    4    0   12      4.19      0.00
    6    0   12     -3.50      0.00
    8    0   12     -1.35      0.00
   10    0   12      4.34      0.00
   12    0   12     -0.34      0.00
   14    0   12      7.40      0.00
   16    0   12      0.72      0.00
  -29    1   12     -4.18      0.00
  -27    1   12     -1.64      0.00
  -25    1   12      7.93      0.00
  -23    1   12     -9.35      0.00
  -21    1   12      1.54      0.00
  -19    1   12      0.02      0.00
  -17    1   12      4.71      0.00
  -15    1   12     -4.07      0.00
  -13    1   12      2.30      0.00
  -11    1   12     -1.44      0.00
   -9    1   12      0.90      0.00
   -7    1   12     -0.02      0.00
   -5    1   12     -2.48      0.00
   -3    1   12      1.91      0.00
   -1    1   12     -4.26      0.00
    1    1   12     -2.46      0.00
    3    1   12      5.11      0.00
    5    1   12     -2.79      0.00
    7    1   12      1.15      0.00
    9    1   12     -2.30      0.00
   11    1   12      3.38      0.00
   13    1   12     -3.37      0.00
   15    1   12     -1.22      0.00
   17    1   12      2.24      0.00
  -28    2   12     -1.70      0.00
  -26    2   12      2.25      0.00
  -24    2   12      1.92      0.00
  -22    2   12     -7.42      0.00
  -20    2   12      2.48      0.00
  -18    2   12      0.69      0.00
  -16    2   12     -0.82      0.00
  -14    2   12      0.85      0.00
  -12    2   12      4.15      0.00
  -10    2   12     -1.03      0.00
   -8    2   12     -6.07      0.00
   -6    2   12      3.12      0.00
   -4    2   12     -7.12      0.00
   -2    2   12      1.76      0.00
    0    2   12      5.07      0.00
    2    2   12     -4.24      0.00
    4    2   12      2.15      0.00
    6    2   12      1.43      0.00
    8    2   12     -0.84      0.00
   10    2   12     -2.12      0.00
   12    2   12     -4.33      0.00
   14    2   12      3.24      0.00
   16    2   12     -5.33      0.00
  -29    3   12     -2.76      0.00
  -27    3   12     -0.79      0.00
  -25    3   12      4.96      0.00
  -23    3   12     -2.75      0.00
  -21    3   12     -0.29      0.00
  -19    3   12      0.04      0.00
  -17    3   12      0.60      0.00
  -15    3   12     -2.24      0.00
  -13    3   12      1.55      0.00
  -11    3   12     -2.12      0.00
   -9    3   12      0.53      0.00
   -7    3   12      0.71      0.00
   -5    3   12      4.71      0.00
   -3    3   12      3.93      0.00
   -1    3   12      2.35      0.00
    1    3   12     -0.86      0.00
    3    3   12      1.61      0.00
    5    3   12     -0.46      0.00
    7    3   12     -1.17      0.00
    9    3   12     -1.01      0.00
   11    3   12      1.31      0.00
   13    3   12     -3.10      0.00
   15    3   12      0.00      0.00
   17    3   12      4.53      0.00
  -28    4   12      2.17      0.00
  -26    4   12      2.89      0.00
  -24    4   12      1.14      0.00
  -22    4   12     -0.36      0.00
  -20    4   12     -1.78      0.00
  -18    4   12      1.95      0.00
  -16    4   12     -1.86      0.00
  -14    4   12     -2.75      0.00
  -12    4   12      3.43      0.00
  -10    4   12      0.62      0.00
   -8    4   12      1.27      0.00
   -6    4   12      4.65      0.00
   -4    4   12     -0.33      0.00
   -2    4   12      0.23      0.00
    0    4   12      0.44      0.00
    2    4   12     -3.75      0.00
    4    4   12     -0.98      0.00
    6    4   12     -1.92      0.00
    8    4   12     -2.33      0.00
   10    4   12      1.10      0.00
   12    4   12      3.43      0.00
   14    4   12      0.66      0.00
   16    4   12     -1.74      0.00
  -29    5   12      0.22      0.00
  -27    5   12      2.37      0.00
  -25    5   12      3.92      0.00
  -23    5   12      1.75      0.00
  -21    5   12     -3.59      0.00
  -19    5   12      1.17      0.00
  -17    5   12      2.15      0.00
  -15    5   12      0.27      0.00
  -13    5   12     -1.33      0.00
  -11    5   12     -0.28      0.00
   -9    5   12      1.02      0.00
   -7    5   12     -2.57      0.00
   -5    5   12     -0.78      0.00
   -3    5   12     -4.56      0.00
   -1    5   12     -1.29      0.00
    1    5   12     -1.11      0.00
    3    5   12      1.27      0.00
    5    5   12      2.16      0.00
    7    5   12      0.76      0.00
    9    5   12      1.74      0.00
   11    5   12      3.42      0.00
   13    5   12     -1.74      0.00
   15    5   12     -0.56      0.00
   17    5   12      0.49      0.00
  -28    6   12     -0.10      0.00
  -26    6   12     -0.09      0.00
  -24    6   12      0.53      0.00
  -22    6   12      0.40      0.00
  -20    6   12     -0.40      0.00
  -18    6   12      5.29      0.00
  -16    6   12     -0.27      0.00
  -14    6   12     -0.89      0.00
  -12    6   12      2.59      0.00
  -10    6   12     -1.21      0.00
   -8    6   12     -2.63      0.00
   -6    6   12     -0.31      0.00
   -4    6   12     -0.99      0.00
   -2    6   12     -1.69      0.00
    0    6   12      5.14      0.00
    2    6   12     -1.09      0.00
    4    6   12      1.59      0.00
    6    6   12      3.72      0.00
    8    6   12      2.22      0.00
   10    6   12     -2.63      0.00
   12    6   12      5.91      0.00
   14    6   12      2.10      0.00
   16    6   12      0.50      0.00
  -27    7   12     -1.16      0.00
  -25    7   12     -3.16      0.00
  -23    7   12     -1.22      0.00
  -21    7   12     -0.43      0.00
  -19    7   12      0.98      0.00
  -17    7   12      0.89      0.00
  -15    7   12      1.60      0.00
  -13    7   12     -1.27      0.00
  -11    7   12     -0.54      0.00
   -9    7   12     -1.02      0.00
   -7    7   12      2.24      0.00
   -5    7   12      2.06      0.00
   -3    7   12     -0.43      0.00
   -1    7   12     -0.76      0.00
    1    7   12      0.36      0.00
    3    7   12      0.12      0.00
    5    7   12     -1.50      0.00
    7    7   12      0.42      0.00
    9    7   12     -6.07      0.00
   11    7   12     -0.54      0.00
   13    7   12     -2.11      0.00
   15    7   12      1.62      0.00
  -26    8   12     -0.51      0.00
  -24    8   12      0.55      0.00
  -22    8   12     -1.47      0.00
  -20    8   12     -3.29      0.00
  -18    8   12     -0.88      0.00
  -16    8   12     -0.71      0.00
  -14    8   12     -1.67      0.00
  -12    8   12      0.17      0.00
  -10    8   12      0.34      0.00
   -8    8   12     -1.42      0.00
   -6    8   12     -0.28      0.00
   -4    8   12      1.99      0.00
   -2    8   12     -1.65      0.00
    0    8   12      1.74      0.00
    2    8   12      0.38      0.00
    4    8   12      0.12      0.00
    6    8   12     -0.77      0.00
    8    8   12     -4.48      0.00
   10    8   12     -2.97      0.00
   12    8   12      3.48      0.00
   14    8   12     -4.73      0.00
  -27    9   12      0.72      0.00
  -25    9   12      1.77      0.00
  -23    9   12      0.17      0.00
  -21    9   12     -2.09      0.00
  -19    9   12     -2.74      0.00
  -17    9   12     -0.05      0.00
  -15    9   12      2.59      0.00
  -13    9   12      0.24      0.00
  -11    9   12      1.62      0.00
   -9    9   12     -0.10      0.00
   -7    9   12      1.70      0.00
   -5    9   12      0.82      0.00
   -3    9   12      0.80      0.00
   -1    9   12     -2.35      0.00
    1    9   12      1.61      0.00
    3    9   12      0.61      0.00
    5    9   12     -0.33      0.00
    7    9   12      5.57      0.00
    9    9   12     -0.24      0.00
   11    9   12      2.55      0.00
   13    9   12     -1.01      0.00
   15    9   12      0.63      0.00
  -26   10   12      3.52      0.00
  -24   10   12     -0.06      0.00
  -22   10   12     -2.42      0.00
  -20   10   12      0.24      0.00
  -18   10   12      1.38      0.00
  -16   10   12      0.77      0.00
  -14   10   12     -0.51      0.00
  -12   10   12      1.46      0.00
  -10   10   12      0.68      0.00
   -8   10   12     -0.14      0.00
   -6   10   12     -1.27      0.00
   -4   10   12      2.55      0.00
   -2   10   12     -0.75      0.00
    0   10   12     -2.50      0.00
    2   10   12      0.93      0.00
    4   10   12     -4.78      0.00
    6   10   12      3.58      0.00
    8   10   12     -0.37      0.00
   10   10   12      0.15      0.00
   12   10   12      2.03      0.00
   14   10   12     -1.70      0.00
  -25   11   12      0.10      0.00
  -23   11   12     -0.04      0.00
  -21   11   12      1.25      0.00
  -19   11   12      1.78      0.00
  -17   11   12     -1.88      0.00
  -15   11   12      0.97      0.00
  -13   11   12     -0.47      0.00
  -11   11   12     -3.65      0.00
   -9   11   12     -3.79      0.00
   -7   11   12     -0.53      0.00
   -5   11   12      1.05      0.00
   -3   11   12     -0.26      0.00
   -1   11   12     -2.67      0.00
    1   11   12     -0.47      0.00
    3   11   12     -0.44      0.00
    5   11   12      1.65      0.00
    7   11   12     -0.88      0.00
    9   11   12     -3.76      0.00
   11   11   12     -0.62      0.00
   13   11   12      0.59      0.00
  -24   12   12     -0.09      0.00
  -22   12   12      1.21      0.00
  -20   12   12      2.09      0.00
  -18   12   12     -0.67      0.00
  -16   12   12      0.84      0.00
  -14   12   12     -0.63      0.00
  -12   12   12     -2.58      0.00
  -10   12   12      1.15      0.00
   -8   12   12      2.37      0.00
   -6   12   12     -2.82      0.00
   -4   12   12      2.35      0.00
   -2   12   12     -0.69      0.00
    0   12   12     -4.56      0.00
    2   12   12      4.49      0.00
    4   12   12     -0.78      0.00
    6   12   12      1.62      0.00
    8   12   12     -2.69      0.00
   10   12   12      0.68      0.00
   12   12   12      3.63      0.00
  -23   13   12     -0.87      0.00
  -21   13   12     -1.38      0.00
  -19   13   12     -1.47      0.00
  -17   13   12     -1.07      0.00
  -15   13   12      0.38      0.00
  -13   13   12     -0.12      0.00
  -11   13   12      0.04      0.00
   -9   13   12      0.80      0.00
   -7   13   12      2.76      0.00
   -5   13   12      0.74      0.00
   -3   13   12     -1.02      0.00
   -1   13   12     -1.10      0.00
    1   13   12     -0.71      0.00
    3   13   12      1.17      0.00
    5   13   12      1.29      0.00
    7   13   12     -1.18      0.00
    9   13   12      0.02      0.00
   11   13   12     -0.81      0.00
  -22   14   12     -2.62      0.00
  -20   14   12      1.22      0.00
  -18   14   12     -1.71      0.00
  -16   14   12      0.72      0.00
  -14   14   12      1.15      0.00
  -12   14   12     -1.22      0.00
  -10   14   12     -0.08      0.00
   -8   14   12     -1.91      0.00
   -6   14   12     -3.14      0.00
   -4   14   12      2.41      0.00
   -2   14   12      0.19      0.00
    0   14   12     -1.01      0.00
    2   14   12      3.90      0.00
    4   14   12     -1.75      0.00
    6   14   12     -0.70      0.00
    8   14   12     -0.65      0.00
   10   14   12     -1.67      0.00
  -21   15   12      2.50      0.00
  -19   15   12     -2.18      0.00
  -17   15   12      2.13      0.00
  -15   15   12      2.76      0.00
  -13   15   12      2.34      0.00
  -11   15   12      1.74      0.00
   -9   15   12     -2.73      0.00
   -7   15   12      1.85      0.00
   -5   15   12      0.25      0.00
   -3   15   12      2.45      0.00
   -1   15   12     -1.23      0.00
    1   15   12     -3.44      0.00
    3   15   12      2.13      0.00
    5   15   12      2.14      0.00
    7   15   12      0.42      0.00
    9   15   12     -0.50      0.00
  -20   16   12      0.66      0.00
  -18   16   12     -1.71      0.00
  -16   16   12      1.02      0.00
  -14   16   12      2.15      0.00
  -12   16   12      0.18      0.00
  -10   16   12      1.52      0.00
   -8   16   12      1.46      0.00
   -6   16   12      2.11      0.00
   -4   16   12      2.69      0.00
   -2   16   12      0.13      0.00
    0   16   12     -2.00      0.00
    2   16   12      1.66      0.00
    4   16   12     -0.19      0.00
    6   16   12      1.46      0.00
    8   16   12      0.87      0.00
  -19   17   12     -3.47      0.00
  -17   17   12      0.79      0.00
  -15   17   12      0.36      0.00
  -13   17   12     -1.95      0.00
  -11   17   12     -0.23      0.00
   -9   17   12     -2.26      0.00
   -7   17   12      1.23      0.00
   -5   17   12     -2.14      0.00
   -3   17   12      1.35      0.00
   -1   17   12     -0.04      0.00
    1   17   12      0.49      0.00
    3   17   12      1.47      0.00
    5   17   12      0.74      0.00
    7   17   12     -0.77      0.00
  -16   18   12     -3.20      0.00
  -14   18   12     -0.55      0.00
  -12   18   12     -0.25      0.00
  -10   18   12     -1.81      0.00
   -8   18   12     -1.70      0.00
   -6   18   12      0.01      0.00
   -4   18   12     -2.48      0.00
   -2   18   12     -2.36      0.00
    0   18   12     -0.41      0.00
    2   18   12      2.77      0.00
    4   18   12     -0.66      0.00
  -13   19   12     -0.83      0.00
  -11   19   12      0.60      0.00
   -9   19   12      0.04      0.00
   -7   19   12      1.65      0.00
   -5   19   12     -0.82      0.00
   -3   19   12      0.02      0.00
   -1   19   12     -1.51      0.00
    1   19   12     -1.61      0.00
  -10   20   12     -0.74      0.00
   -8   20   12     -0.42      0.00
   -6   20   12      1.94      0.00
   -4   20   12     -0.20      0.00
   -2   20   12      0.30      0.00
  -23    1   13     -4.54      0.00
  -21    1   13     -2.45      0.00
  -19    1   13     -2.25      0.00
  -17    1   13     -1.30      0.00
  -15    1   13      1.06      0.00
  -13    1   13      1.15      0.00
  -11    1   13      3.02      0.00
   -9    1   13      3.02      0.00
   -7    1   13      1.01      0.00
   -5    1   13      1.17      0.00
   -3    1   13      0.75      0.00
   -1    1   13      0.88      0.00
    1    1   13     -0.63      0.00
    3    1   13      2.91      0.00
    5    1   13      0.64      0.00
    7    1   13      4.22      0.00
    9    1   13     -1.98      0.00
   11    1   13     -0.20      0.00
  -24    2   13      3.27      0.00
  -22    2   13      3.46      0.00
  -20    2   13      4.26      0.00
  -18    2   13      3.37      0.00
  -16    2   13      0.27      0.00
  -14    2   13     -0.95      0.00
  -12    2   13      2.81      0.00
  -10    2   13     -5.78      0.00
   -8    2   13     -1.45      0.00
   -6    2   13     -1.87      0.00
   -4    2   13      0.73      0.00
   -2    2   13     -2.94      0.00
    0    2   13     -0.51      0.00
    2    2   13     -0.39      0.00
    4    2   13     -4.87      0.00
    6    2   13     -2.12      0.00
    8    2   13     -1.37      0.00
   10    2   13      0.71      0.00
  -23    3   13     -2.41      0.00
  -21    3   13      4.57      0.00
  -19    3   13      0.87      0.00
  -17    3   13      0.77      0.00
  -15    3   13     -0.48      0.00
  -13    3   13     -1.36      0.00
  -11    3   13     -2.35      0.00
   -9    3   13      0.64      0.00
   -7    3   13     -2.27      0.00
   -5    3   13      1.09      0.00
   -3    3   13      2.39      0.00
   -1    3   13      0.61      0.00
    1    3   13      0.40      0.00
    3    3   13      0.39      0.00
    5    3   13     -8.00      0.00
    7    3   13      2.05      0.00
    9    3   13     -3.54      0.00
   11    3   13      0.64      0.00
  -24    4   13     -2.99      0.00
  -22    4   13     -5.83      0.00
  -20    4   13     -4.20      0.00
  -18    4   13     -3.58      0.00
  -16    4   13     -1.51      0.00
  -14    4   13     -5.29      0.00
  -12    4   13      4.41      0.00
  -10    4   13     -1.79      0.00
   -8    4   13      1.32      0.00
   -6    4   13      5.54      0.00
   -4    4   13      1.16      0.00
   -2    4   13      0.97      0.00
    0    4   13     -0.59      0.00
    2    4   13      8.46      0.00
    4    4   13      3.93      0.00
    6    4   13     -1.36      0.00
    8    4   13      3.82      0.00
   10    4   13      1.12      0.00
  -23    5   13     -1.18      0.00
  -21    5   13      2.47      0.00
  -19    5   13     -2.88      0.00
  -17    5   13     -0.02      0.00
  -15    5   13      0.43      0.00
  -13    5   13      1.20      0.00
  -11    5   13      0.59      0.00
   -9    5   13      0.47      0.00
   -7    5   13     -4.29      0.00
   -5    5   13     -0.20      0.00
   -3    5   13     -0.91      0.00
   -1    5   13     -4.96      0.00
    1    5   13      0.49      0.00
    3    5   13      0.98      0.00
    5    5   13     -0.56      0.00
    7    5   13      6.50      0.00
    9    5   13     -3.56      0.00
  -22    6   13      1.79      0.00
  -20    6   13      4.51      0.00
  -18    6   13      0.11      0.00
  -16    6   13      4.86      0.00
  -14    6   13     -0.22      0.00
  -12    6   13      5.30      0.00
  -10    6   13      1.42      0.00
   -8    6   13     -3.82      0.00
   -6    6   13      1.90      0.00
   -4    6   13     -4.80      0.00
   -2    6   13     -0.51      0.00
    0    6   13     -6.92      0.00
    2    6   13     -0.16      0.00
    4    6   13     -1.20      0.00
    6    6   13     -6.17      0.00
    8    6   13      5.31      0.00
   10    6   13     -4.46      0.00
  -21    7   13     -0.76      0.00
  -19    7   13     -2.00      0.00
  -17    7   13      0.59      0.00
  -15    7   13      2.50      0.00
  -13    7   13     -3.11      0.00
  -11    7   13      1.66      0.00
   -9    7   13      3.03      0.00
   -7    7   13     -1.77      0.00
   -5    7   13      2.26      0.00
   -3    7   13     -2.25      0.00
   -1    7   13      1.29      0.00
    1    7   13      4.27      0.00
    3    7   13     -2.09      0.00
    5    7   13     -1.11      0.00
    7    7   13      5.12      0.00
    9    7   13     -2.67      0.00
  -22    8   13      1.01      0.00
  -20    8   13      0.19      0.00
  -18    8   13     -1.60      0.00
  -16    8   13      0.56      0.00
  -14    8   13     -4.46      0.00
  -12    8   13     -3.04      0.00
  -10    8   13      3.89      0.00
   -8    8   13     -4.14      0.00
   -6    8   13      1.65      0.00
   -4    8   13      1.90      0.00
   -2    8   13      2.06      0.00
    0    8   13      0.20      0.00
    2    8   13      3.35      0.00
    4    8   13      3.01      0.00
    6    8   13     -4.74      0.00
    8    8   13      2.30      0.00
  -21    9   13      2.61      0.00
  -19    9   13      1.31      0.00
  -17    9   13     -0.75      0.00
  -15    9   13      4.42      0.00
  -13    9   13     -2.86      0.00
  -11    9   13      2.24      0.00
   -9    9   13     -3.16      0.00
   -7    9   13     -3.30      0.00
   -5    9   13      5.83      0.00
   -3    9   13      0.40      0.00
   -1    9   13      1.65      0.00
    1    9   13      2.64      0.00
    3    9   13     -3.47      0.00
    5    9   13     -0.40      0.00
    7    9   13     -0.14      0.00
  -20   10   13     -1.78      0.00
  -18   10   13      0.64      0.00
  -16   10   13      0.35      0.00
  -14   10   13     -0.16      0.00
  -12   10   13     -2.36      0.00
  -10   10   13      4.26      0.00
   -8   10   13     -5.82      0.00
   -6   10   13      1.80      0.00
   -4   10   13      1.56      0.00
   -2   10   13     -1.74      0.00
    0   10   13      1.14      0.00
    2   10   13     -1.26      0.00
    4   10   13      0.91      0.00
    6   10   13      1.25      0.00
  -19   11   13     -2.15      0.00
  -17   11   13     -1.61      0.00
  -15   11   13      1.08      0.00
  -13   11   13     -5.33      0.00
  -11   11   13      3.65      0.00
   -9   11   13      1.18      0.00
   -7   11   13      1.13      0.00
   -5   11   13     -1.38      0.00
   -3   11   13     -1.64      0.00
   -1   11   13     -4.34      0.00
    1   11   13      0.58      0.00
    3   11   13     -4.26      0.00
    5   11   13      3.51      0.00
  -18   12   13      0.70      0.00
  -16   12   13     -1.75      0.00
  -14   12   13     -0.84      0.00
  -12   12   13      0.55      0.00
  -10   12   13      5.57      0.00
   -8   12   13     -2.44      0.00
   -6   12   13      2.58      0.00
   -4   12   13     -1.94      0.00
   -2   12   13     -2.04      0.00
    0   12   13      1.71      0.00
    2   12   13     -2.97      0.00
    4   12   13      0.43      0.00
  -15   13   13      2.17      0.00
  -13   13   13      0.09      0.00
  -11   13   13      1.70      0.00
   -9   13   13     -2.85      0.00
   -7   13   13     -2.53      0.00
   -5   13   13     -2.10      0.00
   -3   13   13      5.36      0.00
   -1   13   13     -1.18      0.00
    1   13   13      3.53      0.00
    3   13   13     -1.23      0.00
  -14   14   13      1.52      0.00
  -12   14   13      1.05      0.00
  -10   14   13     -0.88      0.00
   -8   14   13     -2.66      0.00
   -6   14   13      0.87      0.00
   -4   14   13     -0.16      0.00
   -2   14   13     -0.29      0.00
    0   14   13      2.92      0.00
  -11   15   13      0.29      0.00
   -9   15   13      1.67      0.00
   -7   15   13     -1.43      0.00
   -5   15   13      0.43      0.00
   -3   15   13      3.42      0.00
  -14    0   14      0.93      0.00
  -12    0   14     -4.14      0.00
  -10    0   14      1.91      0.00
   -6    0   14     -1.71      0.00
   -4    0   14      2.04      0.00
   -2    0   14     -3.74      0.00
    0    0   14      5.38      0.00
  -15    1   14      0.14      0.00
  -13    1   14      0.68      0.00
  -11    1   14     -1.85      0.00
   -9    1   14     -0.15      0.00
   -7    1   14     -0.01      0.00
   -5    1   14     -0.56      0.00
   -3    1   14      0.21      0.00
   -1    1   14      2.39      0.00
    1    1   14     -0.56      0.00
  -14    2   14      2.87      0.00
  -12    2   14     -0.17      0.00
  -10    2   14      3.46      0.00
   -8    2   14     -1.91      0.00
   -6    2   14      3.91      0.00
   -4    2   14      0.84      0.00
   -2    2   14     -4.37      0.00
    0    2   14      0.92      0.00
  -15    3   14     -1.52      0.00
  -13    3   14     -0.48      0.00
  -11    3   14     -0.61      0.00
   -9    3   14      1.17      0.00
   -7    3   14      0.55      0.00
   -5    3   14     -1.09      0.00
   -3    3   14     -1.22      0.00
   -1    3   14     -1.07      0.00
  -14    4   14      0.24      0.00
  -12    4   14     -0.08      0.00
  -10    4   14      1.54      0.00
   -8    4   14     -2.35      0.00
   -6    4   14      1.17      0.00
   -4    4   14      0.34      0.00
   -2    4   14      1.60      0.00
    0    4   14     -1.06      0.00
  -13    5   14     -0.08      0.00
  -11    5   14      1.08      0.00
   -9    5   14      1.14      0.00
   -7    5   14      1.57      0.00
   -5    5   14     -1.16      0.00
   -3    5   14     -0.29      0.00
   -1    5   14      0.24      0.00
  -12    6   14      0.04      0.00
  -10    6   14     -0.84      0.00
   -8    6   14     -0.37      0.00
   -6    6   14     -1.20      0.00
   -4    6   14     -1.28      0.00
   -2    6   14     -0.29      0.00
   -9    7   14     -2.46      0.00
   -7    7   14      1.48      0.00
   -5    7   14      0.79      0.00
    2    0    0    -56.06      0.00
    4    0    0     83.38      0.00
   44    0    0     -0.46      0.00
    1    1    0      5.11      0.00
    3    1    0     -5.23      0.00
    0    2    0     54.34      0.00
    2    2    0   -408.12      0.00
    4    2    0    -54.72      0.00
    6    2    0     88.89      0.00
   44    2    0     -0.47      0.00
    1    3    0     17.32      0.00
    0    4    0    175.69      0.00
    2    4    0     22.63      0.00
    4    4    0   -150.13      0.00
   44    4    0      0.95      0.00
    4    6    0     33.35      0.00
    6    6    0     76.27      0.00
   44    6    0     -0.21      0.00
    2    8    0    -76.09      0.00
   43    9    0     -1.32      0.00
   42   12    0     -0.72      0.00
   41   15    0     -1.54      0.00
   40   16    0      2.45      0.00
   38   20    0     -2.28      0.00
   37   21    0     -0.28      0.00
   36   22    0      0.76      0.00
   35   23    0     -1.84      0.00
   34   24    0      2.59      0.00
   33   25    0     -0.96      0.00
   32   26    0     -3.27      0.00
   31   27    0      1.99      0.00
   30   28    0      0.55      0.00
   25   31    0     -5.44      0.00
   24   32    0      2.75      0.00
   21   33    0     -0.06      0.00
   20   34    0     -1.94      0.00
   17   35    0     -2.89      0.00
   14   36    0     -4.15      0.00
    7   37    0      3.41      0.00
    9   37    0     -0.89      0.00
   -3    1    1      8.31      0.00
   -1    1    1      7.19      0.00
    1    1    1      0.00      0.00
   -2    2    1     20.83      0.00
    0    2    1    -10.25      0.00
   44    2    1      1.07      0.00
   43    5    1     -2.27      0.00
  -44    6    1     -1.60      0.00
   43    7    1      0.24      0.00
  -44    8    1      0.88      0.00
   42   10    1      4.35      0.00
  -43   11    1      1.99      0.00
  -42   12    1      3.67      0.00
   41   13    1      2.42      0.00
  -41   15    1     -0.32      0.00
   39   17    1      2.03      0.00
   38   18    1     -4.07      0.00
  -39   19    1     -0.25      0.00
  -38   20    1     -3.64      0.00
  -37   21    1      3.04      0.00
  -36   22    1     -1.84      0.00
   34   24    1      0.43      0.00
   33   25    1      4.20      0.00
  -32   26    1     -0.45      0.00
   32   26    1     -1.37      0.00
  -31   27    1     -1.99      0.00
  -30   28    1     -1.98      0.00
  -29   29    1      2.14      0.00
   26   30    1      0.93      0.00
  -25   31    1      0.04      0.00
   25   31    1      2.36      0.00
  -24   32    1      0.72      0.00
   21   33    1      0.33      0.00
  -20   34    1      3.98      0.00
   18   34    1      3.82      0.00
  -17   35    1     -1.43      0.00
   15   35    1      0.84      0.00
  -14   36    1     -0.87      0.00
   12   36    1     -1.60      0.00
   -9   37    1      1.69      0.00
   -7   37    1     -1.79      0.00
    7   37    1     -2.69      0.00
    9   37    1     -1.32      0.00
   -4    0    2     18.62      0.00
    2    0    2      1.08      0.00
   -5    1    2    -82.59      0.00
    3    1    2     83.56      0.00
   43    1    2     -0.38      0.00
   43    3    2     -2.94      0.00
   -3    5    2      8.10      0.00
    1    5    2      7.09      0.00
  -44    6    2     -0.92      0.00
   42    6    2     -1.98      0.00
    3    7    2     -9.73      0.00
  -44    8    2      0.31      0.00
   42    8    2     -1.11      0.00
  -43   11    2      1.28      0.00
   41   11    2     -3.27      0.00
  -42   14    2      0.52      0.00
   40   14    2     -1.84      0.00
  -41   15    2      1.55      0.00
   39   15    2      2.77      0.00
  -39   19    2      1.55      0.00
   37   19    2     -0.04      0.00
  -38   20    2      1.18      0.00
   36   20    2      1.65      0.00
  -37   21    2     -1.19      0.00
   35   21    2      1.37      0.00
  -31   27    2      0.76      0.00
   29   27    2      1.92      0.00
  -30   28    2      0.43      0.00
   28   28    2      1.19      0.00
  -29   29    2     -4.73      0.00
   27   29    2      1.76      0.00
  -25   31    2      3.29      0.00
   23   31    2      2.19      0.00
  -24   32    2      1.05      0.00
   22   32    2     -2.38      0.00
  -21   33    2      0.33      0.00
   19   33    2      0.94      0.00
  -20   34    2     -0.90      0.00
   18   34    2      2.80      0.00
  -17   35    2     -1.96      0.00
   15   35    2      1.67      0.00
  -14   36    2      2.37      0.00
  -12   36    2     -3.44      0.00
   10   36    2      0.84      0.00
   12   36    2      3.85      0.00
   -9   37    2      0.43      0.00
   -7   37    2      0.63      0.00
   -5   37    2      0.89      0.00
    3   37    2     -0.06      0.00
    5   37    2      2.70      0.00
    7   37    2     -2.29      0.00
   42    2    3      0.51      0.00
  -44    6    3     -1.40      0.00
   41    7    3      1.11      0.00
  -44    8    3     -2.93      0.00
   40   10    3      1.65      0.00
  -43   11    3     -1.39      0.00
   39   13    3     -3.15      0.00
  -42   14    3      0.16      0.00
  -41   15    3     -1.43      0.00
   37   17    3     -0.54      0.00
   36   18    3     -1.01      0.00
  -39   19    3     -2.94      0.00
  -38   20    3     -1.98      0.00
  -37   21    3     -0.09      0.00
  -36   22    3      1.50      0.00
  -35   23    3     -1.95      0.00
  -34   24    3      1.37      0.00
  -33   25    3      2.46      0.00
  -32   26    3     -0.37      0.00
  -31   27    3      1.80      0.00
  -30   28    3     -0.36      0.00
   25   29    3     -1.67      0.00
   24   30    3     -0.20      0.00
  -25   31    3     -1.50      0.00
   20   32    3      1.23      0.00
  -21   33    3      0.30      0.00
  -18   34    3      4.73      0.00
   16   34    3     -0.26      0.00
  -15   35    3      2.51      0.00
   13   35    3     -1.78      0.00
  -12   36    3     -2.73      0.00
  -10   36    3      0.10      0.00
    8   36    3      1.32      0.00
   -5   37    3     -0.99      0.00
   -3   37    3      3.70      0.00
   -1   37    3     -2.20      0.00
    1   37    3      1.67      0.00
    3   37    3     -5.41      0.00
  -44    4    4     -0.86      0.00
   40    4    4     -1.01      0.00
  -44    6    4     -1.25      0.00
   40    6    4      0.22      0.00
  -43    9    4      3.58      0.00
   39    9    4      2.15      0.00
  -42   12    4     -0.76      0.00
   38   12    4     -0.46      0.00
  -41   15    4      0.28      0.00
   37   15    4     -1.82      0.00
  -40   16    4     -0.49      0.00
   36   16    4     -2.56      0.00
  -37   21    4      1.01      0.00
   33   21    4      1.50      0.00
  -36   22    4     -2.78      0.00
   32   22    4      2.54      0.00
  -35   23    4     -0.77      0.00
   31   23    4      2.17      0.00
  -34   24    4      2.17      0.00
   30   24    4      0.00      0.00
  -33   25    4      0.43      0.00
   29   25    4     -4.75      0.00
  -32   26    4     -0.26      0.00
   28   26    4     -0.39      0.00
  -31   27    4     -2.40      0.00
   27   27    4      2.99      0.00
  -27   29    4     -1.58      0.00
   23   29    4      0.88      0.00
  -26   30    4     -0.82      0.00
   22   30    4     -2.75      0.00
  -22   32    4      1.35      0.00
   18   32    4      0.28      0.00
  -19   33    4     -0.67      0.00
   15   33    4      3.59      0.00
  -16   34    4     -0.44      0.00
   12   34    4     -0.11      0.00
  -13   35    4      1.78      0.00
    9   35    4      0.47      0.00
   -8   36    4      0.77      0.00
   -6   36    4      2.32      0.00
   -4   36    4     -1.37      0.00
   -2   36    4     -0.81      0.00
    0   36    4     -1.13      0.00
    2   36    4     -0.34      0.00
    4   36    4      2.19      0.00
   39    1    5      0.42      0.00
  -44    2    5      1.92      0.00
   39    3    5     -1.87      0.00
  -44    4    5     -1.96      0.00
   39    5    5      5.65      0.00
  -43    7    5     -1.79      0.00
   38    8    5      2.21      0.00
  -43    9    5     -0.44      0.00
  -42   10    5      0.40      0.00
   37   11    5     -2.55      0.00
  -42   12    5      3.51      0.00
  -41   13    5      0.83      0.00
   36   14    5     -1.93      0.00
   35   15    5      1.97      0.00
  -40   16    5      2.28      0.00
  -39   17    5     -2.14      0.00
  -38   18    5     -1.46      0.00
   33   19    5     -2.64      0.00
   32   20    5     -0.17      0.00
   31   21    5      2.14      0.00
   30   22    5     -0.91      0.00
   29   23    5     -0.57      0.00
   28   24    5     -0.09      0.00
   27   25    5     -0.11      0.00
   26   26    5      2.78      0.00
  -29   27    5      0.58      0.00
   25   27    5     -0.96      0.00
  -28   28    5     -0.42      0.00
  -27   29    5     -2.16      0.00
   21   29    5      0.26      0.00
  -24   30    5      0.21      0.00
   20   30    5     -2.69      0.00
  -23   31    5      1.02      0.00
   17   31    5      0.21      0.00
  -20   32    5     -1.68      0.00
   16   32    5     -1.21      0.00
  -17   33    5      1.07      0.00
   13   33    5      0.18      0.00
  -14   34    5     -0.40      0.00
    8   34    5      1.84      0.00
   10   34    5     -0.78      0.00
  -11   35    5      1.53      0.00
   -9   35    5     -2.80      0.00
   -7   35    5      3.10      0.00
    1   35    5      1.10      0.00
    3   35    5      1.70      0.00
    5   35    5      2.78      0.00
  -43    1    6      0.65      0.00
   37    1    6      0.97      0.00
  -43    3    6      1.95      0.00
   37    3    6      0.33      0.00
  -43    5    6     -2.86      0.00
   37    5    6     -0.15      0.00
  -42    8    6     -0.66      0.00
   36    8    6      1.19      0.00
  -41   11    6      4.95      0.00
   35   11    6     -2.57      0.00
  -40   14    6      0.33      0.00
   34   14    6      0.59      0.00
  -39   15    6     -4.07      0.00
   33   15    6      2.07      0.00
  -37   19    6     -3.56      0.00
   31   19    6      3.90      0.00
  -36   20    6      4.13      0.00
   30   20    6      1.55      0.00
  -35   21    6      0.13      0.00
   29   21    6     -1.89      0.00
  -34   22    6      1.11      0.00
   28   22    6     -0.38      0.00
  -33   23    6     -1.93      0.00
   27   23    6     -0.93      0.00
  -32   24    6     -4.51      0.00
   26   24    6     -3.17      0.00
  -31   25    6      2.56      0.00
   25   25    6     -1.22      0.00
  -26   28    6     -1.40      0.00
   20   28    6     -1.22      0.00
  -25   29    6     -0.99      0.00
   19   29    6     -2.47      0.00
  -22   30    6     -1.61      0.00
   16   30    6      0.09      0.00
  -21   31    6     -0.68      0.00
   15   31    6     -1.21      0.00
  -18   32    6      5.27      0.00
   12   32    6      3.73      0.00
  -15   33    6      0.81      0.00
  -13   33    6     -3.55      0.00
    7   33    6      0.84      0.00
    9   33    6      1.72      0.00
  -10   34    6     -2.56      0.00
   -8   34    6      0.48      0.00
   -6   34    6     -2.59      0.00
   -4   34    6     -0.69      0.00
   -2   34    6     -1.76      0.00
    0   34    6      0.34      0.00
    2   34    6      1.16      0.00
    4   34    6      1.25      0.00
   35    1    7      0.18      0.00
  -42    2    7     -0.21      0.00
   35    3    7      3.02      0.00
  -42    4    7     -3.72      0.00
   35    5    7      1.59      0.00
  -42    6    7     -0.75      0.00
  -41    7    7     -0.20      0.00
   34    8    7     -1.84      0.00
  -41    9    7      2.76      0.00
  -40   10    7     -1.55      0.00
   33   11    7     -0.74      0.00
  -40   12    7     -5.12      0.00
  -39   13    7      2.79      0.00
   32   14    7      2.05      0.00
   31   15    7      0.93      0.00
   30   16    7     -3.25      0.00
  -37   17    7     -2.99      0.00
  -36   18    7     -2.42      0.00
  -35   19    7      1.66      0.00
  -34   20    7      0.18      0.00
  -33   21    7      0.45      0.00
  -32   22    7      1.21      0.00
  -31   23    7     -0.70      0.00
  -30   24    7     -0.17      0.00
  -29   25    7      2.99      0.00
  -28   26    7     -4.09      0.00
   20   26    7      1.17      0.00
   19   27    7     -0.83      0.00
  -24   28    7      0.43      0.00
   15   29    7      0.55      0.00
  -20   30    7      1.18      0.00
   12   30    7     -1.55      0.00
  -17   31    7      0.95      0.00
    9   31    7      0.35      0.00
   11   31    7     -2.13      0.00
  -14   32    7     -1.17      0.00
  -12   32    7     -1.26      0.00
    6   32    7      0.16      0.00
   -9   33    7      0.74      0.00
   -7   33    7      0.58      0.00
   -5   33    7      1.00      0.00
   -3   33    7     -2.72      0.00
   -1   33    7      0.18      0.00
    1   33    7     -2.14      0.00
  -41    1    8      0.03      0.00
   33    1    8      1.71      0.00
  -41    3    8     -0.33      0.00
   33    3    8     -0.75      0.00
  -40    6    8      1.26      0.00
   32    6    8     -0.03      0.00
  -40    8    8     -1.81      0.00
   32    8    8     -3.13      0.00
  -39    9    8      2.05      0.00
   31    9    8      0.13      0.00
  -38   12    8     -0.28      0.00
   30   12    8     -0.23      0.00
  -36   16    8     -2.16      0.00
   28   16    8     -1.34      0.00
  -35   17    8      0.16      0.00
   27   17    8      1.18      0.00
  -34   18    8      1.48      0.00
   26   18    8      0.00      0.00
  -33   19    8     -0.24      0.00
   25   19    8     -0.35      0.00
  -32   20    8      2.16      0.00
   24   20    8      0.86      0.00
  -31   21    8      1.01      0.00
   23   21    8      1.41      0.00
  -30   22    8     -1.64      0.00
   22   22    8     -1.62      0.00
  -29   23    8     -1.55      0.00
   21   23    8      1.59      0.00
  -28   24    8      0.66      0.00
   20   24    8      1.57      0.00
  -27   25    8      0.11      0.00
   19   25    8      0.39      0.00
  -24   26    8      0.98      0.00
   16   26    8     -2.05      0.00
  -23   27    8      0.14      0.00
   15   27    8     -2.16      0.00
  -20   28    8      1.43      0.00
   12   28    8      0.92      0.00
  -19   29    8     -0.42      0.00
  -17   29    8     -1.91      0.00
   11   29    8      0.95      0.00
  -16   30    8     -1.45      0.00
  -14   30    8     -0.42      0.00
    6   30    8      3.09      0.00
    8   30    8      0.02      0.00
  -11   31    8      0.22      0.00
   -9   31    8      0.38      0.00
   -7   31    8      0.74      0.00
   -1   31    8     -1.07      0.00
    1   31    8      4.03      0.00
    3   31    8     -0.75      0.00
  -39    1    9      0.66      0.00
   30    2    9     -2.45      0.00
  -39    3    9     -3.24      0.00
   30    4    9     -1.95      0.00
  -39    5    9      0.40      0.00
  -38    6    9     -1.42      0.00
   29    7    9      1.37      0.00
  -38    8    9      1.67      0.00
  -37    9    9     -4.92      0.00
   28   10    9     -0.87      0.00
  -37   11    9     -3.57      0.00
  -36   12    9     -0.03      0.00
   27   13    9      1.53      0.00
   26   14    9     -1.32      0.00
   25   15    9     -0.30      0.00
  -34   16    9      1.30      0.00
   24   16    9      3.54      0.00
  -33   17    9      1.09      0.00
  -32   18    9     -3.01      0.00
  -31   19    9     -0.82      0.00
  -30   20    9     -0.52      0.00
  -29   21    9     -2.43      0.00
  -28   22    9      2.68      0.00
   18   22    9      2.46      0.00
   17   23    9     -0.88      0.00
  -24   24    9     -0.85      0.00
   16   24    9     -2.00      0.00
  -23   25    9      3.90      0.00
   13   25    9     -0.61      0.00
  -20   26    9     -1.23      0.00
   12   26    9      0.47      0.00
  -19   27    9     -1.33      0.00
    9   27    9     -2.41      0.00
  -16   28    9      0.29      0.00
  -14   28    9      0.04      0.00
    6   28    9     -1.20      0.00
  -13   29    9      1.80      0.00
  -11   29    9     -0.53      0.00
   -9   29    9      0.53      0.00
   -1   29    9     -1.37      0.00
    1   29    9      2.98      0.00
    3   29    9     -2.51      0.00
  -37    1   10      0.65      0.00
   27    1   10      2.28      0.00
  -37    3   10     -0.08      0.00
   27    3   10      2.37      0.00
   26    4   10     -2.05      0.00
  -36    6   10     -2.97      0.00
   26    6   10     -0.80      0.00
  -36    8   10      1.61      0.00
   26    8   10     -2.26      0.00
  -35    9   10     -2.30      0.00
   25    9   10     -1.54      0.00
  -34   12   10      0.12      0.00
   24   12   10      0.26      0.00
  -33   13   10     -1.35      0.00
   23   13   10      0.03      0.00
  -32   14   10      0.53      0.00
   22   14   10     -1.35      0.00
   21   15   10     -0.52      0.00
  -26   20   10      3.43      0.00
   16   20   10      0.61      0.00
  -25   21   10     -1.76      0.00
   15   21   10     -0.94      0.00
  -24   22   10     -0.40      0.00
   14   22   10     -1.27      0.00
  -20   24   10     -0.23      0.00
   10   24   10     -1.63      0.00
  -17   25   10      1.25      0.00
    7   25   10      0.61      0.00
  -14   26   10      0.24      0.00
    4   26   10      1.10      0.00
  -11   27   10     -0.82      0.00
   -9   27   10      1.76      0.00
   -7   27   10      2.65      0.00
   -5   27   10      1.09      0.00
   -3   27   10      1.33      0.00
   -1   27   10      0.55      0.00
    1   27   10     -0.12      0.00
   23    1   11     -0.58      0.00
  -34    2   11      1.28      0.00
   23    3   11     -2.00      0.00
  -34    4   11      2.09      0.00
  -33    5   11      0.02      0.00
   23    5   11     -1.79      0.00
   22    6   11      0.02      0.00
  -33    7   11     -1.39      0.00
  -32    8   11     -1.90      0.00
   22    8   11     -1.86      0.00
   21    9   11     -0.50      0.00
  -32   10   11      0.91      0.00
   20   10   11     -0.54      0.00
  -31   11   11     -1.15      0.00
  -30   12   11      0.24      0.00
   20   12   11      0.45      0.00
   19   13   11     -1.37      0.00
   18   14   11      1.46      0.00
   17   15   11      2.18      0.00
   16   16   11      0.94      0.00
   15   17   11     -1.25      0.00
  -24   18   11      0.51      0.00
   14   18   11     -2.72      0.00
  -23   19   11      1.87      0.00
   13   19   11     -1.56      0.00
  -22   20   11     -0.46      0.00
   10   20   11      0.95      0.00
  -21   21   11     -1.95      0.00
  -19   21   11      2.69      0.00
    9   21   11      1.51      0.00
  -18   22   11     -1.29      0.00
    6   22   11      1.52      0.00
    8   22   11      1.44      0.00
  -15   23   11     -1.09      0.00
    3   23   11     -1.01      0.00
    5   23   11     -1.32      0.00
  -12   24   11      1.65      0.00
  -10   24   11      2.24      0.00
   -8   24   11     -4.12      0.00
   -6   24   11      0.23      0.00
   -4   24   11      0.41      0.00
   -2   24   11     -0.06      0.00
    0   24   11     -0.92      0.00
    2   24   11      0.45      0.00
  -30    0   12     -1.24      0.00
   18    0   12      3.11      0.00
  -31    1   12      1.93      0.00
   19    1   12     -2.53      0.00
  -30    2   12     -1.92      0.00
   18    2   12     -4.15      0.00
  -30    4   12     -0.61      0.00
   18    4   12      1.33      0.00
  -30    6   12     -2.23      0.00
   18    6   12      0.90      0.00
  -29    7   12     -0.20      0.00
   17    7   12      1.10      0.00
  -28    8   12     -0.06      0.00
   16    8   12     -2.73      0.00
  -28   10   12     -1.25      0.00
   16   10   12     -0.78      0.00
  -27   11   12      1.06      0.00
   15   11   12     -0.31      0.00
  -26   12   12      0.36      0.00
   14   12   12      0.88      0.00
  -25   13   12      1.18      0.00
   13   13   12     -0.40      0.00
  -24   14   12     -0.64      0.00
   12   14   12     -0.21      0.00
  -23   15   12     -1.20      0.00
   11   15   12      0.87      0.00
  -22   16   12     -0.18      0.00
   10   16   12      0.07      0.00
  -21   17   12      1.03      0.00
    9   17   12     -0.21      0.00
  -18   18   12      1.41      0.00
    6   18   12     -0.83      0.00
  -17   19   12     -1.02      0.00
  -15   19   12      0.26      0.00
    3   19   12     -0.74      0.00
    5   19   12      2.02      0.00
  -14   20   12      1.67      0.00
  -12   20   12      1.25      0.00
    0   20   12     -0.48      0.00
    2   20   12     -0.02      0.00
  -11   21   12     -0.01      0.00
   -9   21   12     -1.41      0.00
   -7   21   12      1.08      0.00
   -5   21   12     -1.59      0.00
   -3   21   12      0.12      0.00
   -1   21   12      1.30      0.00
  -25    1   13      0.52      0.00
   13    1   13      0.57      0.00
  -26    2   13      2.14      0.00
   12    2   13     -3.14      0.00
  -25    3   13      1.02      0.00
   13    3   13     -0.34      0.00
   12    4   13     -0.42      0.00
  -25    5   13      0.54      0.00
   11    5   13     -0.01      0.00
  -24    6   13      0.10      0.00
   12    6   13     -0.28      0.00
  -23    7   13     -1.27      0.00
   11    7   13      1.27      0.00
  -24    8   13      0.16      0.00
   10    8   13     -0.60      0.00
  -23    9   13      1.06      0.00
    9    9   13     -3.40      0.00
  -22   10   13     -0.39      0.00
    8   10   13      0.12      0.00
  -21   11   13     -1.51      0.00
    7   11   13      2.14      0.00
  -20   12   13     -0.23      0.00
    6   12   13      1.30      0.00
  -19   13   13      0.87      0.00
  -17   13   13      0.16      0.00
    5   13   13     -0.13      0.00
  -16   14   13     -0.44      0.00
    2   14   13     -1.49      0.00
    4   14   13      0.00      0.00
  -15   15   13      1.35      0.00
  -13   15   13     -1.50      0.00
   -1   15   13     -2.61      0.00
    1   15   13     -2.32      0.00
  -12   16   13     -1.89      0.00
  -10   16   13     -1.79      0.00
   -8   16   13      1.33      0.00
   -6   16   13      0.10      0.00
   -4   16   13      1.30      0.00
   -2   16   13     -0.76      0.00
    0   16   13     -0.16      0.00
  -18    0   14      0.75      0.00
  -16    0   14     -1.31      0.00
   -8    0   14     -6.04      0.00
    2    0   14      0.78      0.00
    4    0   14     -0.61      0.00
  -17    1   14      0.30      0.00
    3    1   14      0.95      0.00
  -18    2   14      0.18      0.00
  -16    2   14     -1.26      0.00
    2    2   14      0.97      0.00
    4    2   14     -0.92      0.00
  -17    3   14     -1.20      0.00
    1    3   14     -1.79      0.00
    3    3   14     -0.07      0.00
  -16    4   14     -0.17      0.00
    2    4   14      1.90      0.00
  -17    5   14      0.63      0.00
  -15    5   14      1.51      0.00
    1    5   14     -0.11      0.00
    3    5   14      1.73      0.00
  -16    6   14     -0.48      0.00
  -14    6   14     -0.02      0.00
    0    6   14     -0.63      0.00
    2    6   14      3.25      0.00
  -15    7   14     -0.22      0.00
  -13    7   14     -2.04      0.00
  -11    7   14      0.90      0.00
   -3    7   14      0.80      0.00
   -1    7   14      1.34      0.00
    1    7   14      0.02      0.00
  -14    8   14      2.00      0.00
  -12    8   14     -0.11      0.00
  -10    8   14     -0.41      0.00
   -8    8   14      0.98      0.00
   -6    8   14     -0.58      0.00
   -4    8   14      1.23      0.00
   -2    8   14     -0.11      0.00
    0    8   14     -1.10      0.00
  -11    9   14      1.22      0.00
   -9    9   14     -1.57      0.00
   -7    9   14      0.93      0.00
   -5    9   14     -1.02      0.00
   -3    9   14     -2.28      0.00
   -8   10   14      0.79      0.00
   -6   10   14     -0.75      0.00
    0    0    0      0.00      0.00
loop_
  _platon_squeeze_void_nr
  _platon_squeeze_void_average_x
  _platon_squeeze_void_average_y
  _platon_squeeze_void_average_z
  _platon_squeeze_void_volume
  _platon_squeeze_void_count_electrons
  _platon_squeeze_void_content
   1  0.250  0.000  0.195       876       139 ' '
   2  0.750  0.000  0.067       876       137 ' '
   3  0.000  0.250  0.903       733       109 ' '
   4  0.500  0.250  0.425       733       107 ' '
   5  0.250  0.500  0.439       876       137 ' '
   6  0.750  0.500  0.549       876       139 ' '
   7  0.500  0.750  0.580       733       109 ' '
   8  0.000  0.750  0.087       733       107 ' '
_platon_squeeze_details
(replace by semicolon in column 1 when used as .sqf)
TITL twin5     C 2/c        R = 0.14
CELL   36.9290   31.0800   11.8533     90.00     99.23     90.00
SPGR C2/c
C101 0.817 0.032 0.157 !       3.42 eA-3
C102 0.672 0.498 0.683 !       3.32 eA-3
C103 0.171 0.499 0.983 !       3.25 eA-3
C104 0.684 0.015 0.951 !       3.19 eA-3
C105 0.688 0.023 0.847 !       2.92 eA-3
C106 0.672 0.499 0.563 !       2.81 eA-3
C107 0.789 0.444-0.007 !       2.67 eA-3
C108 0.530 0.296 0.378 !       2.66 eA-3
C109 0.493 0.178 0.345 !       2.53 eA-3
C110 0.817 0.031 0.238 !       2.52 eA-3
C111 0.999 0.179 0.656 !       2.40 eA-3
C112 0.214 0.382 0.932 !       2.36 eA-3
C113 0.146 0.459 0.920 !       2.35 eA-3
C114 0.641 0.467 0.207 !       2.34 eA-3
C115 0.558 0.288 0.308 !       2.28 eA-3
C116 0.028 0.305 0.283 !       2.20 eA-3
C117 0.849 0.017 0.829 !       2.19 eA-3
C118 0.973 0.326 0.604 !       2.12 eA-3
C119 0.094 0.234 0.319 !       2.10 eA-3
C120 0.464 0.304 0.986 !       2.08 eA-3
C121 0.471 0.203 0.321 !       2.07 eA-3
C122 0.711 0.438 0.701 !       2.06 eA-3
C123 0.229 0.422 0.463 !       2.00 eA-3
C124 0.757 0.069 0.502 !       1.97 eA-3
C125 0.027 0.180 0.637 !       1.95 eA-3
C126 0.474 0.305 0.829 !       1.93 eA-3
C127 0.929 0.267 0.156 !       1.90 eA-3
C128 0.264 0.095 0.076 !       1.89 eA-3
C129 0.203 0.471 0.422 !       1.84 eA-3
C130 0.278 0.015 0.649 !       1.83 eA-3
C131 0.757 0.413 0.727 !       1.83 eA-3
C132 0.288 0.390 0.717 !       1.79 eA-3
C133 0.554 0.226 0.839 !       1.75 eA-3
C134 0.904 0.242 0.226 !       1.73 eA-3
C135 0.715 0.072 0.969 !       1.71 eA-3
C136 0.006 0.313 0.816 !       1.71 eA-3
C137 0.890 0.241 0.202 !       1.70 eA-3
C138 1.000 0.320 0.734 !       1.70 eA-3
C139 0.781 0.041 0.472 !       1.68 eA-3
C140 0.155 0.493 0.056 !       1.67 eA-3
C141 0.941 0.288 0.747 !       1.66 eA-3
C142 0.454 0.209 0.836 !       1.66 eA-3
C143 0.465 0.203 0.465 !       1.65 eA-3
C144 0.263 0.070 0.220 !       1.65 eA-3
C145 0.816 0.016 0.758 !       1.65 eA-3
C146 0.982 0.195 0.706 !       1.65 eA-3
C147 0.086 0.259 0.759 !       1.61 eA-3
C148 0.080 0.233 0.242 !       1.61 eA-3
C149 0.210 0.040 0.767 !       1.57 eA-3
C150 0.744 0.468 0.347 !       1.51 eA-3
C151 0.045 0.298 0.840 !       1.47 eA-3
C152 0.272 0.429 0.040 !       1.42 eA-3
C153 0.310 0.405 0.235 !       1.41 eA-3
C154 0.814 0.100 0.812 !       1.41 eA-3
C155 0.658 0.022 0.440 !       1.40 eA-3
Q156 0.196 0.086 0.922 !       1.40 eA-3
Q157 0.800 0.367 0.624 !       1.39 eA-3
C158 0.765 0.484 0.121 !       1.38 eA-3
Q159 0.167 0.399 0.000 !       1.38 eA-3
C160 0.529 0.187 0.338 !       1.38 eA-3
Q161 0.808 0.118 0.701 !       1.38 eA-3
C162 0.151 0.025 0.578 !       1.36 eA-3
C163 0.020 0.203 0.041 !       1.36 eA-3
Q164 0.055 0.358 0.452 !       1.35 eA-3
C165 0.522 0.180 0.871 !       1.34 eA-3
C166 0.592 0.234 0.756 !       1.34 eA-3
C167 0.795 0.077 0.826 !       1.32 eA-3
C168 0.260 0.586 0.639 !       1.31 eA-3
C169 0.760 0.086 0.639 !       1.31 eA-3
Q170 0.449 0.366 0.938 !       1.29 eA-3
C171 0.705 0.069 0.535 !       1.28 eA-3
C172 0.947 0.296 0.241 !       1.27 eA-3
C173 0.047 0.218 0.001 !       1.27 eA-3
Q174 0.545 0.358 0.172 !       1.24 eA-3
C175 0.451 0.310 0.310 !       1.23 eA-3
C176 0.018 0.298 0.368 !       1.22 eA-3
C177 0.483 0.188 0.674 !       1.21 eA-3
C178 0.622 0.477 0.126 !       1.21 eA-3
C179 0.040 0.219 0.356 !       1.21 eA-3
C180 0.824 0.460 0.651 !       1.20 eA-3
Q181 0.366 0.242 0.659 !       1.18 eA-3
C182 0.327 0.015 0.886 !       1.18 eA-3
C183 0.780 0.915 0.264 !       1.17 eA-3
C184 0.280 0.415 0.264 !       1.17 eA-3
Q185 0.188 0.085 0.980 !       1.16 eA-3
Q186 0.942 0.155 0.829 !       1.16 eA-3
Q187 0.820 0.070 0.456 !       1.15 eA-3
Q188 0.320 0.570 0.456 !       1.15 eA-3
C189 0.982 0.335 0.672 !       1.14 eA-3
C190 0.603 0.234 0.813 !       1.14 eA-3
C191 0.724 0.498 0.878 !       1.13 eA-3
C192 0.048 0.279 0.699 !       1.11 eA-3
C193 0.597 0.266 0.873 !       1.11 eA-3
C194 0.424 0.194 0.724 !       1.10 eA-3
Q195 0.358 0.235 0.330 !       1.09 eA-3
C196 0.257 0.420 0.565 !       1.08 eA-3
Q197 0.795 0.377 0.494 !       1.08 eA-3
C198 0.409 0.258 0.169 !       1.07 eA-3
C199 0.019 0.296 0.455 !       1.07 eA-3
(replace by semicolon in column 1 when used as .sqf)
;
_shelx_fab_checksum              62199
#END Tags that were not found in dictionaries
loop_
_space_group_symop_operation_xyz
'x, y, z'
'-x, y, -z+1/2'
'x+1/2, y+1/2, z'
'-x+1/2, y+1/2, -z+1/2'
'-x, -y, -z'
'x, -y, z-1/2'
'-x+1/2, -y+1/2, -z'
'x+1/2, -y+1/2, z-1/2'
loop_
_atom_site_label
_atom_site_type_symbol
_atom_site_fract_x
_atom_site_fract_y
_atom_site_fract_z
_atom_site_U_iso_or_equiv
_atom_site_adp_type
_atom_site_occupancy
_atom_site_site_symmetry_order
_atom_site_calc_flag
_atom_site_refinement_flags_posn
_atom_site_refinement_flags_adp
_atom_site_refinement_flags_occupancy
Zn01 Zn 0.23058(2) 0.25153(3) 0.86500(13) 0.0369(3) Uani 1 1 d . . .
Zn02 Zn 0.27013(2) -0.25148(3) 1.13453(13) 0.0378(3) Uani 1 1 d . . .
O1 O -0.23311(13) -0.20172(16) -0.1316(7) 0.0460(16) Uani 1 1 d . . .
C1 C -0.2055(2) -0.2016(2) -0.1654(8) 0.039(2) Uani 1 1 d . . .
O2 O -0.19571(12) -0.22384(15) -0.2365(5) 0.0383(14) Uani 1 1 d . . .
C2 C -0.1756(2) -0.1716(3) -0.1013(9) 0.059(3) Uani 1 1 d D . .
C3 C -0.1452(2) -0.1623(3) -0.1560(9) 0.059(3) Uani 1 1 d D . .
H3A H -0.1444 -0.1735 -0.2301 0.070 Uiso 1 1 calc R U .
C4 C -0.1166(3) -0.1371(4) -0.1031(9) 0.084(4) Uani 1 1 d D . .
H4A H -0.0959 -0.1313 -0.1390 0.101 Uiso 1 1 calc R U .
C5 C -0.1192(2) -0.1199(2) 0.0081(7) 0.044(2) Uani 1 1 d D . .
C6 C -0.1496(2) -0.1286(3) 0.0544(8) 0.059(3) Uani 1 1 d D . .
H6A H -0.1516 -0.1155 0.1255 0.071 Uiso 1 1 calc R U .
C7 C -0.1786(2) -0.1557(3) 0.0054(8) 0.056(2) Uani 1 1 d D . .
H7A H -0.1988 -0.1624 0.0430 0.067 Uiso 1 1 calc R U .
C8 C -0.0884(2) -0.0925(2) 0.0681(8) 0.041(2) Uani 1 1 d . . .
C9 C -0.06829(18) -0.06482(19) 0.0082(7) 0.0349(17) Uani 1 1 d . . .
H9A H -0.0737 -0.0631 -0.0728 0.042 Uiso 1 1 calc R U .
C10 C -0.04161(18) -0.0410(2) 0.0654(7) 0.0356(17) Uani 1 1 d . . .
H10A H -0.0293 -0.0204 0.0258 0.043 Uiso 1 1 calc R U .
C11 C -0.03110(19) -0.0461(2) 0.1881(7) 0.037(2) Uani 1 1 d . . .
C12 C -0.0482(2) -0.0743(2) 0.2423(8) 0.044(2) Uani 1 1 d . . .
H12A H -0.0411 -0.0784 0.3222 0.053 Uiso 1 1 calc R U .
C13 C -0.0776(2) -0.0988(3) 0.1809(8) 0.050(2) Uani 1 1 d . . .
H13A H -0.0897 -0.1198 0.2200 0.060 Uiso 1 1 calc R U .
C14 C 0.0000 -0.0190(3) 0.2500 0.040(3) Uani 1 2 d S T P
C15 C 0.0000 0.0238(3) 0.2500 0.036(2) Uani 1 2 d S T P
C16 C 0.03309(18) 0.0496(2) 0.3069(7) 0.0330(19) Uani 1 1 d . . .
C17 C 0.0245(2) 0.0845(2) 0.3753(7) 0.0412(19) Uani 1 1 d . . .
H17A H -0.0001 0.0908 0.3831 0.049 Uiso 1 1 calc R U .
C18 C 0.05364(19) 0.1091(2) 0.4305(7) 0.0400(18) Uani 1 1 d . . .
H18A H 0.0486 0.1326 0.4766 0.048 Uiso 1 1 calc R U .
C19 C 0.0897(2) 0.1003(2) 0.4203(7) 0.0373(19) Uani 1 1 d . . .
C20 C 0.09594(18) 0.0650(2) 0.3556(7) 0.0381(18) Uani 1 1 d . . .
H20A H 0.1204 0.0572 0.3487 0.046 Uiso 1 1 calc R U .
C21 C 0.06722(18) 0.0409(2) 0.3010(6) 0.0348(17) Uani 1 1 d . . .
H21A H 0.0725 0.0169 0.2569 0.042 Uiso 1 1 calc R U .
C22 C 0.1195(2) 0.1277(2) 0.4805(7) 0.041(2) Uani 1 1 d . . .
C23 C 0.1551(2) 0.1253(3) 0.4563(8) 0.046(2) Uani 1 1 d . . .
H23A H 0.1602 0.1045 0.4023 0.056 Uiso 1 1 calc R U .
C24 C 0.1838(2) 0.1516(3) 0.5063(11) 0.073(3) Uani 1 1 d . . .
H24A H 0.2070 0.1512 0.4814 0.088 Uiso 1 1 calc R U .
C25 C 0.1768(3) 0.1794(3) 0.5973(10) 0.057(2) Uani 1 1 d . . .
C26 C 0.1407(2) 0.1784(2) 0.6306(8) 0.043(2) Uani 1 1 d . . .
H26A H 0.1366 0.1952 0.6943 0.052 Uiso 1 1 calc R U .
C27 C 0.1121(2) 0.1544(2) 0.5747(7) 0.0406(18) Uani 1 1 d . . .
H27A H 0.0885 0.1553 0.5966 0.049 Uiso 1 1 calc R U .
C28 C 0.2064(2) 0.2057(2) 0.6642(8) 0.042(2) Uani 1 1 d . . .
O3 O 0.19647(14) 0.22904(16) 0.7316(5) 0.0436(15) Uani 1 1 d . . .
O4 O 0.23582(13) 0.20393(16) 0.6346(6) 0.0428(16) Uani 1 1 d . . .
O5 O 0.26104(13) 0.19975(16) 0.8937(6) 0.0409(14) Uani 1 1 d . . .
O6 O 0.30240(14) 0.22909(19) 1.0454(6) 0.0514(17) Uani 1 1 d . . .
C29 C 0.2959(2) 0.2028(3) 0.9535(8) 0.051(3) Uani 1 1 d . . .
C30 C 0.32429(18) 0.1751(2) 0.9251(8) 0.0367(19) Uani 1 1 d D . .
C31 C 0.3561(2) 0.1740(3) 0.9913(8) 0.063(3) Uani 1 1 d D . .
H31A H 0.3605 0.1913 1.0580 0.075 Uiso 1 1 calc R U .
C32 C 0.3844(2) 0.1466(3) 0.9629(8) 0.069(3) Uani 1 1 d D . .
H32A H 0.4072 0.1449 1.0126 0.082 Uiso 1 1 calc R U .
C33 C 0.3788(2) 0.1232(3) 0.8662(8) 0.049(2) Uani 1 1 d D . .
C34 C 0.3461(2) 0.1260(3) 0.7963(9) 0.072(3) Uani 1 1 d D . .
H34A H 0.3423 0.1116 0.7247 0.086 Uiso 1 1 calc R U .
C35 C 0.3184(2) 0.1501(2) 0.8302(7) 0.048(2) Uani 1 1 d D . .
H35A H 0.2946 0.1492 0.7859 0.057 Uiso 1 1 calc R U .
C36 C 0.4106(2) 0.0985(3) 0.8372(9) 0.047(2) Uani 1 1 d . . .
C37 C 0.4478(2) 0.1085(2) 0.8780(10) 0.059(3) Uani 1 1 d . . .
H37A H 0.4534 0.1326 0.9271 0.071 Uiso 1 1 calc R U .
C38 C 0.4759(2) 0.0841(2) 0.8480(8) 0.047(2) Uani 1 1 d . . .
H38A H 0.5005 0.0929 0.8738 0.056 Uiso 1 1 calc R U .
C39 C 0.4699(2) 0.0464(2) 0.7804(8) 0.040(2) Uani 1 1 d . . .
C40 C 0.4315(2) 0.0373(2) 0.7310(9) 0.057(3) Uani 1 1 d . . .
H40A H 0.4261 0.0144 0.6779 0.068 Uiso 1 1 calc R U .
C41 C 0.4028(2) 0.0618(3) 0.7611(9) 0.057(3) Uani 1 1 d . . .
H41A H 0.3782 0.0544 0.7317 0.068 Uiso 1 1 calc R U .
C42 C 0.5000 0.0228(3) 0.7500 0.043(3) Uani 1 2 d S T P
C43 C 0.5000 -0.0223(3) 0.7500 0.038(3) Uani 1 2 d S T P
C44 C 0.4719(2) -0.0476(2) 0.7922(8) 0.041(2) Uani 1 1 d . . .
C45 C 0.4611(2) -0.0430(2) 0.8946(9) 0.049(2) Uani 1 1 d . . .
H45A H 0.4737 -0.0237 0.9493 0.058 Uiso 1 1 calc R U .
C46 C 0.4302(2) -0.0676(3) 0.9215(9) 0.064(3) Uani 1 1 d . . .
H46A H 0.4216 -0.0621 0.9915 0.077 Uiso 1 1 calc R U .
C47 C 0.4133(3) -0.0977(3) 0.8513(9) 0.053(3) Uani 1 1 d . . .
C48 C 0.4242(3) -0.1010(3) 0.7426(10) 0.072(3) Uani 1 1 d . . .
H48A H 0.4110 -0.1198 0.6876 0.086 Uiso 1 1 calc R U .
C49 C 0.4516(3) -0.0791(3) 0.7148(9) 0.059(3) Uani 1 1 d . . .
H49A H 0.4586 -0.0838 0.6421 0.071 Uiso 1 1 calc R U .
C50 C 0.3813(2) -0.1211(3) 0.8828(9) 0.053(2) Uani 1 1 d . . .
C51 C 0.3510(3) -0.1323(3) 0.7958(9) 0.059(3) Uani 1 1 d . . .
H51A H 0.3507 -0.1241 0.7185 0.071 Uiso 1 1 calc R U .
C52 C 0.3224(2) -0.1550(3) 0.8273(8) 0.049(2) Uani 1 1 d . . .
H52A H 0.3004 -0.1584 0.7743 0.059 Uiso 1 1 calc R U .
C53 C 0.3251(2) -0.1732(2) 0.9367(7) 0.039(2) Uani 1 1 d . . .
C54 C 0.3544(2) -0.1653(3) 1.0142(9) 0.053(2) Uani 1 1 d . . .
H54A H 0.3570 -0.1789 1.0869 0.064 Uiso 1 1 calc R U .
C55 C 0.3820(2) -0.1368(3) 0.9888(8) 0.047(2) Uani 1 1 d . . .
H55A H 0.4013 -0.1286 1.0478 0.056 Uiso 1 1 calc R U .
C56 C 0.2953(2) -0.2014(3) 0.9584(8) 0.054(3) Uani 1 1 d . . .
O7 O 0.30378(14) -0.22871(19) 1.0493(6) 0.0509(17) Uani 1 1 d . . .
O8 O 0.26216(13) -0.19851(16) 0.8972(6) 0.0412(14) Uani 1 1 d . . .
loop_
_atom_site_aniso_label
_atom_site_aniso_U_11
_atom_site_aniso_U_22
_atom_site_aniso_U_33
_atom_site_aniso_U_23
_atom_site_aniso_U_13
_atom_site_aniso_U_12
Zn01 0.0227(4) 0.0378(5) 0.0464(5) -0.0233(3) -0.0059(8) -0.0004(3)
Zn02 0.0222(4) 0.0363(4) 0.0520(6) 0.0252(3) -0.0033(8) 0.0020(3)
O1 0.025(3) 0.036(3) 0.077(5) -0.028(3) 0.007(3) 0.000(2)
C1 0.036(4) 0.023(4) 0.053(5) -0.005(4) -0.012(4) 0.004(3)
O2 0.019(2) 0.032(3) 0.058(4) -0.032(3) -0.010(2) 0.005(2)
C2 0.051(5) 0.066(6) 0.058(7) -0.029(6) 0.000(5) -0.014(4)
C3 0.046(5) 0.062(6) 0.069(7) -0.036(5) 0.010(5) -0.027(4)
C4 0.084(8) 0.099(8) 0.072(8) -0.058(7) 0.019(6) -0.039(7)
C5 0.045(5) 0.034(4) 0.047(5) -0.023(4) -0.009(4) -0.019(4)
C6 0.066(6) 0.070(6) 0.041(5) -0.031(5) 0.009(5) -0.041(5)
C7 0.047(5) 0.070(6) 0.050(6) -0.024(5) 0.003(4) -0.019(4)
C8 0.044(4) 0.022(3) 0.053(6) -0.015(3) -0.004(4) -0.004(3)
C9 0.034(4) 0.020(3) 0.047(5) -0.005(3) -0.004(3) -0.008(3)
C10 0.029(4) 0.032(4) 0.044(4) 0.005(3) -0.002(3) -0.001(3)
C11 0.028(4) 0.025(3) 0.049(5) -0.007(4) -0.017(4) 0.008(3)
C12 0.047(4) 0.027(4) 0.052(5) 0.005(4) -0.009(4) -0.012(3)
C13 0.044(5) 0.044(4) 0.055(6) -0.005(4) -0.016(4) -0.018(4)
C14 0.047(6) 0.017(4) 0.046(7) 0.000 -0.021(7) 0.000
C15 0.028(5) 0.035(5) 0.041(6) 0.000 -0.008(6) 0.000
C16 0.028(4) 0.017(3) 0.048(5) -0.004(3) -0.012(3) -0.005(3)
C17 0.040(4) 0.028(4) 0.054(5) -0.008(3) 0.001(4) -0.007(3)
C18 0.037(4) 0.037(4) 0.044(4) -0.005(3) 0.001(3) -0.018(3)
C19 0.038(4) 0.036(4) 0.035(5) -0.003(3) -0.004(4) -0.008(3)
C20 0.025(3) 0.034(4) 0.055(5) -0.009(4) 0.005(3) -0.007(3)
C21 0.031(4) 0.027(3) 0.042(4) -0.005(3) -0.007(3) -0.003(3)
C22 0.049(5) 0.034(4) 0.037(5) -0.010(3) -0.005(4) -0.024(3)
C23 0.040(4) 0.051(5) 0.049(5) -0.024(4) 0.012(4) -0.027(4)
C24 0.037(5) 0.085(7) 0.101(9) -0.045(7) 0.023(6) -0.020(5)
C25 0.060(5) 0.071(6) 0.041(5) -0.017(5) 0.011(5) -0.031(5)
C26 0.040(4) 0.039(4) 0.050(5) -0.006(4) 0.004(4) -0.010(3)
C27 0.054(5) 0.026(3) 0.039(5) -0.004(3) 0.000(4) -0.005(3)
C28 0.046(5) 0.022(4) 0.052(5) -0.002(4) -0.009(4) -0.011(3)
O3 0.040(3) 0.035(3) 0.052(4) -0.025(3) -0.004(3) -0.002(2)
O4 0.025(3) 0.035(3) 0.065(4) -0.028(3) -0.003(3) 0.003(2)
O5 0.030(2) 0.041(3) 0.049(4) -0.015(3) 0.003(3) 0.015(2)
O6 0.030(3) 0.056(4) 0.065(4) -0.034(3) -0.002(3) 0.012(3)
C29 0.028(4) 0.060(5) 0.061(6) -0.042(5) -0.004(4) -0.001(4)
C30 0.025(3) 0.028(3) 0.056(6) -0.014(4) 0.005(4) 0.012(3)
C31 0.048(5) 0.080(6) 0.058(6) -0.039(5) 0.001(5) 0.025(5)
C32 0.036(4) 0.098(7) 0.065(7) -0.041(6) -0.017(4) 0.040(5)
C33 0.037(4) 0.041(4) 0.066(7) -0.008(4) 0.000(4) 0.012(4)
C34 0.051(5) 0.087(7) 0.073(8) -0.045(6) -0.006(6) 0.019(5)
C35 0.047(5) 0.048(5) 0.044(5) -0.023(4) -0.004(4) 0.023(4)
C36 0.034(4) 0.038(4) 0.070(7) -0.009(4) 0.015(4) 0.021(3)
C37 0.040(4) 0.032(4) 0.110(8) -0.023(5) 0.026(5) 0.004(3)
C38 0.032(4) 0.029(4) 0.083(7) -0.010(4) 0.022(4) 0.001(3)
C39 0.040(4) 0.018(3) 0.068(6) 0.002(4) 0.023(4) 0.003(3)
C40 0.053(5) 0.031(4) 0.090(7) -0.022(5) 0.025(5) 0.002(3)
C41 0.032(4) 0.057(5) 0.087(7) -0.022(5) 0.028(4) 0.007(4)
C42 0.033(5) 0.021(5) 0.077(9) 0.000 0.015(7) 0.000
C43 0.026(5) 0.015(4) 0.081(9) 0.000 0.029(7) 0.000
C44 0.036(4) 0.023(3) 0.064(6) -0.003(4) 0.013(4) -0.013(3)
C45 0.037(4) 0.031(4) 0.080(7) 0.005(4) 0.016(4) -0.015(3)
C46 0.048(5) 0.081(7) 0.067(7) 0.006(5) 0.022(5) -0.020(5)
C47 0.065(6) 0.047(5) 0.049(6) -0.008(4) 0.015(5) -0.040(4)
C48 0.086(7) 0.048(5) 0.087(8) -0.028(5) 0.033(6) -0.045(5)
C49 0.072(6) 0.044(5) 0.073(7) -0.017(5) 0.044(5) -0.022(4)
C50 0.051(5) 0.052(5) 0.057(6) -0.004(5) 0.011(5) -0.024(4)
C51 0.071(6) 0.052(5) 0.057(7) -0.003(5) 0.022(5) -0.025(5)
C52 0.052(5) 0.049(5) 0.044(5) 0.008(4) 0.002(4) -0.038(4)
C53 0.031(4) 0.040(4) 0.048(6) 0.016(4) 0.014(4) -0.015(3)
C54 0.035(4) 0.067(6) 0.059(6) 0.025(5) 0.016(4) -0.010(4)
C55 0.030(4) 0.048(5) 0.065(6) -0.005(4) 0.017(4) -0.021(3)
C56 0.028(4) 0.079(6) 0.053(6) 0.044(5) -0.004(4) -0.017(4)
O7 0.025(3) 0.063(4) 0.062(4) 0.036(3) 0.000(3) -0.017(3)
O8 0.030(3) 0.040(3) 0.052(4) 0.020(3) 0.001(3) -0.013(2)
loop_
_atom_type_symbol
_atom_type_description
_atom_type_scat_dispersion_real
_atom_type_scat_dispersion_imag
_atom_type_scat_source
C C 0.0040 0.0020
'XDISP Program in WinGX L.Kissel & R.H.Pratt Acta Cryst A46 170 1990'
H H 0.0000 0.0000
'XDISP Program in WinGX L.Kissel & R.H.Pratt Acta Cryst A46 170 1990'
N N 0.0076 0.0040
'XDISP Program in WinGX L.Kissel & R.H.Pratt Acta Cryst A46 170 1990'
O O 0.0132 0.0074
'XDISP Program in WinGX L.Kissel & R.H.Pratt Acta Cryst A46 170 1990'
Zn Zn 0.2282 1.6718
'XDISP Program in WinGX L.Kissel & R.H.Pratt Acta Cryst A46 170 1990'
loop_
_geom_angle_atom_site_label_1
_geom_angle_atom_site_label_2
_geom_angle_atom_site_label_3
_geom_angle
_geom_angle_site_symmetry_1
_geom_angle_site_symmetry_3
O6 Zn01 O5 125.6(3) 7_557 .
O6 Zn01 O1 104.9(3) 7_557 3_556
O5 Zn01 O1 103.4(2) . 3_556
O6 Zn01 O3 100.4(2) 7_557 .
O5 Zn01 O3 97.0(2) . .
O1 Zn01 O3 128.2(3) 3_556 .
O7 Zn02 O4 101.7(3) . 6_556
O7 Zn02 O8 129.5(3) . 7_547
O4 Zn02 O8 103.1(2) 6_556 7_547
O7 Zn02 O2 99.72(19) . 8_547
O4 Zn02 O2 129.0(3) 6_556 8_547
O8 Zn02 O2 97.7(2) 7_547 8_547
C1 O1 Zn01 129.0(5) . 3_444
O1 C1 O2 129.1(7) . .
O1 C1 C2 115.6(8) . .
O2 C1 C2 115.0(7) . .
C1 O2 Zn02 123.0(5) . 8_444
C7 C2 C3 122.3(8) . .
C7 C2 C1 120.6(8) . .
C3 C2 C1 117.1(8) . .
C4 C3 C2 120.9(9) . .
C3 C4 C5 117.9(9) . .
C6 C5 C4 118.5(7) . .
C6 C5 C8 122.3(7) . .
C4 C5 C8 119.2(8) . .
C5 C6 C7 125.2(8) . .
C2 C7 C6 115.0(8) . .
C13 C8 C9 119.7(7) . .
C13 C8 C5 117.9(8) . .
C9 C8 C5 121.9(8) . .
C10 C9 C8 119.6(8) . .
C9 C10 C11 120.5(7) . .
C12 C11 C10 119.5(7) . .
C12 C11 C14 121.6(7) . .
C10 C11 C14 118.9(6) . .
C11 C12 C13 119.7(8) . .
C8 C13 C12 120.5(8) . .
C15 C14 C11 123.8(4) . .
C15 C14 C11 123.8(4) . 2
C11 C14 C11 112.5(7) . 2
C14 C15 C16 121.8(4) . .
C14 C15 C16 121.8(4) . 2
C16 C15 C16 116.5(8) . 2
C21 C16 C17 119.7(6) . .
C21 C16 C15 125.5(6) . .
C17 C16 C15 114.7(6) . .
C18 C17 C16 117.5(7) . .
C19 C18 C17 122.1(7) . .
C20 C19 C18 117.0(6) . .
C20 C19 C22 123.3(7) . .
C18 C19 C22 119.6(7) . .
C21 C20 C19 120.7(7) . .
C16 C21 C20 123.0(7) . .
C23 C22 C27 119.3(7) . .
C23 C22 C19 121.5(7) . .
C27 C22 C19 118.9(7) . .
C22 C23 C24 124.0(8) . .
C23 C24 C25 117.1(8) . .
C24 C25 C26 118.5(7) . .
C24 C25 C28 121.6(8) . .
C26 C25 C28 119.7(9) . .
C27 C26 C25 123.2(8) . .
C26 C27 C22 117.3(8) . .
O3 C28 O4 128.5(7) . .
O3 C28 C25 114.6(8) . .
O4 C28 C25 116.3(9) . .
C28 O3 Zn01 121.9(5) . .
C28 O4 Zn02 126.0(5) . 6
C29 O5 Zn01 119.8(5) . .
C29 O6 Zn01 128.0(5) . 7_557
O6 C29 O5 119.2(7) . .
O6 C29 C30 120.7(7) . .
O5 C29 C30 119.7(7) . .
C31 C30 C35 119.6(7) . .
C31 C30 C29 119.6(7) . .
C35 C30 C29 120.8(6) . .
C30 C31 C32 119.7(7) . .
C33 C32 C31 120.5(7) . .
C32 C33 C34 119.0(8) . .
C32 C33 C36 117.3(7) . .
C34 C33 C36 123.5(8) . .
C33 C34 C35 119.2(8) . .
C30 C35 C34 121.6(7) . .
C37 C36 C41 118.0(7) . .
C37 C36 C33 124.4(7) . .
C41 C36 C33 117.6(7) . .
C38 C37 C36 121.3(8) . .
C37 C38 C39 123.0(7) . .
C38 C39 C42 120.7(7) . .
C38 C39 C40 116.0(6) . .
C42 C39 C40 122.8(7) . .
C41 C40 C39 121.0(8) . .
C40 C41 C36 120.3(8) . .
C43 C42 C39 121.0(4) . .
C43 C42 C39 121.0(4) . 2_656
C39 C42 C39 118.1(9) . 2_656
C42 C43 C44 122.7(4) . .
C42 C43 C44 122.7(4) . 2_656
C44 C43 C44 114.6(8) . 2_656
C45 C44 C43 125.7(7) . .
C45 C44 C49 116.3(7) . .
C43 C44 C49 117.9(8) . .
C44 C45 C46 119.9(8) . .
C47 C46 C45 122.4(9) . .
C46 C47 C48 116.5(8) . .
C46 C47 C50 119.7(9) . .
C48 C47 C50 123.2(8) . .
C49 C48 C47 122.5(9) . .
C48 C49 C44 122.0(9) . .
C55 C50 C51 118.6(8) . .
C55 C50 C47 121.1(8) . .
C51 C50 C47 119.8(9) . .
C52 C51 C50 118.3(9) . .
C51 C52 C53 121.1(8) . .
C54 C53 C52 119.6(7) . .
C54 C53 C56 122.9(8) . .
C52 C53 C56 117.5(7) . .
C53 C54 C55 120.1(8) . .
C50 C55 C54 121.3(8) . .
O8 C56 O7 123.4(7) . .
O8 C56 C53 121.3(7) . .
O7 C56 C53 115.3(6) . .
C56 O7 Zn02 125.1(5) . .
C56 O8 Zn02 122.2(5) . 7_547
loop_
_geom_bond_atom_site_label_1
_geom_bond_atom_site_label_2
_geom_bond_distance
_geom_bond_site_symmetry_2
Zn01 O6 1.841(6) 7_557
Zn01 O5 1.962(5) .
Zn01 O1 1.973(5) 3_556
Zn01 O3 1.984(5) .
Zn02 O7 1.863(6) .
Zn02 O4 1.947(5) 6_556
Zn02 O8 1.958(5) 7_547
Zn02 O2 1.974(5) 8_547
O1 C1 1.154(10) .
O1 Zn01 1.973(5) 3_444
C1 O2 1.190(10) .
C1 C2 1.549(10) .
O2 Zn02 1.974(5) 8_444
C2 C7 1.379(11) .
C2 C3 1.413(11) .
C3 C4 1.382(10) .
C4 C5 1.440(11) .
C5 C6 1.356(10) .
C5 C8 1.503(9) .
C6 C7 1.411(9) .
C8 C13 1.348(12) .
C8 C9 1.403(11) .
C9 C10 1.329(9) .
C10 C11 1.454(11) .
C11 C12 1.307(11) .
C11 C14 1.515(8) .
C12 C13 1.427(10) .
C14 C15 1.330(13) .
C14 C11 1.516(8) 2
C15 C16 1.526(8) .
C15 C16 1.526(8) 2
C16 C21 1.302(10) .
C16 C17 1.419(10) .
C17 C18 1.394(9) .
C18 C19 1.385(10) .
C19 C20 1.379(10) .
C19 C22 1.482(9) .
C20 C21 1.371(9) .
C22 C23 1.392(11) .
C22 C27 1.451(11) .
C23 C24 1.393(11) .
C24 C25 1.436(14) .
C25 C26 1.450(12) .
C25 C28 1.490(11) .
C26 C27 1.371(10) .
C28 O3 1.181(10) .
C28 O4 1.195(10) .
O4 Zn02 1.947(5) 6
O5 C29 1.371(9) .
O6 C29 1.351(9) .
O6 Zn01 1.841(6) 7_557
C29 C30 1.438(10) .
C30 C31 1.306(10) .
C30 C35 1.354(9) .
C31 C32 1.427(9) .
C32 C33 1.345(11) .
C33 C34 1.354(10) .
C33 C36 1.487(10) .
C34 C35 1.381(10) .
C36 C37 1.415(11) .
C36 C41 1.454(12) .
C37 C38 1.381(10) .
C38 C39 1.415(11) .
C39 C42 1.427(9) .
C39 C40 1.473(12) .
C40 C41 1.394(10) .
C42 C43 1.401(13) .
C42 C39 1.427(9) 2_656
C43 C44 1.455(9) .
C43 C44 1.455(9) 2_656
C44 C45 1.344(13) .
C44 C49 1.463(11) .
C45 C46 1.451(10) .
C46 C47 1.338(12) .
C47 C48 1.413(13) .
C47 C50 1.486(11) .
C48 C49 1.304(11) .
C50 C55 1.344(13) .
C50 C51 1.438(13) .
C51 C52 1.369(11) .
C52 C53 1.404(12) .
C53 C54 1.326(12) .
C53 C56 1.463(10) .
C54 C55 1.418(10) .
C56 O8 1.322(9) .
C56 O7 1.367(9) .
O8 Zn02 1.958(5) 7_547
