#------------------------------------------------------------------------------
#$Date: 2015-07-16 18:05:34 +0300 (Thu, 16 Jul 2015) $
#$Revision: 152130 $
#$URL: svn://www.crystallography.net/cod/cif/7/11/75/7117538.cif $
#------------------------------------------------------------------------------
#
# This file is available in the Crystallography Open Database (COD),
# http://www.crystallography.net/
#
# All data on this site have been placed in the public domain by the
# contributors.
#
data_7117538
loop_
_publ_author_name
'L. H. Blair'
'A. Colakel'
'R. M. Vrcelj'
'I. Sinclair'
'S. J. Coles'
_publ_section_title
;
 Metal-organic fireworks: MOFs as integrated structural scaffolds for
 pyrotechnic materials
;
_journal_name_full               Chem.Commun.
_journal_page_first              12185
_journal_paper_doi               10.1039/C5cc04174K
_journal_volume                  51
_journal_year                    2015
_chemical_formula_moiety         'C26 H18 Ba2 F8 N2 O11'
_chemical_formula_sum            'C26 H18 Ba2 F8 N2 O11'
_chemical_formula_weight         961.10
_chemical_name_systematic
;
 ?
;
_space_group_crystal_system      monoclinic
_space_group_IT_number           14
_space_group_name_Hall           '-P 2yn'
_space_group_name_H-M_alt        'P 1 21/n 1'
_symmetry_space_group_name_Hall  '-P 2yn'
_symmetry_space_group_name_H-M   'P 1 21/n 1'
_atom_sites_solution_hydrogens   mixed
_atom_sites_solution_primary     direct
_audit_creation_date             2015-01-30
_audit_creation_method
;
Olex2 1.2
(compiled 2015.01.26 svn.r3150 for OlexSys, GUI svn.r4998)
;
_audit_update_record
;
2015-01-30 deposited with the CCDC.
2015-06-23 downloaded from the CCDC.
;
_cell_angle_alpha                90
_cell_angle_beta                 117.997(2)
_cell_angle_gamma                90
_cell_formula_units_Z            2
_cell_length_a                   7.0904(5)
_cell_length_b                   32.270(2)
_cell_length_c                   7.2698(5)
_cell_measurement_reflns_used    35957
_cell_measurement_temperature    100(2)
_cell_measurement_theta_max      27.5
_cell_measurement_theta_min      2.5
_cell_volume                     1468.72(17)
_computing_cell_refinement
'CrystalClear-SM Expert 3.1 b27 (Rigaku, 2013)'
_computing_data_collection
'CrystalClear-SM Expert 3.1 b27 (Rigaku, 2013)'
_computing_data_reduction
'CrystalClear-SM Expert 3.1 b27 (Rigaku, 2013)'
_computing_molecular_graphics    'Olex2 (Dolomanov et al., 2009)'
_computing_publication_material  'Olex2 (Dolomanov et al., 2009)'
_computing_structure_refinement  'ShelXL (Sheldrick, 2008)'
_computing_structure_solution    'ShelXS (Sheldrick, 2008)'
_diffrn_ambient_temperature      100(2)
_diffrn_detector                 'CCD area detector'
_diffrn_detector_area_resol_mean 28.5714
_diffrn_detector_type            'Rigaku HG Saturn724+ (2x2 bin mode)'
_diffrn_measured_fraction_theta_full 0.999
_diffrn_measured_fraction_theta_max 0.997
_diffrn_measurement_details
;
scan:
    Number of images: 108
               Slice: -35.0000 - 73.0000
         Image width: 1.0000
            Exp time: 50.0000
       Rotation axis: Omega
               Omega: 0.0000
               Kappa: 72.0000
                 Phi: -120.0000
                 XTD: 45.0070
              2theta: -17.1543
scan:
    Number of images: 91
               Slice: -69.0000 - 22.0000
         Image width: 1.0000
            Exp time: 50.0000
       Rotation axis: Omega
               Omega: 0.0000
               Kappa: -72.0000
                 Phi: 120.0000
                 XTD: 45.0070
              2theta: -17.1543
scan:
    Number of images: 90
               Slice: -68.0000 - 22.0000
         Image width: 1.0000
            Exp time: 50.0000
       Rotation axis: Omega
               Omega: 0.0000
               Kappa: -72.0000
                 Phi: -60.0000
                 XTD: 45.0070
              2theta: -17.1543
scan:
    Number of images: 77
               Slice: -53.0000 - 24.0000
         Image width: 1.0000
            Exp time: 50.0000
       Rotation axis: Omega
               Omega: 0.0000
               Kappa: 0.0000
                 Phi: 90.0000
                 XTD: 45.0070
              2theta: -17.1543
scan:
    Number of images: 16
               Slice: -28.0000 - -12.0000
         Image width: 1.0000
            Exp time: 50.0000
       Rotation axis: Omega
               Omega: 0.0000
               Kappa: 72.0000
                 Phi: 60.0000
                 XTD: 45.0070
              2theta: -17.1543
scan:
    Number of images: 126
               Slice: -53.0000 - 73.0000
         Image width: 1.0000
            Exp time: 50.0000
       Rotation axis: Omega
               Omega: 0.0000
               Kappa: 54.0000
                 Phi: 90.0000
                 XTD: 45.0070
              2theta: -17.1543
scan:
    Number of images: 58
               Slice: -31.0000 - 27.0000
         Image width: 1.0000
            Exp time: 50.0000
       Rotation axis: Omega
               Omega: 0.0000
               Kappa: 36.0000
                 Phi: -180.0000
                 XTD: 45.0070
              2theta: -17.1543
;
_diffrn_measurement_device       'four-circle \k diffractometer'
_diffrn_measurement_device_type  Ros
_diffrn_measurement_method       'profile data from \w-scans'
_diffrn_measurement_specimen_support 'MiTeGen MicroMesh'
_diffrn_orient_matrix_type       d*Trek
_diffrn_orient_matrix_UB_11      -0.033608
_diffrn_orient_matrix_UB_12      0.155955
_diffrn_orient_matrix_UB_13      -0.007855
_diffrn_orient_matrix_UB_21      -0.001647
_diffrn_orient_matrix_UB_22      -0.001910
_diffrn_orient_matrix_UB_23      -0.030886
_diffrn_orient_matrix_UB_31      -0.149664
_diffrn_orient_matrix_UB_32      0.042916
_diffrn_orient_matrix_UB_33      0.005325
_diffrn_radiation_collimation    0.3
_diffrn_radiation_monochromator  'Confocal mirrors, VHF Varimax'
_diffrn_radiation_probe          x-ray
_diffrn_radiation_type           MoK\a
_diffrn_radiation_wavelength     0.71075
_diffrn_reflns_av_R_equivalents  0.0663
_diffrn_reflns_av_unetI/netI     0.0413
_diffrn_reflns_laue_measured_fraction_full 0.999
_diffrn_reflns_laue_measured_fraction_max 0.997
_diffrn_reflns_limit_h_max       9
_diffrn_reflns_limit_h_min       -9
_diffrn_reflns_limit_k_max       39
_diffrn_reflns_limit_k_min       -41
_diffrn_reflns_limit_l_max       8
_diffrn_reflns_limit_l_min       -9
_diffrn_reflns_number            17867
_diffrn_reflns_point_group_measured_fraction_full 0.999
_diffrn_reflns_point_group_measured_fraction_max 0.997
_diffrn_reflns_theta_full        25.242
_diffrn_reflns_theta_max         27.483
_diffrn_reflns_theta_min         2.525
_diffrn_source                   'Rotating Anode'
_diffrn_source_current           55.0
_diffrn_source_power             2.475
_diffrn_source_target            Mo
_diffrn_source_type              'Rotating Anode'
_diffrn_source_voltage           45.0
_exptl_absorpt_coefficient_mu    2.781
_exptl_absorpt_correction_T_max  1.000
_exptl_absorpt_correction_T_min  0.769
_exptl_absorpt_correction_type   multi-scan
_exptl_absorpt_process_details
;
CrystalClear-SM Expert 3.1 b27 (Rigaku, 2013)
;
_exptl_crystal_colour            Colorless
_exptl_crystal_density_diffrn    2.173
_exptl_crystal_description       Prism
_exptl_crystal_F_000             920
_exptl_crystal_size_max          0.04
_exptl_crystal_size_mid          0.02
_exptl_crystal_size_min          0.01
_refine_diff_density_max         0.732
_refine_diff_density_min         -1.031
_refine_diff_density_rms         0.105
_refine_ls_extinction_coef       .
_refine_ls_extinction_method     none
_refine_ls_goodness_of_fit_ref   1.037
_refine_ls_hydrogen_treatment    mixed
_refine_ls_matrix_type           full
_refine_ls_number_parameters     239
_refine_ls_number_reflns         3366
_refine_ls_number_restraints     0
_refine_ls_restrained_S_all      1.037
_refine_ls_R_factor_all          0.0477
_refine_ls_R_factor_gt           0.0360
_refine_ls_shift/su_max          0.001
_refine_ls_shift/su_mean         0.000
_refine_ls_structure_factor_coef Fsqd
_refine_ls_weighting_details
'w=1/[\s^2^(Fo^2^)+(0.0412P)^2^+2.0964P] where P=(Fo^2^+2Fc^2^)/3'
_refine_ls_weighting_scheme      calc
_refine_ls_wR_factor_gt          0.0814
_refine_ls_wR_factor_ref         0.0867
_reflns_Friedel_coverage         0.000
_reflns_friedel_fraction_full    .
_reflns_friedel_fraction_max     .
_reflns_number_gt                2830
_reflns_number_total             3366
_reflns_threshold_expression     'I > 2\s(I)'
_cod_data_source_file            c5cc04174k2.cif
_cod_data_source_block           ba_altfbdc_2
_cod_database_code               7117538
_shelxl_version_number           2013-3
_shelx_space_group_comment
;
The symmetry employed for this shelxl refinement is uniquely defined
by the following loop, which should always be used as a source of
symmetry information in preference to the above space-group names.
They are only intended as comments.
;
_olex2_refinement_description
;
1. Fixed Uiso
 At 1.2 times of:
  All C(H) groups
 At 1.5 times of:
  All O(H,H) groups
2. Others
 Fixed Sof: Ba1A(0.5) Ba1B(0.5) O1WA(0.5) O1WB(0.5) H1WC(0.5) H1WD(0.5)
 O2WA(0.5) H2WA(0.5) H2WB(0.5)
3.a Rotating group:
 O1WB(H1WC,H1WD), O2WA(H2WA,H2WB)
3.b Aromatic/amide H refined with riding coordinates:
 C105(H105), C103(H103), C104(H104), C101(H101), C102(H102)
;
_shelx_res_file
;
TITL Ba_altfBDC in P21/n #14
REM reset to P21/n #14
CELL 0.71075 7.0904 32.27 7.2698 90 117.997 90
ZERR 2 0.0005 0.002 0.0005 0 0.002 0
LATT 1
SYMM 0.5-X,0.5+Y,0.5-Z
SFAC C H Ba F N O
UNIT 52 36 4 16 4 22
EQIV $1 1-X,1-Y,1-Z
EQIV $2 1+X,+Y,+Z
EQIV $3 3-X,1-Y,2-Z

L.S. 4 0 0
PLAN  20
TEMP -173(2)
HTAB O1WA O3_$1
HTAB O1WB O4_$1
HTAB O2WA O4_$2
HTAB O2WA O1WA_$3
BOND
MORE -1
CONF
fmap 2 53
acta
BOND $H
REM <olex2.extras>
REM <HklSrc "%.\\Ba_altfBDC.hkl">
REM </olex2.extras>

WGHT    0.041200    2.096400
FVAR       0.53727
PART 1
BA1A  3    1.124615    0.514544    0.840345    10.50000    0.00974    0.01664 =
         0.01380   -0.00048    0.00297    0.00010
PART 0
PART 2
BA1B  3    1.268406    0.545666    0.737667    10.50000    0.00874    0.01658 =
         0.01381   -0.00037    0.00254    0.00070
PART 0
O1    6    0.824255    0.535831    0.472351    11.00000    0.01507    0.02029 =
         0.01976    0.00029    0.00445    0.00211
F4    4    0.162808    0.665118    0.265803    11.00000    0.03242    0.03544 =
         0.04087    0.00774    0.01896    0.02007
F1    4    0.977262    0.616565    0.496013    11.00000    0.01418    0.02643 =
         0.04465   -0.00026   -0.00007   -0.00295
F3    4    0.482938    0.721070    0.411497    11.00000    0.05724    0.02064 =
         0.04120   -0.00663    0.00034    0.01376
F2    4    0.889563    0.696636    0.526042    11.00000    0.03678    0.01926 =
         0.07307   -0.00322   -0.01625   -0.00853
C2    1    0.612066    0.597462    0.362411    11.00000    0.01573    0.01967 =
         0.01414    0.00064    0.00459    0.00305
O3    6    0.098412    0.585194    0.002949    11.00000    0.01229    0.02516 =
         0.04835    0.00885    0.00560    0.00328
C8    1    0.211462    0.580906    0.198294    11.00000    0.01932    0.02039 =
         0.04620    0.00864    0.02180    0.00833
C7    1    0.400948    0.610615    0.299573    11.00000    0.01884    0.01869 =
         0.01732    0.00240    0.00876    0.00403
N101  5    1.483211    0.635777    0.863689    11.00000    0.06391    0.03148 =
         0.02873    0.00777    0.02656    0.01484
O4    6    0.182779    0.555684    0.311431    11.00000    0.03913    0.03058 =
         0.05903    0.01020    0.03784    0.00396
C5    1    0.523800    0.680696    0.397529    11.00000    0.03991    0.01540 =
         0.02484   -0.00312    0.00229    0.00927
C105  1    1.341890    0.663280    0.862834    11.00000    0.03318    0.02807 =
         0.02191    0.00106    0.00735    0.00333
AFIX  43
H105  2    1.207819    0.653348    0.843902    11.00000   -1.20000
AFIX   0
C4    1    0.730208    0.668409    0.455681    11.00000    0.02759    0.01947 =
         0.03264   -0.00513   -0.00404   -0.00335
C6    1    0.362725    0.651697    0.322177    11.00000    0.02564    0.02673 =
         0.02114    0.00172    0.00939    0.00931
C103  1    1.576826    0.720238    0.917408    11.00000    0.03441    0.03087 =
         0.03046    0.00306    0.01064    0.00010
AFIX  43
H103  2    1.607710    0.749058    0.933529    11.00000   -1.20000
AFIX   0
C104  1    1.380614    0.705490    0.888092    11.00000    0.03158    0.02598 =
         0.03099   -0.00239    0.01033    0.00293
AFIX  43
H104  2    1.275123    0.723987    0.885424    11.00000   -1.20000
AFIX   0
C3    1    0.772885    0.626988    0.440946    11.00000    0.01506    0.02365 =
         0.02407    0.00141    0.00016    0.00079
C101  1    1.672707    0.650434    0.894101    11.00000    0.07064    0.04781 =
         0.06242    0.03389    0.04932    0.03768
AFIX  43
H101  2    1.775501    0.631294    0.896200    11.00000   -1.20000
AFIX   0
O2    6    0.536139    0.536568    0.165778    11.00000    0.03283    0.03595 =
         0.05601   -0.02976   -0.02734    0.02089
C102  1    1.726060    0.692118    0.922623    11.00000    0.03681    0.05432 =
         0.04938    0.02710    0.02433    0.01852
AFIX  43
H102  2    1.862815    0.701173    0.945346    11.00000   -1.20000
AFIX   0
C1    1    0.660360    0.553250    0.331469    11.00000    0.01002    0.02161 =
         0.02368   -0.00220    0.00692   -0.00034
PART 1
O1WA  6    1.281756    0.458868    1.185224    10.50000    0.02190
PART 0
PART 2
O1WB  6    1.168046    0.485723    0.975027    10.50000    0.02278
AFIX   7
H1WC  2    1.288166    0.475693    1.080546    10.50000   -1.50000
H1WD  2    1.093964    0.464504    0.893407    10.50000   -1.50000
AFIX   0
PART 0
PART 1
O2WA  6    1.409337    0.555709    0.734340    10.50000    0.02209
AFIX   7
H2WA  2    1.337546    0.569121    0.617698    10.50000   -1.50000
H2WB  2    1.492417    0.537589    0.719306    10.50000   -1.50000
AFIX   0
H1WA  2    1.119307    0.440977    1.123784    11.00000    0.25434
H1WB  2    1.272919    0.471408    1.274643    11.00000    0.14667
HKLF 4

REM  Ba_altfBDC in P21/n #14
REM R1 =  0.0360 for    2830 Fo > 4sig(Fo)  and  0.0477 for all    3366 data
REM    239 parameters refined using      0 restraints

END

WGHT      0.0412      2.0964

REM Highest difference peak  0.732,  deepest hole -1.031,  1-sigma level  0.105
Q1    1   1.4048  0.5834  0.7823  11.00000  0.05    0.51
Q2    1   1.2822  0.5791  0.7350  11.00000  0.05    0.48
Q3    1   1.2170  0.5173  0.7988  11.00000  0.05    0.43
Q4    1   1.1460  0.4767  0.8380  11.00000  0.05    0.43
Q5    1   1.1792  0.5382  0.7800  11.00000  0.05    0.41
Q6    1   1.3346  0.5196  0.6834  11.00000  0.05    0.39
Q7    1   1.0224  0.5010  0.8933  11.00000  0.05    0.36
Q8    1   0.6220  0.5773  0.3691  11.00000  0.05    0.34
Q9    1   1.3141  0.5200  0.8108  11.00000  0.05    0.34
Q10   1   1.2016  0.5597  0.8549  11.00000  0.05    0.33
Q11   1   0.9494  0.4596  1.0728  11.00000  0.05    0.32
Q12   1   1.1591  0.5118  0.6769  11.00000  0.05    0.32
Q13   1   0.7149  0.5145  0.2592  11.00000  0.05    0.31
Q14   1   0.4393  0.5821  0.2541  11.00000  0.05    0.31
Q15   1   1.4775  0.6163  0.7854  11.00000  0.05    0.31
Q16   1   1.1554  0.5972  0.7029  11.00000  0.05    0.30
Q17   1   0.2041  0.6006  0.0882  11.00000  0.05    0.30
Q18   1   0.8959  0.6819  0.6029  11.00000  0.05    0.29
Q19   1   0.9358  0.5207  0.8261  11.00000  0.05    0.29
Q20   1   1.1638  0.5553  0.5576  11.00000  0.05    0.28
;
_shelx_res_checksum              48213
_shelx_hkl_file
;
   0   4   0 903.170 49.8100   1
   0   4   0 860.660 35.3200   1
   0   5   0 -3.1700 11.6000   1
   0  -5   0 3.19000 14.4900   1
   0   5   0 2.62000 15.8400   1
   0   5   0 6.98000 26.3100   1
   0   0   1 -5.2400 21.3600   1
   0   0  -1 6.92000 18.8100   1
   0   0   1 2.31000 16.8500   1
   0   0  -1 0.64000 14.4900   1
   0   0   1 -1.2300 12.0100   1
   0   1   1 97.5600 26.7500   1
   0  -1  -1 72.9100 21.1900   1
   0   1   1 101.800 19.8600   1
   0  -1  -1 85.7000 22.4800   1
   0  -1   1 83.1600 12.6000   1
   0   1   1 91.7300 15.2700   1
   0   1   1 79.8800 21.8100   1
   0  -1   1 73.8400 24.6500   1
   0   1  -1 80.1600 22.8600   1
  -1   0   0 0.97000 14.4800   1
   1   0   0 -5.6500 18.1500   1
  -1   0   0 -6.4300 20.7400   1
  -1   0   1 3410.93 79.2200   1
   1   0  -1 3775.02 109.710   1
  -1   0   1 3687.51 121.360   1
  -1   0   1 3796.41 113.210   1
  -1  -1   0 159.410 24.3000   1
  -1   1   0 152.260 23.6500   1
  -1  -1   0 159.040 17.8500   1
   1   1   0 147.770 18.6000   1
  -1   1   0 133.610 19.1700   1
  -1  -1   0 154.620 16.0500   1
   1  -1   0 151.350 22.3600   1
   1   1   0 156.590 19.9700   1
  -1   1   1 405.180 21.0100   1
  -1   1   1 439.630 51.3200   1
   1  -1  -1 424.730 42.5900   1
  -1  -1   1 477.950 44.3800   1
   1   1  -1 404.130 32.9900   1
  -1  -1   1 421.890 20.8800   1
  -1  -1   1 414.180 33.3300   1
   0  -2  -1 15.5600 13.1700   1
   0   2   1 29.4300 18.6400   1
   0  -2  -1 12.3300 17.2100   1
   0  -2   1 16.1400 12.7400   1
   0  -2   1 28.2900 26.0700   1
   0   2   1 19.7900 21.7500   1
   0   2   1 20.4300 14.5400   1
   0   2   1 23.7500 17.7300   1
   0   2  -1 24.0400 24.0000   1
   1   2   0 1090.19 39.3200   1
   1   2   0 1027.16 36.8500   1
  -1  -2   0 1059.08 35.8700   1
  -1  -2   0 1056.53 38.4100   1
  -1  -2   0 1134.56 41.3100   1
   1   2   0 1127.22 39.8600   1
  -1  -2   0 1006.44 43.5300   1
   1   2   0 975.230 45.2500   1
   1  -2   0 1016.17 41.9300   1
   1  -2   0 1035.03 44.9400   1
  -1   2   0 1025.89 46.5200   1
  -1   2   0 1044.92 40.0100   1
   1  -2   0 1027.45 42.2100   1
   1  -2  -1 2563.65 93.0800   1
   1   2  -1 2741.61 77.6300   1
   1   2  -1 2881.11 76.2800   1
  -1  -2   1 2488.33 60.7900   1
  -1   2   1 2673.53 68.7200   1
   1   2  -1 2740.66 69.2700   1
   1   2  -1 2623.22 81.6500   1
  -1  -2   1 2800.06 90.5300   1
   0  -3  -1 2087.53 70.5200   1
   0  -3  -1 2231.15 63.6900   1
   0  -3   1 2034.58 68.2400   1
   0  -3  -1 2018.59 58.6300   1
   0   3  -1 2163.75 74.6600   1
   0   3   1 2170.56 56.6100   1
   0  -3  -1 2182.59 60.7400   1
   0   3   1 2083.01 58.2000   1
   0  -3   1 2049.61 58.5700   1
   0   3   1 1968.20 61.1500   1
   0   3   1 2146.24 66.6100   1
   0  -3   1 2235.13 80.8000   1
   0   3  -1 2129.66 76.2500   1
   1  -3   0 3954.76 102.840   1
  -1   3   0 3607.91 93.2300   1
   1   3   0 3802.65 87.4300   1
  -1  -3   0 3721.40 97.1300   1
   1   3   0 3648.27 92.7400   1
   1   3   0 3844.00 88.3500   1
  -1   3   0 3904.68 94.0100   1
   1  -3   0 3735.30 92.2700   1
   1   3   0 3602.39 94.4400   1
  -1  -3   0 3749.33 86.8000   1
   1   3   0 3774.51 84.5000   1
  -1  -3   0 3703.75 85.2200   1
   0   6   0 3669.07 101.740   1
   0  -6   0 3764.17 100.420   1
   0  -6   0 3600.07 134.510   1
   0   6   0 3493.85 85.9000   1
   0  -6   0 3681.31 91.0200   1
   0   6   0 3628.76 84.3900   1
   0  -6   0 3547.95 92.4000   1
   1  -3  -1 821.370 28.0600   1
  -1  -3   1 883.730 43.0900   1
   1   3  -1 863.380 35.2700   1
   1   3  -1 852.990 41.6800   1
   1   3  -1 746.850 27.5900   1
  -1  -3   1 844.290 36.8900   1
   1  -3  -1 886.300 34.0200   1
  -1   3   1 885.140 32.0500   1
  -1  -3   1 798.890 34.3300   1
   1  -3  -1 867.410 63.1400   1
   0   4   1 870.950 35.2100   1
   0   4   1 931.530 36.0100   1
   0  -4  -1 993.960 49.2800   1
   0  -4  -1 932.000 36.3400   1
   0  -4  -1 921.020 37.2600   1
   0   4   1 949.870 44.2400   1
   0   4   1 962.600 40.5800   1
   0  -4   1 776.470 32.4300   1
   0  -4   1 774.400 44.2100   1
   0   4  -1 850.040 44.2500   1
   0  -4   1 944.220 45.6000   1
   0   4  -1 896.450 39.0400   1
   1   4   0 5193.48 122.330   1
  -1  -4   0 4916.79 106.210   1
  -1  -4   0 4703.72 95.6900   1
   1   4   0 5041.60 123.170   1
  -1  -4   0 5001.42 114.360   1
  -1  -4   0 4523.97 104.160   1
   1   4   0 4969.66 106.700   1
   1  -4   0 4811.75 114.380   1
  -1   4   0 4964.76 121.540   1
   1  -4   0 5266.17 122.660   1
  -1   4   0 5093.72 117.040   1
   1  -4  -1 1582.25 49.5500   1
  -1   4   1 1760.75 53.6800   1
   1  -4  -1 1442.30 48.8400   1
  -1   4   1 1424.70 45.0400   1
   1   4  -1 1577.90 48.2700   1
  -1  -4   1 1466.54 46.2900   1
  -1  -4   1 1487.92 49.0600   1
   1   4  -1 1462.92 47.4900   1
   1   4  -1 1593.50 57.5100   1
  -1  -4   1 1486.48 56.2100   1
   0   7   0 9.80000 13.8200   1
   0   7   0 5.95000 24.9500   1
   0  -7   0 -2.0400 23.8100   1
   0  -7   0 -1.2000 18.0200   1
   0  -7   0 -10.630 16.7200   1
   0   7   0 -6.8400 18.6900   1
   0  -7   0 -2.0800 39.3900   1
   0   5   1 921.250 37.5100   1
   0   5   1 788.760 35.3700   1
   0   5   1 918.970 36.8400   1
   0  -5  -1 906.050 34.5300   1
   0  -5  -1 887.320 38.2500   1
   0   5  -1 725.460 39.5000   1
   0   5  -1 910.990 41.1600   1
   0  -5   1 860.840 34.7000   1
   0  -5   1 806.770 40.4300   1
   0  -5   1 749.740 30.5400   1
   1   5   0 15.4500 12.6500   1
   1   5   0 12.7900 9.79000   1
   1   5   0 10.3500 19.5000   1
  -1  -5   0 15.3200 14.7600   1
  -1  -5   0 17.2100 12.2100   1
  -1  -5   0 6.42000 10.9300   1
   1   5   0 1.33000 24.8800   1
   1  -5   0 27.1600 19.7000   1
  -1   5   0 25.8100 23.1000   1
   1  -5   0 -7.3100 23.9200   1
  -1   5   0 22.6800 21.1800   1
  -1   5   1 402.480 24.3100   1
   1  -5  -1 389.310 24.0600   1
  -1   5   1 382.670 19.9300   1
   1   5  -1 419.710 25.2600   1
  -1  -5   1 453.600 27.1800   1
   1   5  -1 448.950 28.8000   1
   1   5  -1 391.130 21.9200   1
  -1  -5   1 385.320 22.4000   1
  -1  -5   1 423.330 26.0400   1
   0   6   1 4783.16 109.860   1
   0  -6  -1 4532.28 99.0600   1
   0  -6  -1 4484.73 103.030   1
   0   6   1 4340.95 100.300   1
   0   6   1 4620.70 99.4300   1
   0   6  -1 4502.50 112.350   1
   0  -6   1 4690.37 123.870   1
   0   6  -1 4148.27 100.740   1
   0   6  -1 4489.75 145.650   1
   0  -6   1 4277.68 123.900   1
   0  -6   1 4607.19 103.000   1
   1   6   0 1791.85 48.8400   1
   1   6   0 1877.02 50.0700   1
  -1  -6   0 1897.24 51.4600   1
   1   6   0 2017.92 64.6000   1
   1   6   0 1927.68 54.5000   1
  -1  -6   0 1908.60 57.1700   1
  -1  -6   0 1913.21 51.6300   1
   1  -6   0 1960.97 65.4300   1
  -1   6   0 2103.98 66.9800   1
   1  -6   0 1894.77 62.9500   1
  -1   6   0 1900.13 68.5600   1
  -1   6   1 300.110 17.2400   1
   1  -6  -1 296.760 24.8700   1
  -1   6   1 307.660 20.9800   1
  -1  -6   1 294.030 20.1200   1
   1   6  -1 295.330 19.3900   1
   1   6  -1 333.210 19.8900   1
  -1  -6   1 281.100 23.6700   1
   1   6  -1 310.540 20.5800   1
  -1  -6   1 287.970 17.3400   1
   0   8   0 1912.00 67.1100   1
   0  -8   0 1909.89 65.0800   1
   0   8   0 1610.42 47.1300   1
   0  -8   0 1918.41 76.2500   1
   0  -8   0 1824.69 51.2200   1
   0   8   0 1832.51 52.6100   1
   0  -8   0 1950.03 59.3000   1
   0  -7  -1 729.000 32.4100   1
   0   7   1 646.430 28.9800   1
   0  -7  -1 644.190 29.7400   1
   0  -7   1 594.340 41.1200   1
   0  -7   1 567.290 47.0800   1
   0   7  -1 609.450 27.0500   1
   0   7   1 725.220 31.5200   1
   0  -7  -1 684.990 28.7200   1
   0  -7   1 519.400 35.6600   1
   0  -7   1 710.980 31.9200   1
   0   7  -1 578.290 38.8800   1
   0   7  -1 666.530 41.1300   1
   0  -7   1 620.700 29.6100   1
  -1  -7   0 1580.47 43.4600   1
   1   7   0 1589.36 44.3000   1
   1   7   0 1587.71 53.9900   1
  -1  -7   0 1589.90 49.8100   1
   1   7   0 1535.38 42.7600   1
  -1  -7   0 1519.19 44.2500   1
  -1   7   0 1550.77 51.6100   1
   1  -7   0 1611.17 56.6000   1
  -1   7   0 1641.29 69.6100   1
   1  -7   0 1567.16 56.2700   1
  -1   0  -1 2823.25 78.4000   1
  -1   0  -1 2974.51 84.8600   1
   1   0   1 2865.92 76.2100   1
   1   0   1 2729.68 66.7100   1
  -1   0  -1 2797.48 66.3100   1
   1   7  -1 167.360 14.7200   1
   1   7  -1 153.830 15.5800   1
   1   7  -1 164.360 27.4700   1
  -1  -7   1 131.800 16.1400   1
  -1  -7   1 140.030 17.1800   1
   1   7  -1 139.680 16.7500   1
  -1  -7   1 137.250 18.0200   1
  -1   7   1 154.710 14.2300   1
   1  -7  -1 169.170 26.0300   1
  -1   7   1 161.530 20.9000   1
  -1  -1  -1 467.140 26.3500   1
  -1  -1  -1 501.550 24.0000   1
  -1   1  -1 501.850 24.9800   1
  -1  -1  -1 486.120 27.9500   1
   1   1   1 500.500 32.1200   1
  -1   1  -1 494.620 31.6600   1
   1   1   1 493.220 20.8300   1
   1  -1   1 530.790 29.9000   1
   1   1   1 490.730 31.4100   1
  -1   1  -1 525.560 30.7800   1
   1  -1   1 543.670 26.0500   1
  -1   0   2 3.11000 13.6100   1
   1   0  -2 13.1000 13.5900   1
   1   0  -2 7.31000 20.3600   1
  -1   0   2 11.6300 22.3900   1
  -1  -1   2 551.680 26.8300   1
  -1   1   2 591.520 24.2400   1
   1   1  -2 660.340 29.1700   1
  -1   1   2 619.420 34.4000   1
   1  -1  -2 637.100 36.1900   1
   1   1  -2 594.710 35.0400   1
   1   1  -2 610.100 27.5800   1
   1  -1  -2 639.290 26.0500   1
   1   1  -2 732.990 42.4600   1
  -1  -1   2 678.330 34.9000   1
   1   2   1 10607.0 201.950   1
  -1  -2  -1 11400.5 220.070   1
  -1   2  -1 10391.8 206.320   1
   1   2   1 10732.5 210.230   1
   1   2   1 10330.0 192.940   1
  -1  -2  -1 10823.2 200.870   1
   1  -2   1 10086.6 192.600   1
  -1  -2  -1 10672.9 224.140   1
  -1   2  -1 10259.7 203.160   1
  -1   2  -1 11271.0 217.600   1
   1  -2   1 10909.7 223.820   1
   0  -9   0 2.18000 17.5400   1
   0   9   0 -11.460 18.2000   1
   0  -9   0 8.30000 18.4600   1
   0   9   0 -0.9500 11.2300   1
   0  -9   0 8.40000 10.3700   1
   0  -9   0 10.8500 32.6400   1
   0   9   0 -8.8100 25.1600   1
   2   0  -1 -11.290 14.8600   1
  -2   0   1 -5.6100 9.43000   1
   2   0  -1 -15.640 16.6700   1
  -2   0   1 16.7800 20.4900   1
   2   0  -1 12.6000 15.9000   1
  -2   0   1 -2.4500 19.2600   1
   2   0  -1 -6.3500 20.5900   1
  -1   2   2 16156.2 379.130   1
   1  -2  -2 15469.9 299.750   1
   1  -2  -2 15703.9 287.800   1
   1   2  -2 14927.0 267.480   1
  -1   2   2 15253.2 276.070   1
  -1  -2   2 16727.3 404.620   1
   1   2  -2 16774.2 398.870   1
  -1  -2   2 15211.2 269.250   1
  -2  -1   1 59.8500 14.2900   1
  -2   1   1 37.1400 13.7500   1
   2   1  -1 54.9400 15.3900   1
   2  -1  -1 37.2300 17.0900   1
   2   1  -1 60.9200 20.8500   1
   2  -1  -1 63.5600 17.6200   1
   2   1  -1 49.1400 12.5500   1
  -2  -1   1 37.2600 15.4000   1
   2   1  -1 31.2400 15.0600   1
  -2   1   1 49.6900 21.1800   1
  -2  -1   1 58.8500 27.0300   1
  -2   1   1 28.8500 22.5400   1
   2  -1  -1 47.8600 17.0100   1
   1   3   1 268.870 20.1200   1
  -1  -3  -1 267.410 19.8600   1
  -1  -3  -1 249.100 20.3500   1
   1  -3   1 308.350 19.5700   1
  -1  -3  -1 276.380 23.4100   1
  -1   3  -1 327.660 25.0400   1
   1   3   1 279.940 23.8100   1
   1  -3   1 255.800 33.4800   1
   1   3   1 283.640 16.1000   1
  -1   3  -1 305.530 23.7200   1
  -2   2   1 246.280 26.4100   1
  -2   2   1 209.160 17.0500   1
   2  -2  -1 207.040 15.7400   1
   2   2  -1 216.980 22.1700   1
   2   2  -1 220.530 24.5500   1
   2   2  -1 187.270 16.7900   1
  -2  -2   1 209.120 26.4400   1
   2  -2  -1 158.910 27.3300   1
  -2   2   1 198.970 36.1300   1
  -2  -2   1 194.670 23.9600   1
   2   2  -1 207.600 25.6600   1
  -2   2   1 231.490 19.2800   1
  -2  -2   1 212.180 17.3900   1
   2  -2  -1 202.060 16.5700   1
  -1   3   2 707.050 29.3800   1
  -1  -3   2 672.980 28.8800   1
  -1  -3   2 760.480 35.6400   1
   1   3  -2 708.870 30.8800   1
   1  -3  -2 749.710 41.3700   1
  -1  -3   2 810.170 43.0300   1
   1   3  -2 799.420 39.3600   1
   1   3  -2 756.360 28.8500   1
   1  -3  -2 753.670 31.5400   1
  -1   3   2 759.620 35.6000   1
   0   8   1 3461.90 88.7300   1
   0  -8  -1 3717.85 91.3800   1
   0   8   1 3525.24 87.8600   1
   0  -8  -1 3455.24 80.2400   1
   0  -8  -1 3135.22 74.1900   1
   0   8  -1 3438.82 98.6900   1
   0   8  -1 3541.62 114.210   1
   0  -8   1 3297.67 90.1200   1
   0  -8   1 3305.69 82.4300   1
   0   8  -1 3167.25 84.6000   1
   0  -8   1 3228.99 114.300   1
   0  -8   1 3261.48 91.9000   1
  -1  -8   0 1419.92 43.3000   1
  -1  -8   0 1500.56 47.1900   1
   1   8   0 1412.86 47.1300   1
   1   8   0 1581.43 44.1100   1
  -1  -8   0 1655.70 47.2600   1
   1   8   0 1557.31 44.2600   1
   1  -8   0 1566.15 57.1100   1
  -1   8   0 1505.87 50.7200   1
   1  -8   0 1395.57 56.6600   1
  -1   8   0 1514.89 71.8200   1
   1   8  -1 2.59000 17.0000   1
  -1  -8   1 0.96000 18.7200   1
  -1  -8   1 1.88000 10.0000   1
   1   8  -1 -3.9700 14.1700   1
   1   8  -1 8.41000 10.1700   1
  -1  -8   1 10.6000 13.8900   1
   1  -8  -1 1.27000 18.5500   1
  -1   8   1 7.42000 15.3500   1
   1  -8  -1 16.3900 20.0800   1
   1   8  -1 9.37000 25.4000   1
   2   3  -1 77.5800 17.6400   1
  -2   3   1 50.5300 15.7500   1
  -2  -3   1 59.2500 22.6200   1
   2   3  -1 45.1600 23.0000   1
  -2   3   1 52.9900 14.1800   1
   2   3  -1 57.3000 15.0200   1
  -2  -3   1 49.2500 10.8300   1
   2  -3  -1 60.3100 14.1600   1
  -2  -3   1 40.8000 20.0800   1
  -2   3   1 34.5200 22.9800   1
   2  -3  -1 48.6100 19.4800   1
  -1  -4  -1 7264.66 144.320   1
   1   4   1 6932.29 132.990   1
   1   4   1 7370.65 154.080   1
  -1  -4  -1 7271.68 147.550   1
  -1   4  -1 7255.65 161.840   1
   1   4   1 7106.56 144.700   1
   1  -4   1 6825.38 138.720   1
  -1  -4  -1 6816.98 146.950   1
   1  -4  -2 788.980 43.6000   1
   1  -4  -2 790.750 32.8500   1
   1  -4  -2 745.580 27.3300   1
  -1   4   2 698.260 29.6900   1
  -1  -4   2 803.760 32.5400   1
  -1  -4   2 779.350 30.8200   1
   1   4  -2 825.500 32.6900   1
   1   4  -2 756.770 37.8000   1
  -1  -4   2 744.980 40.9100   1
   1   4  -2 758.080 27.2900   1
  -2  -4   1 373.830 27.4500   1
  -2   4   1 418.910 20.7600   1
   2  -4  -1 327.520 32.5100   1
  -2   4   1 330.880 43.2900   1
  -2  -4   1 402.180 27.5500   1
   2   4  -1 381.080 29.5400   1
  -2   4   1 394.370 23.5200   1
   2   4  -1 390.510 27.6200   1
   2  -4  -1 392.260 22.2500   1
  -2  -4   1 383.930 19.2400   1
   2   4  -1 368.950 21.3000   1
   0 -10   0 1010.92 35.3000   1
   0  10   0 1090.79 37.2300   1
   0 -10   0 1122.61 40.7000   1
   0  10   0 1109.56 42.7500   1
   0 -10   0 1075.51 60.5900   1
   0 -10   0 1167.83 54.8300   1
   0  10   0 1248.67 53.7800   1
   0   0  -2 1838.87 58.0500   1
   0   0  -2 2005.33 64.7200   1
   0   0   2 1988.20 62.0800   1
   0   0  -2 1875.17 52.1500   1
   0   0   2 1840.10 55.4200   1
   0   0   2 2051.28 82.0700   1
   0   0   2 2138.76 70.7100   1
  -1  -5  -1 331.860 28.9700   1
   1   5   1 318.570 29.1700   1
  -1  -5  -1 369.490 21.2600   1
   1   5   1 343.750 20.3500   1
  -1   5  -1 305.830 29.9500   1
   1  -5   1 295.060 28.2100   1
   1   5   1 299.040 19.4800   1
  -1  -5  -1 321.380 20.6600   1
   1  -5   1 321.840 20.2600   1
  -1   5  -1 330.190 27.9000   1
  -1   5  -1 341.020 30.3100   1
   1   5   1 326.910 24.0200   1
   0   1   2 9977.80 193.410   1
   0  -1  -2 9741.29 197.800   1
   0   1  -2 9807.55 208.690   1
   0   1   2 9276.14 191.150   1
   0   1  -2 9323.62 178.800   1
   0  -1   2 9469.84 217.710   1
   0  -1   2 10107.4 208.550   1
   0   1   2 9846.50 193.340   1
   0   1   2 9886.44 222.760   1
   0  -1  -2 9381.63 175.900   1
   0  -1   2 9865.66 185.700   1
   0  -1  -2 8932.70 185.280   1
   0   1  -2 10142.4 211.000   1
   1  -5  -2 5881.12 124.300   1
   1  -5  -2 5740.96 122.700   1
  -1   5   2 5466.65 121.190   1
   1  -5  -2 6113.85 165.530   1
  -1  -5   2 5380.33 118.840   1
   1   5  -2 5777.22 127.930   1
   1   5  -2 5640.28 148.090   1
  -1  -5   2 5887.13 146.330   1
   1   5  -2 5690.07 138.280   1
   1   5  -2 5653.87 115.660   1
  -1  -5   2 5719.44 127.550   1
   0  -2  -2 8240.70 165.990   1
   0  -2   2 8628.91 178.770   1
   0   2   2 8338.15 178.720   1
   0   2  -2 8346.45 172.770   1
   0   2   2 8202.26 168.610   1
   0   2  -2 8677.75 177.600   1
   0   2   2 8949.42 179.810   1
   0  -2  -2 8893.61 187.420   1
   0   2   2 8749.71 173.870   1
   0  -2   2 9144.76 180.580   1
   0  -2  -2 8235.17 158.720   1
   0   2  -2 8678.70 170.490   1
   0   2   2 9011.18 214.170   1
   0  -2   2 8459.65 199.980   1
  -2   0   0 3049.11 84.2600   1
   2   0   0 3000.22 77.2900   1
  -2   0   0 3049.49 83.4400   1
   2   0   0 2717.07 70.5600   1
   2   0   0 2932.77 81.8100   1
  -2   0   0 2872.78 76.4100   1
   0  -9  -1 337.540 22.1200   1
   0  -9  -1 277.880 17.5800   1
   0   9   1 260.010 21.2600   1
   0  -9  -1 299.040 23.6600   1
   0   9  -1 283.300 34.1500   1
   0  -9   1 304.800 51.4300   1
   0   9  -1 239.440 21.4200   1
   0  -9   1 269.850 23.4600   1
   0  -9   1 292.890 25.1300   1
   0  -9   1 266.990 27.9400   1
  -2  -1   0 25.3400 16.6200   1
  -2   1   0 30.1200 16.6100   1
   2   1   0 10.3900 19.8700   1
   2  -1   0 61.5900 20.6100   1
  -2  -1   0 21.8600 14.8600   1
   2   1   0 19.6600 18.4400   1
   2  -1   0 72.2100 21.8700   1
  -2  -1   0 0.99000 22.3600   1
  -2   1   0 38.8200 19.2700   1
  -2   1   0 32.5800 23.7500   1
  -2  -1   0 21.7400 23.3200   1
  -2   1   0 31.7900 16.2100   1
   2   1   0 12.8000 17.1800   1
  -1  -9   0 616.550 26.8300   1
   1   9   0 643.450 26.1600   1
   1   9   0 725.550 27.9200   1
  -1  -9   0 692.480 28.6400   1
  -1  -9   0 650.860 25.3100   1
   1   9   0 676.880 30.9500   1
   1  -9   0 725.080 42.9000   1
   1  -9   0 713.190 43.6000   1
  -1   9   0 690.760 48.2800   1
  -1   9   0 710.380 37.1100   1
   2   5  -1 1616.90 43.9300   1
  -2  -5   1 1704.34 50.9400   1
   2   5  -1 1706.88 57.1600   1
   2  -5  -1 1722.35 50.4200   1
  -2   5   1 1658.96 49.6300   1
   2   5  -1 1756.75 57.0800   1
  -2  -5   1 1612.39 58.6600   1
  -2  -5   1 1735.84 59.3900   1
   2  -5  -1 1570.58 64.3500   1
  -2   5   1 1794.63 72.7800   1
  -2   5   1 1644.87 53.5700   1
  -1   9   1 134.610 20.1400   1
   1  -9  -1 127.230 22.8500   1
   1  -9  -1 134.350 21.0400   1
  -1  -9   1 124.760 15.0400   1
   1   9  -1 131.790 19.1400   1
  -1  -9   1 133.860 22.0300   1
  -1  -9   1 112.260 15.8900   1
   1   9  -1 132.430 13.1800   1
   1   9  -1 137.330 27.4500   1
   1   9  -1 140.690 13.2200   1
  -2   0   2 95.0900 17.7600   1
   2   0  -2 95.3300 15.6300   1
   2   0  -2 76.7500 32.8000   1
  -2   0   2 73.1200 47.7000   1
  -2   0   2 90.3800 11.1100   1
   0   3   2 149.150 24.9600   1
   0   3  -2 172.420 28.1100   1
   0  -3   2 136.250 31.9000   1
   0  -3   2 180.590 50.8100   1
   0   3   2 163.340 23.2300   1
   0   3   2 183.310 41.9300   1
   0   3   2 165.020 15.9500   1
   0   3   2 163.790 15.0400   1
   0  -3   2 175.930 15.8900   1
   0  -3  -2 177.530 17.8600   1
   0   3  -2 176.110 14.9200   1
   0  -3  -2 182.060 19.6900   1
   0  -3  -2 167.220 21.7500   1
   2  -2   0 4040.79 97.1600   1
  -2  -2   0 3674.56 87.7000   1
   2  -2   0 3379.34 84.8600   1
  -2  -2   0 3753.06 91.5600   1
  -2   2   0 3722.68 91.3300   1
  -2  -2   0 3644.33 93.7000   1
   2   2   0 3976.91 100.580   1
  -2   2   0 4007.65 106.540   1
  -2  -2   0 3965.87 88.5800   1
   2   2   0 3887.70 90.9400   1
  -2   2   0 3810.21 90.9100   1
  -2  -1   2 78.4400 43.3800   1
   2   1  -2 49.1400 15.8300   1
  -2  -1   2 41.5100 13.2100   1
  -2   1   2 60.9000 16.6500   1
   2  -1  -2 68.4500 34.1700   1
   2   1  -2 68.3200 21.6100   1
   2  -1  -2 41.1000 13.9400   1
   2   1  -2 45.1600 10.8200   1
  -2   1   2 53.8700 12.4600   1
  -2  -1   2 48.0400 10.3100   1
   1   6   1 115.710 18.2200   1
  -1   6  -1 118.410 20.2000   1
   1  -6   1 93.8300 32.0800   1
   1   6   1 98.2700 14.5100   1
   1   6   1 97.8400 12.2600   1
   1  -6   1 114.350 16.7500   1
  -1   6  -1 115.390 21.6400   1
  -1  -6  -1 81.1900 15.9900   1
  -1  -6  -1 113.700 23.9300   1
   1   6   1 105.220 19.2000   1
  -2  -2   2 526.660 49.5800   1
   2   2  -2 382.730 23.5700   1
  -2  -2   2 406.700 18.7900   1
  -2   2   2 406.370 20.7400   1
   2   2  -2 385.730 17.9400   1
   2  -2  -2 424.850 20.4500   1
   2   2  -2 425.350 29.1000   1
   2  -2  -2 431.460 36.7800   1
   1  -6  -2 2301.99 65.1500   1
   1  -6  -2 2415.85 81.2100   1
   1  -6  -2 2411.76 60.5900   1
  -1   6   2 2368.19 60.4200   1
  -1  -6   2 2426.98 72.2200   1
   1   6  -2 2460.79 63.6500   1
  -1  -6   2 2140.55 63.6100   1
   1   6  -2 2081.21 93.8900   1
   1   6  -2 2342.88 76.3100   1
  -1  -6   2 2397.19 77.0300   1
   1   6  -2 2256.45 80.0900   1
   1   6  -2 2313.61 63.5000   1
  -2   3   0 864.000 37.4200   1
   2   3   0 904.270 31.2300   1
   2   3   0 836.670 36.5200   1
  -2  -3   0 866.010 30.8300   1
  -2  -3   0 949.000 37.9100   1
   2  -3   0 757.570 34.6600   1
  -2   3   0 794.020 37.8800   1
  -2  -3   0 887.870 40.6800   1
  -2   3   0 877.500 43.9100   1
  -2  -3   0 914.920 32.3100   1
   2   3   0 856.180 38.6300   1
   0   4   2 915.580 41.5500   1
   0  -4  -2 882.980 37.4800   1
   0   4   2 923.860 39.6000   1
   0  -4  -2 868.550 45.0300   1
   0  -4   2 811.920 44.4400   1
   0  -4   2 942.790 56.6900   1
   0  -4  -2 919.750 39.3400   1
   0  -4   2 832.390 35.6100   1
   0   4   2 847.810 36.6800   1
   0   4   2 919.560 54.7800   1
   0   4   2 907.960 33.0300   1
   0  -4   2 892.650 36.8400   1
   0  -4  -2 820.650 32.4900   1
   0   4  -2 916.910 32.7300   1
   0   4  -2 800.400 43.5600   1
   2  -6  -1 1456.66 46.6400   1
  -2   6   1 1457.04 47.7200   1
   2   6  -1 1562.14 54.2400   1
  -2   6   1 1496.70 70.3100   1
   2  -6  -1 1394.09 62.1000   1
  -2  -6   1 1482.39 52.5600   1
   2   6  -1 1657.49 57.4500   1
  -2   6   1 1423.07 46.1800   1
   2   6  -1 1494.63 45.0400   1
  -2  -6   1 1363.74 45.1500   1
   2   6  -1 1504.79 53.3200   1
   2  -3  -2 215.470 31.5800   1
  -2  -3   2 236.270 39.1600   1
   2   3  -2 217.170 21.0300   1
   2   3  -2 197.290 21.6100   1
  -2  -3   2 200.580 14.5600   1
   2   3  -2 204.310 14.3400   1
  -2   3   2 187.560 15.1800   1
   2  -3  -2 199.080 15.4800   1
   2   3  -2 218.720 27.2800   1
   0  11   0 -16.170 11.9800   1
   0 -11   0 7.32000 13.0800   1
   0  11   0 -8.8900 11.0300   1
   0  11   0 -1.9400 17.7600   1
   0 -11   0 16.8100 23.7100   1
   0 -11   0 -5.7800 9.20000   1
   0 -11   0 4.25000 31.9300   1
   2   4   0 373.140 23.4600   1
   2   4   0 323.910 21.5000   1
  -2  -4   0 334.200 26.3400   1
  -2  -4   0 309.610 19.1000   1
  -2  -4   0 295.120 23.1200   1
   2   4   0 339.070 30.1300   1
   2  -4   0 319.910 28.1100   1
   2  -4   0 350.510 23.7300   1
  -2   4   0 301.870 19.7200   1
   2  -4   0 353.620 29.2000   1
  -2   4   0 267.000 28.9800   1
  -1   7  -1 2.55000 19.2500   1
   1  -7   1 6.29000 13.7000   1
  -1  -7  -1 -6.5900 10.1900   1
   1   7   1 5.79000 13.3700   1
  -1  -7  -1 -0.6700 11.6600   1
   1  -7   1 -33.190 28.6500   1
  -1   7  -1 -8.3000 23.8500   1
   1   7   1 2.91000 10.2700   1
   1   7   1 25.2100 22.5200   1
   1   7   1 3.42000 11.9600   1
  -1  -7  -1 5.18000 19.1900   1
   0  10   1 3068.74 91.6700   1
   0 -10  -1 3109.97 77.2200   1
   0 -10  -1 3116.20 73.0500   1
   0  10   1 3142.87 83.7900   1
   0 -10   1 3118.53 107.650   1
   0  10  -1 2901.93 84.1700   1
   0 -10   1 3149.46 93.5100   1
   0  10  -1 3037.44 82.5300   1
   0 -10   1 3129.73 90.1700   1
   0 -10   1 3036.19 80.4300   1
   0 -10   1 3218.94 78.6600   1
   2   4  -2 1567.27 54.5300   1
   2  -4  -2 1505.10 46.2100   1
   2   4  -2 1524.46 52.9800   1
  -2  -4   2 1439.79 42.8500   1
   2   4  -2 1454.51 50.2600   1
   2   4  -2 1397.03 37.7800   1
  -2   4   2 1449.28 40.5700   1
   2  -4  -2 1392.64 44.2300   1
  -2  -4   2 1555.13 63.7900   1
   2  -4  -2 1369.58 59.1000   1
   0  -5  -2 181.900 18.0300   1
   0   5   2 209.850 16.4200   1
   0  -5  -2 184.820 17.7900   1
   0   5   2 169.820 16.5000   1
   0   5   2 182.870 36.5500   1
   0  -5  -2 182.880 23.7300   1
   0   5   2 210.250 23.3900   1
   0   5   2 206.010 24.6400   1
   0  -5  -2 188.300 15.9700   1
   0   5  -2 186.360 14.2000   1
   0   5  -2 183.130 27.3300   1
   0  -5   2 183.190 18.1900   1
   0  -5   2 206.020 53.4500   1
   0  -5   2 164.100 33.3400   1
   0  -5   2 176.460 14.8000   1
   1  10   0 30.0100 17.1800   1
  -1 -10   0 10.7000 13.1000   1
  -1 -10   0 13.2500 11.0700   1
   1  10   0 14.2900 11.3000   1
   1  10   0 29.9300 9.43000   1
  -1 -10   0 26.1900 12.6200   1
   1 -10   0 31.7500 30.1200   1
   1 -10   0 32.1700 28.3100   1
   1 -10   0 9.63000 20.1200   1
  -1  10   0 0.36000 21.5100   1
   1 -10  -1 1386.91 44.1400   1
  -1  10   1 1398.09 54.2900   1
   1 -10  -1 1414.65 67.2400   1
   1  10  -1 1384.77 45.4800   1
  -1 -10   1 1284.19 41.1600   1
   1  10  -1 1472.82 61.6700   1
  -1 -10   1 1476.83 48.8600   1
   1  10  -1 1363.39 40.6700   1
   1  10  -1 1452.96 45.4700   1
  -1 -10   1 1399.98 42.3000   1
   1   7  -2 1631.26 73.1000   1
   1   7  -2 1680.84 70.2600   1
   1  -7  -2 1689.50 46.4500   1
   1   7  -2 1835.70 55.1300   1
  -1   7   2 1754.35 48.9500   1
  -1  -7   2 1812.69 50.0500   1
  -1  -7   2 1840.59 52.9600   1
   1   7  -2 1856.67 57.4000   1
   1  -7  -2 1797.79 54.9100   1
  -1  -7   2 1935.90 71.9500   1
   1   7  -2 1857.70 62.8300   1
  -2  -5   0 736.880 34.7700   1
   2   5   0 792.980 32.3600   1
  -2  -5   0 753.180 31.8200   1
   2  -5   0 817.650 37.9700   1
  -2   5   0 817.470 36.2100   1
   2   5   0 854.050 30.8900   1
   2   5   0 813.240 35.6200   1
  -2  -5   0 781.170 32.0800   1
  -2   5   0 817.030 40.4400   1
   2  -5   0 799.360 34.0000   1
   2  -5   0 751.790 39.7100   1
  -2  -7   1 2498.46 66.7100   1
   2   7  -1 2857.95 66.6600   1
   2   7  -1 2792.70 77.0300   1
  -2  -7   1 2472.87 68.3600   1
   2   7  -1 3070.12 83.0900   1
   2   7  -1 2766.30 69.4500   1
  -2   7   1 2697.94 69.5300   1
  -2   7   1 2856.06 97.9600   1
   2  -7  -1 2691.92 93.9300   1
  -2   7   1 2905.97 75.2800   1
   2  -7  -1 2689.27 69.3000   1
   2  -5  -2 45.0000 11.9000   1
   2   5  -2 48.4100 17.0500   1
  -2  -5   2 24.7400 28.2700   1
   2   5  -2 35.9200 16.1900   1
   2  -5  -2 25.3000 36.3700   1
   2  -5  -2 42.7700 11.5000   1
  -2   5   2 43.1200 11.9100   1
   2   5  -2 32.0300 14.9200   1
  -2  -5   2 29.7800 10.8600   1
   2   5  -2 36.1700 12.2200   1
   0  -6   2 54.6000 10.7400   1
   0  -6  -2 51.9100 10.9200   1
   0   6   2 58.2600 17.9700   1
   0   6  -2 42.2200 18.8200   1
   0  -6   2 -33.490 46.1800   1
   0   6   2 29.1700 28.3700   1
   0   6   2 47.6800 16.3000   1
   0  -6  -2 48.6100 15.5800   1
   0   6  -2 49.4100 10.3500   1
   0  -6   2 22.4500 21.1200   1
   0  -6   2 60.5100 15.3400   1
   0   6   2 61.7400 21.2800   1
   0   6   2 49.9500 12.8400   1
   0  -6  -2 49.7800 14.9500   1
  -1  -8  -1 18.7900 19.0100   1
  -1  -8  -1 12.0100 10.7200   1
  -1  -8  -1 16.4700 13.8900   1
   1   8   1 12.4300 13.4600   1
   1   8   1 12.9400 17.2100   1
   1   8   1 13.7600 16.8200   1
   1   8   1 -5.0300 14.0600   1
   1  -8   1 2.71000 14.0700   1
  -1   8  -1 0.51000 22.7300   1
  -1   8  -1 29.5800 21.4900   1
   1  -8   1 38.3500 31.1700   1
   2  -6   0 406.390 27.4300   1
  -2  -6   0 426.850 26.9500   1
   2   6   0 378.170 19.5400   1
   2   6   0 383.660 21.8800   1
  -2  -6   0 365.040 18.5400   1
   2   6   0 364.610 22.4000   1
   2  -6   0 369.030 31.5500   1
  -2   6   0 348.770 25.0000   1
   2   6   0 378.420 21.5700   1
  -2  -6   0 367.200 28.2800   1
   2   6   0 425.670 26.9100   1
  -2   6   0 354.350 27.1400   1
   1  -8  -2 592.140 26.6700   1
  -1   8   2 585.750 25.8000   1
   1  -8  -2 613.520 28.8400   1
   1   8  -2 627.510 28.6500   1
   1   8  -2 637.710 39.8700   1
   1   8  -2 611.720 34.1900   1
  -1  -8   2 610.630 40.0600   1
   1   8  -2 597.780 44.0800   1
   1   8  -2 638.440 28.9900   1
  -1  -8   2 582.650 24.2500   1
  -1  -8   2 618.640 27.9900   1
   0  12   0 3567.23 88.9000   1
   0 -12   0 3686.78 120.310   1
   0  12   0 3874.36 101.780   1
   0  12   0 3842.64 82.6100   1
   0 -12   0 3674.33 82.2300   1
   0 -12   0 3899.74 113.250   1
   0 -12   0 3946.61 95.2000   1
   2   6  -2 2743.75 66.3000   1
  -2  -6   2 2999.53 71.1200   1
   2   6  -2 3070.72 77.2800   1
   2  -6  -2 2839.68 73.0400   1
   2  -6  -2 2808.68 115.580   1
  -2  -6   2 3016.12 89.1900   1
   2   6  -2 3125.22 93.4600   1
   2  -6  -2 2841.21 65.0900   1
   2   6  -2 2972.96 87.3300   1
  -2   6   2 2750.38 70.0500   1
   0 -11   1 741.580 42.9100   1
   0  11   1 770.110 40.1300   1
   0 -11   1 701.040 55.1300   1
   0  11  -1 703.190 29.5200   1
   0 -11   1 681.240 28.2600   1
   0 -11  -1 728.620 33.9400   1
   0 -11   1 681.770 31.6400   1
   0 -11   1 648.660 39.4100   1
   0  11   1 740.670 34.9900   1
   0 -11  -1 773.550 28.4500   1
   0  11  -1 711.990 36.3600   1
   2   8  -1 703.450 30.2300   1
  -2  -8   1 726.450 34.6400   1
   2   8  -1 781.620 36.9400   1
  -2  -8   1 653.830 28.5700   1
   2   8  -1 699.600 27.8800   1
   2   8  -1 732.700 32.8100   1
  -2   8   1 771.330 32.7100   1
   2  -8  -1 745.430 44.6500   1
  -2   8   1 712.080 57.3200   1
   2  -8  -1 713.920 35.2100   1
  -1  11   0 4063.05 104.670   1
   1  11   0 4436.07 94.4500   1
  -1 -11   0 4260.27 88.9900   1
  -1 -11   0 3821.91 85.1300   1
   1  11   0 4191.97 88.5200   1
   1 -11   0 4171.90 119.080   1
   1 -11   0 4008.30 110.490   1
   1  11   0 4180.84 96.6600   1
  -1 -11   0 4230.32 94.7800   1
  -1 -11   1 4170.18 92.5900   1
   1 -11  -1 4504.34 102.040   1
   1 -11  -1 4303.74 117.810   1
  -1  11   1 4464.95 111.680   1
   1  11  -1 4583.34 100.510   1
   1  11  -1 4688.37 105.550   1
   1  11  -1 4263.81 94.8400   1
  -1 -11   1 4624.86 107.730   1
  -1 -11   1 4105.98 92.9600   1
   1  11  -1 4154.75 107.400   1
   1  11  -1 4363.58 150.610   1
   0  -7   2 889.340 42.3900   1
   0   7  -2 804.470 38.5600   1
   0   7   2 900.110 38.7100   1
   0  -7  -2 913.550 30.3700   1
   0   7  -2 924.800 36.7700   1
   0  -7  -2 948.260 35.3600   1
   0   7   2 979.960 40.6600   1
   0  -7   2 856.450 33.8200   1
   0   7   2 975.370 39.2800   1
   0  -7   2 835.130 33.9600   1
   0   7   2 869.580 36.4400   1
   0  -7  -2 859.420 34.1300   1
   0  -7   2 887.550 54.3400   1
   0   7   2 889.870 49.2300   1
   2   7   0 147.170 14.1300   1
   2   7   0 118.890 19.3000   1
   2   7   0 140.370 12.7600   1
  -2  -7   0 127.100 14.8700   1
  -2  -7   0 157.580 20.0000   1
   2   7   0 161.970 21.6600   1
  -2  -7   0 128.580 18.2600   1
   2   7   0 143.590 17.1700   1
   2  -7   0 155.100 22.4400   1
  -2   7   0 150.150 20.9700   1
  -2   7   0 162.180 24.5700   1
   2  -7   0 184.560 28.8500   1
   1   9   1 252.940 22.3500   1
   1   9   1 254.160 16.5400   1
  -1   9  -1 213.540 21.9700   1
   1  -9   1 290.340 37.2200   1
  -1  -9  -1 264.060 23.0200   1
  -1  -9  -1 215.790 14.4800   1
   1   9   1 238.910 18.2500   1
  -1  -9  -1 253.210 23.8500   1
   1  -9   1 224.880 20.1300   1
  -1   9  -1 239.080 27.5000   1
   1   9   1 263.010 19.1900   1
   2   7  -2 4578.54 132.760   1
   2   7  -2 4740.36 123.920   1
   2   7  -2 4535.41 119.270   1
  -2  -7   2 4366.06 117.340   1
  -2  -7   2 4208.94 120.950   1
   2  -7  -2 4840.11 130.130   1
   2  -7  -2 4839.64 121.110   1
   2  -7  -2 4262.16 141.110   1
  -2   7   2 4839.58 121.920   1
   1  -9  -2 630.750 30.3000   1
   1  -9  -2 644.710 30.5800   1
  -1   9   2 633.940 29.3500   1
   1   9  -2 638.580 37.5600   1
   1   9  -2 592.940 29.6700   1
   1   9  -2 685.000 52.2900   1
   1   9  -2 677.160 31.5500   1
   1   9  -2 631.240 31.2800   1
  -1  -9   2 556.550 33.8400   1
  -1  -9   2 627.310 27.9700   1
  -1  -9   2 583.240 26.5100   1
  -2  -9   1 9352.82 220.820   1
  -2  -9   1 10437.7 329.760   1
   2   9  -1 9422.80 223.120   1
   2   9  -1 9407.06 229.510   1
   2   9  -1 9489.83 233.570   1
  -2  -9   1 11089.5 344.670   1
   2   9  -1 9268.60 220.690   1
   2  -9  -1 8618.80 224.620   1
   2  -9  -1 9985.78 318.580   1
  -2   9   1 9970.35 311.350   1
  -2   9   1 9530.15 253.240   1
   0  -8  -2 1008.23 38.4100   1
   0  -8  -2 911.710 37.8200   1
   0   8   2 1023.75 41.2300   1
   0   8   2 925.660 39.9300   1
   0   8   2 1038.19 45.7800   1
   0   8   2 926.640 41.3200   1
   0   8  -2 864.690 44.3200   1
   0  -8   2 911.400 45.4800   1
   0   8  -2 987.740 44.3800   1
   0  -8   2 954.230 51.4900   1
   0  -8   2 949.730 67.0800   1
   0  -8   2 970.000 39.4300   1
   0 -13   0 14.1600 29.0400   1
   0  13   0 13.0600 16.3500   1
   0 -13   0 9.53000 13.4600   1
   0  13   0 1.12000 10.6800   1
   0 -13   0 -2.7800 8.82000   1
   0  13   0 11.7200 22.5300   1
   0 -13   0 0.12000 22.0400   1
   0 -12  -1 198.050 21.5800   1
   0 -12   1 179.610 21.0400   1
   0  12   1 185.340 20.0300   1
   0  12  -1 192.190 16.7300   1
   0 -12   1 153.060 14.5000   1
   0 -12  -1 175.530 17.7400   1
   0 -12   1 173.330 24.2200   1
   0 -12   1 208.850 30.4300   1
   0  12   1 200.750 22.9200   1
   0  12  -1 167.930 17.6000   1
   0 -12   1 245.300 45.5700   1
   0  12  -1 214.710 24.6400   1
  -2  -8   0 3179.50 97.3900   1
   2   8   0 3484.81 103.200   1
   2   8   0 3320.30 90.1600   1
  -2  -8   0 3591.25 97.0400   1
   2   8   0 3652.87 97.8200   1
  -2  -8   0 3288.71 91.1800   1
   2   8   0 3419.47 100.980   1
   2  -8   0 3420.23 105.560   1
   2  -8   0 3270.09 96.7100   1
  -2   8   0 3566.80 111.690   1
  -2   8   0 3275.93 94.2600   1
  -1 -12   0 358.670 21.3400   1
  -1 -12   0 398.470 19.7600   1
   1 -12   0 358.330 26.0600   1
   1  12   0 406.350 20.7000   1
   1  12   0 409.460 25.8700   1
  -1 -12   0 356.490 21.8000   1
  -1  12   0 360.210 29.7100   1
   1 -12   0 365.180 32.6000   1
   1 -12   0 423.820 39.1500   1
   1  12   0 389.400 19.0500   1
  -1 -12   1 7655.92 189.220   1
   1  12  -1 8513.20 203.080   1
  -1 -12   1 8326.05 207.240   1
   1  12  -1 7553.49 187.340   1
   1 -12  -1 8541.84 206.210   1
   1  12  -1 7775.22 220.990   1
   1  12  -1 8144.22 218.940   1
  -1  12   1 8320.68 213.960   1
   1 -12  -1 7828.59 214.100   1
  -1 -12   1 7473.63 187.090   1
   1  12  -1 7954.97 194.680   1
   2  -8  -2 2729.76 78.4500   1
  -2   8   2 2713.93 76.3200   1
   2  -8  -2 2636.69 83.7000   1
   2  -8  -2 2295.16 91.6300   1
   2   8  -2 2651.49 76.7300   1
   2   8  -2 2574.12 84.8500   1
  -2  -8   2 2516.85 77.7100   1
   2   8  -2 2590.94 76.2100   1
  -2  -8   2 2750.21 80.9400   1
  -2  -8   2 2632.59 86.3600   1
  -1 -10  -1 3.24000 10.1100   1
  -1  10  -1 3.65000 16.4700   1
   1 -10   1 -10.560 13.9800   1
   1 -10   1 6.74000 13.9700   1
  -1 -10  -1 -3.2700 8.94000   1
   1  10   1 -0.3300 23.0700   1
   1  10   1 3.62000 12.4000   1
  -1  10  -1 -26.590 21.9500   1
   1 -10   1 -11.290 20.2400   1
   1  10   1 -12.740 13.7900   1
  -1 -10  -1 -8.7600 12.2500   1
   1  10   1 23.0500 12.3100   1
  -1   0  -2 2.84000 14.7700   1
   1   0   2 -10.680 16.0900   1
  -1   0  -2 6.03000 18.3600   1
   1   0   2 -5.5400 25.3900   1
  -1   0  -2 -0.6300 12.5300   1
   1   0   2 5.20000 8.41000   1
   1   1   2 1877.59 64.9900   1
  -1   1  -2 1665.83 65.0100   1
  -1  -1  -2 1719.54 63.4300   1
   1   1   2 1775.70 61.6600   1
  -1   1  -2 1714.54 67.7200   1
   1  -1   2 1756.99 63.4800   1
   1   1   2 1685.69 51.6600   1
   1  -1   2 1794.46 55.1400   1
  -1   1  -2 1774.84 55.6900   1
  -1  -1  -2 1784.48 55.4700   1
  -1  -1  -2 1632.13 61.7200   1
   1 -10  -2 11.9700 11.1900   1
   1  10  -2 13.2400 26.4400   1
   1  10  -2 33.3200 15.0800   1
  -1 -10   2 24.0200 11.8700   1
   1  10  -2 26.0900 12.1900   1
   1  10  -2 30.5200 15.2000   1
   1  10  -2 9.22000 26.8300   1
  -1 -10   2 -19.980 27.3400   1
  -2   0  -1 -5.8300 14.0300   1
   2   0   1 9.28000 12.5900   1
   2   0   1 -6.0700 14.5700   1
  -2   0  -1 -19.010 16.6600   1
  -2   0  -1 1.51000 19.3600   1
   2   0   1 7.99000 23.7700   1
  -1  -2  -2 1527.28 56.9900   1
  -1   2  -2 1585.46 63.7700   1
   1   2   2 1597.93 58.2400   1
  -1  -2  -2 1543.68 61.5700   1
   1  -2   2 1480.79 55.4800   1
   1   2   2 1529.16 50.1500   1
   1  -2   2 1522.89 49.5800   1
  -1  -2  -2 1728.83 54.8100   1
  -1   2  -2 1565.37 51.2400   1
  -1   2  -2 1545.72 60.9200   1
   1   2   2 1600.43 57.8700   1
   1   0  -3 769.960 52.9200   1
  -1   0   3 751.910 37.3100   1
   1   0  -3 743.340 40.3500   1
   1   0  -3 758.390 39.0700   1
   1   0  -3 765.340 32.4700   1
   1   0  -3 773.830 34.6900   1
   2  -1   1 120.620 18.6300   1
  -2  -1  -1 157.960 15.0400   1
  -2   1  -1 151.620 22.8500   1
  -2  -1  -1 112.730 18.3800   1
   2   1   1 127.970 15.0700   1
   2  -1   1 126.520 12.6900   1
  -2  -1  -1 145.550 17.1200   1
  -2   1  -1 118.200 22.9800   1
  -2   1  -1 155.980 20.2600   1
   2   1   1 166.810 19.4100   1
   2   1   1 129.510 19.4100   1
   1  -1  -3 764.970 35.0700   1
   1   1  -3 719.620 37.5800   1
   1  -1  -3 670.300 36.5600   1
  -1  -1   3 657.170 38.7400   1
  -1   1   3 731.690 35.1900   1
   1   1  -3 645.330 36.0500   1
   1  -1  -3 647.630 42.5800   1
   1  -1  -3 676.880 28.1100   1
  -1   1   3 694.280 38.4200   1
   1   1  -3 648.060 38.4200   1
   1   1  -3 671.170 28.9900   1
   1   1  -3 662.140 50.7900   1
   1  -1  -3 687.120 36.8700   1
   0   9   2 1138.65 49.6900   1
   0  -9  -2 1100.39 46.3000   1
   0   9   2 1160.75 46.7000   1
   0   9   2 1158.45 44.3700   1
   0   9   2 1203.98 47.0700   1
   0  -9  -2 1134.45 44.3500   1
   0  -9   2 1178.44 47.4900   1
   0   9  -2 1071.15 48.1000   1
   0  -9   2 1232.87 69.4900   1
   0   9  -2 1171.25 55.0000   1
   0  -9   2 1155.25 50.2200   1
  -2 -10   1 0.90000 19.1000   1
   2  10  -1 9.00000 14.9400   1
  -2 -10   1 15.9700 8.84000   1
   2  10  -1 11.8000 9.50000   1
   2  10  -1 20.6900 11.9900   1
  -2 -10   1 10.8900 12.1400   1
   2  10  -1 23.4400 12.3400   1
   2 -10  -1 48.2900 32.2600   1
   2 -10  -1 -14.570 20.7600   1
  -2  10   1 17.6400 15.4600   1
  -2  -2  -1 1780.58 60.5100   1
   2   2   1 1869.62 61.4400   1
   2  -2   1 1703.46 60.5300   1
   2   2   1 1751.17 52.1900   1
   2  -2   1 1799.38 60.8600   1
  -2   2  -1 1987.71 63.5300   1
  -2  -2  -1 1822.62 60.5300   1
  -2   2  -1 1947.33 76.5900   1
   2   2   1 2018.16 67.4300   1
  -2   2  -1 1809.46 65.5600   1
  -2  -2  -1 1868.94 81.1500   1
   1   2  -3 18.4700 16.1500   1
   1  -2  -3 -7.3900 28.2500   1
  -1   2   3 6.89000 20.5600   1
  -1  -2   3 27.2300 24.9900   1
  -1   2   3 -6.1700 13.5700   1
   1   2  -3 -5.0600 10.8500   1
   1   2  -3 7.59000 12.7400   1
   1  -2  -3 5.51000 11.9800   1
   1   2  -3 0.00000 14.7100   1
   1  -2  -3 3.47000 8.45000   1
   1  -2  -3 14.2600 10.6500   1
   1   2  -3 -39.830 35.9900   1
   1  -2  -3 26.2200 18.1300   1
  -1   3  -2 260.540 20.8100   1
  -1   3  -2 279.440 17.2100   1
   1  -3   2 257.950 15.2000   1
  -1  -3  -2 290.370 19.9100   1
   1   3   2 274.440 16.0800   1
   1   3   2 292.580 27.3800   1
  -1   3  -2 270.480 26.7300   1
  -1  -3  -2 273.100 21.2600   1
   1   3   2 269.490 21.6700   1
  -1  -3  -2 288.980 26.6100   1
   1  -3   2 213.450 31.3200   1
   2   9   0 214.030 21.5000   1
   2   9   0 206.690 21.3600   1
  -2  -9   0 215.390 14.5000   1
   2   9   0 238.870 18.6100   1
   2   9   0 207.630 14.2100   1
  -2  -9   0 217.160 20.3700   1
  -2   9   0 230.640 27.2900   1
   2  -9   0 239.710 24.1900   1
  -2   9   0 235.930 23.9000   1
   2  -9   0 232.800 23.8300   1
   2   0  -3 4.85000 13.1000   1
  -2   0   3 20.1600 13.2400   1
   2   0  -3 20.8900 15.3600   1
   2  -1  -3 1863.40 70.4200   1
   2   1  -3 1803.17 67.1600   1
   2   1  -3 1956.75 55.9700   1
  -2  -1   3 1846.32 63.5400   1
   2   1  -3 1700.43 61.1900   1
   2  -1  -3 1712.79 53.5800   1
  -2   1   3 1702.88 57.0700   1
   2   1  -3 1643.87 73.5000   1
  -2  -3  -1 2739.02 81.1400   1
   2  -3   1 2520.79 79.6200   1
   2   3   1 2599.51 75.5900   1
   2  -3   1 2591.35 83.6700   1
  -2   3  -1 2644.64 91.0700   1
   2   3   1 2896.60 83.1900   1
  -2  -3  -1 2716.93 77.7800   1
  -2   3  -1 2775.40 96.0500   1
   2   3   1 2798.92 87.0300   1
  -2  -3  -1 2855.12 96.9700   1
  -2   3  -1 2594.93 79.5200   1
   1   3  -3 229.500 34.5100   1
   1   3  -3 274.250 30.0000   1
   1  -3  -3 233.980 22.2300   1
  -1   3   3 258.690 22.0000   1
  -1   3   3 293.680 26.0900   1
  -1  -3   3 202.070 29.9400   1
   1   3  -3 246.310 20.1100   1
   1  -3  -3 275.510 16.6700   1
   1  -3  -3 308.700 19.8700   1
   1   3  -3 236.450 20.2100   1
   1  -3  -3 220.770 32.7300   1
   1   3  -3 255.470 20.2100   1
   1  -3  -3 258.700 26.9600   1
  -1  -3   3 229.740 18.2100   1
   1   3  -3 273.290 17.2500   1
   2  -9  -2 712.340 53.4700   1
   2  -9  -2 881.080 40.1500   1
  -2   9   2 796.090 34.5800   1
  -2   9   2 871.780 35.2700   1
   2   9  -2 943.170 40.5100   1
   2   9  -2 814.190 37.8600   1
  -2  -9   2 885.120 36.1800   1
  -2  -9   2 893.040 38.8800   1
   2   9  -2 780.380 32.6900   1
   2   9  -2 942.110 45.7100   1
  -2  -9   2 852.910 41.2400   1
  -3   0   1 134.990 27.0200   1
   3   0  -1 112.590 23.5700   1
  -3   0   1 100.250 11.5100   1
   3   0  -1 109.050 18.1000   1
  -3   0   1 98.8000 17.1100   1
  -2  -2   3 694.440 29.5200   1
   2   2  -3 627.780 28.8300   1
   2  -2  -3 713.130 37.2400   1
   2   2  -3 716.890 40.0800   1
   2   2  -3 739.230 47.9100   1
   2  -2  -3 746.000 29.9800   1
  -2   2   3 733.840 30.2000   1
   2   2  -3 744.860 28.0100   1
  -1  -4  -2 5557.33 143.540   1
   1   4   2 5928.94 159.040   1
  -1   4  -2 5361.48 148.140   1
   1   4   2 5848.15 154.170   1
  -1  -4  -2 5314.55 143.930   1
  -1  -4  -2 5611.82 137.360   1
  -1   4  -2 6217.77 163.710   1
   1  -4   2 5466.45 135.430   1
   1   4   2 5374.16 139.800   1
   1  -4   2 5611.30 157.800   1
  -1   4  -2 5329.69 143.470   1
   1   4   2 5633.10 148.770   1
  -3   1   1 1418.19 47.4900   1
   3  -1  -1 1366.55 47.3900   1
   3   1  -1 1414.85 64.2500   1
  -3   1   1 1298.02 51.9100   1
  -3  -1   1 1459.26 55.4000   1
   3  -1  -1 1325.07 60.9600   1
   3   1  -1 1430.25 46.8000   1
  -3  -1   1 1463.03 54.9100   1
   3  -1  -1 1294.60 58.5000   1
   3   1  -1 1288.68 45.2000   1
  -3   1   1 1333.41 42.9300   1
  -3  -1   1 1267.49 46.8300   1
  -3   1   1 1508.77 55.7100   1
   3   1  -1 1493.13 52.9800   1
   3   0  -2 22.2000 10.8700   1
  -3   0   2 24.8600 17.0700   1
  -3   0   2 15.0000 21.5100   1
   3   0  -2 17.4800 9.87000   1
  -3   0   2 32.5800 13.9100   1
   3   0  -2 35.0200 21.1500   1
   0 -13   1 2565.60 77.7600   1
   0 -13  -1 2642.53 73.0700   1
   0  13  -1 2538.01 81.1200   1
   0 -13   1 2637.77 107.840   1
   0  13  -1 2488.12 83.4600   1
   0 -13   1 2568.19 102.070   1
   0  13   1 2686.11 79.1700   1
   0  13   1 2600.66 79.6700   1
   0 -13   1 2548.25 83.6600   1
   0  13   1 2555.68 91.5600   1
   0 -13   1 2590.45 81.8600   1
   0  13  -1 2608.46 73.0700   1
   0 -13  -1 2835.08 86.8600   1
   3  -1  -2 2788.73 77.0300   1
   3   1  -2 2551.10 91.8600   1
   3  -1  -2 2891.63 90.7300   1
  -3  -1   2 2672.89 88.7700   1
  -3   1   2 2564.06 86.8700   1
   3   1  -2 3107.72 94.5100   1
  -3   1   2 2757.11 79.2800   1
  -3  -1   2 2625.28 77.2500   1
   3   1  -2 2988.23 81.9600   1
  -3   1   2 2913.69 94.8600   1
  -3  -1   2 3008.85 95.7100   1
   3  -1  -2 3131.56 88.6500   1
   3  -2  -1 2605.10 92.1200   1
   3  -2  -1 2547.21 84.1600   1
   3   2  -1 2699.16 83.8900   1
  -3   2   1 2761.73 77.2000   1
   3   2  -1 2827.77 88.7300   1
   3   2  -1 2754.19 77.4000   1
  -3   2   1 2759.88 91.2900   1
  -3  -2   1 2687.60 88.8300   1
   3  -2  -1 2757.31 79.6300   1
  -3  -2   1 2397.54 73.5900   1
  -3   2   1 2581.61 77.2600   1
  -3  -2   1 2678.27 86.5900   1
  -3   2   1 2787.23 95.2600   1
   1  13   0 8.40000 12.2800   1
  -1 -13   0 33.4800 11.0400   1
  -1 -13   0 22.2200 13.7000   1
   1  13   0 30.2600 14.9500   1
   1 -13   0 15.3200 18.7000   1
   1 -13   0 30.7400 27.0300   1
  -1  13   0 24.8700 16.0800   1
   1  13   0 32.4600 11.1400   1
   1 -13   0 34.2000 31.5300   1
  -1 -13   0 10.3700 8.85000   1
   0  14   0 907.650 48.5700   1
   0 -14   0 795.300 31.4500   1
   0 -14   0 861.870 43.0400   1
   0  14   0 785.020 34.7000   1
   0 -14   0 674.070 47.2900   1
   0 -14   0 815.430 33.1100   1
   0  14   0 810.600 35.5900   1
  -2  -4  -1 1867.99 58.0200   1
   2   4   1 1819.10 62.5800   1
  -2   4  -1 2017.69 73.5300   1
  -2  -4  -1 1948.95 65.3700   1
   2   4   1 1920.75 60.9500   1
  -2   4  -1 1727.89 65.6500   1
   2   4   1 1727.54 54.0700   1
  -2   4  -1 1947.68 70.9900   1
  -2  -4  -1 1938.73 80.0900   1
  -1 -13   1 4020.37 110.550   1
   1  13  -1 4557.12 120.030   1
  -1 -13   1 4661.20 127.530   1
   1  13  -1 4910.23 124.230   1
  -1 -13   1 4490.59 117.300   1
   1  13  -1 4282.88 119.840   1
   1 -13  -1 4481.68 131.530   1
   1  13  -1 4428.91 141.770   1
   1  13  -1 3949.70 118.180   1
   1 -13  -1 4292.36 132.890   1
  -1  13   1 4494.30 128.010   1
  -2   3   3 689.160 32.7500   1
  -2  -3   3 682.460 29.0100   1
   2   3  -3 754.770 34.2400   1
   2  -3  -3 757.990 44.0600   1
   2   3  -3 745.120 37.2400   1
   2   3  -3 700.050 48.1200   1
   2  -3  -3 746.360 28.6500   1
   2   3  -3 664.540 30.5400   1
  -1   4   3 102.690 20.5000   1
  -1  -4   3 107.190 21.4500   1
   1   4  -3 107.600 24.9300   1
   1  -4  -3 73.2000 17.0900   1
  -1   4   3 88.5500 17.7700   1
   1   4  -3 96.0600 15.0600   1
   1  -4  -3 87.2200 17.1400   1
   1  -4  -3 95.5800 14.4300   1
   1   4  -3 92.1600 12.8200   1
  -1  -4   3 99.9000 14.2600   1
   1  -4  -3 82.6100 12.2600   1
   1   4  -3 90.8500 12.5800   1
   1  -4  -3 78.9000 23.6400   1
   1   4  -3 107.240 39.4300   1
   1  11   1 498.220 32.3300   1
   1 -11   1 528.730 30.9300   1
   1 -11   1 465.230 32.1800   1
  -1 -11  -1 487.420 22.1700   1
  -1  11  -1 516.180 39.3300   1
   1 -11   1 517.870 39.4000   1
  -1  11  -1 446.050 28.7600   1
  -1 -11  -1 541.990 26.3800   1
   1 -11   1 499.710 27.2300   1
   1  11   1 479.340 24.1900   1
   1  11   1 438.700 23.4200   1
  -1 -11  -1 422.840 22.0000   1
   3   2  -2 703.620 29.1600   1
  -3  -2   2 640.200 28.4800   1
   3   2  -2 657.830 41.4700   1
   3  -2  -2 764.700 30.0100   1
   3  -2  -2 718.730 41.2300   1
  -3  -2   2 702.620 42.5700   1
  -3   2   2 709.700 50.9900   1
   3   2  -2 721.160 35.8000   1
  -3   2   2 704.580 36.8900   1
  -3  -2   2 669.410 32.9400   1
   3  -2  -2 661.840 27.2000   1
  -3   2   2 660.020 29.8900   1
   1 -11  -2 915.700 39.0100   1
   1  11  -2 892.780 38.3700   1
  -1 -11   2 957.540 63.1300   1
   1  11  -2 835.710 41.5900   1
  -1 -11   2 877.700 38.4800   1
   1  11  -2 817.020 56.3600   1
   1  11  -2 840.990 46.2400   1
   1  11  -2 879.020 33.8100   1
   3   3  -1 523.910 28.4200   1
   3  -3  -1 493.350 51.9700   1
  -3  -3   1 460.440 23.0600   1
  -3   3   1 474.230 24.5200   1
  -3  -3   1 440.650 26.6400   1
   3   3  -1 524.520 31.9100   1
   3   3  -1 494.510 24.1800   1
   3   3  -1 465.470 29.2400   1
   3  -3  -1 423.840 31.8700   1
  -3  -3   1 441.720 27.2000   1
  -3   3   1 456.690 34.6400   1
  -3   3   1 503.210 24.4500   1
  -3   3   1 515.260 31.8200   1
   0  10   2 6575.24 165.880   1
   0 -10  -2 5996.67 153.820   1
   0  10   2 5699.69 148.680   1
   0 -10  -2 6146.23 154.200   1
   0  10   2 6232.76 164.150   1
   0  10  -2 5680.14 160.190   1
   0 -10   2 6304.55 183.610   1
   0 -10   2 5890.99 172.980   1
   0 -10   2 6043.48 155.190   1
   1   5   2 23.7200 21.0100   1
  -1   5  -2 21.6300 14.1900   1
  -1  -5  -2 8.57000 14.5800   1
   1   5   2 14.7200 9.11000   1
   1   5   2 9.69000 13.5900   1
   1  -5   2 -1.0800 28.9400   1
  -1   5  -2 19.2900 15.3300   1
   1   5   2 7.75000 18.8500   1
  -1  -5  -2 15.3400 12.6300   1
  -1  -5  -2 25.9800 20.6600   1
  -3   3   2 1142.50 43.0700   1
  -3  -3   2 1094.47 47.0600   1
  -3   3   2 1171.22 64.5900   1
   3   3  -2 1148.41 40.5100   1
   3  -3  -2 1192.12 41.9800   1
   3  -3  -2 1141.71 48.9000   1
   3   3  -2 1126.80 57.8700   1
  -3   3   2 1167.36 50.3000   1
  -3  -3   2 1124.22 49.0000   1
   3   3  -2 1106.84 46.7500   1
   3  -3  -2 1130.69 43.2700   1
  -3  -3   2 1045.96 40.1300   1
  -2  -4   3 1602.33 51.0900   1
   2   4  -3 1670.30 58.9000   1
   2  -4  -3 1860.82 75.1300   1
   2   4  -3 1682.33 63.8600   1
   2   4  -3 1609.47 72.9500   1
   2  -4  -3 1696.63 52.9600   1
   2   4  -3 1635.46 53.1100   1
  -2   4   3 1802.33 63.4300   1
  -2 -11   1 1898.02 60.4100   1
   2  11  -1 1960.00 63.0100   1
   2  11  -1 1982.31 65.4100   1
  -2 -11   1 1837.35 59.4800   1
   2  11  -1 1958.19 56.7200   1
  -2 -11   1 1859.40 59.2600   1
  -2  11   1 1884.68 63.4000   1
   2 -11  -1 1815.81 75.4000   1
   2 -11  -1 1974.60 74.5500   1
  -2  -5  -1 394.380 23.9400   1
   2   5   1 331.980 17.8000   1
   2  -5   1 423.890 29.3200   1
  -2   5  -1 348.420 22.5400   1
   2   5   1 419.500 23.9100   1
   2   5   1 372.390 29.3000   1
  -2  -5  -1 377.700 28.3600   1
  -2  -5  -1 389.040 22.4600   1
  -2   5  -1 454.070 28.8700   1
  -2   5  -1 456.790 32.8800   1
   2  -5   1 383.090 26.3600   1
   1  -5  -3 134.740 25.4600   1
  -1   5   3 132.630 19.7600   1
   1  -5  -3 186.090 20.2600   1
  -1   5   3 197.790 20.9300   1
   1  -5  -3 187.110 16.8300   1
   1  -5  -3 184.350 15.8000   1
   1  -5  -3 171.780 20.7100   1
   1   5  -3 192.440 23.4500   1
   1   5  -3 189.750 19.4400   1
   1   5  -3 145.290 42.4700   1
  -1  -5   3 145.510 28.1300   1
   1   5  -3 193.660 15.9000   1
  -1  -5   3 195.960 17.8600   1
   1   5  -3 144.460 13.8900   1
  -2 -10   0 5172.94 141.730   1
   2  10   0 4522.68 123.090   1
   2  10   0 4649.83 119.480   1
   2  10   0 4913.32 125.790   1
   2  10   0 4964.22 133.480   1
  -2 -10   0 4856.97 123.680   1
  -2 -10   0 4526.24 117.670   1
   2 -10   0 5254.68 151.740   1
  -2  10   0 4856.93 135.480   1
  -2  10   0 4678.76 140.040   1
   2 -10   0 4697.93 141.950   1
  -3   4   1 49.5500 19.4300   1
   3   4  -1 27.5700 15.6100   1
  -3   4   1 63.5400 11.5300   1
  -3  -4   1 62.2600 13.4700   1
   3   4  -1 52.4300 11.7300   1
   3   4  -1 53.5600 12.2300   1
  -3  -4   1 70.5200 20.8600   1
  -3   4   1 51.5400 21.7900   1
   3  -4  -1 85.0000 22.4200   1
  -3  -4   1 46.2200 21.0100   1
   3   4  -1 49.8800 14.1200   1
  -3   4   1 58.5600 13.5100   1
   3  -4  -1 70.6900 15.2000   1
  -2  10   2 2575.22 71.0200   1
   2 -10  -2 2358.67 94.8800   1
   2 -10  -2 2755.10 91.7600   1
  -2  10   2 2890.71 82.5500   1
  -2 -10   2 2705.11 77.7100   1
   2  10  -2 2491.17 69.1800   1
  -2 -10   2 2819.43 87.0700   1
   2  10  -2 2668.32 86.4900   1
   2  10  -2 2984.25 92.6000   1
  -2 -10   2 2961.41 87.8300   1
   3  -4  -2 1147.35 48.8100   1
  -3   4   2 1122.56 39.0600   1
   3  -4  -2 1304.90 48.7000   1
  -3  -4   2 1126.40 41.6900   1
  -3   4   2 1192.31 64.6800   1
  -3  -4   2 1226.59 52.0400   1
   3   4  -2 1038.98 56.3800   1
  -3  -4   2 1162.61 51.4800   1
   3   4  -2 1212.27 38.8500   1
   3  -4  -2 1323.25 45.4600   1
   3   4  -2 1221.67 61.1100   1
   3   4  -2 1206.94 50.2200   1
   1   6   2 6069.82 163.350   1
   1   6   2 5408.73 137.510   1
  -1  -6  -2 5780.93 161.250   1
   1   6   2 6424.30 169.420   1
  -1  -6  -2 5583.79 138.040   1
  -1   6  -2 5903.78 156.270   1
  -1  -6  -2 5764.75 148.250   1
   1  -6   2 5491.08 139.710   1
   1  -6   2 5610.46 153.820   1
  -1   6  -2 5523.11 148.370   1
   1   6   2 5985.57 156.530   1
  -2   5   3 138.290 12.5300   1
   2  -5  -3 115.640 19.4600   1
   2  -5  -3 127.140 12.5700   1
   2   5  -3 131.830 20.4100   1
   2   5  -3 133.880 13.5300   1
  -2  -5   3 137.430 13.3000   1
   2   5  -3 128.600 13.1900   1
   2   5  -3 134.420 26.4500   1
   2   6   1 6196.33 161.010   1
  -2   6  -1 6827.14 182.600   1
   2  -6   1 5815.96 151.750   1
  -2  -6  -1 6311.65 162.730   1
   2   6   1 5500.11 135.640   1
  -2  -6  -1 5997.05 149.100   1
   2  -6   1 6012.09 160.400   1
  -2   6  -1 5653.03 147.220   1
  -2  -6  -1 6086.92 157.870   1
   2   6   1 6140.99 160.540   1
  -2  -6  -1 5481.90 155.410   1
  -3   5   1 543.750 24.8200   1
  -3  -5   1 580.640 28.6300   1
   3  -5  -1 612.510 31.8300   1
  -3   5   1 562.440 27.7600   1
   3   5  -1 603.980 32.3900   1
   3   5  -1 621.180 31.0900   1
  -3  -5   1 601.610 32.5000   1
  -3  -5   1 524.860 28.9400   1
  -3   5   1 560.500 42.6900   1
   3   5  -1 599.700 28.5900   1
   3  -5  -1 585.190 36.4700   1
  -3  -5   1 538.570 30.3400   1
   3   5  -1 461.490 26.8800   1
  -1   6   3 1338.71 51.8900   1
   1  -6  -3 1336.40 55.5200   1
   1  -6  -3 1384.36 48.9500   1
   1  -6  -3 1315.62 47.2500   1
   1  -6  -3 1296.77 47.5800   1
  -1   6   3 1322.69 62.3600   1
  -1  -6   3 1290.31 52.5400   1
   1   6  -3 1271.87 41.2700   1
   1   6  -3 1355.92 58.0700   1
  -1  -6   3 1374.93 51.3800   1
   1   6  -3 1305.15 47.4600   1
   1   6  -3 1421.99 66.7400   1
   1   6  -3 1431.77 55.5700   1
   3   5  -2 1544.55 48.8600   1
   3  -5  -2 1772.79 55.4500   1
   3   5  -2 1434.41 55.4500   1
  -3  -5   2 1701.72 63.2100   1
   3  -5  -2 1634.91 66.9300   1
  -3   5   2 1724.25 78.8300   1
  -3  -5   2 1603.96 58.9200   1
   3   5  -2 1593.18 56.3800   1
   3  -5  -2 1625.73 52.4900   1
   3   5  -2 1354.40 50.9600   1
  -3  -5   2 1486.93 53.1800   1
  -3   5   2 1692.35 52.1700   1
  -1  12  -1 76.7200 29.2400   1
  -1  12  -1 41.2300 16.7200   1
   1  12   1 50.5800 24.3200   1
   1 -12   1 76.6300 17.8100   1
  -1 -12  -1 72.6800 14.7100   1
   1  12   1 51.9900 12.5300   1
  -1 -12  -1 69.9200 10.7600   1
   1  12   1 56.5900 14.5200   1
   1 -12   1 74.8000 20.2400   1
  -1 -12  -1 55.1300 13.1900   1
   1 -12   1 51.9400 21.6000   1
   0  14  -1 240.190 24.3300   1
   0 -14   1 299.510 33.9100   1
   0 -14  -1 311.670 20.3400   1
   0  14   1 252.460 22.2000   1
   0  14  -1 285.920 19.5400   1
   0 -14   1 243.680 42.7000   1
   0  14  -1 266.460 22.0700   1
   0  14   1 263.390 21.9800   1
   0 -14   1 273.220 22.2900   1
   0 -14  -1 219.890 17.8200   1
   0  14   1 267.490 17.0300   1
   0 -14   1 285.650 19.3000   1
   0 -14   1 353.880 32.7400   1
   0  11   2 841.470 36.2600   1
   0 -11  -2 785.020 34.2400   1
   0 -11  -2 758.180 31.3900   1
   0 -11  -2 833.300 39.6600   1
   0  11   2 794.050 38.0600   1
   0 -11   2 809.180 37.6400   1
   0 -11   2 749.730 58.5700   1
   0  11  -2 757.620 42.6900   1
   0 -11   2 805.670 42.1000   1
   0  11  -2 710.900 36.7400   1
   1  14   0 468.920 26.9300   1
   1  14   0 483.870 31.7400   1
  -1 -14   0 510.410 28.1300   1
  -1 -14   0 487.500 26.5900   1
   1  14   0 520.330 25.2400   1
  -1 -14   0 482.140 23.1100   1
   1  14   0 482.620 22.6000   1
   1 -14   0 460.970 28.6700   1
  -1  14   0 410.230 30.7500   1
   1 -14   0 403.940 30.4200   1
   1 -14   0 472.140 41.8400   1
  -1  12   2 897.460 60.2000   1
   1 -12  -2 754.850 35.7600   1
   1  12  -2 761.710 32.7300   1
  -1 -12   2 812.260 36.5900   1
  -1 -12   2 729.480 40.2400   1
   1  12  -2 737.420 39.3000   1
   1  12  -2 765.110 48.7100   1
   1  12  -2 763.110 32.6200   1
   1  14  -1 1398.17 77.6500   1
   1  14  -1 1422.15 64.0500   1
   1  14  -1 1524.98 55.0600   1
  -1 -14   1 1362.75 47.7300   1
  -1 -14   1 1382.08 49.0100   1
   1  14  -1 1456.98 48.4000   1
   1  14  -1 1460.83 49.9800   1
  -1 -14   1 1389.92 49.6400   1
  -1  14   1 1468.19 61.5000   1
   1 -14  -1 1566.65 54.2300   1
   1 -14  -1 1316.63 57.5900   1
   2  -6  -3 305.130 18.2700   1
  -2   6   3 278.790 20.5600   1
   2  -6  -3 285.650 24.4000   1
   2   6  -3 239.700 25.2200   1
  -2  -6   3 272.780 17.5400   1
   2   6  -3 329.680 20.9900   1
   2   6  -3 292.700 19.7800   1
   2   6  -3 288.450 25.0900   1
   0 -15   0 -12.150 17.6400   1
   0  15   0 -5.2900 23.3400   1
   0  15   0 -0.7500 15.6400   1
   0 -15   0 13.1500 15.7200   1
   0 -15   0 1.68000 27.3000   1
   0 -15   0 4.06000 8.83000   1
   0  15   0 -5.8400 10.5300   1
   1  -7   2 319.110 29.8400   1
   1   7   2 354.390 27.8800   1
  -1   7  -2 372.260 25.2900   1
   1  -7   2 284.160 17.3600   1
  -1  -7  -2 352.230 19.5600   1
   1   7   2 344.250 21.8200   1
  -1  -7  -2 336.600 18.6300   1
  -1   7  -2 298.160 23.8600   1
   1   7   2 298.390 17.0600   1
   1   7   2 321.230 19.7600   1
  -1  -7  -2 313.800 28.1600   1
   2 -12  -1 254.100 27.1500   1
   2  12  -1 266.150 19.2300   1
   2  12  -1 299.350 16.4900   1
  -2 -12   1 233.270 15.1400   1
  -2 -12   1 227.860 19.1400   1
  -2  12   1 272.600 22.4300   1
   2 -12  -1 279.270 37.6900   1
  -2 -12   1 298.380 19.9700   1
   2  12  -1 281.150 17.5700   1
  -2 -11   0 69.0800 11.7100   1
   2  11   0 74.4200 13.5400   1
   2  11   0 79.2600 13.2000   1
  -2 -11   0 69.2400 15.1200   1
  -2 -11   0 76.7400 21.0700   1
   2  11   0 59.9400 17.6800   1
   2  11   0 64.3000 13.7800   1
   2 -11   0 94.8400 22.1500   1
  -2  11   0 117.640 36.0900   1
   2 -11   0 54.7700 27.3000   1
  -2  11   0 52.3700 20.0300   1
   3   6  -1 491.720 28.7200   1
   3   6  -1 483.410 22.4400   1
  -3   6   1 350.060 19.1100   1
   3   6  -1 427.510 22.8600   1
  -3  -6   1 441.570 22.1900   1
   3   6  -1 493.820 28.5100   1
  -3  -6   1 485.030 32.0900   1
  -3   6   1 430.360 24.0800   1
  -3  -6   1 487.850 26.4500   1
   3  -6  -1 412.380 27.9900   1
   3  -6  -1 399.430 30.0600   1
  -3   6   1 431.780 33.6300   1
  -3  -6   1 417.570 28.9300   1
   0   0  -3 8.93000 19.6200   1
   0   0  -3 4.29000 17.1700   1
   0   0  -3 18.5500 11.4700   1
   0   0   3 6.04000 9.86000   1
   0   0   3 17.0600 35.7100   1
   0   0   3 7.99000 18.1000   1
   0  -1   3 1969.90 74.8300   1
   0   1   3 1957.95 69.5500   1
   0   1   3 2143.69 73.6300   1
   0   1  -3 1930.04 69.2900   1
   0   1  -3 2042.52 61.5900   1
   0  -1  -3 1819.65 64.8500   1
   0   1  -3 1840.68 70.8400   1
   0  -1   3 1851.47 81.2800   1
   0   1   3 1958.69 80.2000   1
   0   1   3 1833.21 65.4400   1
   0   1   3 1793.12 56.7000   1
   0  -1   3 1796.76 65.0600   1
   0  -1  -3 1973.67 59.4300   1
   0  -1  -3 1860.10 67.4000   1
  -2  -7  -1 3654.23 94.9100   1
   2   7   1 3760.78 107.970   1
   2   7   1 3307.53 91.7700   1
   2   7   1 3755.45 103.810   1
   2   7   1 3519.48 104.330   1
  -2  -7  -1 3603.93 103.420   1
   2  -7   1 3796.55 116.590   1
  -2   7  -1 3907.73 114.250   1
  -2   7  -1 3391.40 100.020   1
   2  -7   1 3727.10 110.480   1
   1  -7  -3 596.770 43.8000   1
  -1   7   3 530.300 38.7500   1
  -1   7   3 659.990 35.2700   1
   1  -7  -3 704.720 32.6100   1
   1  -7  -3 641.400 32.3500   1
   1  -7  -3 639.760 33.3000   1
   1  -7  -3 550.620 26.6100   1
  -1  -7   3 629.090 39.5400   1
   1   7  -3 687.390 37.2600   1
   1   7  -3 630.050 46.0300   1
   1   7  -3 624.310 31.3300   1
  -1  -7   3 622.330 29.1000   1
   1   7  -3 655.310 27.8400   1
   1   7  -3 722.980 36.5100   1
  -3  -6   2 226.450 21.5300   1
   3   6  -2 268.880 21.7600   1
   3  -6  -2 224.570 20.4000   1
  -3  -6   2 169.200 16.8000   1
  -3   6   2 202.400 15.4200   1
   3   6  -2 195.080 23.6900   1
   3   6  -2 267.350 22.5200   1
   3  -6  -2 208.610 29.6100   1
  -3   6   2 192.730 48.2200   1
   3   6  -2 209.410 14.6200   1
   2 -11  -2 386.490 46.6000   1
  -2  11   2 501.790 27.1300   1
  -2  11   2 515.040 24.8800   1
   2 -11  -2 511.140 32.1300   1
   2  11  -2 460.840 22.5100   1
  -2 -11   2 440.370 22.4500   1
   2  11  -2 480.090 25.0000   1
  -2 -11   2 534.380 28.7800   1
   2  11  -2 488.190 25.2500   1
   2  11  -2 471.670 30.7500   1
  -2 -11   2 496.000 27.4700   1
   0   2   3 80.9100 37.1500   1
   0  -2   3 66.3300 40.6800   1
   0  -2   3 56.7100 27.3700   1
   0   2   3 40.7900 24.9700   1
   0   2  -3 42.8700 15.7100   1
   0  -2  -3 62.2400 14.5900   1
   0   2   3 77.9700 14.9300   1
   0   2  -3 35.5800 17.1600   1
   0   2   3 52.3500 10.2900   1
   0   2   3 40.8700 15.0900   1
   0  -2   3 47.3100 13.6400   1
   0  -2  -3 43.9600 10.0400   1
   0   2  -3 54.2400 12.3400   1
   0  -2  -3 79.6100 15.0400   1
   0  -3   3 401.090 40.9800   1
   0   3   3 446.310 46.3600   1
   0  -3   3 433.960 28.7500   1
   0   3   3 431.270 26.3000   1
   0   3   3 449.700 23.3300   1
   0  -3  -3 404.600 20.8300   1
   0   3  -3 451.720 22.6200   1
   0  -3   3 407.580 25.5400   1
   0   3   3 514.140 29.8800   1
   0  -3  -3 480.030 31.0900   1
   0   3  -3 422.520 24.5900   1
   0  -3  -3 501.090 28.5300   1
   0   3  -3 463.320 28.4800   1
   0   3   3 482.380 33.9900   1
   0  -3   3 442.670 31.5000   1
   2  -7  -3 47.7900 9.33000   1
   2  -7  -3 65.6900 18.0000   1
  -2   7   3 76.8400 12.3200   1
   2  -7  -3 84.0800 11.0300   1
  -2  -7   3 59.5200 17.6600   1
   2   7  -3 57.7200 13.9800   1
   2   7  -3 69.1200 25.4300   1
  -2  -7   3 50.5800 11.0100   1
   2   7  -3 57.2700 14.8400   1
   2   7  -3 74.2100 17.6700   1
  -3   0   0 22.0400 15.2500   1
   3   0   0 19.3600 14.4300   1
  -3   0   0 17.9600 13.5300   1
   3   0   0 34.7500 17.5700   1
  -3   0   0 41.7700 26.0900   1
  -3   0   0 5.41000 10.1800   1
  -3   0   0 20.8000 16.6400   1
   3  -1   0 1271.19 56.3000   1
  -3   1   0 1266.75 55.7300   1
  -3  -1   0 1163.48 53.3000   1
  -3   1   0 1521.70 65.6700   1
  -3  -1   0 1189.03 52.0300   1
  -3  -1   0 1336.46 58.9400   1
  -3   1   0 1259.92 51.4200   1
   3   1   0 1135.83 46.7800   1
   3  -1   0 1344.02 56.3700   1
  -3  -1   0 1153.50 49.5900   1
  -3  -1   0 1201.03 55.4100   1
  -3   1   0 1272.07 62.2600   1
   3   1   0 1438.36 60.8700   1
   3   1   0 1284.70 59.6300   1
  -1  -8  -2 11502.9 318.190   1
   1   8   2 10086.3 311.660   1
   1   8   2 10434.9 324.010   1
   1   8   2 10047.4 312.650   1
  -1  -8  -2 10960.0 309.650   1
   1   8   2 11181.1 317.370   1
  -1  -8  -2 11150.8 324.900   1
  -1   8  -2 11330.7 325.610   1
   1  -8   2 10969.2 320.470   1
   1  -8   2 9748.47 298.130   1
  -1   8  -2 10280.6 334.400   1
   3   7  -1 1799.88 74.6700   1
  -3   7   1 1792.75 78.0700   1
   3  -7  -1 1738.24 77.0300   1
  -3  -7   1 1841.68 75.6300   1
   3   7  -1 1671.24 68.1100   1
  -3   7   1 1673.02 66.7100   1
   3   7  -1 1770.26 62.5500   1
  -3  -7   1 1627.84 65.2900   1
   3   7  -1 1700.56 74.0300   1
   3  -7  -1 1789.95 73.9700   1
  -3   7   1 1642.30 61.7400   1
  -3  -7   1 1578.01 72.5800   1
  -3   2   0 19.9100 14.5900   1
   3   2   0 -25.500 20.5100   1
   3  -2   0 33.5900 21.5500   1
  -3  -2   0 7.48000 14.0600   1
   3   2   0 -20.320 21.4800   1
  -3   2   0 -2.7600 19.9500   1
  -3  -2   0 -5.3200 14.5200   1
  -3   2   0 -10.420 17.6600   1
  -3  -2   0 -7.3400 16.5600   1
   3  -2   0 17.5800 12.7900   1
   3   2   0 15.2900 10.5800   1
  -3  -2   0 4.51000 9.93000   1
  -3   7   2 3.82000 45.4800   1
   3  -7  -2 2.92000 25.9400   1
  -3  -7   2 -0.0200 19.6200   1
   3   7  -2 -16.390 12.1500   1
  -3   7   2 -10.220 11.1700   1
   3   7  -2 -14.420 13.6000   1
  -3  -7   2 -3.2000 12.1800   1
   3   7  -2 -0.1900 18.0000   1
   3  -7  -2 2.60000 15.3500   1
  -3   7   2 16.2000 11.8400   1
   3   7  -2 -9.3400 18.7800   1
   0   4   3 3906.20 148.070   1
   0  -4   3 3520.89 121.540   1
   0   4   3 3589.50 125.740   1
   0   4   3 3980.17 136.390   1
   0  -4   3 3604.80 126.540   1
   0  -4  -3 3454.21 114.100   1
   0   4  -3 4250.37 138.800   1
   0  -4  -3 3770.23 139.510   1
   0   4   3 4101.71 141.930   1
   0   4  -3 3575.87 122.220   1
   0  -4  -3 3753.10 128.010   1
   0   4  -3 3674.68 131.530   1
   0   4   3 3868.50 136.910   1
   0  -4   3 3846.79 140.340   1
   0  -4   3 3635.12 147.970   1
  -2  -8  -1 1404.57 54.7300   1
   2   8   1 1423.50 57.7900   1
  -2  -8  -1 1365.81 63.0200   1
   2   8   1 1682.80 68.1900   1
   2   8   1 1462.15 56.0900   1
  -2  -8  -1 1605.57 61.4800   1
   2   8   1 1311.64 52.6900   1
  -2   8  -1 1400.89 58.2600   1
   2  -8   1 1535.14 66.9100   1
  -2   8  -1 1512.92 69.1300   1
   2  -8   1 1399.29 65.0400   1
   1  -8  -3 3470.00 120.370   1
   1  -8  -3 3218.08 113.730   1
   1  -8  -3 3265.85 117.200   1
   1  -8  -3 3204.50 114.390   1
  -1   8   3 3519.68 123.100   1
  -1  -8   3 3180.88 118.210   1
   1   8  -3 3312.04 144.750   1
   1   8  -3 3064.52 106.190   1
   1   8  -3 2975.88 114.010   1
  -1  -8   3 2865.37 97.9700   1
   1   8  -3 3274.77 111.410   1
   1   8  -3 2975.98 109.340   1
   0 -12  -2 168.210 15.0900   1
   0 -12  -2 218.000 21.0200   1
   0  12   2 188.040 16.2100   1
   0  12   2 209.800 17.1300   1
   0 -12  -2 199.770 15.7600   1
   0 -12   2 173.620 16.8800   1
   0  12  -2 190.930 27.0100   1
   0 -12   2 245.850 45.1400   1
   0  12  -2 176.150 28.4200   1
   0 -12   2 188.370 33.8300   1
  -1  13  -1 213.620 21.9600   1
   1  13   1 240.450 20.7400   1
  -1 -13  -1 238.960 16.3500   1
   1  13   1 253.980 19.7100   1
   1 -13   1 234.630 27.1800   1
   1  13   1 302.150 24.6000   1
  -1  13  -1 263.650 34.7600   1
   1 -13   1 264.730 22.5700   1
  -1 -13  -1 253.540 22.5400   1
  -1 -13  -1 232.770 16.1700   1
   1 -13   1 270.010 20.9500   1
  -3   0   3 -1.3700 12.5200   1
   3   0  -3 -8.4400 12.8100   1
   3   0  -3 19.6200 26.0100   1
  -3   0   3 -2.1100 13.5300   1
  -1  13   2 3547.47 131.240   1
   1 -13  -2 3697.70 125.870   1
   1  13  -2 3862.32 129.480   1
  -1 -13   2 3577.04 123.840   1
   1  13  -2 3592.60 123.030   1
   1  13  -2 3785.73 154.400   1
   1  13  -2 3679.82 139.500   1
  -1 -13   2 3763.84 137.080   1
   3   3   0 932.370 43.4600   1
   3  -3   0 1066.78 53.7700   1
   3   3   0 1052.70 46.8300   1
  -3  -3   0 984.230 42.0500   1
   3   3   0 1096.10 45.9300   1
   3  -3   0 1090.87 50.8100   1
  -3  -3   0 1193.64 51.7000   1
  -3   3   0 1039.26 51.1300   1
  -3   3   0 952.770 55.8900   1
  -3  -3   0 988.830 43.2900   1
  -3   3   0 1026.90 44.3800   1
  -3  -3   0 1111.52 53.7900   1
  -3  -1   3 49.2300 10.0600   1
   3   1  -3 58.2800 18.3800   1
   3  -1  -3 56.1200 13.8100   1
   3   1  -3 34.3600 13.7400   1
  -3   1   3 59.6700 13.1800   1
  -3   1   3 34.3500 11.9200   1
  -3  -1   3 39.3100 11.8900   1
   3  -1  -3 65.5600 28.0500   1
   2  12   0 220.490 16.8000   1
  -2 -12   0 201.120 15.1400   1
  -2 -12   0 218.270 24.0100   1
   2  12   0 226.830 19.0000   1
   2  12   0 192.890 16.8900   1
  -2 -12   0 260.720 20.7500   1
   2  12   0 198.120 21.9100   1
  -2  12   0 227.210 23.4000   1
   2 -12   0 221.780 29.7900   1
  -2  12   0 220.080 31.9300   1
   2 -12   0 198.660 21.1300   1
   0  15   1 211.370 15.2900   1
   0 -15  -1 224.510 18.7200   1
   0  15   1 220.420 25.7800   1
   0  15   1 228.510 21.3000   1
   0 -15  -1 222.640 15.9500   1
   0  15  -1 240.860 18.5400   1
   0 -15   1 207.690 18.6400   1
   0  15  -1 186.180 19.8600   1
   0 -15   1 211.310 25.0800   1
   0 -15   1 198.390 16.8800   1
   0 -15   1 209.280 39.7400   1
   0 -15   1 194.490 24.0100   1
   0  15  -1 239.950 29.8200   1
  -1 -15   0 555.860 30.8800   1
  -1 -15   0 557.230 31.7500   1
   1  15   0 554.100 29.7400   1
  -1 -15   0 537.730 25.8500   1
   1  15   0 534.070 47.2000   1
   1  15   0 498.630 25.5200   1
   1  15   0 522.560 32.6400   1
   1  15   0 515.800 40.6800   1
   1 -15   0 566.900 32.3600   1
   1 -15   0 423.880 34.9500   1
   1 -15   0 571.040 43.4300   1
  -1  15   0 565.140 37.7900   1
  -3   2   3 27.9600 13.2200   1
  -3  -2   3 39.5300 13.1900   1
   3   2  -3 47.1900 21.3800   1
  -3  -2   3 49.0900 43.5300   1
   3  -2  -3 40.6700 13.0400   1
   3   2  -3 36.3400 10.4400   1
  -3   2   3 30.2900 9.21000   1
   3  -2  -3 52.5800 30.0600   1
   2  -8  -3 10.2400 14.2900   1
   2  -8  -3 9.47000 8.75000   1
  -2   8   3 12.8900 10.0200   1
   2  -8  -3 7.18000 5.95000   1
   2   8  -3 5.24000 12.2900   1
   2   8  -3 18.2500 14.4900   1
  -2  -8   3 -0.6200 9.22000   1
  -2  -8   3 15.4900 15.4900   1
   2   8  -3 11.9600 11.5600   1
   2   8  -3 16.9300 23.8500   1
   2  13  -1 366.100 25.3900   1
  -2  13   1 424.390 28.9200   1
   2 -13  -1 443.360 30.3700   1
  -2 -13   1 424.770 28.6400   1
  -2 -13   1 412.750 27.4100   1
   2  13  -1 383.970 20.3700   1
   2  13  -1 418.120 22.6600   1
  -2 -13   1 307.140 21.6500   1
   2 -13  -1 376.520 37.6400   1
   0  -5  -3 2698.89 103.510   1
   0  -5  -3 2754.48 97.4700   1
   0   5   3 3020.09 104.610   1
   0   5   3 2691.99 100.200   1
   0   5   3 2962.42 109.640   1
   0  -5  -3 2883.57 105.050   1
   0   5   3 2936.91 104.390   1
   0   5   3 2952.54 118.440   1
   0   5  -3 2829.65 95.0800   1
   0  -5   3 2666.14 98.1700   1
   0   5  -3 2622.02 103.580   1
   0  -5   3 2620.03 97.1900   1
   0  -5   3 2843.05 120.540   1
   0  -5   3 2913.96 111.340   1
  -1  15   1 1178.95 58.0700   1
   1 -15  -1 1176.99 63.4700   1
   1 -15  -1 1251.52 53.6700   1
  -1 -15   1 1402.17 54.9800   1
   1  15  -1 1410.65 58.9100   1
   1  15  -1 1227.56 49.2800   1
  -1 -15   1 1189.72 51.1300   1
  -1 -15   1 1320.80 52.8700   1
   1  15  -1 1253.71 55.6300   1
   1  15  -1 1259.26 71.0700   1
   1  15  -1 1164.93 56.5500   1
   2 -12  -2 2823.78 109.230   1
  -2  12   2 3003.63 104.350   1
   2 -12  -2 2500.12 108.660   1
  -2  12   2 2936.55 100.260   1
   2  12  -2 2793.24 115.460   1
  -2 -12   2 2722.27 98.8400   1
   2  12  -2 2910.66 102.580   1
   2  12  -2 2855.97 103.860   1
  -2 -12   2 3080.34 110.070   1
  -2 -12   2 2669.20 98.8900   1
   2  12  -2 2663.79 90.0800   1
   3  -4   0 655.320 41.2600   1
  -3   4   0 710.010 38.4500   1
   3   4   0 705.950 38.4300   1
  -3  -4   0 623.750 32.5700   1
  -3  -4   0 682.700 41.6200   1
  -3   4   0 752.990 42.5000   1
   3   4   0 720.690 36.6600   1
   3  -4   0 773.180 39.9800   1
  -3   4   0 705.990 37.4400   1
  -3  -4   0 715.130 35.2000   1
   3   4   0 629.340 38.2200   1
  -3  -8   1 3641.71 125.330   1
  -3  -8   1 3294.67 109.790   1
  -3   8   1 3556.27 131.250   1
   3   8  -1 3204.10 118.330   1
   3   8  -1 3331.04 117.900   1
  -3   8   1 3463.78 119.370   1
  -3  -8   1 3123.72 111.930   1
   3  -8  -1 3270.00 114.660   1
   3   8  -1 3401.47 113.140   1
  -3   8   1 3126.62 108.320   1
   3  -8  -1 3361.34 120.960   1
   3   8  -1 3202.37 112.760   1
   0 -16   0 600.870 28.8100   1
   0  16   0 680.110 32.9100   1
   0  16   0 691.760 47.2000   1
   0 -16   0 633.280 35.4400   1
   0  16   0 614.200 34.9600   1
   0 -16   0 657.020 34.2400   1
  -3   3   3 732.410 34.3000   1
   3   3  -3 860.730 38.4000   1
   3  -3  -3 765.760 32.2100   1
   3   3  -3 750.050 40.3700   1
  -3  -3   3 941.730 58.0100   1
  -3  -3   3 718.650 34.6600   1
   3  -3  -3 776.500 44.6000   1
   3   3  -3 783.700 47.7000   1
  -3   3   3 740.830 41.7000   1
   1   9   2 515.250 34.5900   1
   1   9   2 454.260 23.7900   1
   1   9   2 492.590 28.4100   1
   1   9   2 424.100 24.4800   1
  -1  -9  -2 500.960 26.3900   1
  -1   9  -2 361.010 26.5600   1
   1  -9   2 398.280 32.7600   1
  -1   9  -2 571.440 36.1000   1
  -1   9  -2 496.660 32.4800   1
   1  -9   2 384.850 20.5900   1
  -3   8   2 111.380 14.3300   1
   3  -8  -2 59.1100 21.3200   1
   3  -8  -2 112.850 19.5700   1
  -3   8   2 71.4100 47.1700   1
  -3   8   2 95.8400 10.8100   1
   3   8  -2 117.910 22.7500   1
   3   8  -2 115.430 15.1500   1
  -3  -8   2 103.340 14.8000   1
   3   8  -2 85.4000 15.1000   1
   3   8  -2 115.730 19.1400   1
  -3  -8   2 98.3200 20.6400   1
   2   9   1 1263.81 51.6900   1
  -2   9  -1 1280.55 55.1700   1
   2   9   1 1422.11 60.2000   1
  -2  -9  -1 1146.16 65.4100   1
   2  -9   1 1476.36 63.7100   1
   2   9   1 1280.96 50.3800   1
   2   9   1 1414.47 61.1800   1
   2  -9   1 1323.45 59.1700   1
  -2   9  -1 1466.97 64.0900   1
  -2  -9  -1 1239.46 49.9700   1
  -2  -9  -1 1385.93 56.3100   1
   1  -9  -3 208.560 17.5500   1
   1  -9  -3 129.810 32.6600   1
   1   9  -3 228.540 44.2200   1
   1   9  -3 180.630 17.4800   1
  -1  -9   3 190.680 18.7700   1
  -1  -9   3 166.750 29.9000   1
   1   9  -3 167.400 15.0200   1
   1   9  -3 158.850 29.8500   1
  -1   9   3 224.580 23.8600   1
   1  -9  -3 211.790 17.8700   1
   1   9  -3 180.440 17.1100   1
   1  -9  -3 207.110 17.5400   1
   0   6   3 2000.99 75.9700   1
   0  -6  -3 2150.35 86.0700   1
   0  -6  -3 1851.77 71.4200   1
   0   6  -3 1719.54 62.2200   1
   0  -6  -3 1867.79 66.7100   1
   0  -6   3 1733.74 73.7200   1
   0   6   3 1819.16 72.6000   1
   0   6   3 1747.34 69.2300   1
   0  -6   3 1823.89 70.6500   1
   0   6   3 1789.56 86.7900   1
   0  -6   3 1862.32 93.5200   1
   0  -6   3 1890.79 79.2900   1
   0   6   3 1964.51 77.5200   1
   0   6  -3 1737.87 71.9100   1
  -3   4   3 404.150 24.0500   1
   3   4  -3 481.710 31.8400   1
   3   4  -3 463.070 22.4600   1
   3  -4  -3 482.290 23.8000   1
   3  -4  -3 420.490 40.5200   1
  -3  -4   3 561.230 52.2900   1
   3   4  -3 387.900 24.2900   1
   3   4  -3 460.660 30.2300   1
   3  -4  -3 443.540 23.6100   1
  -3  -4   3 446.670 23.5800   1
   3  -5   0 2454.20 101.560   1
  -3  -5   0 2500.10 96.1700   1
  -3   5   0 2609.67 96.0800   1
   3   5   0 2712.25 92.4000   1
  -3   5   0 2539.68 90.0400   1
   3  -5   0 2836.15 101.510   1
  -3  -5   0 2521.06 87.1200   1
   3   5   0 2512.77 94.3800   1
  -3  -5   0 2781.47 102.200   1
  -3   5   0 2716.69 107.320   1
   2   9  -3 349.660 28.6400   1
   2  -9  -3 344.340 23.0100   1
   2   9  -3 274.460 28.3100   1
   2   9  -3 312.430 18.7900   1
   2  -9  -3 319.900 19.2700   1
  -2   9   3 368.110 22.5100   1
  -2  -9   3 325.920 20.1300   1
  -2  -9   3 431.260 26.4800   1
   2   9  -3 362.050 23.9300   1
   2  -9  -3 295.570 20.7600   1
   2  -9  -3 298.940 29.3200   1
   0 -13  -2 306.910 20.4600   1
   0 -13  -2 288.890 26.9400   1
   0 -13  -2 329.780 23.8000   1
   0 -13   2 290.290 20.4000   1
   0  13  -2 301.900 36.5800   1
   0  13   2 298.550 21.7600   1
   0 -13   2 278.080 37.9600   1
   0 -13   2 303.600 33.6400   1
   0  13  -2 318.840 30.6500   1
   0  13   2 318.890 21.0800   1
   1 -14   1 49.8700 22.1100   1
  -1  14  -1 43.2600 22.7000   1
   1 -14   1 48.9200 14.1800   1
   1 -14   1 19.5000 11.3900   1
  -1  14  -1 8.75000 31.4700   1
   1  14   1 35.7900 15.8200   1
  -1 -14  -1 84.2700 18.9300   1
   1  14   1 43.0400 13.1700   1
  -1 -14  -1 52.6500 9.53000   1
  -1 -14  -1 52.1100 11.0600   1
  -3   9   1 809.790 36.9500   1
   3   9  -1 774.040 41.1100   1
   3  -9  -1 801.510 44.4600   1
   3   9  -1 740.320 37.9000   1
  -3  -9   1 744.190 35.6700   1
   3   9  -1 809.820 36.6400   1
   3   9  -1 745.890 38.6100   1
  -3  -9   1 776.610 38.7400   1
   3  -9  -1 835.760 47.8100   1
  -3   9   1 792.970 54.2800   1
   3   5  -3 826.440 42.4200   1
   3  -5  -3 857.050 37.6900   1
   3  -5  -3 805.770 47.7300   1
  -3  -5   3 888.790 53.2100   1
   3   5  -3 811.820 49.6400   1
   3  -5  -3 874.430 36.4600   1
   3   5  -3 822.380 34.3500   1
  -3  -5   3 780.610 40.0200   1
  -3   5   3 766.860 35.2600   1
   3   5  -3 814.700 39.3300   1
   1 -14  -2 1079.44 53.9300   1
   1  14  -2 1151.50 45.9700   1
  -1 -14   2 1116.86 46.4900   1
   1 -14  -2 1075.86 47.5500   1
   1  14  -2 1098.69 47.6300   1
   1  14  -2 1231.74 71.2700   1
  -1 -14   2 1244.74 60.1600   1
   1  14  -2 1149.28 57.0100   1
  -1  14   2 1149.55 56.3700   1
  -3  -6   0 1122.39 57.0600   1
   3   6   0 1251.33 54.2600   1
   3   6   0 1261.22 49.8700   1
  -3   6   0 1131.84 48.0500   1
   3  -6   0 1269.97 53.8000   1
  -3  -6   0 1058.56 46.6700   1
   3   6   0 1128.78 47.3300   1
  -3  -6   0 1147.18 50.8600   1
   3  -6   0 1181.54 61.0700   1
  -3   6   0 1333.84 61.0900   1
   3   9  -2 6.30000 16.4800   1
   3  -9  -2 -1.0700 16.8000   1
  -3  -9   2 0.20000 16.1900   1
   3  -9  -2 46.8800 20.7800   1
  -3   9   2 -6.1500 11.4900   1
   3   9  -2 0.30000 15.3000   1
  -3  -9   2 -3.2000 11.2600   1
   3   9  -2 0.63000 13.3700   1
   3   9  -2 -13.510 13.4400   1
  -3   9   2 6.47000 9.59000   1
   2  13   0 3040.38 105.810   1
   2  13   0 3144.09 109.680   1
  -2  13   0 3326.55 117.430   1
  -2 -13   0 3791.44 130.540   1
   2 -13   0 3332.14 131.410   1
  -2  13   0 3373.49 132.740   1
   2 -13   0 3591.81 133.010   1
  -2 -13   0 3437.72 114.690   1
   2  13   0 3381.79 113.190   1
   2  13   0 3659.52 119.380   1
  -2 -13   0 3260.09 113.110   1
   1  10   2 1032.07 44.9300   1
  -1 -10  -2 1088.10 41.9600   1
   1 -10   2 1038.83 45.5000   1
  -1  10  -2 1145.43 59.6100   1
   1  10   2 1246.43 52.6700   1
   1 -10   2 1077.32 52.7100   1
   1  10   2 1215.71 52.8100   1
   1  10   2 1243.69 57.2200   1
  -1 -10  -2 1175.73 51.3700   1
   0   7   3 3017.66 113.330   1
   0   7  -3 2414.48 95.6900   1
   0   7   3 2599.37 97.0100   1
   0   7   3 2683.62 94.8400   1
   0  -7  -3 2796.93 95.8200   1
   0   7   3 2780.63 100.180   1
   0   7   3 2613.67 116.260   1
   0  -7   3 2819.86 117.400   1
   0  -7   3 2836.61 111.650   1
   0  -7  -3 3062.16 106.980   1
   0   7  -3 2955.24 100.380   1
   0  -7   3 2706.90 100.170   1
   2 -14  -1 1571.19 70.3800   1
  -2  14   1 1453.27 63.6500   1
  -2 -14   1 1849.60 71.0600   1
   2  14  -1 1749.46 64.2500   1
   2 -14  -1 1501.60 75.3800   1
   2  14  -1 1779.85 68.2500   1
  -2 -14   1 1440.97 57.8700   1
  -2 -14   1 1534.87 60.8800   1
   2  14  -1 1509.81 61.2600   1
   2  13  -2 506.000 28.4000   1
   2 -13  -2 458.380 42.0700   1
  -2 -13   2 444.150 26.8800   1
   2  13  -2 482.630 31.5200   1
  -2  13   2 524.410 27.7400   1
   2  13  -2 490.060 23.5300   1
  -2 -13   2 452.490 28.6300   1
  -2 -13   2 521.170 29.9100   1
   2  13  -2 496.490 27.9900   1
   2 -13  -2 494.840 28.7700   1
   2 -13  -2 508.520 38.5700   1
  -2  13   2 479.870 27.8400   1
   2  10   1 2599.45 89.0500   1
  -2 -10  -1 2512.30 89.5500   1
   2 -10   1 2848.68 111.730   1
  -2  10  -1 2508.75 97.1400   1
   2  10   1 2759.96 95.1200   1
   2  10   1 2707.41 97.1800   1
  -2  10  -1 2717.19 104.150   1
  -2 -10  -1 2831.54 96.5200   1
   2  10   1 2634.92 94.6300   1
   1 -10  -3 3368.27 159.920   1
   1 -10  -3 3678.17 127.430   1
  -1  10   3 3936.13 134.400   1
   1 -10  -3 3098.55 108.150   1
   1 -10  -3 3919.25 133.610   1
  -1 -10   3 3774.01 136.640   1
   1  10  -3 3522.83 119.980   1
  -1 -10   3 4115.45 137.590   1
   1  10  -3 3516.28 116.540   1
   1  10  -3 3527.69 133.520   1
   0 -16   1 454.200 32.1700   1
   0 -16   1 483.180 47.8900   1
   0  16  -1 430.460 26.2500   1
   0  16   1 466.760 30.2300   1
   0 -16   1 485.420 26.5700   1
   0 -16  -1 435.130 24.8700   1
   0  16  -1 478.920 25.1000   1
   0  16   1 486.020 26.5500   1
   0 -16   1 444.260 27.0800   1
   0 -16  -1 457.220 25.3500   1
   0 -16   1 423.970 34.7800   1
   0  16   1 454.620 34.3300   1
   0  16  -1 472.690 38.1300   1
   1  16   0 131.230 15.8900   1
  -1 -16   0 108.270 15.6700   1
   1  16   0 122.500 17.2600   1
   1 -16   0 114.490 32.8100   1
  -1  16   0 117.040 17.8100   1
   1 -16   0 109.150 26.8300   1
   1  16   0 110.500 22.8800   1
   1 -16   0 117.900 16.0400   1
  -1 -16   0 128.090 12.3500   1
   1  16   0 142.680 13.9500   1
  -1 -16   0 106.710 11.2100   1
   1 -16  -1 244.080 19.8900   1
  -1  16   1 221.990 23.3400   1
   1  16  -1 254.260 24.6000   1
   1 -16  -1 188.570 24.8500   1
   1  16  -1 224.170 38.1500   1
   1  16  -1 188.640 21.1500   1
  -1 -16   1 230.610 22.4200   1
  -1 -16   1 217.410 16.2100   1
   1  16  -1 227.680 17.1800   1
   1  16  -1 202.090 17.6500   1
  -1 -16   1 251.270 16.6900   1
   3   6  -3 181.820 19.7000   1
   3  -6  -3 180.200 14.0600   1
   3   6  -3 201.780 17.1100   1
  -3  -6   3 171.110 16.5500   1
  -3   6   3 193.920 14.1400   1
   3   6  -3 197.520 14.7600   1
   3  -6  -3 210.470 16.0700   1
   3   6  -3 190.140 21.7700   1
   3  -6  -3 185.650 27.8000   1
  -3  -6   3 209.040 37.1100   1
   2 -10  -3 266.840 28.9800   1
   2 -10  -3 236.410 15.2200   1
   2 -10  -3 164.300 47.8300   1
   2 -10  -3 233.750 18.0800   1
  -2  10   3 256.710 19.5500   1
   2  10  -3 246.170 16.7200   1
   2  10  -3 218.850 25.1200   1
   2  10  -3 246.490 26.4100   1
   2  10  -3 218.470 23.7600   1
  -2 -10   3 309.900 22.9900   1
   2  10  -3 234.970 17.2600   1
  -2 -10   3 198.110 15.4500   1
   3   7   0 246.440 20.4700   1
  -3  -7   0 169.600 13.3100   1
   3  -7   0 231.250 23.1700   1
  -3   7   0 188.400 20.1700   1
  -3  -7   0 207.160 20.6700   1
  -3   7   0 212.560 24.5000   1
   3   7   0 241.170 22.5800   1
   3   7   0 225.680 24.1500   1
   3  -7   0 199.210 23.8300   1
  -3  -7   0 219.960 24.7900   1
   3   7   0 189.480 18.3700   1
   0  17   0 6.89000 10.6900   1
   0 -17   0 6.99000 14.9300   1
   0  17   0 -14.800 21.6700   1
   0 -17   0 33.5800 17.0500   1
   0 -17   0 0.48000 8.19000   1
   0  17   0 6.24000 7.71000   1
   3  10  -1 3581.53 126.640   1
   3  10  -1 4017.86 142.660   1
   3  10  -1 3680.36 126.480   1
   3  10  -1 3377.95 110.200   1
  -3 -10   1 4067.54 138.080   1
  -3  10   1 3589.29 139.320   1
  -3  10   1 3700.68 129.600   1
   3 -10  -1 3388.33 122.660   1
   3 -10  -1 3887.75 140.140   1
   0   8  -3 551.780 28.0300   1
   0   8   3 590.050 34.5800   1
   0  -8  -3 573.810 31.3600   1
   0   8   3 517.690 31.3200   1
   0   8  -3 468.420 30.5200   1
   0  -8   3 590.600 42.6700   1
   0  -8   3 512.480 44.3800   1
   0  -8  -3 507.970 26.5800   1
   0   8   3 480.040 25.9800   1
   0  -8  -3 543.320 32.4600   1
   0   8   3 491.510 30.5800   1
   0  -8   3 545.930 33.8600   1
   0   8   3 554.810 43.0700   1
  -3 -10   2 1619.55 61.4100   1
   3  10  -2 1845.31 70.8400   1
  -3 -10   2 1862.40 70.6500   1
   3  10  -2 1836.92 73.4300   1
   3  10  -2 1803.52 73.6900   1
   3  10  -2 1773.99 64.3500   1
   3 -10  -2 1976.89 78.2000   1
  -3  10   2 1770.41 67.2900   1
   3 -10  -2 1545.33 76.6500   1
  -3  10   2 1716.11 64.5400   1
   3   7  -3 2061.41 71.2400   1
  -3   7   3 1836.74 65.9500   1
   3   7  -3 1784.26 67.7000   1
   3   7  -3 1882.53 72.2800   1
   3  -7  -3 1783.99 83.4200   1
   3   7  -3 1644.35 72.6100   1
   3  -7  -3 2180.30 78.7800   1
  -3  -7   3 2242.35 94.4200   1
   3  -7  -3 2160.35 74.1600   1
   0 -14  -2 444.010 24.7300   1
   0 -14  -2 425.300 24.4900   1
   0 -14   2 391.370 23.5700   1
   0  14   2 428.910 28.6400   1
   0 -14   2 441.490 48.6100   1
   0  14   2 465.410 27.0100   1
   0  14  -2 392.590 29.0300   1
   0 -14   2 396.590 31.2400   1
   1  11   2 99.0700 23.1400   1
  -1 -11  -2 96.8400 12.3700   1
   1 -11   2 111.530 24.1400   1
  -1  11  -2 90.9900 15.2500   1
   1 -11   2 101.920 11.9800   1
  -1 -11  -2 106.310 16.0200   1
  -1 -11  -2 90.0100 17.3800   1
   1  11   2 90.0800 13.2200   1
   1  11   2 115.250 17.0900   1
  -1 -15  -1 87.5900 11.0900   1
   1 -15   1 102.040 23.2200   1
  -1  15  -1 100.000 18.5300   1
   1  15   1 104.990 12.9300   1
  -1 -15  -1 85.4800 14.8800   1
   1 -15   1 92.0900 14.4500   1
   1 -15   1 108.330 16.4200   1
   1  15   1 94.4900 16.7600   1
  -1 -15  -1 75.6600 18.1200   1
   1  15   1 105.700 12.7400   1
  -2 -11  -1 27.8300 9.76000   1
   2  11   1 31.9300 9.45000   1
  -2 -11  -1 25.9600 15.0100   1
   2  11   1 40.1800 16.6000   1
   2  11   1 53.6700 23.8600   1
   2  11   1 41.9600 11.3900   1
   2 -11   1 26.3600 11.2300   1
  -2  11  -1 18.3600 24.4300   1
   2 -11   1 42.8200 20.2400   1
  -2  11  -1 43.8100 14.4700   1
   1 -11  -3 721.280 38.4100   1
   1 -11  -3 635.140 31.2100   1
   1 -11  -3 735.610 38.8200   1
   1  11  -3 692.060 46.0100   1
   1  11  -3 784.620 45.4000   1
   1  11  -3 766.410 35.9900   1
   1  11  -3 720.060 35.2700   1
  -1 -11   3 762.390 43.7200   1
  -1 -11   3 753.700 35.8100   1
   2  14   0 744.070 32.8400   1
   2  14   0 854.970 45.6500   1
  -2 -14   0 692.530 33.7900   1
  -2 -14   0 679.870 33.1900   1
   2  14   0 704.840 34.3700   1
  -2 -14   0 758.050 35.7600   1
  -2  14   0 701.240 37.1800   1
   2 -14   0 794.150 51.1700   1
   2 -14   0 748.180 44.0800   1
  -2  14   0 698.430 47.8900   1
   3   8   0 -3.9000 21.2800   1
   3   8   0 3.00000 14.3700   1
  -3  -8   0 -15.440 19.0300   1
  -3   8   0 4.95000 15.9300   1
   3  -8   0 -23.090 16.0600   1
  -3  -8   0 -6.5000 11.1200   1
  -3  -8   0 19.0100 14.1200   1
   3  -8   0 16.0500 13.2200   1
   3  -8   0 1.34000 13.5400   1
  -3   8   0 -54.910 27.5700   1
   1 -15  -2 67.9700 13.0600   1
   1  15  -2 69.9800 27.8600   1
  -1  15   2 70.3900 14.1100   1
  -1 -15   2 107.890 20.1900   1
  -1 -15   2 100.190 14.4700   1
   1  15  -2 74.9200 15.1400   1
   1 -15  -2 72.6600 18.1300   1
   1  15  -2 85.0400 13.3000   1
   2   0   2 8980.01 288.910   1
  -2   0  -2 8473.37 271.100   1
  -2   0  -2 7475.87 242.890   1
  -2   0  -2 9309.08 289.440   1
   2   0   2 7676.19 238.040   1
  -2  -1  -2 192.700 24.9900   1
  -2   1  -2 213.520 18.8600   1
  -2  -1  -2 198.830 17.2100   1
   2   1   2 207.530 26.0000   1
  -2   1  -2 242.890 25.5500   1
  -2  -1  -2 204.340 19.7900   1
   2  -1   2 242.050 18.7500   1
   2   1   2 180.980 16.0800   1
   2  -1   2 249.520 40.1600   1
   2   1   2 265.790 28.7300   1
  -2   1  -2 290.960 22.7700   1
  -2 -14   2 454.450 34.0700   1
  -2 -14   2 598.350 30.6000   1
   2  14  -2 545.250 29.4900   1
  -2 -14   2 572.600 33.3800   1
   2  14  -2 650.050 30.8000   1
   2  14  -2 632.250 30.5500   1
  -2 -14   2 514.210 27.4400   1
   2 -14  -2 512.820 50.6200   1
  -2  14   2 578.150 29.3500   1
  -2  14   2 579.570 30.4700   1
   2 -14  -2 581.600 37.9000   1
   2 -14  -2 588.240 31.5400   1
  -2 -15   1 193.090 18.4200   1
   2 -15  -1 152.500 34.7700   1
  -2 -15   1 160.880 16.1800   1
   2  15  -1 183.610 14.0900   1
  -2  15   1 184.940 20.8200   1
   2 -15  -1 184.360 28.2100   1
   2 -15  -1 181.460 18.5100   1
  -2 -15   1 177.770 17.6400   1
   2  15  -1 179.970 14.9100   1
   0  -9  -3 1413.88 52.9900   1
   0  -9   3 1136.93 60.9300   1
   0   9  -3 1481.91 60.6000   1
   0   9   3 1426.22 61.2900   1
   0  -9   3 1447.82 65.3600   1
   0  -9   3 1613.69 82.9000   1
   0   9   3 1501.42 64.2800   1
   0  -9  -3 1390.27 58.3900   1
   0  -9  -3 1183.60 50.6400   1
   0  -9   3 1340.93 54.2600   1
   0   9   3 1297.56 57.5400   1
  -2   2  -2 4077.10 147.520   1
  -2  -2  -2 4548.35 150.570   1
  -2  -2  -2 4655.67 153.120   1
   2  -2   2 4048.41 131.900   1
   2   2   2 4539.51 151.680   1
   2  -2   2 4740.61 159.730   1
   2   2   2 4216.53 137.650   1
  -2   2  -2 4115.28 146.650   1
  -2  11   3 1954.55 75.1300   1
   2 -11  -3 2011.63 77.4000   1
   2 -11  -3 1766.12 65.6100   1
   2  11  -3 1800.04 67.4500   1
  -2 -11   3 1631.38 64.1000   1
   2  11  -3 1845.22 69.2500   1
   2  11  -3 1673.87 74.8200   1
  -3  -8   3 1430.61 69.7800   1
   3   8  -3 1299.20 58.8200   1
   3  -8  -3 1166.05 48.6000   1
   3  -8  -3 1163.48 44.9700   1
  -3   8   3 1206.39 49.9500   1
   3   8  -3 1286.39 48.0400   1
   3   8  -3 1245.69 56.2400   1
   3   8  -3 1163.92 57.4800   1
   3   8  -3 1264.86 60.7000   1
  -3 -11   1 50.4400 12.6400   1
  -3 -11   1 45.3400 14.5400   1
   3  11  -1 47.2700 15.0600   1
   3  11  -1 44.5400 9.98000   1
   3  11  -1 31.7300 15.5400   1
  -3  11   1 76.2500 15.8600   1
   3 -11  -1 34.9400 17.0900   1
  -3  11   1 52.4700 27.2200   1
   3 -11  -1 77.4600 17.6600   1
  -2  -3  -2 243.570 17.4200   1
   2  -3   2 263.970 18.6800   1
   2  -3   2 298.540 26.8400   1
   2   3   2 239.650 21.4900   1
  -2  -3  -2 242.880 17.5400   1
   2   3   2 255.030 22.2600   1
   2   3   2 216.270 17.0800   1
  -2   3  -2 279.970 21.3900   1
   0 -17   1 1084.05 68.1600   1
   0 -17   1 1149.78 60.5000   1
   0  17   1 1038.22 54.6800   1
   0  17   1 919.660 48.9000   1
   0 -17   1 1126.15 48.4500   1
   0 -17   1 1090.85 73.2200   1
   0 -17   1 1013.67 45.0000   1
   0 -17  -1 1132.60 49.1500   1
   0 -17  -1 1037.94 48.9100   1
   0  17  -1 978.720 49.6700   1
   0  17  -1 1163.10 49.1900   1
   0  17   1 999.460 41.4600   1
   3  11  -2 622.710 29.9100   1
  -3 -11   2 559.090 30.2100   1
   3  11  -2 595.860 33.8100   1
   3  11  -2 599.200 34.8900   1
   3 -11  -2 625.870 35.2300   1
  -3  11   2 533.480 28.2900   1
  -3  11   2 555.420 27.5800   1
   1 -17   0 11.7200 21.1100   1
  -1 -17   0 21.3900 9.71000   1
  -1 -17   0 14.5600 13.2800   1
   1 -17   0 6.99000 17.4800   1
   1  17   0 -12.790 24.9100   1
  -1 -17   0 13.8200 12.1100   1
   1 -17   0 9.63000 17.4600   1
   1  17   0 19.0600 18.4500   1
   1  17   0 17.5600 7.64000   1
   1  17   0 11.4200 9.22000   1
  -1  17   0 7.84000 19.0500   1
   2   0  -4 299.880 21.3600   1
   2   0  -4 263.320 23.6700   1
  -2   0   4 257.610 20.6900   1
   2   0  -4 262.650 19.1200   1
  -1 -17   1 1171.09 47.8600   1
   1  17  -1 1161.01 78.2800   1
  -1  17   1 1003.14 51.1000   1
   1  17  -1 1022.37 61.5800   1
   1 -17  -1 1047.74 65.2900   1
   1 -17  -1 1198.39 58.2600   1
  -1 -17   1 1152.91 50.4900   1
   1  17  -1 1145.28 46.2500   1
   1  17  -1 1038.16 48.3400   1
  -2   1   4 33.5000 13.1100   1
   2  -1  -4 34.0000 9.60000   1
   2   1  -4 25.3500 9.18000   1
   2   1  -4 48.2800 22.5900   1
   2  -1  -4 40.8300 14.4400   1
   2  -1  -4 49.4500 12.8700   1
   2   1  -4 18.5100 14.4800   1
  -2  -1   4 28.9500 12.9900   1
   2   2  -4 413.020 24.9700   1
   2   2  -4 385.670 35.6300   1
   2  -2  -4 427.380 23.3600   1
  -2  -2   4 350.490 23.5000   1
  -2   2   4 370.400 24.4300   1
   2  -2  -4 380.680 26.8000   1
   2   2  -4 398.560 29.9500   1
   2  -2  -4 413.570 33.3500   1
   2   2  -4 426.880 31.2100   1
   2   2  -4 418.070 23.5700   1
   3   9   0 615.640 37.3000   1
   3   9   0 557.910 26.9000   1
  -3   9   0 527.910 32.0400   1
   3  -9   0 545.230 36.8100   1
  -3  -9   0 534.670 30.0800   1
  -3  -9   0 672.280 37.5500   1
   3  -9   0 555.800 33.9900   1
   3  -9   0 503.910 34.7700   1
  -3   9   0 555.130 40.2500   1
  -1  12  -2 1040.21 55.8900   1
   1 -12   2 1023.76 44.0100   1
  -1 -12  -2 1038.67 41.2800   1
  -1 -12  -2 1045.61 44.7300   1
  -1 -12  -2 1096.61 46.2300   1
   1 -12   2 1072.64 47.3700   1
   1 -12   2 1130.63 54.0700   1
   1  12   2 1234.48 51.9700   1
   1  12   2 1082.33 49.3300   1
   1  12   2 1002.11 47.6900   1
   2   4   2 1958.55 74.0200   1
  -2  -4  -2 1965.33 72.5300   1
   2  -4   2 1858.11 66.6300   1
  -2   4  -2 2191.43 82.9300   1
  -2  -4  -2 2183.82 79.0500   1
   2  -4   2 2040.99 86.9900   1
   2   4   2 1994.45 78.9800   1
   0  18   0 921.650 56.4500   1
   0 -18   0 828.570 39.3500   1
   0  18   0 911.020 39.6200   1
   0 -18   0 946.010 41.0700   1
   2  12   1 596.660 37.3300   1
  -2  12  -1 458.860 31.5700   1
   2 -12   1 602.730 36.5500   1
   2  12   1 632.850 30.3100   1
   2  12   1 547.490 32.7700   1
  -2 -12  -1 616.490 31.4400   1
   2 -12   1 436.130 31.1900   1
  -2 -12  -1 485.310 25.8200   1
   2   3  -4 1258.25 66.9700   1
  -2   3   4 1143.47 50.5700   1
   2   3  -4 1314.07 54.9900   1
  -2  -3   4 1155.14 47.9400   1
   2  -3  -4 1266.29 53.3200   1
  -2   3   4 1400.85 62.5400   1
   2   3  -4 1284.80 60.9400   1
   2   3  -4 1302.41 51.6400   1
   2  -3  -4 1235.23 58.3500   1
   2   3  -4 1249.56 65.7900   1
   1 -12  -3 1746.46 66.9800   1
   1 -12  -3 1931.10 73.8600   1
   1 -12  -3 2076.96 78.2600   1
   1  12  -3 1978.82 78.8200   1
  -1 -12   3 2140.23 81.0600   1
   1  12  -3 1968.21 70.3600   1
  -1 -12   3 2124.96 94.4800   1
   0 -15  -2 1638.57 60.9800   1
   0  15   2 1602.91 69.7100   1
   0  15   2 1579.17 81.0500   1
   0  15   2 1742.67 69.0600   1
   0 -15  -2 1899.33 77.2100   1
   0 -15   2 1668.64 64.7900   1
   0 -15   2 1651.55 83.2000   1
   0 -15   2 1954.91 85.8400   1
   0  15  -2 1703.37 64.8700   1
  -1   0  -3 2550.97 91.7800   1
  -1   0  -3 2225.03 97.6300   1
  -1   0  -3 2252.22 88.2900   1
   1   0   3 2632.65 103.200   1
   1   0   3 2278.48 79.7700   1
   0  10   3 377.610 28.3500   1
   0  10   3 346.620 21.6400   1
   0 -10  -3 379.170 23.4400   1
   0 -10  -3 384.670 22.7400   1
   0 -10  -3 378.960 19.5400   1
   0  10   3 422.720 27.6800   1
   0 -10   3 360.660 24.4100   1
   0 -10   3 381.250 41.8500   1
   0 -10   3 346.420 30.2000   1
   0  10  -3 370.180 26.2600   1
   1   1   3 9.04000 15.0000   1
  -1   1  -3 39.3800 17.0400   1
  -1  -1  -3 23.6700 12.9800   1
  -1   1  -3 20.7300 12.2500   1
  -1  -1  -3 29.7600 10.0300   1
   1  -1   3 19.8500 10.5000   1
   1   1   3 18.7500 8.72000   1
  -1   1  -3 42.8100 13.6200   1
  -1  -1  -3 10.6600 16.6800   1
   3   9  -3 1492.69 50.1100   1
   3  -9  -3 1759.65 55.0200   1
   3   9  -3 1739.09 67.4700   1
  -3  -9   3 1752.63 74.3500   1
   3   9  -3 1676.19 74.6700   1
  -3   9   3 1504.44 53.0200   1
   3   9  -3 1543.85 57.0300   1
   3  -9  -3 1688.43 58.5900   1
   2   5   2 49.6400 15.5500   1
  -2   5  -2 47.9600 14.4600   1
  -2  -5  -2 50.3800 12.1500   1
   2  -5   2 40.6200 11.4100   1
   2   5   2 46.9200 17.0000   1
   2  -5   2 18.2400 27.0200   1
  -2  -5  -2 45.5000 12.3300   1
   2   5   2 47.4300 19.9100   1
  -1  -2  -3 1550.69 61.0500   1
  -1   2  -3 1639.91 60.8400   1
  -1   2  -3 1737.03 54.5200   1
   1   2   3 1803.68 64.1300   1
  -1  -2  -3 1681.15 54.4600   1
  -1  -2  -3 1516.53 57.5700   1
   1   2   3 1508.90 49.6600   1
  -1   2  -3 1521.46 60.2500   1
   1   2   3 1673.97 61.5400   1
   1  -2   3 1837.74 69.6900   1
   1  -2   3 1469.29 50.8500   1
  -2 -15   0 2768.91 84.3500   1
   2  15   0 2715.09 91.5700   1
  -2 -15   0 2871.01 84.4400   1
   2  15   0 2734.75 79.3200   1
   2  15   0 2518.12 72.8000   1
  -2  15   0 2642.43 89.4100   1
   2 -15   0 2807.86 101.480   1
   2 -15   0 2652.07 93.0500   1
  -2  15   0 2950.31 113.600   1
  -4   0   2 83.1100 27.3800   1
   4   0  -2 85.1700 16.0300   1
  -4   0   2 77.2700 19.1300   1
   4   0  -2 62.8000 12.1900   1
   2 -12  -3 1136.40 47.8800   1
   2 -12  -3 937.670 39.0300   1
  -2  12   3 1167.72 45.3000   1
   2  12  -3 841.680 48.3300   1
   2  12  -3 1086.55 40.4900   1
   2  12  -3 1076.45 41.6700   1
  -2 -12   3 1263.19 51.4800   1
   2  -4  -4 102.530 12.3300   1
   2   4  -4 110.380 17.0000   1
  -2   4   4 84.4700 10.9500   1
   2   4  -4 91.6200 11.6700   1
   2   4  -4 99.5000 19.8800   1
   2  -4  -4 103.850 19.1000   1
   2   4  -4 88.0500 13.8600   1
  -2   4   4 85.8200 14.9600   1
   2  -4  -4 97.0300 12.6000   1
  -1 -16  -1 81.7900 11.0700   1
  -1 -16  -1 105.870 19.2800   1
   1  16   1 72.7900 16.5000   1
   1 -16   1 114.640 20.4400   1
  -1  16  -1 87.4200 22.5700   1
   1 -16   1 100.760 18.4900   1
  -1 -16  -1 95.1800 15.3200   1
   1 -16   1 68.7400 22.0200   1
   1  16   1 93.5900 15.2800   1
   1  16   1 99.2200 12.2700   1
  -4   1   2 3.82000 11.6500   1
   4   1  -2 17.1100 14.8900   1
   4  -1  -2 4.70000 15.2100   1
   4   1  -2 10.7800 10.7600   1
   4  -1  -2 19.3500 14.9700   1
  -4  -1   2 28.4800 26.7800   1
  -4   1   2 17.7000 21.0800   1
  -4  -1   2 15.1100 12.7500   1
   1   0  -4 21.7800 13.3500   1
   1   0  -4 27.8600 11.7100   1
   1   0  -4 11.6000 12.8500   1
  -1   0   4 32.0600 21.2100   1
   1   0  -4 11.5800 8.81000   1
  -1   1   4 1035.97 53.4800   1
   1   1  -4 961.160 41.0600   1
   1   1  -4 991.180 45.6100   1
   1   1  -4 1001.14 50.2300   1
   1  -1  -4 960.380 43.0300   1
   1  -1  -4 955.410 50.4500   1
  -1  -1   4 1087.62 48.5600   1
   1  -1  -4 1016.49 43.5700   1
   1   1  -4 1102.72 41.9800   1
   1  -1  -4 1020.69 38.1800   1
   1 -16  -2 2292.55 75.7800   1
  -1  16   2 2096.79 84.4700   1
   1 -16  -2 2029.56 66.7300   1
   1  16  -2 2207.38 71.8000   1
   1  16  -2 2276.46 69.2400   1
  -1 -16   2 2444.12 78.4900   1
  -1 -16   2 2219.83 78.6400   1
   2 -15  -2 5.33000 15.6400   1
  -2  15   2 9.90000 9.72000   1
   2  15  -2 4.45000 12.4400   1
  -2 -15   2 -3.4600 15.2800   1
   2 -15  -2 -3.9800 15.8100   1
  -2 -15   2 -9.7600 12.6800   1
  -2 -15   2 6.26000 12.3000   1
  -2  15   2 -1.1900 7.27000   1
   2  15  -2 9.72000 8.36000   1
  -2 -15   2 4.74000 11.0100   1
   3  12  -1 2687.20 74.2500   1
   3  12  -1 2897.70 89.2500   1
  -3 -12   1 3153.97 95.7900   1
   3  12  -1 2863.44 88.8500   1
   3 -12  -1 3225.74 104.700   1
  -3  12   1 2971.08 91.3700   1
  -3  12   1 3091.82 105.380   1
  -4   2   2 97.2600 23.5100   1
   4   2  -2 120.510 20.2000   1
  -4   2   2 95.3100 15.3700   1
  -4  -2   2 147.480 17.6100   1
  -4  -2   2 177.150 27.8100   1
   4  -2  -2 87.0200 15.9200   1
   4  -2  -2 112.470 17.2400   1
   4   2  -2 124.330 13.5900   1
   4   2  -2 126.460 13.8900   1
   1  -3   3 141.900 22.6900   1
   1   3   3 160.710 17.0300   1
   1   3   3 105.540 11.6300   1
  -1  -3  -3 149.160 13.7600   1
  -1   3  -3 149.870 15.9800   1
  -1  -3  -3 121.500 21.9000   1
   1   3   3 132.380 19.9600   1
   1   3   3 125.840 17.8000   1
  -1   3  -3 134.480 20.1700   1
   1  -3   3 139.150 14.3400   1
  -1  -3  -3 135.130 18.7700   1
  -1   3  -3 148.780 22.1500   1
  -3   0  -1 97.5200 23.2500   1
   3   0   1 139.920 24.3400   1
   1   2  -4 405.740 23.1100   1
   1  -2  -4 389.250 21.4000   1
   1  -2  -4 375.240 22.2900   1
   1   2  -4 361.030 20.0500   1
  -1  -2   4 419.890 33.9400   1
   1  -2  -4 384.810 24.5800   1
   1   2  -4 392.730 26.9100   1
  -1   2   4 478.340 29.0500   1
   1  -2  -4 357.100 25.3100   1
   1   2  -4 314.500 27.7200   1
  -1   2   4 387.140 31.3900   1
   3  12  -2 1173.67 48.9400   1
   3  12  -2 1242.68 41.5800   1
   3  12  -2 1236.40 49.9600   1
  -3  12   2 1182.87 45.3700   1
   3 -12  -2 1253.75 54.7400   1
   3   1   1 93.6100 24.2000   1
   3   1   1 60.9500 15.9600   1
   3  -1   1 94.7200 23.1100   1
  -3  -1  -1 84.5100 21.7700   1
  -3   1  -1 67.5300 20.9900   1
  -2 -16   1 5337.35 144.700   1
  -2 -16   1 4692.61 127.460   1
   2  16  -1 6001.11 298.150   1
   2  16  -1 5804.04 291.670   1
  -2 -16   1 4497.83 124.220   1
   2 -16  -1 5175.49 165.890   1
  -2  16   1 5165.97 143.620   1
   2 -16  -1 5290.86 154.910   1
   2 -16  -1 5465.53 275.950   1
  -3 -10   0 100.150 11.2800   1
  -3 -10   0 86.4400 15.8500   1
   3  10   0 146.490 25.4400   1
   3  10   0 124.540 14.2500   1
   3 -10   0 107.330 25.5500   1
   3 -10   0 123.560 21.7500   1
  -3  10   0 94.8800 22.8000   1
   3 -10   0 119.900 16.2500   1
  -4  -3   2 245.830 23.4300   1
   4   3  -2 274.880 20.2400   1
   4  -3  -2 257.570 17.8600   1
   4   3  -2 227.800 18.8700   1
   4   3  -2 249.700 20.5900   1
  -4   3   2 241.920 23.3600   1
  -4  -3   2 241.970 23.2200   1
  -4   3   2 225.290 33.1100   1
   2   6   2 9.42000 14.8700   1
  -2  -6  -2 0.07000 12.5700   1
   2   6   2 -2.4400 12.9200   1
   2  -6   2 -3.2500 26.7400   1
   2   6   2 -22.250 14.9100   1
   2  -6   2 2.86000 7.40000   1
  -2   6  -2 8.94000 17.5300   1
  -2  -6  -2 7.53000 13.9500   1
   2  -5  -4 575.260 35.1400   1
   2   5  -4 584.740 36.8600   1
   2  -5  -4 593.040 33.0600   1
   2   5  -4 573.350 26.0300   1
   2   5  -4 583.710 29.1400   1
  -2   5   4 578.890 31.8000   1
   2  -5  -4 616.110 28.9500   1
  -3  -2  -1 665.850 35.2300   1
  -3   2  -1 634.510 33.8300   1
   3  -2   1 642.750 32.3500   1
   3   2   1 681.350 31.9300   1
   3   2   1 827.860 39.5200   1
   1   3  -4 2725.48 79.3700   1
   1  -3  -4 2900.24 103.390   1
  -1   3   4 3282.96 105.770   1
   1  -3  -4 3056.85 104.440   1
   1   3  -4 2594.92 87.4200   1
  -1   3   4 2760.49 94.9500   1
   1   3  -4 2672.43 85.7900   1
  -1  -3   4 2839.55 93.8000   1
   1   3  -4 3151.30 87.7000   1
   1  -3  -4 3152.39 98.2800   1
   1  -3  -4 2901.32 88.1200   1
  -1  -4  -3 1566.68 52.4000   1
   1   4   3 1608.89 61.4300   1
   1  -4   3 1703.26 64.5300   1
   1   4   3 1680.41 63.8800   1
  -1  -4  -3 1427.90 53.4000   1
  -1   4  -3 1431.10 54.4500   1
   1   4   3 1594.56 58.0300   1
  -1  -4  -3 1530.04 61.0100   1
  -1   4  -3 1707.25 56.8300   1
  -1 -13  -2 255.850 18.9800   1
   1 -13   2 211.560 16.1900   1
  -1  13  -2 276.810 26.0700   1
   1  13   2 209.910 15.5400   1
   1 -13   2 233.640 23.3600   1
   1  13   2 186.970 15.8200   1
   1 -13   2 233.940 36.0900   1
  -1 -13  -2 219.910 16.1100   1
  -1 -13  -2 207.560 17.4600   1
   1  13   2 195.710 24.9700   1
  -3   3  -1 46.9000 24.6800   1
  -3  -3  -1 80.4700 16.1000   1
  -3   3  -1 100.330 18.2700   1
   3   3   1 78.8600 23.0300   1
   3   3   1 48.7000 15.2400   1
   3  -3   1 67.3100 18.0500   1
   4   4  -2 304.860 21.8900   1
   4   4  -2 332.510 18.8000   1
   4  -4  -2 300.070 19.5200   1
   4   4  -2 324.130 18.0000   1
  -4   4   2 329.340 26.3900   1
  -4   4   2 286.290 40.2000   1
  -4  -4   2 295.990 23.5400   1
  -4  -4   2 308.760 25.2600   1
   3 -10  -3 693.780 28.3100   1
  -3  10   3 671.590 30.9400   1
   3 -10  -3 735.720 33.4900   1
   3  10  -3 674.670 34.2700   1
   3  10  -3 685.430 35.7900   1
   3  10  -3 661.090 27.4000   1
  -3 -10   3 896.580 49.2900   1
   3  10  -3 695.230 37.6200   1
   0 -11  -3 80.3500 11.9400   1
   0  11  -3 73.0700 14.5000   1
   0 -11  -3 106.210 12.9000   1
   0 -11   3 125.970 44.3500   1
   0  11   3 80.7600 15.8500   1
   0  11   3 86.9500 14.2200   1
   0 -11   3 85.6200 15.0000   1
   0  11   3 98.1800 17.3100   1
   0 -11   3 113.290 31.7100   1
   0  11  -3 76.8700 13.8600   1
   2  13   1 482.090 33.0500   1
  -2 -13  -1 443.100 21.1800   1
  -2 -13  -1 359.750 19.9100   1
   2 -13   1 432.370 37.5600   1
   2  13   1 433.930 21.7800   1
  -2 -13  -1 398.190 24.5200   1
  -2  13  -1 467.900 36.1200   1
   2 -13   1 332.220 26.2700   1
   0  18   1 3.61000 7.98000   1
   0 -18  -1 1.92000 9.08000   1
   0 -18   1 -2.2700 7.64000   1
   0 -18   1 -4.5900 21.2800   1
   0 -18   1 -30.600 33.1100   1
   0  18  -1 28.4400 21.6000   1
   0  18   1 10.0100 13.4500   1
   0 -18   1 -6.6100 23.9700   1
   0 -18   1 3.87000 11.5400   1
   0 -18  -1 0.38000 11.9900   1
   0  18  -1 3.28000 12.2100   1
  -1  -4   4 1432.81 57.5200   1
  -1   4   4 1501.30 62.2800   1
   1   4  -4 1275.87 58.8300   1
   1  -4  -4 1393.36 56.5400   1
   1   4  -4 1317.64 50.9100   1
   1   4  -4 1625.56 53.0000   1
   1  -4  -4 1471.33 58.5900   1
   1   4  -4 1413.38 48.0000   1
  -1  -4   4 1452.71 58.8900   1
  -1   4   4 1513.12 57.0000   1
   1  -4  -4 1465.64 47.8600   1
   1 -13  -3 941.510 42.8900   1
   1 -13  -3 716.620 42.2300   1
   1 -13  -3 970.670 38.7500   1
  -1 -13   3 902.110 44.3400   1
   1  13  -3 926.660 37.4600   1
  -1 -13   3 866.560 36.2800   1
   1  13  -3 923.290 42.1600   1
   1  18   0 50.6400 19.3100   1
   1  18   0 64.4400 29.8000   1
   1 -18   0 53.8300 14.0600   1
  -1 -18   0 42.1300 11.1900   1
   1 -18   0 39.0800 27.2600   1
  -1 -18   0 58.4000 12.6900   1
   1  18   0 52.3700 10.3600   1
  -1 -18   0 67.2800 19.8700   1
   1  18   0 46.2900 10.2600   1
  -1  18   0 35.2900 19.3000   1
   1 -18   0 73.3300 18.7300   1
  -1  18   1 44.7600 9.95000   1
   1  18  -1 18.9000 11.9700   1
  -1 -18   1 38.5500 9.77000   1
   1  18  -1 45.8600 23.6600   1
   1 -18  -1 26.7000 19.4200   1
  -1  18   1 41.8100 18.3900   1
   1 -18  -1 37.5700 18.2600   1
  -1 -18   1 67.1700 18.5600   1
  -3   0   4 4.41000 12.9100   1
   3   0  -4 17.4300 19.6100   1
   3   0  -4 18.8200 9.46000   1
   3   0  -4 10.0600 26.8800   1
  -1  -5  -3 163.640 20.8900   1
   1  -5   3 269.380 33.6800   1
   1   5   3 229.290 24.3600   1
  -1  -5  -3 188.610 16.6700   1
  -1   5  -3 182.780 21.2000   1
   1   5   3 181.780 18.5700   1
  -1  -5  -3 158.950 16.4700   1
  -1   5  -3 223.710 17.7000   1
   1  -5   3 182.810 14.4800   1
   1   5   3 205.010 18.5400   1
   2  -6  -4 106.650 18.5400   1
  -2   6   4 114.540 15.5100   1
   2  -6  -4 125.100 13.0600   1
   2   6  -4 94.9700 19.6800   1
   2   6  -4 97.9100 12.9000   1
   2   6  -4 109.220 13.7400   1
   2  -6  -4 106.470 12.7300   1
   3   1  -4 2415.79 72.2200   1
  -3   1   4 2086.84 65.6200   1
   3   1  -4 2143.19 76.0000   1
   3  -1  -4 2338.35 70.8800   1
   3   1  -4 2283.99 79.4000   1
   3  -1  -4 2348.00 81.3400   1
   3   1  -4 2161.72 94.9100   1
   3  -1  -4 1943.74 84.2300   1
   4   0  -1 18.3100 12.5900   1
  -4   0   1 33.6800 21.9900   1
  -4   0   1 23.3600 18.9900   1
   3  -4   1 259.890 28.6400   1
   3   4   1 294.460 27.5700   1
   3   4   1 327.470 25.2100   1
  -3   4  -1 337.360 27.5300   1
  -3   4  -1 260.920 23.4200   1
  -3  -4  -1 310.250 21.7300   1
   3  -4   1 266.970 18.8300   1
   2   7   2 105.060 17.2800   1
   2   7   2 85.1600 21.8600   1
  -2  -7  -2 73.2100 15.7800   1
   2   7   2 100.680 15.2600   1
  -2  -7  -2 87.4600 11.4800   1
   2  -7   2 112.220 28.1500   1
   2  -7   2 100.350 12.1300   1
  -2   7  -2 98.5700 20.2600   1
  -4  -1   1 2287.90 77.3500   1
  -4   1   1 2426.85 86.2900   1
   4   1  -1 2390.62 74.8900   1
  -4   1   1 1881.67 69.3800   1
   4  -1  -1 2426.54 79.9700   1
   3  -2  -4 212.740 25.5800   1
   3   2  -4 225.570 26.9400   1
   3   2  -4 235.440 21.9700   1
  -3   2   4 202.270 15.4800   1
   3   2  -4 244.360 17.5600   1
   3  -2  -4 232.570 17.7300   1
   3  -2  -4 242.490 35.1600   1
   3   2  -4 219.300 30.2500   1
   4   5  -2 424.230 25.6100   1
  -4  -5   2 432.450 28.8100   1
  -4   5   2 401.470 26.7600   1
   4   5  -2 455.320 22.1800   1
   4  -5  -2 461.100 24.0900   1
   4   5  -2 476.370 22.4400   1
  -4  -5   2 479.570 32.7200   1
  -4   5   2 432.700 42.8900   1
  -2  13   3 111.170 11.7600   1
   2 -13  -3 95.5200 16.2700   1
   2  13  -3 88.3500 12.7600   1
   2  13  -3 116.520 16.1300   1
  -2 -13   3 142.510 15.2700   1
   2  13  -3 110.260 14.8100   1
   4   2  -1 777.870 34.4200   1
   4  -2  -1 834.850 35.9500   1
  -4  -2   1 782.500 37.5600   1
  -4   2   1 767.460 41.2400   1
  -4  -2   1 714.080 41.4900   1
   4   2  -1 710.830 35.3800   1
  -4   2   1 812.230 46.0800   1
   0 -16  -2 53.1200 14.3100   1
   0 -16  -2 51.2600 16.5500   1
   0  16   2 70.0700 10.9500   1
   0  16   2 51.6200 14.8600   1
   0  16   2 49.5800 15.1100   1
   0 -16   2 62.1500 13.1900   1
   0  16  -2 56.3700 11.5600   1
   0 -16   2 42.9100 27.1700   1
   0 -16   2 77.2500 39.0100   1
   1  -5  -4 105.610 17.3800   1
   1   5  -4 77.6800 11.9400   1
   1  -5  -4 97.2800 11.3500   1
   1  -5  -4 108.480 17.5700   1
   1   5  -4 67.1200 11.4600   1
  -1   5   4 127.030 18.3200   1
  -1  -5   4 82.6100 11.5700   1
   1   5  -4 92.0800 10.4700   1
  -1  -5   4 76.3300 26.7300   1
  -1   5   4 79.3200 15.8400   1
   1   5  -4 87.3800 24.1100   1
  -3 -11   0 442.640 23.8000   1
   3  11   0 365.560 24.9800   1
   3  11   0 429.700 25.1800   1
  -3 -11   0 334.990 21.1100   1
  -3  11   0 382.950 37.1100   1
   3 -11   0 340.650 25.5000   1
   3 -11   0 362.320 26.8400   1
   3  13  -1 -3.4400 14.0200   1
  -3 -13   1 11.0200 7.63000   1
   3  13  -1 0.48000 8.87000   1
   3  13  -1 -5.7300 7.89000   1
  -3 -13   1 7.80000 13.2600   1
   3 -13  -1 11.5300 15.5400   1
  -3  13   1 -4.2700 40.9700   1
  -3  13   1 -0.4600 14.1700   1
   3   3  -4 3094.31 87.7900   1
   3  -3  -4 3342.29 90.3500   1
   3  -3  -4 2749.12 107.530   1
   3   3  -4 3080.52 114.110   1
  -3   3   4 2853.34 89.6500   1
   3   3  -4 3048.45 99.8600   1
   3  -3  -4 3371.53 107.210   1
   3   3  -4 3291.87 100.040   1
   4   0  -3 19.5900 12.3900   1
   4   0  -3 10.4800 9.10000   1
  -4   0   3 26.6300 36.4300   1
   4   0  -3 13.1700 17.6500   1
  -4   0   3 5.81000 12.9800   1
   0 -19   0 -2.8500 10.2800   1
   0  19   0 -4.3300 10.4700   1
   0 -19   0 -10.960 12.0400   1
   0  19   0 6.61000 15.1900   1
   4   1  -3 1984.50 58.4900   1
   4  -1  -3 2032.74 64.5400   1
  -4  -1   3 1973.84 71.4000   1
  -4   1   3 2028.07 80.6400   1
   4  -1  -3 1929.24 58.1400   1
   4   1  -3 1804.04 68.6400   1
  -4  -1   3 2099.22 83.0200   1
  -4  -3   1 167.500 22.0900   1
  -4   3   1 166.310 18.3900   1
   4   3  -1 200.910 19.4600   1
   4   3  -1 189.840 19.5100   1
   4  -3  -1 147.760 20.9600   1
  -4  -3   1 199.560 20.6300   1
  -4   3   1 220.710 30.1200   1
   2  16   0 12.5000 15.2800   1
  -2 -16   0 -3.7000 18.0500   1
  -2 -16   0 -2.6200 9.29000   1
   2  16   0 17.7200 11.6100   1
   2  16   0 4.15000 7.81000   1
  -2 -16   0 14.5700 9.83000   1
  -2  16   0 16.7600 17.3800   1
   2 -16   0 22.3500 18.5600   1
   2 -16   0 16.4200 13.9500   1
   2 -16   0 37.3900 19.3100   1
   3   5   1 -11.700 18.0900   1
   3   5   1 1.37000 19.2700   1
   3  -5   1 -17.600 12.7000   1
  -3  -5  -1 15.9200 19.6500   1
   3  -5   1 -28.950 21.2500   1
  -3   5  -1 16.1800 20.0100   1
   1  -6   3 6.72000 9.15000   1
  -1  -6  -3 -6.2000 12.6600   1
   1   6   3 19.6400 14.0100   1
  -1   6  -3 -17.540 16.4200   1
  -1  -6  -3 -5.7600 11.1900   1
   1   6   3 10.1800 14.5700   1
   1  -6   3 -38.290 26.7900   1
   1   6   3 6.86000 8.70000   1
  -1  -6  -3 -2.1900 13.8100   1
  -1   6  -3 11.0600 12.4800   1
  -3 -13   2 660.690 34.6800   1
   3  13  -2 689.820 28.9800   1
   3  13  -2 625.500 32.3800   1
  -3 -13   2 717.410 35.2000   1
   3  13  -2 611.790 33.5600   1
  -3  13   2 613.690 30.1200   1
   3 -13  -2 613.460 34.0300   1
  -3  13   2 637.820 30.5400   1
  -4   2   3 828.890 53.7300   1
  -4  -2   3 808.890 40.0200   1
   4   2  -3 753.170 41.2000   1
   4  -2  -3 846.830 32.9900   1
  -4   2   3 645.580 32.5000   1
   4  -2  -3 787.580 31.8700   1
  -4  -2   3 805.140 51.4500   1
   4   2  -3 782.340 33.2000   1
   2   7  -4 404.470 34.1300   1
   2  -7  -4 384.950 19.5100   1
   2   7  -4 435.000 25.2200   1
   2   7  -4 427.030 22.6700   1
   2  -7  -4 453.520 28.2800   1
   2  -7  -4 416.850 32.4600   1
  -2   7   4 438.110 29.5200   1
   1  17   1 0.42000 8.47000   1
   1  17   1 -7.1400 11.3300   1
  -1 -17  -1 -2.5600 13.4500   1
   1 -17   1 6.44000 11.0000   1
   1 -17   1 -15.720 19.3400   1
   1  17   1 -7.1600 19.0400   1
   1 -17   1 -6.3100 12.9400   1
  -1 -17  -1 6.23000 11.7400   1
  -1 -17  -1 2.28000 8.52000   1
  -2  16   2 232.520 20.7900   1
  -2 -16   2 267.790 22.6400   1
   2  16  -2 257.260 18.0800   1
  -2  16   2 231.600 19.0200   1
   2  16  -2 213.680 17.3000   1
  -2 -16   2 250.430 18.4400   1
   2 -16  -2 272.430 22.0200   1
   2 -16  -2 202.080 22.8500   1
   3  -4  -4 237.090 24.6300   1
   3   4  -4 174.320 14.8700   1
   3   4  -4 194.080 24.5600   1
  -3   4   4 210.950 15.1600   1
   3  -4  -4 237.230 17.9500   1
   3   4  -4 232.280 19.2800   1
   3   4  -4 195.330 24.6200   1
  -4  -6   2 834.070 39.4300   1
  -4   6   2 609.410 27.4700   1
  -4  -6   2 692.740 39.7500   1
   4   6  -2 763.750 38.0000   1
  -4   6   2 720.390 35.8000   1
   4   6  -2 740.960 30.5600   1
   4  -6  -2 771.080 37.4400   1
  -4   6   2 763.390 43.4800   1
  -1  17   2 18.4300 13.9200   1
   1 -17  -2 18.8500 11.6600   1
   1 -17  -2 12.9300 11.4400   1
  -1 -17   2 24.4700 17.3700   1
  -1 -17   2 26.6500 11.8400   1
   1  17  -2 28.6400 9.87000   1
  -1 -17   2 22.1200 10.6700   1
  -1 -17   2 29.4200 16.5800   1
  -3  11   3 62.0000 11.0100   1
   3 -11  -3 61.6900 11.4300   1
   3  11  -3 58.5200 18.3900   1
   3  11  -3 56.5300 15.6700   1
   3  11  -3 59.3500 15.6600   1
  -3 -11   3 58.3200 17.9000   1
   3  11  -3 58.5200 10.7200   1
   2   8   2 132.440 16.0200   1
  -2  -8  -2 165.400 18.0100   1
   2  -8   2 107.580 12.3300   1
  -2   8  -2 147.970 23.4900   1
   2   8   2 140.860 15.2300   1
   2  -8   2 81.4100 29.2500   1
   2   8   2 129.400 18.2000   1
  -2   8  -2 137.110 17.9800   1
  -2  -8  -2 136.970 15.2200   1
  -4  -4   1 573.660 33.6600   1
  -4   4   1 613.540 40.2700   1
   4  -4  -1 598.700 28.8200   1
   4   4  -1 609.910 31.4400   1
   4   4  -1 702.890 41.3200   1
  -4   3   3 2284.81 93.0700   1
   4   3  -3 1773.23 75.9400   1
  -4  -3   3 2176.01 79.9900   1
   4  -3  -3 2156.94 68.7700   1
   4   3  -3 2192.23 65.7600   1
   4  -3  -3 2067.66 66.4300   1
   4   3  -3 1970.85 67.6500   1
  -4   3   3 1870.72 65.3600   1
  -4  -3   3 1901.61 65.8800   1
   1   6  -4 363.800 20.3200   1
  -1  -6   4 378.810 29.1900   1
  -1   6   4 362.360 24.9200   1
  -1  -6   4 344.040 20.3000   1
   1  -6  -4 402.170 27.5900   1
  -1   6   4 380.710 32.3500   1
   1   6  -4 362.640 19.3500   1
   1  -6  -4 402.540 24.6300   1
   1  -6  -4 369.240 25.3400   1
   1   6  -4 335.880 26.1400   1
   0 -12  -3 146.430 13.9500   1
   0 -12   3 74.3300 31.4000   1
   0  12   3 109.930 12.6100   1
   0 -12  -3 133.890 13.6800   1
   0  12  -3 117.710 18.1900   1
   0 -12   3 96.9600 13.3300   1
   0  12   3 116.920 17.0700   1
   0  12   3 127.970 16.7800   1
   0 -12   3 92.5300 31.5200   1
  -2 -17   1 -1.0700 12.5200   1
  -2 -17   1 3.03000 11.4800   1
   2  17  -1 18.1300 11.3400   1
  -2 -17   1 5.33000 9.29000   1
   2 -17  -1 -2.7100 12.7000   1
   2 -17  -1 -5.9600 15.5600   1
   2 -17  -1 -9.6300 20.4400   1
  -2  17   1 0.74000 15.7200   1
   1 -14   2 14.7800 8.95000   1
  -1  14  -2 21.1400 14.8400   1
  -1 -14  -2 14.4900 13.8400   1
   1  14   2 32.5600 15.9400   1
   1  14   2 21.5300 12.3100   1
   1 -14   2 33.2200 30.2000   1
   1 -14   2 26.1700 16.0000   1
   1  14   2 15.9300 13.9200   1
  -1 -14  -2 20.9400 14.5600   1
  -1 -14  -2 15.2000 7.72000   1
   3   6   1 272.100 21.9300   1
  -3   6  -1 305.960 24.1100   1
   3  -6   1 300.200 24.4300   1
   3   6   1 304.250 23.9500   1
   3  -6   1 192.820 16.9000   1
  -3  -6  -1 255.470 19.8800   1
  -1  -7  -3 122.700 12.8000   1
   1   7   3 104.430 16.7200   1
   1   7   3 102.300 15.2000   1
  -1   7  -3 117.220 16.5800   1
   1  -7   3 104.400 12.5300   1
   1  -7   3 88.8400 22.7900   1
   1   7   3 121.060 20.3800   1
  -1  -7  -3 115.460 12.2900   1
  -1   7  -3 101.570 19.6400   1
  -1  -7  -3 81.8500 20.3900   1
   2  14   1 81.9000 14.2500   1
   2 -14   1 77.5300 13.7200   1
  -2 -14  -1 101.470 14.6400   1
  -2 -14  -1 69.9100 8.85000   1
  -2 -14  -1 73.5200 19.0600   1
   2 -14   1 52.6100 27.4200   1
   2  14   1 122.710 18.5100   1
  -2  14  -1 33.8200 26.4200   1
   2 -14   1 105.290 15.0200   1
  -3   5   4 195.250 16.8200   1
   3   5  -4 167.620 15.5600   1
   3  -5  -4 229.930 18.9300   1
   3  -5  -4 215.370 23.7500   1
   3   5  -4 187.210 25.6300   1
   3   5  -4 216.360 18.9100   1
   3   5  -4 203.150 24.4200   1
   3   5  -4 191.190 15.4100   1
   4   4  -3 198.660 22.2000   1
  -4  -4   3 273.480 37.2500   1
  -4   4   3 239.590 37.0800   1
   4   4  -3 258.170 21.5400   1
  -4  -4   3 228.930 20.8000   1
  -4   4   3 244.110 22.7100   1
   4  -4  -3 274.340 18.4500   1
   4  -4  -3 302.790 20.4700   1
   4   4  -3 251.910 15.4100   1
   1 -14  -3 38.3600 12.2400   1
   1 -14  -3 32.2900 10.7200   1
  -1 -14   3 61.2500 26.4100   1
   1  14  -3 29.4300 10.4000   1
  -1 -14   3 35.7200 10.7000   1
   1  14  -3 36.0100 10.8100   1
  -4   5   1 131.640 31.0700   1
  -4  -5   1 199.310 23.0300   1
   4  -5  -1 185.140 23.7500   1
   4   5  -1 204.450 25.5100   1
   4   5  -1 128.950 17.1300   1
  -2   8   4 1037.13 47.8200   1
   2  -8  -4 963.580 48.6100   1
   2  -8  -4 1045.17 44.5100   1
   2  -8  -4 1083.69 41.0300   1
  -2  -8   4 910.190 39.6400   1
   2   8  -4 1073.55 46.5300   1
   2   8  -4 1023.25 42.6200   1
   2   8  -4 1038.30 56.6700   1
  -4   7   2 543.120 25.9100   1
   4  -7  -2 659.250 33.7200   1
   4   7  -2 620.190 28.0600   1
  -4  -7   2 662.460 33.2900   1
  -4   7   2 603.910 40.9300   1
   4   7  -2 724.450 33.7200   1
  -4  -7   2 569.070 31.0400   1
  -1   7   4 399.690 28.2300   1
   1  -7  -4 398.290 25.3300   1
  -1   7   4 430.800 25.3100   1
   1  -7  -4 386.480 26.0900   1
  -1  -7   4 416.750 25.4000   1
  -1  -7   4 428.650 35.2000   1
   1   7  -4 423.790 24.5600   1
   1  -7  -4 442.540 26.8900   1
   1  -7  -4 413.990 22.1300   1
   1   7  -4 423.310 25.3000   1
   3  12   0 717.010 30.5300   1
  -3 -12   0 863.930 36.8200   1
  -3 -12   0 583.330 29.3700   1
   3  12   0 730.050 34.1200   1
   3  12   0 686.870 29.0600   1
  -3  12   0 689.990 43.2200   1
   3 -12   0 661.620 35.2600   1
   2 -14  -3 5981.20 306.220   1
  -2  14   3 5451.89 274.710   1
   2  14  -3 5676.18 285.230   1
   2  14  -3 4993.01 135.420   1
  -2 -14   3 5807.19 293.520   1
   2  14  -3 5214.23 149.740   1
   4  -5  -3 3564.40 97.7100   1
   4   5  -3 3855.82 104.300   1
   4  -5  -3 4044.75 107.230   1
   4   5  -3 3409.60 111.330   1
  -4  -5   3 3751.21 116.710   1
  -4   5   3 3783.56 135.310   1
   4   5  -3 3419.88 100.590   1
  -4   5   3 3771.07 117.970   1
   2   9   2 44.0900 16.3700   1
  -2  -9  -2 18.8700 8.88000   1
   2   9   2 44.1900 22.5100   1
   2  -9   2 1.53000 25.5700   1
  -2   9  -2 38.4600 14.5600   1
   2  -9   2 18.0500 9.39000   1
  -2  -9  -2 29.4600 14.9700   1
   2   9   2 28.1300 15.0900   1
   0  19  -1 186.920 14.3200   1
   0 -19  -1 187.240 16.9600   1
   0 -19   1 225.600 22.3200   1
   0  19   1 196.020 24.7400   1
   0 -19   1 201.620 38.2900   1
   0 -19   1 194.230 15.8700   1
   0 -19  -1 227.530 17.7800   1
   0  19   1 188.770 15.5600   1
   0 -19   1 144.730 22.3400   1
   0 -19   1 179.290 27.8000   1
   3   7   1 85.9000 18.4800   1
   3  -7   1 68.5200 23.9300   1
   3   7   1 90.2800 22.4400   1
   3  -7   1 92.5200 14.2800   1
  -3  -7  -1 102.140 18.8800   1
  -3   7  -1 82.6700 22.8500   1
   3  14  -1 637.790 28.3800   1
   3  14  -1 633.960 34.2800   1
  -3 -14   1 704.850 31.9000   1
   3  14  -1 634.220 29.2200   1
  -3  14   1 726.200 57.0200   1
  -3  14   1 632.400 29.6000   1
   3 -14  -1 681.820 37.4100   1
   3  -6  -4 921.030 34.7900   1
   3   6  -4 944.570 52.3700   1
   3   6  -4 834.630 33.8200   1
  -3   6   4 890.250 41.2300   1
   3   6  -4 947.430 39.2700   1
   3   6  -4 978.210 45.1700   1
   1  19   0 373.060 21.1300   1
  -1 -19   0 310.130 22.1500   1
  -1  19   0 314.340 27.0000   1
   1 -19   0 291.290 35.3500   1
   1  19   0 306.010 24.1400   1
  -1 -19   0 358.160 25.2700   1
   1 -19   0 320.940 34.6200   1
   1 -19   0 323.500 25.0300   1
   1  19   0 361.310 21.5300   1
  -1 -19   0 357.830 20.0800   1
  -1  19   1 695.450 41.2100   1
  -1 -19   1 729.730 36.9700   1
  -1  19   1 755.750 36.3900   1
   1  19  -1 794.680 31.7300   1
   1 -19  -1 644.520 30.2900   1
  -1 -19   1 788.660 35.6400   1
   1 -19  -1 748.160 47.6100   1
   1 -19  -1 754.630 35.8900   1
   4   6  -1 17.1700 19.4100   1
  -4  -6   1 -8.9600 21.9700   1
  -4  -6   1 48.7900 14.9800   1
  -4   6   1 14.8600 29.1600   1
   4  -6  -1 16.7100 18.0000   1
   4   6  -1 22.5300 16.0700   1
   4   6  -1 36.1400 10.6700   1
   0 -17  -2 233.750 18.5600   1
   0 -17  -2 218.580 20.0100   1
   0  17   2 220.190 20.5200   1
   0  17   2 235.790 25.1900   1
   0 -17   2 234.180 27.3800   1
   0  17  -2 224.250 16.7900   1
   0 -17   2 221.750 17.9500   1
   0 -17   2 229.670 34.4300   1
  -3  14   2 1066.40 43.5700   1
   3  14  -2 1131.31 38.6300   1
  -3 -14   2 1174.15 44.4100   1
   3 -14  -2 1087.64 50.3100   1
  -3  14   2 1088.01 43.8200   1
   3  14  -2 1043.50 41.9900   1
  -3 -14   2 1103.00 43.4100   1
  -3 -14   2 1205.06 51.6500   1
   3  14  -2 1008.88 39.4800   1
   1  -8   3 -9.8900 29.6100   1
   1   8   3 13.5400 18.1500   1
  -1  -8  -3 4.88000 7.85000   1
   1   8   3 17.6000 14.0000   1
  -1  -8  -3 13.1100 9.63000   1
  -1   8  -3 21.6500 15.1300   1
   1  -8   3 28.1000 7.83000   1
   1   8   3 11.2700 9.41000   1
   3 -12  -3 535.000 31.3200   1
  -3  12   3 478.200 25.1700   1
   3  12  -3 451.020 24.9000   1
  -3 -12   3 468.770 25.8100   1
   3  12  -3 514.790 25.2900   1
   3  12  -3 368.380 25.2700   1
  -3 -12   3 586.630 39.0300   1
   2  17   0 860.030 37.1300   1
  -2 -17   0 809.350 37.0300   1
  -2 -17   0 966.480 38.8700   1
  -2 -17   0 858.610 41.6000   1
   2  17   0 821.820 31.6400   1
   2  17   0 850.740 38.4000   1
   2 -17   0 840.200 49.2800   1
  -2  17   0 828.410 43.4000   1
   2 -17   0 754.760 49.6300   1
   2 -17   0 833.840 37.7300   1
  -4   8   2 1464.03 65.3500   1
  -4  -8   2 1439.56 56.1800   1
   4   8  -2 1364.99 44.5400   1
   4  -8  -2 1426.03 50.7300   1
  -4   8   2 1181.26 42.9400   1
   4   8  -2 1441.22 55.6500   1
   0 -13  -3 35.0100 10.6300   1
   0  13   3 61.3200 14.4600   1
   0  13   3 69.6600 15.7500   1
   0 -13  -3 52.3100 13.1200   1
   0  13   3 47.3100 13.7100   1
   0 -13   3 31.0400 38.7100   1
   0 -13   3 67.4200 21.8100   1
   0  13  -3 50.6400 14.5200   1
   0 -13   3 42.4700 11.6100   1
  -4   6   3 2946.42 110.140   1
   4  -6  -3 2806.61 82.3800   1
   4   6  -3 2596.60 82.2900   1
  -4   6   3 2427.41 77.0600   1
   4   6  -3 2992.07 84.6400   1
   4  -6  -3 2942.61 85.7100   1
   4   6  -3 2512.43 86.0600   1
   4   6  -3 2547.86 93.3700   1
  -4  -6   3 2706.07 94.2800   1
   2  -9  -4 724.690 43.2100   1
   2  -9  -4 757.320 35.7300   1
   2  -9  -4 780.090 35.2300   1
  -2   9   4 760.180 39.3900   1
   2   9  -4 681.400 32.1100   1
  -2  -9   4 778.600 36.9300   1
   2   9  -4 733.270 30.3600   1
   2   9  -4 801.020 49.8000   1
  -1   8   4 -16.430 15.6300   1
   1  -8  -4 8.89000 9.86000   1
  -1   8   4 4.58000 11.2900   1
   1  -8  -4 -6.3400 9.56000   1
   1  -8  -4 12.5000 15.1900   1
   1  -8  -4 -4.2100 9.56000   1
  -1  -8   4 -3.8000 17.1600   1
  -1  -8   4 -1.3200 10.5200   1
   1   8  -4 -6.1100 14.4800   1
   1   8  -4 -4.3100 8.64000   1
  -2 -17   2 463.480 28.0600   1
  -2  17   2 399.670 25.4200   1
   2 -17  -2 363.330 30.6200   1
   2  17  -2 337.180 39.1400   1
   2  17  -2 456.490 22.6000   1
  -2  17   2 387.070 20.8300   1
   2  17  -2 377.770 21.4000   1
  -2 -17   2 480.230 29.0700   1
   2 -17  -2 453.920 25.8600   1
   0 -20   0 537.710 27.6900   1
   0  20   0 569.630 28.3800   1
   0 -20   0 506.500 29.5900   1
   0  20   0 452.250 30.8600   1
   1  18   1 407.220 23.1400   1
   1  18   1 305.280 31.9900   1
   1 -18   1 385.250 36.3300   1
  -1 -18  -1 354.000 23.6600   1
  -1 -18  -1 376.650 24.7400   1
  -1 -18  -1 369.480 21.0600   1
   1 -18   1 277.320 21.9700   1
   1 -18   1 369.030 23.0300   1
   3   7  -4 303.470 24.5900   1
   3  -7  -4 307.630 18.6400   1
   3  -7  -4 319.460 25.7400   1
   3   7  -4 335.530 20.5400   1
  -3   7   4 350.500 20.3900   1
   3  -7  -4 321.230 20.3200   1
   3   7  -4 304.580 16.5900   1
   3   7  -4 365.300 31.8300   1
  -1 -15  -2 101.940 14.0300   1
   1  15   2 90.0400 11.3500   1
   1 -15   2 110.760 23.1100   1
   1  15   2 110.290 22.6000   1
  -1 -15  -2 84.3500 13.9700   1
   1  15   2 79.6500 15.2600   1
   1 -15   2 108.620 15.3100   1
  -1 -15  -2 79.6300 9.68000   1
   1 -15   2 99.5500 12.2200   1
  -1  15  -2 125.420 24.6800   1
  -3  -8  -1 11.8600 17.1900   1
   3  -8   1 18.7600 26.2000   1
   3   8   1 59.9100 16.5700   1
  -3   8  -1 57.2900 23.1500   1
   3  -8   1 43.2600 13.5400   1
   3   8   1 40.6800 13.3500   1
  -4  -7   1 6.02000 19.6600   1
  -4  -7   1 -5.5200 15.6300   1
   4   7  -1 -4.6800 13.2800   1
   4   7  -1 3.53000 10.8200   1
   4   7  -1 21.2600 20.8400   1
  -4   7   1 -27.760 30.3500   1
   4  -7  -1 -5.9000 14.5500   1
  -1  18   2 1597.60 72.2200   1
   1 -18  -2 1855.84 74.4400   1
   1 -18  -2 1753.43 69.9900   1
  -1 -18   2 1932.22 74.6800   1
  -1 -18   2 1489.52 76.7200   1
  -1 -18   2 1747.25 69.3800   1
   0   0   4 147.070 39.5800   1
   0   0   4 167.290 28.1900   1
   0   0  -4 210.630 24.6100   1
   0   0  -4 143.660 17.4000   1
   0   0  -4 191.790 15.6300   1
   0   0   4 169.900 18.4000   1
   0   0   4 159.000 15.9600   1
   2 -10   2 106.250 28.9000   1
   2  10   2 59.5800 16.0800   1
  -2 -10  -2 43.9300 9.01000   1
   2  10   2 56.5900 15.7300   1
  -2 -10  -2 57.3900 14.9300   1
   2 -10   2 73.2600 11.7800   1
  -2  10  -2 54.5800 21.3900   1
   2  10   2 59.4700 18.0500   1
  -2 -15  -1 31.3000 10.4100   1
   2  15   1 67.1800 22.2500   1
  -2 -15  -1 57.7100 8.88000   1
  -2 -15  -1 30.2700 13.4400   1
   2  15   1 61.1200 13.4200   1
  -2  15  -1 55.4300 26.4500   1
   2 -15   1 62.5500 17.3800   1
   2 -15   1 60.7600 21.7300   1
   2 -15   1 41.6600 16.4600   1
   0  -1  -4 103.700 18.4700   1
   0   1  -4 100.890 15.3700   1
   0   1  -4 121.370 13.6700   1
   0  -1  -4 109.990 14.8600   1
   0   1   4 72.0100 12.1000   1
   0  -1   4 78.3200 12.2300   1
   0   1   4 96.1700 13.5300   1
   0  -1   4 108.940 13.4400   1
   0  -1   4 101.740 39.2100   1
   0   1   4 94.8000 28.4100   1
   0  -1   4 115.430 28.8400   1
   0   1   4 145.730 26.1700   1
   0   1  -4 99.2100 20.4400   1
   0  -1  -4 110.420 16.4500   1
   1 -15  -3 2801.99 104.140   1
   1 -15  -3 2516.82 95.5800   1
   1  15  -3 2555.45 94.5500   1
  -1 -15   3 2591.60 104.910   1
   1  15  -3 2284.31 87.4800   1
  -1 -15   3 2565.07 94.4500   1
  -2 -18   1 2472.38 94.1100   1
   2  18  -1 2263.42 82.6000   1
   2  18  -1 2166.82 77.2800   1
  -2 -18   1 2090.48 84.9200   1
  -2 -18   1 2176.12 83.4000   1
   2 -18  -1 2063.74 91.6500   1
  -2  18   1 2159.72 89.7400   1
   2 -18  -1 2392.85 90.2900   1
   1   9   3 0.04000 17.2800   1
   1  -9   3 10.5100 9.54000   1
   1  -9   3 -29.790 21.1600   1
  -1   9  -3 -9.9800 13.1600   1
  -1  -9  -3 11.7600 14.1300   1
  -1  -9  -3 12.2600 11.0800   1
   1   9   3 24.0100 19.9700   1
  -3 -13   0 429.660 26.0400   1
   3  13   0 544.580 29.9000   1
   3  13   0 516.970 37.0000   1
  -3 -13   0 568.720 29.3800   1
   3  13   0 467.910 29.4900   1
  -3  13   0 491.610 37.0600   1
   3 -13   0 462.150 35.3800   1
   0   2   4 583.190 49.4200   1
   0  -2   4 610.600 45.6700   1
   0  -2   4 558.510 39.6600   1
   0   2  -4 477.860 32.1200   1
   0  -2  -4 582.240 32.3000   1
   0   2   4 707.530 37.8900   1
   0   2  -4 481.310 31.3400   1
   0  -2  -4 588.100 36.4100   1
   0   2  -4 622.140 29.4400   1
   0  -2  -4 578.780 30.7800   1
   0  -2   4 502.430 28.8500   1
   0   2   4 548.210 32.9400   1
   0  -2   4 577.970 34.5300   1
   0   2   4 659.170 37.8800   1
   4   7  -3 459.030 32.0500   1
   4   7  -3 336.970 24.6300   1
   4  -7  -3 454.290 24.5300   1
   4  -7  -3 446.940 27.3400   1
   4   7  -3 460.890 24.5900   1
  -4   7   3 416.270 23.5700   1
  -4  -7   3 438.840 32.0500   1
  -4   9   2 859.630 58.9200   1
  -4   9   2 765.570 36.4500   1
   4   9  -2 910.820 37.9200   1
   4   9  -2 917.360 47.3400   1
   4  -9  -2 925.030 45.7900   1
  -4  -9   2 911.130 43.3900   1
   2 -15  -3 -9.2700 15.6000   1
  -2  15   3 11.5700 7.23000   1
   2  15  -3 8.04000 7.79000   1
  -2 -15   3 15.4900 15.8800   1
   2  15  -3 -9.5000 9.71000   1
   2  15  -3 8.24000 10.0900   1
   0  -3   4 193.790 18.3300   1
   0   3  -4 160.960 17.7600   1
   0  -3  -4 187.720 22.3700   1
   0   3   4 245.960 25.8400   1
   0  -3  -4 177.240 18.7900   1
   0   3   4 215.880 24.4200   1
   0  -3   4 161.550 30.0900   1
   0  -3   4 229.430 35.1900   1
   0   3  -4 228.880 17.5200   1
   0   3   4 177.110 17.6800   1
   0   3   4 167.490 39.1700   1
   0  -3  -4 183.950 18.0800   1
   1  -9  -4 179.890 18.6600   1
  -1   9   4 222.900 23.1000   1
  -1   9   4 186.490 22.1200   1
   1  -9  -4 188.730 18.7200   1
   1  -9  -4 186.450 20.8600   1
   1  -9  -4 201.000 17.1000   1
  -1  -9   4 190.850 24.6900   1
   1   9  -4 189.540 17.1800   1
  -1  -9   4 193.560 18.2200   1
   1   9  -4 169.290 16.2700   1
   3   8  -4 351.970 26.7300   1
   3  -8  -4 431.570 24.4800   1
   3  -8  -4 362.600 29.7700   1
   3   8  -4 407.490 24.2200   1
  -3   8   4 339.500 21.9000   1
   3   8  -4 388.040 22.3400   1
   3  -8  -4 387.430 23.5300   1
   3   8  -4 374.540 30.3000   1
  -2  10   4 1720.60 73.2900   1
   2 -10  -4 1515.34 61.1000   1
   2 -10  -4 1449.76 65.1300   1
   2  10  -4 1529.66 58.3800   1
  -2 -10   4 1633.70 71.0200   1
   2  10  -4 1496.01 61.0700   1
   3  15  -1 621.260 34.8200   1
   3  15  -1 648.160 31.3000   1
  -3 -15   1 747.970 40.7400   1
   3  15  -1 511.420 26.6700   1
  -3 -15   1 638.880 37.2400   1
  -3  15   1 639.990 50.1500   1
  -3  15   1 569.900 33.4300   1
   3 -15  -1 645.030 40.4200   1
  -3 -13   3 214.030 21.2600   1
  -3 -13   3 215.410 24.9100   1
   3  13  -3 238.590 23.5300   1
  -3  13   3 233.650 18.6600   1
   3  13  -3 233.780 20.4000   1
   3 -13  -3 272.890 23.5900   1
   4   8  -1 -5.6700 10.2000   1
   4   8  -1 10.0500 15.2200   1
   4   8  -1 -11.930 14.4900   1
  -4  -8   1 0.53000 13.5800   1
  -4  -8   1 9.30000 16.1300   1
   4  -8  -1 -19.290 19.0200   1
  -4   8   1 -23.120 31.1500   1
   3   9   1 8.89000 12.3300   1
  -3   9  -1 41.8900 16.9300   1
   3  -9   1 21.5700 23.6900   1
  -3  -9  -1 5.51000 17.2700   1
   3  -9   1 15.6200 13.3900   1
  -3  15   2 13.1700 8.11000   1
   3 -15  -2 4.31000 14.3100   1
  -3  15   2 6.29000 9.11000   1
   3  15  -2 -10.160 19.3100   1
   3  15  -2 6.27000 10.5600   1
  -3 -15   2 11.4900 14.0600   1
  -3 -15   2 11.3300 13.5700   1
   3  15  -2 12.2200 13.6500   1
  -3 -15   2 -9.6200 19.0800   1
   0  -4  -4 126.060 18.7600   1
   0   4   4 79.1600 18.3300   1
   0  -4   4 182.440 31.4300   1
   0  -4   4 59.9200 28.9100   1
   0   4   4 116.480 14.0700   1
   0   4   4 170.470 35.8000   1
   0  -4   4 103.100 13.5100   1
   0  -4  -4 119.290 15.6500   1
   0   4  -4 138.220 13.1500   1
   0  -4  -4 124.180 17.0300   1
   0   4  -4 87.9700 14.4000   1
   0   4   4 133.250 21.4600   1
   0  14   3 1038.93 48.0200   1
   0 -14  -3 855.320 40.0500   1
   0 -14  -3 902.810 41.0200   1
   0  14   3 961.130 46.5300   1
   0 -14  -3 991.400 43.3900   1
   0  14   3 903.010 45.3300   1
   0  14  -3 786.520 52.4900   1
   0 -14   3 802.970 44.2300   1
   0 -14   3 1019.27 59.3600   1
   0 -14   3 939.630 42.8300   1
  -4   8   3 1484.77 59.1700   1
   4  -8  -3 1822.48 73.9900   1
   4   8  -3 1611.67 66.3600   1
  -4   0   0 101.190 22.1600   1
   4   0   0 151.940 18.9300   1
   0  18   2 998.530 55.3000   1
   0 -18  -2 1005.38 44.4500   1
   0 -18  -2 1134.47 49.5800   1
   0 -18   2 1071.61 55.7300   1
   0 -18   2 971.960 61.3600   1
   0 -18   2 1027.43 45.1700   1
   0  18  -2 1094.04 47.7400   1
   0 -20   1 -1.0600 21.5300   1
   0 -20   1 -8.7300 17.1400   1
   0 -20  -1 -6.8400 16.7500   1
   0  20  -1 0.74000 10.9600   1
   0  20   1 3.50000 7.38000   1
   0 -20  -1 -5.1400 12.3400   1
   0 -20   1 1.63000 7.57000   1
   0 -20   1 11.8900 17.0800   1
   0 -20   1 32.6200 29.7400   1
   0  20   1 -9.5100 13.1700   1
  -2  11  -2 940.410 50.0800   1
   2 -11   2 834.550 42.4300   1
   2  11   2 915.520 43.1700   1
   2  11   2 952.940 45.8900   1
  -2 -11  -2 972.340 41.2900   1
  -2 -11  -2 854.370 39.9200   1
   2 -11   2 899.400 50.2700   1
   2  11   2 773.680 40.4500   1
  -4  -1   0 80.6900 22.8400   1
   4   1   0 66.4100 15.7000   1
   4  -1   0 89.4400 20.5800   1
  -4  -1   0 79.2900 19.1000   1
  -4   1   0 87.3500 19.1400   1
   1  20   0 648.540 39.2900   1
   1 -20   0 631.250 51.4800   1
  -1  20   0 621.660 42.0200   1
   1 -20   0 695.800 50.7600   1
   1 -20   0 742.210 36.1400   1
  -1 -20   0 724.050 37.4100   1
  -1 -20   0 629.440 32.1600   1
   1  20   0 809.920 36.4000   1
   1  20   0 725.220 35.2700   1
  -1 -20   0 772.860 34.4700   1
   1  10   3 8.48000 12.0800   1
   1  10   3 5.93000 15.9800   1
   1  10   3 3.07000 14.2000   1
  -1 -10  -3 -1.6700 7.15000   1
  -1 -10  -3 -6.1300 10.0700   1
   1 -10   3 -11.760 29.4700   1
   1 -10   3 0.77000 8.17000   1
  -1  10  -3 -19.350 15.2500   1
   1  20  -1 1224.76 50.5100   1
  -1 -20   1 1157.95 50.1500   1
  -1  20   1 1041.61 55.8400   1
   1 -20  -1 1100.70 56.0600   1
   1 -20  -1 1149.05 56.5800   1
   1 -20  -1 1120.91 51.3800   1
  -1 -20   1 1156.37 50.4800   1
  -1  20   1 1120.48 50.5900   1
  -4  -2   0 93.1600 17.7500   1
  -4   2   0 115.150 19.3800   1
  -4  -2   0 105.900 25.9600   1
   4   2   0 97.7700 15.9600   1
   4  -2   0 79.1800 21.9700   1
   4   2   0 91.4600 20.6700   1
   0   5  -4 31.9200 10.8000   1
   0  -5  -4 27.0300 9.88000   1
   0   5   4 20.1100 8.46000   1
   0   5   4 41.1400 16.8800   1
   0   5   4 26.4400 31.6500   1
   0  -5   4 27.2100 27.6900   1
   0  -5   4 51.5000 27.1800   1
   0  -5   4 17.1500 10.4400   1
   0  -5  -4 13.1000 12.0200   1
   0   5   4 37.6300 19.3200   1
   0  -5  -4 32.2800 13.9600   1
   0   5  -4 27.1000 11.2600   1
  -2 -18   0 143.450 21.6100   1
   2  18   0 118.230 13.6400   1
  -2 -18   0 131.950 14.0600   1
   2  18   0 114.870 12.6800   1
  -2 -18   0 101.100 13.0900   1
   2 -18   0 135.870 22.7100   1
  -2  18   0 80.9000 15.6700   1
   2 -18   0 100.670 21.8900   1
   2 -18   0 118.710 17.9200   1
  -4  10   2 298.070 41.7200   1
  -4 -10   2 307.030 26.4100   1
   4 -10  -2 248.420 22.9000   1
   4  10  -2 287.500 23.4700   1
  -4  10   2 207.850 17.1500   1
   4  10  -2 255.990 20.0600   1
  -1 -16  -2 160.690 20.8300   1
  -1 -16  -2 142.820 13.1200   1
  -1 -16  -2 152.370 14.9400   1
   1  16   2 156.550 16.1400   1
   1  16   2 139.320 19.7500   1
   1 -16   2 135.090 16.3100   1
   1 -16   2 145.620 17.4900   1
   1 -16   2 141.740 33.7300   1
  -1  16  -2 167.960 31.7300   1
   3  -9  -4 829.330 41.2000   1
   3  -9  -4 705.270 51.5800   1
  -3   9   4 795.460 40.2600   1
   3  -9  -4 705.780 31.6600   1
   3   9  -4 807.130 38.2900   1
   3   9  -4 829.020 35.4300   1
   3   9  -4 826.660 47.3000   1
  -1  10   4 1071.54 49.5500   1
   1 -10  -4 1013.07 47.5200   1
  -1  10   4 1138.98 66.1200   1
   1 -10  -4 1187.53 55.1500   1
   1 -10  -4 1318.83 53.3000   1
   1 -10  -4 1281.37 58.2600   1
  -1 -10   4 1193.94 63.2100   1
  -1 -10   4 1170.65 53.2100   1
   1  10  -4 1230.51 49.4000   1
   1  10  -4 1201.53 52.8300   1
   4   9  -1 25.2000 14.7200   1
  -4  -9   1 31.2200 22.7100   1
  -4  -9   1 56.8500 21.8600   1
   4   9  -1 2.19000 20.1600   1
   4   9  -1 21.5500 15.6800   1
   4  -9  -1 40.8000 20.8400   1
  -4   9   1 2.37000 30.3600   1
  -2  18   2 527.270 27.8700   1
  -2  18   2 531.470 34.0200   1
   2 -18  -2 497.200 42.1700   1
   2 -18  -2 520.020 30.2100   1
  -2 -18   2 533.420 35.2400   1
  -2 -18   2 581.910 32.0800   1
   2  18  -2 585.650 32.3300   1
   2  18  -2 583.370 27.9600   1
  -4  -3   0 66.3000 18.3900   1
   4  -3   0 57.7500 20.8400   1
  -4  -3   0 45.4100 16.6800   1
   4   3   0 45.1500 18.2500   1
   4   3   0 33.7400 20.0700   1
  -4   3   0 16.5300 16.7000   1
   3  14   0 3008.80 105.350   1
   3  14   0 3141.96 111.630   1
  -3 -14   0 3034.78 108.720   1
   3  14   0 3157.58 119.550   1
  -3  14   0 3141.92 130.020   1
   3 -14   0 2850.89 113.360   1
  -2 -16  -1 158.080 14.0000   1
  -2 -16  -1 248.220 21.4200   1
  -2 -16  -1 242.190 25.1800   1
   2  16   1 256.070 22.3800   1
   2  16   1 207.830 22.5800   1
   2 -16   1 193.950 22.9800   1
   2 -16   1 226.560 27.8400   1
  -2  16  -1 209.280 29.7000   1
   2 -16   1 220.710 21.8100   1
   2 -11  -4 1226.00 54.5200   1
   2 -11  -4 1290.02 52.4500   1
   2  11  -4 1344.55 52.8800   1
  -2 -11   4 1381.07 59.0300   1
   2  11  -4 1209.39 52.5200   1
   2  11  -4 1025.39 63.9000   1
   1 -16  -3 75.7300 15.2300   1
   1 -16  -3 89.2600 18.0600   1
  -1 -16   3 67.6300 12.5400   1
   1  16  -3 65.4400 11.9400   1
  -1 -16   3 75.0500 20.5300   1
   1  16  -3 83.9600 15.6100   1
   1 -19   1 144.810 30.9700   1
   1  19   1 114.610 21.6800   1
  -1 -19  -1 132.530 15.5900   1
   1  19   1 145.430 15.2300   1
  -1 -19  -1 118.750 13.2500   1
  -1 -19  -1 114.850 15.8600   1
   1 -19   1 137.360 20.4000   1
   1 -19   1 93.8100 15.3100   1
   3  10   1 910.100 80.5500   1
  -3  10  -1 919.230 56.2700   1
   3 -10   1 803.820 46.3500   1
  -3 -10  -1 841.620 43.3000   1
   3 -10   1 953.770 48.1700   1
   3  10   1 948.720 44.9300   1
   1 -19  -2 -3.5100 18.0500   1
  -1 -19   2 11.6500 12.9500   1
   1  19  -2 34.3100 12.7100   1
   1 -19  -2 19.6000 11.6700   1
  -1 -19   2 12.6300 9.94000   1
  -1 -19   2 28.7600 12.1100   1
   1 -19  -2 10.9500 11.3000   1
  -1  19   2 27.5200 14.0400   1
   4   0  -4 659.570 29.8300   1
   0   6   4 766.360 39.0700   1
   0   6  -4 742.220 42.9200   1
   0  -6   4 805.600 52.4500   1
   0   6  -4 818.750 37.7700   1
   0  -6  -4 756.300 37.3200   1
   0   6   4 717.570 38.5300   1
   0   6   4 887.060 48.8100   1
   0  -6   4 795.230 42.2100   1
   0   6   4 672.950 48.5900   1
   0  -6  -4 785.080 40.6600   1
   0  -6  -4 704.520 47.3300   1
   0  -6   4 894.920 52.6200   1
   0  21   0 -7.2400 7.47000   1
   0 -21   0 -9.1800 17.3800   1
   0  21   0 -15.260 18.8000   1
   0 -21   0 -10.270 10.4400   1
   4  -4   0 412.120 27.1100   1
  -4  -4   0 456.680 32.5500   1
  -4   4   0 414.730 28.4600   1
   4   4   0 420.610 31.4400   1
   4   4   0 454.360 29.9700   1
   4  -1  -4 488.180 27.6600   1
   4   1  -4 469.280 26.5700   1
  -4   1   4 440.500 29.1000   1
   4   9  -3 52.1000 15.3100   1
   4  -9  -3 86.5700 17.1300   1
   4   9  -3 115.190 21.4900   1
   4   9  -3 87.2100 14.6300   1
  -4  -9   3 67.0800 25.3000   1
  -4   9   3 82.6700 10.6200   1
   3 -14  -3 1100.18 55.5800   1
  -3  14   3 959.280 41.7500   1
  -3 -14   3 1095.18 51.7100   1
   3  14  -3 1092.11 56.3600   1
  -3 -14   3 1109.48 57.8800   1
   3  14  -3 1043.42 42.0700   1
   2 -16  -3 3828.93 135.760   1
   2  16  -3 3127.53 115.780   1
   2  16  -3 4065.14 202.990   1
  -2  16   3 3904.16 199.180   1
  -2 -16   3 3898.70 198.170   1
  -2 -19   1 246.110 20.1800   1
  -2 -19   1 340.870 22.3900   1
  -2 -19   1 368.590 24.4900   1
   2  19  -1 294.780 20.8100   1
   2  19  -1 295.040 17.9800   1
   2 -19  -1 288.650 21.3600   1
   2 -19  -1 321.390 30.6000   1
  -2  19   1 269.920 22.8600   1
  -4   2   4 1085.55 52.8200   1
   4   2  -4 1089.28 45.3000   1
   4   2  -4 1012.38 56.1300   1
   4  -2  -4 1044.84 44.1200   1
   3  16  -1 380.510 24.2000   1
   3  16  -1 353.400 19.1100   1
  -3 -16   1 380.610 24.4400   1
  -3 -16   1 428.710 25.6800   1
   3  16  -1 398.630 29.8300   1
  -3  16   1 387.090 24.2900   1
   3 -16  -1 472.360 34.2900   1
   1  11   3 202.730 21.9900   1
  -1 -11  -3 245.780 21.7600   1
   1  11   3 178.780 18.8400   1
   1  11   3 207.610 21.9600   1
  -1 -11  -3 227.760 19.5100   1
  -1  11  -3 254.860 24.7800   1
   1 -11   3 203.860 19.1200   1
   1 -11   3 208.240 22.7800   1
   1 -11   3 230.510 28.7900   1
  -1  11  -3 267.910 28.7000   1
  -2 -12  -2 144.240 15.7300   1
   2 -12   2 134.610 28.2200   1
   2  12   2 173.670 17.7600   1
   2  12   2 150.460 20.4100   1
  -2  12  -2 202.220 25.5400   1
   2 -12   2 139.380 13.6900   1
  -2 -12  -2 190.270 19.0300   1
  -4   3   4 1086.45 53.1000   1
   4   3  -4 1238.13 48.2200   1
   4  -3  -4 1252.41 48.8000   1
   4   3  -4 997.100 53.2200   1
   4   5   0 676.190 36.1200   1
   4   5   0 617.300 33.3500   1
   4  -5   0 661.650 36.2400   1
  -4  -5   0 609.110 34.9900   1
  -4   5   0 600.070 34.6100   1
  -3  16   2 2494.81 93.8600   1
   3 -16  -2 2827.72 113.000   1
  -3  16   2 2204.12 83.3200   1
   3  16  -2 2424.79 95.0100   1
   3  16  -2 2555.92 96.4400   1
   3  16  -2 2676.85 93.8600   1
  -3 -16   2 2521.77 93.4500   1
  -3 -16   2 2417.64 91.8300   1
  -3  10   4 451.900 28.1400   1
   3 -10  -4 517.250 31.3400   1
   3 -10  -4 556.570 28.4500   1
   3 -10  -4 452.750 35.8300   1
   3  10  -4 502.720 31.0000   1
   3  10  -4 553.850 27.5600   1
   3  10  -4 468.870 35.5500   1
   0  15   3 61.4600 16.2100   1
   0  15   3 74.7200 13.5200   1
   0  15   3 57.2000 13.6800   1
   0 -15  -3 60.0000 9.59000   1
   0 -15  -3 63.8100 10.3900   1
   0 -15  -3 72.7600 15.9100   1
   0 -15  -3 80.1500 15.7000   1
   0  15  -3 86.9200 20.1000   1
   0 -15   3 122.710 24.0100   1
   0 -15   3 33.8200 41.1600   1
   0 -15   3 65.5100 13.2000   1
   0  15  -3 96.0800 14.3700   1
  -4 -11   2 974.950 45.6000   1
  -4  11   2 978.860 58.0100   1
   4  11  -2 1063.99 53.2000   1
  -4  11   2 882.550 41.1300   1
   4 -11  -2 1038.86 53.3700   1
   4  11  -2 1058.41 42.8900   1
   4  10  -1 287.230 20.8700   1
   4  10  -1 273.890 18.2800   1
   4 -10  -1 251.060 27.4200   1
  -4  10   1 255.980 40.7500   1
   4  10  -1 247.380 24.7300   1
  -4 -10   1 242.780 23.8500   1
   0  -7  -4 43.5300 10.8800   1
   0   7   4 28.4900 9.40000   1
   0  -7  -4 29.6500 16.0600   1
   0   7  -4 34.1300 10.5700   1
   0   7  -4 24.4700 11.2700   1
   0  -7  -4 28.0200 11.2600   1
   0   7   4 24.2700 20.4500   1
   0  -7   4 -3.8100 20.0900   1
   0  -7   4 57.3700 29.5000   1
   0   7   4 43.5600 21.5000   1
   0   7   4 28.4300 13.3300   1
   0  -7   4 25.8500 11.2900   1
  -1  11   4 38.5300 16.5700   1
   1 -11  -4 55.7500 13.0500   1
   1 -11  -4 57.1400 12.5900   1
   1 -11  -4 52.0400 8.53000   1
   1 -11  -4 54.8800 10.5100   1
   1  11  -4 66.1700 16.4500   1
   1  11  -4 49.6500 9.25000   1
  -1 -11   4 57.1200 12.9000   1
  -1 -11   4 20.3200 19.2000   1
   4   4  -4 388.650 28.1700   1
   4   4  -4 414.400 21.4800   1
   4  -4  -4 434.900 22.5700   1
   4   4  -4 405.200 30.7600   1
   4  -4  -4 515.910 27.7700   1
  -4   4   4 433.030 30.7400   1
   3  11   1 1947.35 81.5900   1
  -3  11  -1 2142.03 92.4000   1
   3 -11   1 1800.54 74.0000   1
   3  11   1 2045.56 77.8100   1
  -3 -11  -1 1842.32 71.5400   1
   3 -11   1 1603.49 82.5700   1
   2 -12  -4 914.710 46.4000   1
   2 -12  -4 735.890 37.0700   1
  -2 -12   4 927.670 44.8000   1
   2  12  -4 779.590 36.1900   1
   2  12  -4 722.030 45.8400   1
   2  12  -4 884.300 42.4200   1
  -4  10   3 245.680 19.2100   1
   4 -10  -3 301.150 22.9400   1
  -4 -10   3 247.060 25.4700   1
   4  10  -3 274.240 17.7000   1
   4  10  -3 291.250 25.8400   1
  -4   6   0 1196.69 55.1100   1
   4  -6   0 1159.33 51.4300   1
   4   6   0 1097.80 46.5100   1
   4   6   0 1256.70 57.9100   1
  -4  -6   0 1175.03 57.1500   1
   0  19   2 1890.49 83.7200   1
   0 -19  -2 1854.27 73.5500   1
   0 -19  -2 2067.87 76.8800   1
   0 -19   2 2029.46 99.7000   1
   0 -19   2 1955.21 76.6400   1
   0  19  -2 2126.05 83.0400   1
   0 -19   2 1917.01 84.9100   1
   3  15   0 29.6400 10.8600   1
   3  15   0 44.1700 12.7500   1
  -3 -15   0 29.0900 8.26000   1
  -3 -15   0 35.1200 12.3900   1
   3  15   0 40.3900 16.2100   1
   3 -15   0 42.0900 25.2200   1
  -3  15   0 15.5800 25.0200   1
   4   5  -4 1025.70 55.1200   1
   4  -5  -4 1158.57 47.1400   1
  -4   5   4 1183.71 56.3200   1
   4   5  -4 1204.34 60.6100   1
   4  -5  -4 1278.53 54.6800   1
   4   5  -4 1383.91 52.7700   1
   4   5  -4 1241.60 58.5800   1
  -1 -17  -2 8.21000 6.47000   1
  -1 -17  -2 -4.1000 15.8300   1
   1  17   2 -2.4700 14.9100   1
  -1 -17  -2 12.6000 9.93000   1
   1  17   2 9.46000 10.5600   1
   1 -17   2 10.9600 17.5800   1
  -1  17  -2 2.17000 19.3600   1
   1 -17   2 14.1000 9.25000   1
   1 -17   2 23.3000 22.0500   1
   0 -21   1 3.30000 20.3900   1
   0 -21   1 1.45000 8.09000   1
   0 -21  -1 0.97000 12.1700   1
   0  21  -1 9.96000 12.6700   1
   0 -21  -1 -3.0700 11.6500   1
   0 -21   1 -12.500 22.3100   1
   0 -21   1 -8.3600 16.3100   1
   0  21   1 -18.800 18.7300   1
   0 -21   1 8.93000 12.5600   1
   0  21   1 -5.8100 7.32000   1
   2 -19   0 1575.38 76.6900   1
  -2 -19   0 1479.36 64.4300   1
   2 -19   0 1670.87 80.7300   1
   2 -19   0 1791.85 74.6900   1
  -2 -19   0 1642.58 66.8400   1
   2  19   0 1676.64 62.0700   1
  -2 -19   0 1723.31 68.4600   1
   1 -21   0 240.890 33.7800   1
  -1 -21   0 264.700 22.3600   1
   1  21   0 321.910 20.2500   1
   1 -21   0 264.220 30.3700   1
  -1  21   0 279.730 26.0500   1
  -1 -21   0 310.250 19.6600   1
   1  21   0 263.010 28.2800   1
   1 -21   0 268.250 23.6400   1
   0   8   4 1364.21 60.5000   1
   0   8   4 1615.80 68.6400   1
   0  -8  -4 1535.74 66.4500   1
   0   8  -4 1621.98 65.4600   1
   0  -8  -4 1561.94 66.4100   1
   0  -8   4 1389.71 60.7300   1
   0  -8   4 1522.02 76.0300   1
   0  -8   4 1531.29 69.0000   1
   0   8   4 1597.43 72.0300   1
   1 -21  -1 179.730 24.3100   1
   1 -21  -1 109.600 29.9200   1
   1 -21  -1 159.100 17.8900   1
  -1  21   1 178.870 17.0100   1
   1 -21  -1 135.720 14.9000   1
   1  21  -1 174.940 16.2900   1
  -1 -21   1 143.300 13.4000   1
  -1 -21   1 177.880 21.2700   1
  -1  21   1 161.590 22.6000   1
  -2 -17  -1 328.410 25.0900   1
   2  17   1 385.000 21.7900   1
   2  17   1 355.670 25.6900   1
  -2 -17  -1 261.570 20.1200   1
  -2 -17  -1 351.950 20.3800   1
   2 -17   1 365.020 24.0600   1
   2 -17   1 363.620 30.9500   1
  -2  17  -1 312.680 39.6900   1
   2 -17   1 316.580 23.5900   1
   2 -17   1 281.270 30.2500   1
   1 -17  -3 2035.78 78.4500   1
   1 -17  -3 2263.05 89.9100   1
  -1 -17   3 2344.25 96.2300   1
   1  17  -3 2128.56 78.9300   1
  -1 -17   3 2126.75 81.4400   1
  -1 -12  -3 1478.16 56.5000   1
   1  12   3 1194.18 52.4600   1
   1  12   3 1367.33 58.1400   1
   1  12   3 1465.95 61.2900   1
  -1  12  -3 1318.90 62.8400   1
   1 -12   3 1123.85 51.2400   1
   1 -12   3 1438.17 71.2400   1
   1 -12   3 1405.54 62.2700   1
  -2  19   2 88.0000 14.5300   1
   2 -19  -2 54.6800 14.4400   1
  -2  19   2 79.8600 10.7100   1
   2 -19  -2 92.1700 19.8800   1
  -2 -19   2 87.7700 14.8200   1
   2  19  -2 95.1800 11.9000   1
  -2 -19   2 91.3000 15.7600   1
   2  19  -2 80.4500 10.8700   1
   3 -11  -4 197.280 16.4200   1
  -3  11   4 182.410 18.2300   1
   3 -11  -4 145.700 23.4500   1
   3 -11  -4 171.340 17.0800   1
   3  11  -4 152.360 16.0100   1
   3  11  -4 162.280 22.5800   1
   3  11  -4 121.890 18.1500   1
   3  11  -4 171.790 18.1400   1
  -3  15   3 -13.950 7.47000   1
   3 -15  -3 4.47000 15.1000   1
  -3 -15   3 9.89000 12.7700   1
   3  15  -3 -8.8800 9.43000   1
   3  15  -3 17.1700 9.48000   1
  -3 -15   3 -4.7400 15.6500   1
   2 -13   2 84.4400 13.2900   1
  -2 -13  -2 107.050 15.6400   1
  -2  13  -2 72.5000 17.3700   1
  -2 -13  -2 75.2200 9.97000   1
   2  13   2 89.5500 22.5200   1
   2  13   2 94.4900 14.3100   1
   2 -13   2 69.3800 22.8600   1
   4  11  -1 13.5900 11.0000   1
  -4  11   1 12.7100 33.5200   1
  -4 -11   1 0.18000 14.9800   1
   4 -11  -1 10.8900 15.8400   1
   4  11  -1 5.83000 14.2900   1
  -4  -7   0 153.250 19.5200   1
   4   7   0 164.130 20.8200   1
   4   7   0 152.790 17.2200   1
  -4   7   0 160.520 24.1300   1
   4  -7   0 182.270 27.1500   1
   4 -12  -2 465.220 32.2400   1
  -4 -12   2 514.410 32.7700   1
   4  12  -2 417.850 27.4600   1
  -4  12   2 356.720 23.5400   1
   4  12  -2 446.110 23.4800   1
  -4  12   2 430.930 43.4000   1
  -1 -20  -1 122.600 13.0300   1
   1  20   1 135.220 13.6400   1
  -1 -20  -1 128.990 15.3700   1
   1 -20   1 116.760 16.9400   1
   1  20   1 99.9800 19.2800   1
   1 -20   1 140.430 20.9600   1
  -1 -20  -1 129.050 20.3600   1
   1 -20   1 147.730 24.7200   1
   4   6  -4 237.370 18.3300   1
   4  -6  -4 240.120 19.2800   1
   4   6  -4 186.660 17.7700   1
   4   6  -4 225.680 23.3000   1
  -4   6   4 169.850 21.9900   1
   4  -6  -4 203.590 17.3300   1
   4   6  -4 154.020 19.0100   1
   2 -17  -3 286.070 23.5400   1
  -2  17   3 295.420 23.5300   1
  -2 -17   3 258.840 21.7100   1
   2  17  -3 236.430 20.0900   1
   2  17  -3 221.790 19.6100   1
   1 -12  -4 1787.76 77.4700   1
  -1  12   4 1784.80 73.5300   1
   1 -12  -4 1951.27 81.3300   1
   1 -12  -4 1521.02 68.5000   1
  -1 -12   4 1819.47 81.7900   1
   1  12  -4 1835.93 69.8900   1
   1  12  -4 1570.33 65.4800   1
  -1 -12   4 1606.89 64.1200   1
   1  20  -2 113.210 14.2200   1
  -1 -20   2 81.2900 17.9000   1
  -1 -20   2 94.8800 15.6400   1
   1 -20  -2 38.9200 33.8300   1
   1 -20  -2 107.060 15.3200   1
   1 -20  -2 129.320 15.1600   1
  -1  20   2 121.920 17.5000   1
  -1 -20   2 122.790 18.3200   1
  -2   0  -3 -2.7300 14.2700   1
   2   0   3 23.0600 17.4300   1
  -3 -17   1 360.890 23.9700   1
   3  17  -1 340.220 20.7100   1
   3 -17  -1 309.890 30.4900   1
  -3  17   1 288.600 22.9900   1
   3  17  -1 267.750 25.4600   1
  -3 -17   1 374.290 27.1500   1
   2  -1   3 26.7200 24.1000   1
   2   1   3 29.2900 17.1100   1
  -2  -1  -3 40.2500 11.8800   1
  -2   1  -3 21.3500 16.0600   1
  -3 -12  -1 740.600 41.3800   1
   3  12   1 725.970 47.4800   1
   3  12   1 814.770 37.6900   1
   3 -12   1 781.580 42.3500   1
  -3  12  -1 661.210 39.8300   1
   4 -11  -3 54.8900 12.7100   1
  -4  11   3 51.9600 9.19000   1
   4  11  -3 66.1300 19.0300   1
   4  11  -3 55.8800 12.6000   1
  -4 -11   3 64.3800 21.3500   1
   4  11  -3 29.0700 12.7100   1
   2 -20  -1 473.160 42.3600   1
  -2  20   1 491.990 32.2600   1
   2  20  -1 468.440 43.0700   1
  -2 -20   1 466.160 26.9600   1
   2  20  -1 530.790 29.9500   1
   2  20  -1 510.360 25.2200   1
  -2 -20   1 449.770 26.1500   1
  -2 -20   1 535.840 32.2800   1
   2 -20  -1 555.690 32.4800   1
  -3  17   2 287.460 20.2700   1
   3 -17  -2 329.390 29.2800   1
  -3  17   2 322.430 22.8000   1
  -3 -17   2 374.370 24.6000   1
   3  17  -2 339.560 20.7100   1
  -3 -17   2 401.370 29.9900   1
   3  17  -2 382.410 23.4100   1
   0  16   3 2635.80 100.920   1
   0 -16  -3 2562.37 111.330   1
   0 -16  -3 2672.76 101.710   1
   0  16   3 2719.28 105.860   1
   0  16   3 2117.24 84.9200   1
   0 -16  -3 2527.55 91.6400   1
   0 -16  -3 2263.65 114.140   1
   0 -16   3 2504.58 103.830   1
   0  16  -3 2176.39 114.900   1
   0 -16   3 2315.39 86.8800   1
   0 -16   3 2192.52 96.6000   1
   0  16  -3 2582.05 94.0400   1
   2   2   3 25.2900 24.0500   1
   2   2   3 38.5800 16.0700   1
   2  -2   3 33.8000 18.0600   1
  -2  -2  -3 45.4400 15.7500   1
  -2   2  -3 29.6300 16.5900   1
   0  22   0 418.840 41.2700   1
   0  22   0 503.950 29.0300   1
   0 -22   0 444.570 29.3100   1
   0 -22   0 388.550 23.4400   1
   2 -13  -4 148.880 18.0300   1
   2 -13  -4 119.540 13.7000   1
   2  13  -4 126.980 14.5100   1
  -2 -13   4 156.110 18.7500   1
   2  13  -4 109.950 17.9100   1
   2  13  -4 150.730 18.9400   1
   0   9  -4 224.840 19.2500   1
   0  -9   4 243.450 29.2900   1
   0   9   4 225.310 23.7100   1
   0  -9  -4 192.130 20.6200   1
   0   9   4 234.690 24.6500   1
   0  -9   4 306.420 46.5900   1
   0  -9  -4 219.990 20.5400   1
   0   9   4 182.300 18.8100   1
   0  -9   4 200.070 20.2600   1
   3   0   2 19.8500 16.1300   1
  -3   0  -2 0.05000 14.8400   1
  -3  -1  -2 1431.22 65.2500   1
   3  -1   2 1253.78 57.4100   1
   3   1   2 1384.18 62.7000   1
  -3   1  -2 1443.39 63.0500   1
   2   3   3 83.2300 20.7400   1
  -2  -3  -3 74.4000 14.9300   1
  -2   3  -3 61.7900 17.1400   1
   2  -3   3 24.6100 24.0100   1
   2   3   3 54.5600 20.9600   1
  -4  -8   0 999.330 50.0600   1
   4   8   0 974.060 44.2500   1
   4   8   0 957.640 51.5300   1
  -4   8   0 952.530 48.0700   1
   4  -8   0 1020.71 50.1200   1
   4  -7  -4 1365.04 56.1800   1
   4   7  -4 1239.73 53.1200   1
   4   7  -4 1384.15 52.5600   1
   4   7  -4 1412.76 63.2500   1
   4   7  -4 1199.49 65.3700   1
   4  -7  -4 1449.26 55.0200   1
  -3  -2  -2 235.590 25.3100   1
  -3   2  -2 212.790 22.0400   1
   3   2   2 267.620 23.4000   1
   3   2   2 213.510 26.2000   1
   3  -2   2 258.560 26.6900   1
   2   0  -5 24.9500 13.6100   1
   2   0  -5 32.1100 14.3000   1
   2   0  -5 23.3500 16.9300   1
   3  16   0 3556.14 133.140   1
  -3  16   0 3113.30 131.300   1
  -3 -16   0 3493.75 127.160   1
   3  16   0 3523.02 121.650   1
   3 -16   0 3193.69 123.230   1
   3   3   2 71.5300 18.0000   1
  -3   3  -2 86.7700 17.3200   1
  -3  -3  -2 73.4700 15.2000   1
   3  -3   2 109.140 27.0800   1
   3   3   2 76.4000 20.9900   1
   3 -12  -4 64.0900 17.9000   1
   3 -12  -4 85.4000 14.4000   1
  -3  12   4 92.3900 11.6900   1
   3 -12  -4 105.680 12.5400   1
   3 -12  -4 96.6500 13.6500   1
   3  12  -4 72.1300 11.8800   1
   3  12  -4 59.0800 12.7000   1
   3  12  -4 86.4300 11.9700   1
   2   4   3 2443.46 99.4800   1
  -2   4  -3 2976.22 112.940   1
   2   4   3 2788.27 109.890   1
  -2  -4  -3 2671.01 96.4100   1
   2  -4   3 2881.57 116.400   1
   2   4   3 2731.05 104.240   1
   2  -1  -5 1605.65 72.2200   1
   2  -1  -5 1576.64 78.0700   1
   2   1  -5 1556.55 66.9500   1
   2  -1  -5 1763.74 69.2100   1
   2   1  -5 1621.28 72.2700   1
  -2  -1   5 1663.68 73.7600   1
   2   1  -5 1434.53 70.2900   1
   2   1  -5 1617.00 67.1800   1
  -1 -13  -3 1107.54 44.6000   1
   1  13   3 1090.65 48.3800   1
   1  13   3 1206.50 52.5300   1
   1  13   3 968.280 47.6500   1
   1 -13   3 1039.87 48.1400   1
   1 -13   3 1147.86 53.4500   1
   1 -13   3 1133.42 57.6500   1
  -1  13  -3 1090.59 64.3400   1
   4  12  -1 1404.45 61.6200   1
   4  12  -1 1336.78 53.8700   1
   4 -12  -1 1294.16 62.1900   1
   4  12  -1 1429.85 57.0400   1
  -4 -12   1 1346.49 58.1800   1
  -4  12   1 1426.42 78.1900   1
   2  -2  -5 45.8600 15.0500   1
   2   2  -5 23.9800 15.1900   1
   2  -2  -5 28.3400 19.6600   1
   2   2  -5 25.6800 11.3900   1
   2   2  -5 47.3600 11.2900   1
  -2  -2   5 41.7500 15.7800   1
   2  -2  -5 46.4300 10.3500   1
   2   2  -5 43.4400 13.1400   1
  -1 -18  -2 28.5000 8.23000   1
   1  18   2 21.6400 8.62000   1
   1  18   2 29.3900 15.8300   1
  -1 -18  -2 -2.9500 15.0200   1
  -1 -18  -2 32.8100 12.8700   1
   1 -18   2 12.3200 27.6500   1
   1 -18   2 -1.1100 13.1700   1
  -1  18  -2 69.9900 27.6300   1
   1 -18   2 19.9100 9.96000   1
   4 -13  -2 477.580 29.3400   1
   4  13  -2 438.190 28.1900   1
   4  13  -2 496.270 24.1200   1
  -4 -13   2 530.670 35.0600   1
  -4  13   2 396.060 24.7800   1
  -4  13   2 390.360 53.3900   1
  -2  14  -2 98.1400 23.6600   1
   2 -14   2 92.6500 13.5200   1
  -2 -14  -2 118.970 16.2400   1
  -2 -14  -2 90.5200 11.5300   1
   2 -14   2 133.250 24.5600   1
   2  14   2 118.230 17.3600   1
   2  14   2 93.9500 24.2100   1
   0 -20  -2 1445.76 52.9500   1
   0  20   2 1363.39 61.3900   1
   0 -20  -2 1367.31 61.6600   1
   0 -20   2 1448.57 60.1100   1
   0 -20   2 1571.87 72.6300   1
   0 -20   2 1254.51 89.8200   1
   0 -20   2 1339.40 65.8200   1
   0 -20   2 1378.65 78.1900   1
   0  20  -2 1436.42 51.8100   1
  -3  -4  -2 1743.88 57.4400   1
   3  -4   2 1550.40 60.6400   1
   3   4   2 1519.05 55.5400   1
   3   4   2 1539.73 56.5600   1
  -3   4  -2 1397.93 56.9200   1
  -1  13   4 32.8800 17.3400   1
   1 -13  -4 56.7600 13.9200   1
   1 -13  -4 42.0500 15.5500   1
   1 -13  -4 46.6800 8.66000   1
  -1 -13   4 28.0700 24.3900   1
   1  13  -4 74.7800 16.4800   1
   1  13  -4 84.3500 15.7900   1
  -1 -13   4 34.7600 13.6800   1
  -3  16   3 18.8100 8.51000   1
  -3  16   3 12.3100 7.75000   1
   3 -16  -3 13.4400 14.9600   1
   3 -16  -3 33.3100 17.6600   1
  -3 -16   3 41.1200 18.9100   1
   3  16  -3 29.0200 8.00000   1
  -3 -16   3 32.3600 18.2800   1
   3  16  -3 32.6100 9.93000   1
   2   3  -5 931.720 38.8800   1
   2  -3  -5 896.510 35.4600   1
   2  -3  -5 914.800 48.9400   1
   2   3  -5 890.100 43.3700   1
   2   3  -5 792.400 40.6900   1
   2  -3  -5 829.420 41.2200   1
  -2  -3   5 920.000 44.3000   1
  -2 -18  -1 853.370 34.9500   1
   2  18   1 817.180 37.3300   1
   2  18   1 828.510 33.9200   1
  -2 -18  -1 714.670 32.6400   1
   2 -18   1 571.040 41.6400   1
   2 -18   1 752.570 36.6100   1
  -2  18  -1 784.940 53.5400   1
   2 -18   1 814.770 44.0800   1
   2 -18   1 838.900 37.0500   1
   4  -8  -4 168.540 16.7800   1
   4   8  -4 117.000 17.3000   1
  -4   8   4 100.120 11.3700   1
   4   8  -4 132.510 16.8100   1
   4   8  -4 135.920 17.9100   1
   4  -8  -4 162.050 16.5300   1
   0 -10  -4 1252.56 42.9500   1
   0  10   4 1228.33 48.9700   1
   0  10   4 1362.82 50.2000   1
   0 -10  -4 1475.50 52.6700   1
   0  10   4 1493.98 58.7800   1
   0 -10   4 1390.46 70.4000   1
   0  10  -4 1500.31 51.6900   1
   0 -10   4 1398.67 53.5900   1
   0 -10   4 1510.34 59.7800   1
   4 -12  -3 252.450 24.8500   1
  -4  12   3 213.930 19.0400   1
   4  12  -3 254.570 20.2400   1
   4  12  -3 254.550 23.5400   1
  -4 -12   3 289.250 30.6300   1
   4  12  -3 214.660 19.1300   1
  -2  -5  -3 82.2500 16.3200   1
   2   5   3 84.6300 17.0700   1
   2  -5   3 105.880 22.3800   1
   2   5   3 98.9800 17.2700   1
  -2   5  -3 103.760 20.6000   1
   2   5   3 89.7200 23.8500   1
   1 -18  -3 31.8300 11.9300   1
   1 -18  -3 34.1900 17.6500   1
   1  18  -3 31.1100 14.4400   1
  -1 -18   3 85.3200 28.0500   1
  -1 -18   3 15.0700 11.2000   1
   3   0  -5 1533.34 62.4000   1
   3   0  -5 1427.40 46.9600   1
   3   0  -5 1627.16 57.6400   1
   4  -9   0 289.020 27.6500   1
  -4  -9   0 329.980 33.6500   1
   4   9   0 334.910 24.6300   1
  -4   9   0 358.570 32.9100   1
  -2 -20   0 1631.46 54.7800   1
  -2 -20   0 1437.12 50.9100   1
  -2 -20   0 1249.39 51.7500   1
   2  20   0 1339.91 47.6800   1
   2 -20   0 1352.98 64.5000   1
   2 -20   0 1539.76 77.6300   1
   2 -20   0 1403.74 55.5100   1
   3 -13   1 972.440 50.4000   1
  -3  13  -1 1169.68 49.6100   1
   3  13   1 1225.82 51.7000   1
  -3 -13  -1 1228.36 49.1800   1
   3 -13   1 1169.64 52.7500   1
   3  13   1 1164.25 42.1100   1
   3   1  -5 215.420 32.1900   1
   3   1  -5 234.110 20.8500   1
   3  -1  -5 259.070 19.3500   1
   3  -1  -5 245.800 27.8400   1
   3   1  -5 234.160 29.0900   1
   3   1  -5 226.670 18.9200   1
   3  -1  -5 243.420 21.2200   1
   0 -22   1 1046.72 40.0000   1
   0 -22   1 859.720 68.2800   1
   0  22   1 829.970 45.3200   1
   0 -22   1 1029.73 47.6200   1
   0 -22   1 990.590 38.0200   1
   0 -22  -1 993.980 42.8600   1
   0  22  -1 952.100 35.2800   1
   0 -22  -1 976.160 35.0800   1
   0  22   1 1046.33 39.2000   1
   3  -2  -5 1815.25 53.3500   1
   3   2  -5 1502.27 69.6200   1
   3   2  -5 1755.90 55.5000   1
   3  -2  -5 1778.87 63.8700   1
   3   2  -5 1784.87 58.7900   1
   3   2  -5 1686.04 70.8000   1
   3  -2  -5 1737.89 67.0000   1
   2 -20  -2 394.420 34.8500   1
   2 -20  -2 576.730 29.7100   1
  -2  20   2 493.320 25.7500   1
  -2  20   2 536.620 30.8500   1
   2  20  -2 525.110 24.7800   1
  -2 -20   2 548.520 28.7800   1
   2  20  -2 444.890 34.3100   1
  -2 -20   2 379.280 32.3100   1
  -1 -22   0 391.120 30.3100   1
  -1  22   0 365.110 28.9200   1
   1  22   0 357.290 25.3400   1
   1 -22   0 361.250 30.0300   1
   1 -22   0 272.270 38.2300   1
   1 -22   0 317.190 31.1700   1
   1 -22   0 240.730 23.0500   1
  -1 -22   0 348.840 26.2600   1
   1 -22   0 260.100 35.8600   1
   2   4  -5 216.920 20.1300   1
  -2  -4   5 253.780 27.5200   1
   2   4  -5 216.880 23.1600   1
   2  -4  -5 205.780 33.2200   1
   2  -4  -5 229.790 21.3900   1
   2  -4  -5 231.080 24.9300   1
   2   4  -5 241.530 24.2200   1
  -3   5  -2 630.500 40.8300   1
   3   5   2 664.020 34.6700   1
   3   5   2 651.090 35.1700   1
   3  -5   2 575.440 32.9500   1
  -3  -5  -2 606.730 33.0500   1
   1 -22  -1 304.990 42.7000   1
   1 -22  -1 328.680 27.7600   1
   1 -22  -1 266.320 24.5400   1
   1 -22  -1 268.990 23.1100   1
  -1 -22   1 311.360 22.9400   1
  -1  22   1 260.500 29.5100   1
  -1 -22   1 317.870 24.4400   1
  -1  22   1 278.310 23.0700   1
   1  22  -1 288.430 20.8300   1
   2 -18  -3 3927.90 107.070   1
   2  18  -3 3685.40 96.0100   1
  -2 -18   3 4112.61 112.850   1
   2  14  -4 390.630 28.9000   1
   2 -14  -4 461.850 37.2800   1
   2  14  -4 470.960 25.1800   1
   2 -14  -4 328.400 25.1600   1
   2 -14  -4 415.620 29.5400   1
   2  14  -4 222.580 32.5700   1
   2  14  -4 274.910 26.7400   1
  -2 -14   4 408.210 29.7200   1
   3   3  -5 756.930 45.1700   1
   3  -3  -5 949.560 39.0300   1
   3   3  -5 841.780 31.6300   1
   3   3  -5 862.550 38.3600   1
   3  -3  -5 937.360 47.5100   1
  -3  18   1 314.060 28.2400   1
   3  18  -1 382.010 29.5200   1
   3 -18  -1 378.290 39.8200   1
  -3 -18   1 432.220 33.5800   1
   3  18  -1 447.330 31.1500   1
  -3 -18   1 346.800 27.4300   1
  -2  -6  -3 904.610 34.6700   1
   2   6   3 792.670 35.5000   1
   2  -6   3 1003.47 47.8300   1
   2   6   3 911.280 39.4400   1
   2   6   3 884.730 41.1400   1
  -2   6  -3 865.840 38.3700   1
   0 -17  -3 163.970 17.0500   1
   0  17   3 148.900 15.9100   1
   0  17   3 139.400 24.0500   1
   0 -17  -3 149.620 14.9000   1
   0 -17   3 115.010 15.7600   1
   0 -17   3 166.720 34.4400   1
   0  17  -3 174.430 17.4500   1
  -1 -21  -1 177.170 17.7800   1
  -1 -21  -1 226.290 24.0900   1
   1 -21   1 192.310 19.8400   1
   1  21   1 211.050 31.7800   1
   1 -21   1 211.330 30.2100   1
   1 -21   1 170.680 22.9400   1
  -1 -21  -1 228.160 18.0800   1
   1  21   1 193.880 18.9300   1
   3 -18  -2 5019.46 139.080   1
   3 -18  -2 5003.85 141.500   1
  -3  18   2 5054.72 289.680   1
  -3  18   2 4349.32 114.990   1
   3  18  -2 5184.43 291.880   1
  -3 -18   2 5284.90 299.600   1
   3  18  -2 4517.32 114.580   1
   2   5  -5 2237.52 67.0700   1
   2  -5  -5 1927.37 97.7600   1
  -2  -5   5 2270.92 74.8700   1
   2  -5  -5 2269.39 74.4000   1
   2  -5  -5 2069.77 80.0800   1
  -2   5   5 2240.06 73.1800   1
   2   5  -5 1919.10 66.4200   1
   2  -5  -5 2312.41 72.1600   1
   1 -21  -2 930.780 48.6200   1
  -1  21   2 805.440 44.4200   1
   1 -21  -2 980.080 41.1800   1
  -1 -21   2 968.330 41.7500   1
   1  21  -2 1045.65 40.8000   1
  -1 -21   2 778.730 54.0000   1
  -1 -21   2 796.080 42.5400   1
  -3  13   4 59.6000 11.7600   1
   3 -13  -4 50.3200 8.70000   1
   3 -13  -4 28.3500 15.9900   1
   3 -13  -4 58.5800 13.7000   1
   3 -13  -4 47.8700 11.6800   1
  -3 -13   4 66.9400 18.4600   1
   3  13  -4 45.6800 10.9200   1
   3  13  -4 58.5400 14.4700   1
   4  -9  -4 1076.29 42.2000   1
  -4  -9   4 990.670 58.4700   1
   4   9  -4 968.060 53.0800   1
   4   9  -4 884.290 53.8300   1
   4  -9  -4 1027.74 37.1700   1
   4   9  -4 1137.72 47.8200   1
   5   0  -2 2.38000 16.6500   1
  -5   0   2 39.2600 20.4200   1
   3  -4  -5 725.590 28.9800   1
   3   4  -5 623.970 44.5000   1
   3  -4  -5 716.160 39.9500   1
   3   4  -5 634.250 30.5600   1
   3   4  -5 702.430 30.9500   1
   4  13  -1 195.180 22.6900   1
   4  13  -1 226.610 21.5000   1
  -4  13   1 254.800 44.7000   1
   4  13  -1 235.340 19.0700   1
  -4 -13   1 216.690 22.2800   1
   4 -13  -1 195.280 28.6400   1
  -3   6  -2 1514.87 59.5200   1
  -3   6  -2 1523.27 66.6100   1
   3   6   2 1563.57 52.4600   1
   3  -6   2 1536.28 56.8100   1
   3   6   2 1418.74 51.7200   1
   1 -14   3 239.100 35.9900   1
  -1  14  -3 243.680 26.6400   1
  -1 -14  -3 239.820 21.4500   1
   1 -14   3 261.680 22.7300   1
  -1 -14  -3 246.690 20.7800   1
  -1 -14  -3 258.070 24.1600   1
   1  14   3 228.400 21.9900   1
   1 -14   3 294.980 26.4600   1
   1  14   3 273.890 22.3200   1
   1  14   3 214.840 22.4300   1
   5   1  -2 2420.62 69.5500   1
   5  -1  -2 2331.30 70.5800   1
  -5   1   2 2213.80 79.2200   1
  -5  -1   2 2385.13 76.4000   1
   2  21  -1 561.140 25.2200   1
  -2 -21   1 394.680 27.7500   1
  -2 -21   1 520.790 24.9800   1
   2 -21  -1 559.000 27.0800   1
   2  21  -1 480.060 43.0500   1
   2 -21  -1 493.230 35.2000   1
  -2  21   1 519.910 30.6600   1
  -2 -21   1 625.750 30.6600   1
   2  21  -1 470.510 26.2100   1
  -4 -10   0 3112.02 99.2100   1
   4  10   0 3214.65 98.9000   1
   4  10   0 3117.13 84.9000   1
   4 -10   0 3079.95 94.6800   1
  -4  10   0 2949.78 94.9700   1
   0 -11   4 116.400 32.8800   1
   0 -11   4 158.160 26.0900   1
   0  11   4 144.840 21.3700   1
   0 -11  -4 144.490 16.0600   1
   0  11   4 129.810 22.2800   1
   0  11   4 127.620 13.8700   1
   0  11  -4 150.920 17.4300   1
   0 -11  -4 150.320 14.9500   1
   0 -11   4 139.970 17.6000   1
   5  -2  -2 198.570 22.0400   1
  -5  -2   2 178.110 23.5300   1
   5   2  -2 171.730 21.0000   1
  -5   2   2 187.570 26.2700   1
   5   0  -3 4752.13 117.840   1
  -5   0   3 4436.19 131.480   1
  -5   0   3 3892.55 118.430   1
   5   0  -3 4118.02 104.940   1
  -4 -14   2 242.430 22.1000   1
   4  14  -2 221.880 22.9200   1
   4  14  -2 197.690 18.4900   1
  -4  14   2 245.110 39.4800   1
   4 -14  -2 301.650 30.1500   1
  -4  14   2 184.580 16.6600   1
  -5   1   3 379.310 43.6200   1
   5   1  -3 277.390 20.7800   1
  -5  -1   3 229.050 23.2100   1
   5  -1  -3 332.890 23.4600   1
   5   1  -3 245.980 22.9900   1
  -5  -1   3 307.180 33.4300   1
  -5   1   3 336.730 29.0600   1
   5  -1  -3 257.740 20.3400   1
  -3  17   0 97.2100 28.7300   1
  -3 -17   0 92.3200 14.0600   1
   3 -17   0 96.2800 27.6400   1
   3  17   0 115.300 22.8000   1
   3  17   0 100.950 14.7700   1
  -1   0  -4 0.00000 11.5800   1
   1   0   4 24.4800 17.6600   1
   2   7   3 0.35000 13.7900   1
   2   7   3 15.2900 14.7900   1
  -2   7  -3 -3.8200 12.5900   1
   2  -7   3 14.6700 20.0900   1
   2   7   3 19.5400 12.8200   1
  -2  -7  -3 3.96000 15.4500   1
   2  -7   3 3.30000 9.75000   1
   0 -23   0 2.16000 10.8900   1
   0  23   0 6.63000 10.7900   1
   0 -23   0 -8.3200 16.4900   1
   1  -1   4 98.6000 26.3000   1
   1   1   4 137.050 25.7900   1
  -1  -1  -4 152.010 14.7500   1
  -1   1  -4 116.040 12.8800   1
   4  13  -3 122.920 17.8800   1
  -4  13   3 107.060 14.2300   1
   4  13  -3 143.170 14.2500   1
   4 -13  -3 146.630 17.8300   1
  -4 -13   3 179.730 24.5000   1
   4  13  -3 126.580 21.8700   1
   1  14  -4 1760.62 182.240   1
   1  14  -4 2089.18 109.340   1
   1  14  -4 2763.12 76.7900   1
   1 -14  -4 2892.58 87.9900   1
  -1 -14   4 2567.25 77.2900   1
  -1 -14   4 2749.64 85.3100   1
  -1  14   4 2666.21 78.0200   1
   2  15   2 557.470 29.6400   1
   2  15   2 520.150 25.5800   1
   2 -15   2 437.340 44.7600   1
   2 -15   2 386.900 32.0900   1
  -2 -15  -2 342.310 25.9800   1
  -2 -15  -2 457.870 31.7900   1
  -2  15  -2 460.770 41.1300   1
  -5  -2   3 1454.62 54.2900   1
   5  -2  -3 1805.22 56.7200   1
  -5  -2   3 1605.18 64.1200   1
  -5   2   3 1717.71 66.1800   1
   5   2  -3 1850.40 56.3600   1
  -5   2   3 1463.19 61.0500   1
   5   2  -3 1864.81 55.1100   1
   5  -2  -3 1776.60 53.3200   1
  -2  -6   5 422.380 33.0700   1
   2  -6  -5 357.870 44.8600   1
   2   6  -5 394.730 27.1400   1
   2  -6  -5 392.480 28.9900   1
   2  -6  -5 371.530 28.0700   1
  -2   6   5 402.500 32.0600   1
   2   6  -5 364.520 30.3300   1
   2  -6  -5 365.960 33.8600   1
   2   6  -5 346.110 28.2600   1
   5   3  -2 2036.09 66.5200   1
  -5   3   2 1966.66 74.3400   1
   5   3  -2 1968.54 58.2200   1
   5  -3  -2 1891.32 58.1700   1
   5   3  -2 2023.27 58.6600   1
  -5  -3   2 2033.70 71.1600   1
   3  -5  -5 1495.55 66.6000   1
   3   5  -5 1551.86 53.6300   1
   3  -5  -5 1636.94 49.0200   1
   3   5  -5 1444.31 68.8200   1
   3   5  -5 1533.64 54.1900   1
   1   2   4 595.960 37.2200   1
   1   2   4 468.210 36.0200   1
   1  -2   4 637.910 40.9400   1
  -1   2  -4 666.560 31.9900   1
  -1  -2  -4 609.110 30.0200   1
   3  14   1 306.440 37.7900   1
   3  14   1 360.050 26.6700   1
  -3 -14  -1 365.660 25.9500   1
  -3  14  -1 369.290 38.8100   1
   3 -14   1 284.110 28.4600   1
   3 -14   1 373.270 36.1200   1
  -3   7  -2 1792.85 66.1300   1
  -3   7  -2 1673.26 70.4300   1
  -3  -7  -2 1498.98 51.6300   1
   3  -7   2 1507.35 56.4200   1
   3   7   2 1609.78 55.7600   1
   3   7   2 1658.62 60.0300   1
   5  -3  -3 485.010 25.1600   1
   5   3  -3 472.400 21.9100   1
  -5  -3   3 422.830 33.1900   1
  -5   3   3 544.880 47.5000   1
  -5  -3   3 497.320 39.0100   1
  -5   3   3 398.700 34.8300   1
   5  -3  -3 464.800 32.6400   1
   5   3  -3 450.550 32.2600   1
   3  17  -3 23.0200 12.3700   1
  -3  17   3 14.5300 7.61000   1
  -3  17   3 17.2200 7.68000   1
   3 -17  -3 12.4300 13.8500   1
   3 -17  -3 28.8700 17.5100   1
  -3 -17   3 45.3400 18.8900   1
  -3 -17   3 9.95000 16.3600   1
   3  17  -3 9.61000 8.29000   1
  -1   0   5 4.32000 16.2100   1
   1   0  -5 8.67000 11.0500   1
   1   0  -5 -6.1000 10.8000   1
   1   0  -5 -9.5600 17.0200   1
   1   0  -5 -10.360 8.98000   1
  -1   3  -4 1212.04 43.1400   1
  -1  -3  -4 1275.93 42.7600   1
   1   3   4 1008.90 44.2700   1
   1  -3   4 1283.34 51.7500   1
   1   3   4 1112.53 46.0300   1
   1   3   4 1197.98 52.1900   1
   1  19   2 4.68000 15.5600   1
   1  19   2 5.37000 11.2500   1
   1 -19   2 7.52000 10.2500   1
  -1 -19  -2 7.89000 13.0900   1
   1 -19   2 -7.6300 18.9200   1
   1 -19   2 38.7500 28.5900   1
  -1 -19  -2 9.40000 7.40000   1
  -1 -19  -2 5.79000 11.3100   1
  -1  -1   5 45.2000 17.2600   1
   1  -1  -5 42.4500 15.6100   1
  -1   1   5 57.3200 22.2500   1
   1  -1  -5 44.9300 10.0100   1
   1   1  -5 64.5500 12.1000   1
   1  -1  -5 42.0400 12.1400   1
   1   1  -5 28.9600 14.3500   1
   1  -1  -5 57.0100 14.8600   1
   1   1  -5 40.4400 10.4100   1
   5   4  -2 538.630 23.9300   1
   5   4  -2 428.840 29.3300   1
   5  -4  -2 487.390 25.0200   1
   5   4  -2 511.180 28.7900   1
  -5   4   2 564.150 36.6100   1
  -5  -4   2 464.290 39.6500   1
   4 -10  -4 75.6800 13.6500   1
   4  10  -4 60.0100 15.5000   1
  -4  10   4 80.1900 10.5400   1
   4  10  -4 53.2600 10.8700   1
   4 -10  -4 58.8400 10.4600   1
   4  10  -4 33.1500 13.1100   1
  -4 -10   4 105.710 34.6100   1
   1  -2  -5 6.55000 10.9900   1
   1   2  -5 16.4600 11.4500   1
   1  -2  -5 -6.1200 12.0200   1
   1  -2  -5 24.9500 12.4600   1
   1  -2  -5 12.6100 8.61000   1
   1   2  -5 27.0400 11.0800   1
   1   2  -5 44.7400 15.4000   1
  -1  -2   5 33.1600 23.7700   1
  -1   2   5 19.9400 19.6400   1
   2 -15  -4 50.9800 14.4700   1
   2 -15  -4 60.5500 13.5300   1
   2 -15  -4 76.2300 15.7100   1
   2  15  -4 61.4600 11.9600   1
  -2 -15   4 54.0100 12.1200   1
   2  15  -4 47.9800 11.0000   1
   2  15  -4 36.7200 11.9800   1
   2  15  -4 60.2000 10.6500   1
   2 -19   1 486.660 28.4800   1
  -2 -19  -1 452.110 32.1600   1
   2 -19   1 422.910 33.2100   1
  -2  19  -1 561.470 48.2600   1
   2  19   1 480.840 28.6800   1
   2 -19   1 422.690 37.9800   1
  -2 -19  -1 463.700 35.6900   1
   3   6  -5 41.2700 10.9400   1
   3  -6  -5 55.1100 9.14000   1
   3   6  -5 55.0100 22.9700   1
   3   6  -5 55.9000 13.3500   1
   3   6  -5 50.4000 13.8800   1
  -3   6   5 49.0500 11.9600   1
   3  -6  -5 19.6000 13.4400   1
   3   6  -5 43.2700 9.18000   1
  -3   6   5 44.0200 12.6800   1
   1 -19  -3 698.500 32.6100   1
   1 -19  -3 705.070 31.3900   1
  -1 -19   3 675.760 40.3900   1
   1  19  -3 715.500 29.1600   1
  -1 -19   3 677.720 31.5800   1
   0 -21   2 918.700 62.6600   1
   0 -21   2 948.910 40.7300   1
   0 -21  -2 928.170 41.2500   1
   0  21  -2 960.890 40.9300   1
   0 -21  -2 934.950 34.3000   1
   0 -21   2 691.680 52.7500   1
   0 -21   2 910.180 45.7800   1
   0 -21   2 961.340 53.1400   1
  -5   4   3 1785.74 77.4900   1
  -5  -4   3 1836.10 65.1800   1
   5  -4  -3 1829.94 54.0500   1
   5   4  -3 1690.42 48.4000   1
   5  -4  -3 1839.08 56.4100   1
   5   4  -3 1877.79 54.9300   1
   5   4  -3 1866.02 63.0100   1
  -5   4   3 1491.10 56.4000   1
  -5  -4   3 1577.27 62.9100   1
  -2   8  -3 4061.14 114.010   1
   2   8   3 4243.34 110.590   1
   2   8   3 4312.36 121.660   1
   2  -8   3 4327.85 127.810   1
   2   8   3 3592.72 100.960   1
   2  -7  -5 249.020 20.4100   1
  -2   7   5 240.260 21.7000   1
   2   7  -5 207.550 20.4300   1
   2  -7  -5 252.540 25.4800   1
   2   7  -5 270.800 23.1200   1
   2   7  -5 278.400 23.6500   1
   2  -7  -5 206.710 34.0400   1
  -2  -7   5 307.400 27.7800   1
   2  -7  -5 222.780 24.2300   1
   2  -7  -5 232.100 22.4000   1
  -1  -4  -4 964.150 38.4200   1
   1   4   4 737.410 36.2400   1
   1  -4   4 892.280 42.6100   1
   1   4   4 961.170 43.9100   1
  -1   4  -4 839.940 32.4900   1
   1   4   4 1072.13 46.1000   1
  -1   3   5 714.110 41.4300   1
   1  -3  -5 657.940 34.9800   1
   1   3  -5 696.090 42.0900   1
   1  -3  -5 641.500 33.9100   1
   1  -3  -5 792.380 34.7300   1
   1   3  -5 748.540 33.4600   1
   1  -3  -5 713.490 30.8300   1
   1   3  -5 766.820 34.5700   1
  -1  -3   5 739.350 41.0200   1
  -4  11   0 136.680 32.3200   1
   4  11   0 138.560 21.7100   1
   4 -11   0 85.1400 26.8200   1
  -4 -11   0 124.050 26.0800   1
   5  -5  -2 1720.59 59.9100   1
   5   5  -2 1646.90 54.2100   1
   5   5  -2 1687.51 54.7100   1
  -5  -5   2 1723.98 59.3300   1
  -5   5   2 1636.04 64.9900   1
   5   5  -2 1736.38 61.7800   1
  -2 -21   0 291.020 22.4700   1
   2  21   0 253.570 20.5000   1
  -2 -21   0 217.510 20.1700   1
  -2 -21   0 267.520 24.5500   1
   2 -21   0 218.530 25.5400   1
   2 -21   0 218.870 33.8900   1
   3 -14  -4 827.870 40.8300   1
   3  14  -4 689.340 26.5400   1
   3  14  -4 600.340 37.3000   1
  -3  14   4 766.080 34.5100   1
  -3 -14   4 800.050 36.4700   1
  -4   0  -1 4.25000 24.0100   1
  -4   0  -1 -18.700 16.1500   1
   4   0   1 -15.770 22.4300   1
   0 -12   4 1225.34 49.7400   1
   0 -12  -4 1100.87 46.1600   1
   0 -12  -4 1345.48 44.7100   1
   0  12  -4 1046.90 43.9200   1
   0  12   4 1028.54 44.7700   1
   0 -12   4 1250.30 67.8400   1
   0 -12   4 1371.17 60.5500   1
   0  12   4 1332.56 54.9300   1
   0 -12  -4 1212.78 46.0500   1
   0  12   4 1289.12 52.4000   1
  -4  -1  -1 60.1900 17.5200   1
   4  -1   1 86.6000 22.5500   1
   4   1   1 92.3000 17.7600   1
  -4   1  -1 31.4600 17.7200   1
  -4   1  -1 70.1600 23.3500   1
   2 -19  -3 237.650 21.4400   1
  -2 -19   3 262.210 21.8400   1
   2  19  -3 240.410 18.6400   1
   4  14  -1 1969.08 64.3300   1
  -4 -14   1 1997.50 62.3700   1
   4  14  -1 2141.40 59.9900   1
  -4  14   1 2051.34 89.7500   1
   4 -14  -1 2057.20 73.9300   1
  -3   8  -2 629.620 35.9900   1
   3  -8   2 670.940 40.4100   1
  -3  -8  -2 658.110 28.7200   1
   3   8   2 652.790 40.3800   1
   3   8   2 684.410 33.6400   1
   2 -21  -2 712.720 54.1100   1
  -2  21   2 780.060 40.3800   1
  -2 -21   2 669.460 40.0800   1
  -2 -21   2 809.720 40.5300   1
   2  21  -2 797.780 33.8500   1
  -2  21   2 714.330 31.1300   1
   2  21  -2 774.960 37.8500   1
   2 -21  -2 755.600 39.3600   1
   0 -18   3 473.920 24.3500   1
   0  18   3 584.920 32.8400   1
   0  18   3 524.040 29.7600   1
   0 -18   3 580.310 41.3600   1
   0  18   3 427.210 43.4700   1
   0 -18   3 651.790 54.9700   1
   0 -18  -3 592.940 33.1700   1
   0  18  -3 541.410 26.5600   1
   0 -18  -3 460.980 33.7200   1
   4   2   1 133.960 20.6200   1
   4   2   1 85.2900 17.3600   1
  -4   2  -1 118.650 23.3300   1
  -4   2  -1 74.6000 18.8000   1
  -4  -2  -1 136.320 19.9100   1
   4  -2   1 137.490 20.2600   1
   5   5  -3 1626.92 52.5900   1
   5   5  -3 1481.29 56.4800   1
  -5   5   3 1343.03 54.0200   1
  -5  -5   3 1344.67 59.6600   1
   5  -5  -3 1600.68 52.7200   1
  -5  -5   3 1614.64 59.1700   1
  -5   5   3 1592.52 66.9100   1
   5   5  -3 1624.35 48.2600   1
  -1  15  -3 1158.15 59.7700   1
  -1 -15  -3 1200.82 45.5900   1
   1  15   3 788.690 72.5800   1
   1  15   3 1120.05 48.5800   1
   1 -15   3 1158.25 51.2100   1
  -1 -15  -3 1120.86 42.9600   1
   1 -15   3 1025.56 43.3000   1
   1  15   3 1105.55 41.3800   1
   1 -15   3 1116.16 55.3300   1
  -3 -19   1 677.680 35.5400   1
   3  19  -1 623.310 25.6200   1
  -3 -19   1 568.130 30.2400   1
   3  19  -1 556.310 31.1300   1
   3 -19  -1 588.310 38.7400   1
  -1  -4   5 73.4500 19.8200   1
  -1   4   5 58.4500 16.1200   1
   1   4  -5 27.1600 9.77000   1
  -1   4   5 70.1900 17.2900   1
   1  -4  -5 57.9900 12.2900   1
   1   4  -5 77.1800 15.0100   1
   1  -4  -5 73.2300 13.2600   1
   1  -4  -5 55.9600 10.8800   1
   1   4  -5 55.2400 9.71000   1
  -1  -5  -4 759.550 31.6400   1
   1  -5   4 592.450 30.1200   1
   1   5   4 770.190 38.0700   1
   1   5   4 725.180 41.0100   1
  -1   5  -4 852.530 36.4900   1
   1  -5   4 761.240 45.1600   1
   1   5   4 715.310 38.2600   1
   0 -23   1 57.7100 18.5700   1
   0 -23   1 49.3300 13.8100   1
   0 -23   1 26.8900 21.3800   1
   0  23   1 44.4300 18.8600   1
   0 -23  -1 53.7300 13.6500   1
   0  23  -1 48.7400 10.2400   1
   0  23   1 30.6400 8.25000   1
   0 -23  -1 33.1000 9.80000   1
   0 -23   1 36.0100 9.29000   1
   3  -7  -5 1332.43 50.8400   1
   3   7  -5 1176.45 73.3200   1
   3   7  -5 1198.57 47.4100   1
   3  -7  -5 1143.57 56.8900   1
  -3   7   5 1277.03 51.9100   1
  -3   7   5 1104.44 44.2800   1
   3   7  -5 1206.55 42.0600   1
   3  -7  -5 1256.70 42.4800   1
   3  19  -2 7.01000 10.5400   1
  -3 -19   2 18.2000 18.2800   1
   3  19  -2 -2.6900 13.0400   1
  -3 -19   2 -15.360 13.2200   1
   3 -19  -2 -0.4600 19.0100   1
  -3  19   2 3.50000 9.39000   1
  -3  19   2 14.0300 10.7700   1
   3 -19  -2 7.22000 13.6300   1
   1 -23   0 648.170 46.0800   1
  -1 -23   0 766.120 31.8600   1
   1  23   0 899.780 37.9900   1
  -1  23   0 784.940 33.6200   1
  -1 -23   0 856.070 35.8400   1
   1 -23   0 737.840 35.7500   1
   1 -23   0 760.200 60.8000   1
   1 -23   0 689.340 48.7400   1
  -1  23   1 136.370 19.6800   1
   1 -23  -1 104.230 21.5900   1
   1 -23  -1 80.2100 27.4600   1
   1 -23  -1 141.660 17.3400   1
  -1 -23   1 177.180 18.6000   1
  -1  23   1 158.000 15.4100   1
   1  23  -1 151.410 15.4400   1
   1 -23  -1 96.3800 13.6600   1
  -1 -23   1 134.380 14.1600   1
  -4 -15   2 247.520 29.2700   1
   4  15  -2 248.660 18.5600   1
   4  15  -2 284.630 29.3000   1
  -4 -15   2 239.540 21.8900   1
   4 -15  -2 295.950 27.4600   1
  -4  15   2 216.620 19.5700   1
  -4 -14   3 492.190 30.1800   1
   4  14  -3 531.260 24.0600   1
   4  14  -3 518.370 31.6100   1
   4  14  -3 464.140 38.2400   1
  -4  14   3 455.830 34.7700   1
   4 -14  -3 496.010 35.6200   1
   4  -3   1 26.4400 17.2900   1
  -4  -3  -1 70.7800 20.4000   1
   4   3   1 -2.8100 20.6900   1
  -4   3  -1 36.8000 16.4100   1
  -4   3  -1 70.2000 19.7600   1
  -5  -6   2 414.660 35.9500   1
  -5   6   2 341.480 34.8300   1
   5   6  -2 396.330 33.0700   1
   5   6  -2 418.840 31.4500   1
   5   6  -2 435.070 28.5800   1
   5  -6  -2 382.560 28.0600   1
   1 -15  -4 45.8600 15.5900   1
  -1  15   4 53.8600 18.2700   1
   1 -15  -4 34.5600 7.42000   1
   1 -15  -4 28.0200 14.3200   1
  -1 -15   4 37.8200 26.0100   1
  -1 -15   4 69.0200 12.2600   1
   1  15  -4 61.8500 16.6000   1
  -2  -8   5 74.8600 18.8700   1
   2  -8  -5 103.170 14.0400   1
   2  -8  -5 100.210 12.7400   1
   2  -8  -5 101.210 19.1500   1
   2   8  -5 120.530 14.6500   1
   2   8  -5 103.450 16.9400   1
   2  -8  -5 84.0300 15.1500   1
  -2   8   5 125.400 18.4000   1
   2  -8  -5 63.6400 23.3000   1
   2   8  -5 93.1200 12.0100   1
  -1 -22  -1 1176.31 44.8700   1
  -1 -22  -1 1209.70 51.4400   1
   1  22   1 1442.67 52.1600   1
  -1 -22  -1 1400.05 48.4000   1
   1 -22   1 1184.66 55.5400   1
   1  22   1 1063.09 51.4600   1
   1 -22   1 1366.77 62.6500   1
   1 -22   1 1334.42 72.2400   1
   1 -22   1 1408.09 54.9200   1
  -2 -16  -2 65.8900 8.93000   1
  -2 -16  -2 89.3000 16.4700   1
   2  16   2 84.4000 12.9200   1
   2  16   2 52.1300 22.8800   1
  -2  16  -2 78.9500 19.5700   1
   2 -16   2 44.6500 9.24000   1
   2 -16   2 91.3500 31.4500   1
   2  -9   3 138.090 32.9100   1
   2   9   3 105.770 20.4200   1
   2  -9   3 102.800 13.8300   1
  -2  -9  -3 144.920 15.5600   1
  -2   9  -3 143.320 22.8800   1
   2   9   3 102.850 15.8100   1
  -4 -11   4 634.350 49.3000   1
   4  11  -4 546.270 35.7500   1
   4 -11  -4 591.570 25.6200   1
   4  11  -4 627.350 24.6700   1
  -4  11   4 530.740 26.6200   1
   4  11  -4 683.070 35.4800   1
   4 -11  -4 708.950 36.1400   1
   1   5  -5 783.160 35.0700   1
   1  -5  -5 817.580 35.6600   1
   1  -5  -5 749.460 34.4500   1
   1  -5  -5 742.580 39.5700   1
  -1   5   5 735.190 36.1000   1
   1   5  -5 673.190 39.5200   1
   1   5  -5 739.080 34.9100   1
  -1  -5   5 816.020 46.3900   1
  -1   5   5 765.400 43.5800   1
   3  15   1 1304.40 42.8400   1
   3  15   1 1103.28 45.0400   1
  -3 -15  -1 1379.09 47.9900   1
  -3  15  -1 1369.08 57.5100   1
   3 -15   1 1159.29 54.0700   1
   5   6  -3 1137.79 36.8600   1
  -5  -6   3 846.570 48.2100   1
   5   6  -3 1160.88 39.5800   1
   5   6  -3 1121.10 49.7700   1
  -5   6   3 1094.27 66.4900   1
   5  -6  -3 1151.74 44.0500   1
  -5  -6   3 1096.63 49.5000   1
  -1 -22   2 89.4900 14.6000   1
   1 -22  -2 40.0700 17.2300   1
  -1  22   2 70.3400 15.3600   1
  -1 -22   2 39.8800 16.5000   1
  -1 -22   2 34.8800 11.1900   1
   1 -22  -2 45.6200 11.9600   1
   1  22  -2 77.3600 15.0300   1
   3 -18   0 2374.05 85.5400   1
  -3  18   0 2500.68 98.4800   1
  -3 -18   0 2359.46 77.6300   1
  -3 -18   0 2308.28 69.8100   1
   3  18   0 2526.05 71.2200   1
   3  18   0 2403.25 74.2700   1
   4   4   1 516.350 27.2300   1
   4  -4   1 442.410 36.3100   1
  -4  -4  -1 610.760 33.8500   1
  -4   4  -1 523.180 30.7600   1
   4   4   1 602.760 33.8600   1
  -1  -6  -4 2437.76 69.4100   1
  -1   6  -4 2302.63 71.7800   1
   1   6   4 2058.21 67.4000   1
   1  -6   4 2571.11 87.9800   1
   1   6   4 2408.67 75.8000   1
   1   6   4 2487.55 75.9700   1
   2  22  -1 61.5600 22.2500   1
   2 -22  -1 48.9800 30.0200   1
  -2  22   1 82.1400 17.0800   1
   2 -22  -1 74.8700 20.9700   1
  -2 -22   1 71.2900 19.9700   1
   2  22  -1 76.6200 11.0900   1
   2  22  -1 79.3300 12.4600   1
  -2 -22   1 53.5500 11.0100   1
  -3   9  -2 400.040 37.5400   1
  -3  -9  -2 374.840 26.3500   1
   3  -9   2 315.970 35.1400   1
   3   9   2 401.040 29.4500   1
   3   9   2 331.000 34.6200   1
   5   0  -1 1485.14 51.7700   1
  -5   0   1 1391.90 60.8600   1
  -5   1   1 312.080 29.2000   1
  -5  -1   1 239.160 24.5400   1
   5  -1  -1 310.780 25.0300   1
   5   1  -1 239.190 25.8000   1
  -4 -12   0 3727.81 112.760   1
   4 -12   0 3338.55 109.780   1
   4  12   0 3201.70 103.900   1
   4  12   0 2909.49 76.9200   1
  -4  12   0 3225.04 105.870   1
  -3   8   5 67.4400 14.4600   1
   3  -8  -5 56.7200 11.5700   1
   3  -8  -5 59.5500 17.1700   1
   3  -8  -5 74.5900 13.7000   1
   3   8  -5 49.8200 14.7700   1
  -3   8   5 45.4300 11.4800   1
   3   8  -5 69.0500 14.3500   1
   3   8  -5 62.1100 13.0500   1
   4   0  -5 2.29000 9.17000   1
   5  -7  -2 1118.29 46.4100   1
   5   7  -2 1224.82 41.3900   1
   5   7  -2 1150.93 47.1300   1
   5   7  -2 1064.13 45.8200   1
  -5  -7   2 1138.33 47.4200   1
  -5   7   2 1105.19 62.6700   1
   4   1  -5 307.820 25.7000   1
   4  -1  -5 371.130 24.9800   1
   4   1  -5 365.180 25.6600   1
   4  -1  -5 269.600 34.7400   1
  -3 -18   3 802.650 41.0500   1
  -3  18   3 721.900 32.6500   1
   3 -18  -3 677.430 43.9900   1
   3 -18  -3 740.900 37.7900   1
   3  18  -3 702.330 29.7300   1
  -3  18   3 651.940 29.5100   1
   3  18  -3 737.230 34.4600   1
  -3 -18   3 760.420 39.9500   1
  -5  -2   1 992.650 42.1300   1
   5  -2  -1 1035.84 39.9700   1
   5   2  -1 1115.35 44.0800   1
  -5   2   1 1088.93 53.9300   1
   2 -16  -4 349.890 30.1500   1
   2 -16  -4 340.800 32.4800   1
  -2 -16   4 370.880 28.4400   1
   2  16  -4 388.430 26.9900   1
   4  -5   1 113.660 27.4300   1
  -4   5  -1 132.290 20.5800   1
  -4  -5  -1 122.300 18.6100   1
   4   5   1 114.080 22.2300   1
   4   5   1 146.560 19.2500   1
  -1   6   5 667.010 32.3300   1
   1  -6  -5 560.480 35.2900   1
  -1  -6   5 653.370 38.4700   1
  -1  -6   5 515.740 31.8800   1
  -1   6   5 635.840 42.3200   1
   1   6  -5 688.620 33.1700   1
   1  -6  -5 675.180 34.7200   1
   1  -6  -5 628.980 30.4300   1
   1   6  -5 655.430 32.4700   1
   1   6  -5 593.680 35.4700   1
   0  13   4 807.110 38.5200   1
   0 -13   4 782.430 37.2100   1
   0  13   4 652.970 37.9300   1
   0  13  -4 652.950 41.2600   1
   0  13  -4 768.660 38.8500   1
   0 -13  -4 870.090 32.8600   1
   0 -13  -4 784.600 39.3300   1
   0 -13   4 841.470 43.6300   1
   0  13   4 810.970 39.3900   1
   0 -13   4 724.890 57.0200   1
   4  -2  -5 377.290 34.2400   1
   4  -2  -5 403.510 28.2200   1
   4   2  -5 376.480 26.5900   1
   4   2  -5 369.110 30.1100   1
  -5   7   3 810.280 54.6400   1
  -5  -7   3 893.580 44.3600   1
   5   7  -3 768.260 27.4900   1
   5  -7  -3 892.210 38.6200   1
  -5   7   3 721.720 39.6600   1
   5   7  -3 887.980 42.9700   1
  -2  -9   5 193.850 43.2800   1
  -2   9   5 139.210 17.1900   1
   2  -9  -5 163.900 20.4800   1
   2  -9  -5 163.090 18.1400   1
   2   9  -5 198.660 20.5900   1
   2   9  -5 173.090 19.1000   1
   2  -9  -5 145.910 16.1100   1
   2  -9  -5 200.240 19.6600   1
  -2  -9   5 177.240 18.3100   1
   2   9  -5 156.850 16.9800   1
   2  -9  -5 143.570 34.7100   1
   0 -24   0 495.310 29.1800   1
   0 -24   0 557.900 32.8400   1
   0  24   0 522.110 28.4300   1
  -1 -20  -2 268.350 23.3900   1
   1  20   2 286.380 29.6200   1
   1  20   2 320.500 25.0100   1
   1 -20   2 307.000 38.1800   1
   1 -20   2 299.890 42.3900   1
   1 -20   2 327.970 28.1000   1
  -1 -20  -2 289.860 26.9500   1
  -1 -20  -2 323.770 25.7100   1
   1 -20   2 239.110 27.3300   1
   3 -15  -4 -13.010 14.5700   1
  -3  15   4 0.75000 9.01000   1
  -3 -15   4 -21.530 15.5100   1
   3  15  -4 -12.080 10.1600   1
   3  15  -4 4.03000 9.59000   1
   5   3  -1 1122.62 58.0600   1
   5   3  -1 1000.70 46.5500   1
  -5   3   1 1042.80 56.5200   1
   5  -3  -1 1049.76 49.0800   1
  -5  -3   1 937.680 50.0800   1
   1   7   4 1949.69 85.3200   1
   1  -7   4 1949.17 86.7200   1
   1   7   4 2149.82 94.0800   1
  -1  -7  -4 1535.51 71.3000   1
  -1  -7  -4 1976.34 80.5600   1
  -1   7  -4 1872.92 80.6000   1
   1   7   4 1801.02 81.1900   1
   1  -7   4 1630.65 71.2200   1
  -4 -15   1 145.120 20.0200   1
   4  15  -1 51.0500 31.0400   1
   4  15  -1 131.030 18.0600   1
   4 -15  -1 78.5200 18.9600   1
  -4  15   1 59.2200 40.4400   1
   4  -3  -5 283.580 28.6300   1
   4   3  -5 298.420 26.9600   1
   4   3  -5 361.400 19.3200   1
   4  -3  -5 342.860 25.1600   1
  -2 -10  -3 2672.86 102.630   1
  -2  10  -3 2901.82 121.210   1
   2 -10   3 3173.26 129.320   1
   2 -10   3 2507.64 98.5400   1
  -2  10  -3 3018.13 136.570   1
   2  10   3 2937.98 117.880   1
   2  10   3 2700.29 112.210   1
   2 -20   1 409.980 31.6800   1
  -2 -20  -1 507.940 28.8000   1
   2 -20   1 513.840 32.9400   1
  -2 -20  -1 462.920 30.1300   1
   2 -20   1 479.810 35.9800   1
   2  20   1 524.730 32.1400   1
   1 -20  -3 1107.35 57.2500   1
   1 -20  -3 1126.38 56.5100   1
  -1 -20   3 1125.93 53.8600   1
   1  20  -3 1064.18 47.5400   1
  -1 -20   3 1040.45 55.0000   1
  -5   0   4 27.2400 30.7600   1
  -5   0   4 13.6400 12.3400   1
   5   0  -4 17.8400 13.0500   1
   5   0  -4 1.90000 9.18000   1
   1  16   3 115.490 29.3100   1
  -1 -16  -3 181.490 18.8700   1
  -1 -16  -3 142.260 13.9700   1
   1 -16   3 176.680 19.0600   1
   1 -16   3 175.910 18.6100   1
   1 -16   3 182.940 28.6100   1
  -1  16  -3 225.840 27.5000   1
   1  16   3 179.910 22.0200   1
  -1 -16  -3 201.350 22.1900   1
   1  16   3 200.800 20.8000   1
  -5  -1   4 359.470 41.9200   1
   5  -1  -4 356.110 27.6800   1
   5  -1  -4 377.640 26.1800   1
   5   1  -4 316.270 25.4500   1
  -5   1   4 276.510 24.7400   1
   5   1  -4 332.640 27.0700   1
  -5   1   4 448.180 43.8900   1
  -5  -1   4 284.130 32.7800   1
   4  -6   1 10.8300 24.5800   1
  -4   6  -1 4.90000 21.8300   1
   4   6   1 -0.4000 15.5900   1
  -4  -6  -1 0.67000 15.1600   1
   4   6   1 10.6000 20.1400   1
   5   4  -1 395.910 27.1800   1
  -5   4   1 467.290 32.6500   1
  -5  -4   1 440.280 29.1300   1
   5  -4  -1 435.520 27.7900   1
  -4 -12   4 1.56000 22.2600   1
   4  12  -4 9.77000 11.4400   1
   4  12  -4 7.13000 13.1600   1
   4  12  -4 14.0500 12.0200   1
  -4  12   4 1.66000 7.18000   1
   0 -22  -2 618.570 35.3800   1
   0 -22   2 715.450 50.0500   1
   0  22   2 537.070 40.3300   1
   0  22  -2 573.910 30.4900   1
   0 -22  -2 623.620 37.0500   1
   0 -22   2 642.700 37.4100   1
   0 -22   2 654.800 55.2400   1
   0 -22   2 576.640 38.2000   1
   4  15  -3 30.6000 19.3600   1
  -4 -15   3 9.42000 13.4800   1
   4  15  -3 16.9100 11.3600   1
   4  15  -3 34.7700 13.8600   1
  -4  15   3 13.0200 9.33000   1
  -4  15   3 25.5600 8.04000   1
   4 -15  -3 30.3400 16.7900   1
   1   7  -5 726.280 40.6500   1
  -1   7   5 826.360 50.9400   1
   1   7  -5 923.240 46.5200   1
   1  -7  -5 846.480 41.7200   1
   1  -7  -5 837.490 43.6800   1
   1   7  -5 847.970 42.9400   1
  -1  -7   5 691.400 39.1200   1
  -1  -7   5 836.410 49.8700   1
   1  -7  -5 758.590 41.7900   1
  -1   7   5 945.590 47.8500   1
  -5   2   4 67.5900 15.6300   1
   5  -2  -4 40.8500 10.9900   1
   5   2  -4 84.0900 14.0800   1
   5  -2  -4 69.2600 11.4100   1
  -5  -2   4 154.630 32.8000   1
  -5   2   4 41.6100 32.2200   1
  -5  -2   4 64.1400 14.4700   1
  -5  -8   2 308.560 27.6100   1
  -5   8   2 275.110 34.5600   1
   5   8  -2 321.790 26.4000   1
   5   8  -2 283.420 28.1400   1
   5  -8  -2 252.660 24.0500   1
   5   8  -2 320.350 24.8200   1
  -3 -10  -2 171.890 17.7300   1
   3  10   2 276.560 42.7400   1
   3  10   2 255.830 27.1800   1
  -3  10  -2 229.550 25.5000   1
   3 -10   2 237.970 28.1300   1
   4  -4  -5 684.110 34.0200   1
   4   4  -5 579.460 31.9100   1
   4  -4  -5 644.580 47.5000   1
   4   4  -5 680.550 33.6000   1
   3  -9  -5 1526.96 76.5900   1
  -3   9   5 1455.64 63.9100   1
   3  -9  -5 1678.07 72.7600   1
  -3   9   5 1726.98 80.7600   1
   3   9  -5 1504.25 83.3300   1
   3  -9  -5 1755.89 72.7100   1
   3   9  -5 1650.25 67.8300   1
   3   9  -5 1562.62 73.9700   1
   4  16  -2 221.530 23.3400   1
   4  16  -2 182.960 18.5200   1
  -4 -16   2 207.000 23.4400   1
  -4 -16   2 220.340 29.0400   1
   4 -16  -2 185.350 25.7500   1
   2 -20  -3 2663.88 111.580   1
  -2 -20   3 2852.37 116.010   1
   2  20  -3 2877.96 112.360   1
   0  19   3 586.630 36.5200   1
   0  19   3 596.190 38.4000   1
   0  19   3 549.450 45.0300   1
   0 -19  -3 572.560 34.1400   1
   0 -19  -3 610.350 34.5400   1
   0 -19   3 580.810 43.7000   1
   0 -19   3 666.140 54.7200   1
   0  19  -3 570.020 31.5200   1
   0 -19   3 556.050 30.8100   1
   1 -16  -4 3660.66 140.790   1
  -1 -16   4 4016.45 150.920   1
  -1 -16   4 4056.70 166.790   1
  -2 -22   0 491.550 26.5300   1
   2 -22   0 571.090 45.8100   1
   2  22   0 462.240 52.4400   1
   2 -22   0 595.580 36.9100   1
  -2 -22   0 490.080 30.7600   1
  -2 -22   0 454.750 30.3700   1
   2  22   0 569.850 29.9400   1
   5   8  -3 12.0500 9.56000   1
   5   8  -3 -6.7800 15.6800   1
  -5  -8   3 -15.240 24.6000   1
  -5   8   3 -16.100 31.0400   1
   5  -8  -3 1.60000 11.6200   1
  -5   3   4 470.060 47.0100   1
   5   3  -4 463.400 23.5800   1
   5  -3  -4 447.880 25.5900   1
  -5  -3   4 520.860 42.8500   1
  -5   3   4 363.410 28.5200   1
   5  -3  -4 410.530 27.6300   1
  -3 -20   1 832.840 44.5900   1
  -3 -20   1 712.240 36.3000   1
   3  20  -1 805.820 39.3400   1
   3  20  -1 818.920 43.6600   1
   3 -20  -1 825.090 53.8500   1
   3 -20  -1 875.970 46.3100   1
  -1   8  -4 306.900 26.1900   1
   1  -8   4 240.390 22.4400   1
  -1  -8  -4 308.670 23.6400   1
   1  -8   4 293.730 31.9800   1
   1   8   4 307.180 29.4100   1
  -1  -8  -4 294.890 24.9600   1
   1   8   4 367.750 28.1600   1
   1   8   4 254.270 43.2100   1
   1   8   4 256.130 23.1100   1
   5  -5  -1 2052.41 85.8400   1
   5   5  -1 2249.00 100.410   1
   5   5  -1 2031.79 83.2400   1
  -5  -5   1 2159.73 95.2600   1
  -5   5   1 2022.06 89.2600   1
  -3 -16  -1 27.1800 11.8300   1
   3 -16   1 -1.2500 15.8000   1
  -3  16  -1 -27.570 19.1800   1
   3  16   1 -3.4500 12.2300   1
   3 -16   1 52.5500 27.7800   1
   2  17   2 510.840 35.0300   1
   2 -17   2 394.360 28.7600   1
  -2 -17  -2 521.630 29.7700   1
  -2 -17  -2 335.660 25.9000   1
   2 -17   2 475.700 36.0700   1
   2  17   2 512.680 30.2600   1
  -2  17  -2 392.210 35.9200   1
   2 -17   2 477.110 31.7900   1
   2  22  -2 883.690 40.3600   1
  -2  22   2 646.240 36.0300   1
   2  22  -2 742.730 44.0800   1
   2 -22  -2 853.640 55.0100   1
  -2  22   2 914.670 49.0500   1
   2 -22  -2 1010.37 49.9100   1
  -2 -22   2 867.520 44.7700   1
  -2 -22   2 701.680 43.0000   1
  -4  13   0 21.9100 28.8700   1
  -4 -13   0 57.5900 21.2000   1
   4  13   0 0.43000 15.9900   1
   4  13   0 11.6700 11.8100   1
   4 -13   0 3.54000 17.5800   1
  -3 -20   2 2443.24 97.2800   1
   3  20  -2 2704.17 104.260   1
   3  20  -2 2294.96 91.3800   1
  -3 -20   2 2716.57 112.610   1
  -3  20   2 2186.03 91.4500   1
   3 -20  -2 2438.01 118.200   1
   3 -20  -2 2564.34 105.940   1
  -3  20   2 2220.40 92.2300   1
  -2  10   5 11.9100 11.0900   1
  -2 -10   5 23.3800 16.9700   1
   2 -10  -5 -25.600 24.6300   1
   2 -10  -5 6.41000 9.63000   1
   2  10  -5 3.73000 9.33000   1
   2 -10  -5 6.84000 10.0700   1
  -2 -10   5 8.73000 12.5900   1
   2 -10  -5 -8.3500 8.58000   1
   2  10  -5 -22.990 14.5800   1
   2 -10  -5 -0.1100 12.3500   1
   2  10  -5 0.18000 9.20000   1
   4   5  -5 -6.1100 10.9000   1
   4   5  -5 14.7400 14.1300   1
   4  -5  -5 -0.6700 10.7100   1
   4   5  -5 3.31000 9.45000   1
   4  -5  -5 18.6400 15.9900   1
   4   7   1 732.000 37.3900   1
   4   7   1 843.520 43.3800   1
  -4  -7  -1 814.500 45.3100   1
  -4   7  -1 917.760 54.3400   1
   4  -7   1 756.540 43.9900   1
  -5   4   4 1221.17 63.0700   1
  -5  -4   4 1498.12 77.3700   1
   5  -4  -4 1439.56 59.2200   1
   5  -4  -4 1274.49 53.8100   1
   5   4  -4 1247.48 52.9100   1
   3  19   0 974.300 45.0000   1
  -3 -19   0 919.430 43.8700   1
  -3 -19   0 877.190 47.0200   1
   3  19   0 843.860 43.0800   1
   3 -19   0 900.050 51.4600   1
  -3  19   0 906.030 64.1100   1
   0 -14  -4 1493.75 61.4500   1
   0  14   4 1389.34 68.9800   1
   0 -14  -4 1278.27 60.7100   1
   0  14  -4 1356.14 61.1700   1
   0 -14  -4 1369.66 65.3100   1
   0 -14   4 1316.78 61.0400   1
   0 -14   4 1440.37 77.0600   1
   0  14   4 1111.36 58.1400   1
   0  14   4 1554.01 72.0300   1
   0  14  -4 1222.74 74.8000   1
   0 -14   4 1472.45 74.4700   1
   2  11   3 9.37000 13.0000   1
   2 -11   3 3.89000 27.9800   1
   2 -11   3 -4.2400 10.2400   1
  -2 -11  -3 4.08000 15.8000   1
  -2  11  -3 21.0200 19.4400   1
  -1   8   5 1058.04 54.2200   1
   1   8  -5 1011.64 52.9600   1
   1  -8  -5 1019.87 55.2600   1
   1   8  -5 1205.74 55.4200   1
   1  -8  -5 1065.65 53.0900   1
  -1  -8   5 934.210 47.6200   1
   1  -8  -5 1171.33 51.6200   1
  -1  -8   5 1064.74 56.1400   1
   1   8  -5 1091.15 52.3600   1
  -1   8   5 927.600 58.9100   1
   0 -24  -1 1327.61 56.7000   1
   0  24   1 1151.50 53.0600   1
   0  24  -1 1291.15 59.4000   1
   0 -24   1 1111.54 52.2800   1
   0 -24  -1 1303.96 58.0500   1
   0 -24   1 1334.48 61.6900   1
   0 -24   1 1102.12 58.0300   1
   0  24   1 1153.17 70.8500   1
  -1  24   0 1317.41 59.9900   1
   1  24   0 1473.79 61.7100   1
  -1 -24   0 1308.28 56.2300   1
   1 -24   0 1152.20 62.4300   1
   1 -24   0 1438.76 63.9100   1
   1 -24   0 1018.41 79.0300   1
  -1 -24   0 1501.76 72.6400   1
   1 -24   0 1210.74 94.0900   1
  -5  -9   2 100.660 18.4600   1
   5   9  -2 67.2200 19.9700   1
   5   9  -2 72.4800 12.5000   1
   5  -9  -2 96.2300 21.4300   1
   5   9  -2 89.1700 17.2000   1
  -5   9   2 77.9200 28.7700   1
  -1 -24   1 816.550 44.5800   1
  -1  24   1 820.670 43.0700   1
   1  24  -1 802.150 42.4300   1
  -1 -24   1 805.790 42.2500   1
   1 -24  -1 777.290 44.7200   1
   1 -24  -1 579.680 59.8300   1
   1 -24  -1 764.120 41.8500   1
  -1  24   1 634.630 41.8600   1
   5  -6  -1 57.1300 16.6900   1
   5   6  -1 34.1600 16.1900   1
   5   6  -1 46.6000 15.3300   1
  -5   6   1 88.3200 24.6700   1
  -5  -6   1 83.0600 23.4200   1
   2 -17  -4 436.670 29.9700   1
   2 -17  -4 415.090 31.6700   1
  -2 -17   4 440.210 29.7800   1
   2  17  -4 445.430 27.7600   1
   1 -23   1 516.980 38.0500   1
   1  23   1 431.830 39.5300   1
   1 -23   1 410.220 47.9000   1
   1 -23   1 591.570 36.3200   1
  -1 -23  -1 524.460 32.0800   1
  -1 -23  -1 531.390 27.4200   1
   1  23   1 535.530 30.7200   1
   1 -23   1 502.120 41.7600   1
  -3  10   5 347.900 30.2400   1
   3 -10  -5 383.730 27.0900   1
   3  10  -5 355.350 29.9100   1
   3  10  -5 371.240 23.5500   1
   3  10  -5 362.280 33.0600   1
  -3  10   5 317.540 26.8000   1
   3 -10  -5 365.780 21.1200   1
   3 -10  -5 361.310 19.7900   1
   3 -10  -5 382.760 32.0300   1
  -4   6   5 1239.49 66.2700   1
   4  -6  -5 1070.50 68.3300   1
   4   6  -5 1197.93 60.3700   1
   4   6  -5 1276.36 53.8200   1
   4  -6  -5 1346.45 60.0300   1
   4   6  -5 1062.72 63.8800   1
   5  -5  -4 2.63000 10.0800   1
  -5   5   4 -12.230 11.8600   1
   5  -5  -4 -6.8000 9.53000   1
   5   5  -4 19.7700 10.1900   1
  -5  -5   4 36.6400 25.4800   1
   3 -11   2 515.770 36.1400   1
   3  11   2 565.040 31.5900   1
   3  11   2 562.660 33.5400   1
  -3  11  -2 553.220 39.4000   1
  -3 -11  -2 554.810 32.2400   1
   3 -16  -4 545.050 38.1500   1
  -3  16   4 487.800 31.8500   1
  -3 -16   4 609.010 34.8100   1
   3  16  -4 499.450 25.4600   1
   3  16  -4 422.160 28.7400   1
   5  -9  -3 405.570 25.5400   1
   5   9  -3 456.790 30.8400   1
   5   9  -3 426.620 25.8300   1
  -5  -9   3 462.480 34.6000   1
  -5   9   3 526.480 58.0300   1
  -1  23   2 419.260 37.6400   1
  -1 -23   2 426.230 26.1700   1
   1  23  -2 479.080 29.4800   1
   1 -23  -2 474.800 31.5600   1
  -1 -23   2 328.320 39.7700   1
   1 -23  -2 457.510 30.4200   1
  -1 -23   2 334.520 34.8600   1
   3 -19  -3 243.630 31.1000   1
   3 -19  -3 299.880 29.0200   1
   3  19  -3 287.500 22.0100   1
  -3  19   3 241.260 20.7400   1
   3  19  -3 230.240 20.7600   1
  -3 -19   3 260.220 26.8800   1
  -3 -19   3 298.130 28.7200   1
  -3  19   3 237.930 20.9200   1
   4  16  -1 3788.73 144.390   1
   4 -16  -1 3886.21 157.260   1
  -4  16   1 4037.06 176.090   1
   4  13  -4 101.210 12.9500   1
  -4  13   4 79.5500 11.5700   1
   4 -13  -4 79.8300 13.4300   1
   4  13  -4 109.790 20.2500   1
  -4 -13   4 90.8900 33.1700   1
   4  13  -4 82.7300 16.9100   1
  -1   9  -4 261.960 29.0000   1
   1   9   4 245.400 25.6100   1
  -1  -9  -4 199.190 18.3300   1
   1  -9   4 278.390 35.4400   1
  -1  -9  -4 231.290 21.9900   1
   1   9   4 270.240 28.8900   1
   1   9   4 219.870 37.2400   1
   1  -9   4 235.270 22.5500   1
   1   9   4 228.600 21.2800   1
   1  -9   4 189.120 19.1400   1
   4   8   1 363.290 26.5900   1
   4   8   1 315.640 51.3700   1
  -4  -8  -1 427.400 31.6300   1
  -4   8  -1 374.590 31.3100   1
   4  -8   1 412.620 30.6200   1
   2 -23  -1 1456.71 92.8300   1
  -2  23   1 1345.97 68.8800   1
  -2 -23   1 1611.22 68.3600   1
   2 -23  -1 1667.98 72.6300   1
   2  23  -1 1415.99 96.9500   1
   2  23  -1 1840.23 76.8100   1
  -2 -23   1 1627.48 74.0200   1
   2  11  -5 21.4100 15.8900   1
   2 -11  -5 9.76000 9.31000   1
   2 -11  -5 -3.9800 20.2500   1
   2  11  -5 7.24000 7.78000   1
   2  11  -5 15.1700 21.1300   1
  -2 -11   5 2.18000 21.0900   1
   2 -11  -5 0.99000 17.2100   1
   2 -11  -5 14.8600 9.50000   1
   2  11  -5 11.1500 10.0600   1
  -2 -11   5 24.7100 13.0100   1
  -1  17  -3 842.330 51.1200   1
  -1 -17  -3 905.320 45.3000   1
   1  17   3 868.210 47.2700   1
   1 -17   3 665.000 38.2700   1
   1  17   3 811.880 41.6300   1
   1 -17   3 980.290 58.7900   1
   1 -17   3 745.920 57.5300   1
   1 -17   3 842.680 46.8600   1
  -1 -17  -3 844.380 42.1100   1
   4  16  -3 2181.28 84.3800   1
   4  16  -3 1913.69 81.1800   1
   4  16  -3 1590.82 67.6900   1
  -4 -16   3 2100.20 90.8400   1
   4 -16  -3 1978.14 93.6700   1
  -4  16   3 1771.62 75.4100   1
  -4  16   3 1571.55 69.0900   1
  -5   7   1 2069.63 92.3300   1
   5   7  -1 2060.40 85.5200   1
   5  -7  -1 1977.97 87.4500   1
   5   7  -1 2211.70 95.7600   1
  -5  -7   1 2209.45 92.3500   1
   1 -21   2 61.5800 20.6500   1
  -1 -21  -2 48.2400 13.4800   1
   1 -21   2 57.5100 34.3400   1
   1  21   2 65.1800 22.8300   1
   1  21   2 38.1000 11.6500   1
   1 -21   2 36.9900 22.6000   1
  -1 -21  -2 43.9300 9.56000   1
  -1 -21  -2 50.6700 13.4900   1
   1 -21   2 25.1900 10.1400   1
  -1  -9   5 729.160 39.5100   1
   1   9  -5 810.810 39.9400   1
  -1  -9   5 788.830 49.1800   1
  -1   9   5 773.230 42.8400   1
   1   9  -5 837.640 41.8100   1
   1  -9  -5 706.860 40.0300   1
  -1   9   5 662.970 45.7900   1
   1  -9  -5 784.030 38.3700   1
   1  -9  -5 649.720 39.0300   1
   1   9  -5 623.210 38.6100   1
   5   6  -4 2480.99 93.6300   1
   5  -6  -4 2786.28 106.120   1
  -5  -6   4 2568.31 116.200   1
   5  -6  -4 2532.71 100.110   1
  -5   6   4 2246.90 98.2600   1
   5   6  -4 2480.72 101.380   1
   4   7  -5 36.6700 12.1200   1
   4  -7  -5 35.4900 9.02000   1
   4   7  -5 39.0800 14.3300   1
   4  -7  -5 22.6100 11.0700   1
   4   7  -5 60.3500 19.2900   1
  -4   7   5 22.3000 10.0600   1
   4   7  -5 31.7100 11.5000   1
   4  -7  -5 26.8800 15.3500   1
  -4 -17   2 42.0400 16.6200   1
  -4 -17   2 -2.0100 22.0300   1
   4  17  -2 21.5300 9.79000   1
   4  17  -2 17.0300 20.9200   1
   4 -17  -2 4.43000 20.8200   1
   4  14   0 1238.47 56.5900   1
  -4 -14   0 1266.78 58.1100   1
   4  14   0 1211.43 58.9900   1
   4 -14   0 1213.62 63.2600   1
  -4  14   0 1215.07 62.4200   1
  -2 -21  -1 104.900 16.2600   1
   2 -21   1 149.570 34.6800   1
   2  21   1 159.450 25.9300   1
   2 -21   1 104.420 18.8900   1
  -2 -21  -1 166.020 17.9000   1
   2 -21   1 110.390 18.7700   1
  -2 -21  -1 96.6200 13.6000   1
   5 -10  -2 120.240 18.2800   1
   5  10  -2 133.400 15.4800   1
   5  10  -2 109.350 18.7600   1
  -5  10   2 230.500 48.0400   1
  -5 -10   2 97.3000 18.0400   1
   5  10  -2 114.220 18.3500   1
   1 -21  -3 787.490 40.1700   1
   1 -21  -3 777.030 44.6500   1
  -1 -21   3 848.270 41.6700   1
   1  21  -3 830.660 42.2800   1
  -1 -21   3 754.140 44.8400   1
   1 -17  -4 11.0000 16.2600   1
   1 -17  -4 23.8000 13.4800   1
  -1  17   4 28.1300 20.2700   1
   1  17  -4 33.8600 16.6700   1
  -1 -17   4 9.76000 10.6700   1
  -1 -17   4 11.0200 19.3700   1
   2 -12   3 275.840 31.4900   1
  -2  12  -3 243.720 33.8200   1
   2  12   3 274.630 27.9200   1
  -2 -12  -3 305.710 23.9100   1
   2 -12   3 212.720 19.6900   1
  -2 -12  -3 189.570 17.7800   1
   2  12   3 275.630 28.4500   1
   0 -25   0 0.62000 9.96000   1
   0  25   0 11.8200 9.67000   1
   0 -25   0 30.0100 13.7300   1
  -3 -17  -1 4274.52 68.0400   1
   3 -17   1 4003.41 162.280   1
   3  17   1 4052.52 153.950   1
   3  17   1 4002.30 157.860   1
  -3  17  -1 4346.14 98.4000   1
   5  10  -3 143.470 18.0100   1
   5 -10  -3 136.120 17.6200   1
  -5 -10   3 176.320 23.3000   1
  -5  10   3 210.320 38.5800   1
   5  10  -3 168.650 23.7500   1
   3  11  -5 365.900 28.1200   1
  -3  11   5 419.990 30.1800   1
   3 -11  -5 506.410 32.3400   1
   3 -11  -5 535.770 34.3700   1
  -3  11   5 465.320 33.3500   1
   3 -11  -5 478.800 37.4200   1
   3 -11  -5 421.420 29.3800   1
   3  11  -5 432.810 28.1100   1
   3  11  -5 523.370 30.1300   1
   0 -20  -3 668.350 41.3800   1
   0  20   3 762.880 44.9800   1
   0  20   3 624.370 37.3600   1
   0 -20  -3 661.710 33.9500   1
   0 -20   3 674.770 50.2300   1
   0  20  -3 740.920 39.1000   1
   0 -20   3 698.950 44.9200   1
   0 -20   3 638.260 35.1100   1
  -1 -10  -4 45.4900 11.5900   1
  -1 -10  -4 5.86000 9.99000   1
   1  10   4 2.24000 14.1200   1
   1 -10   4 -4.4700 15.2300   1
   1  10   4 5.14000 11.3500   1
   1 -10   4 18.7100 31.9500   1
   1  10   4 -4.3700 22.1900   1
   1  10   4 8.92000 18.1200   1
   1 -10   4 11.5800 9.51000   1
  -1  10  -4 31.9600 16.6200   1
  -4   9  -1 1176.96 58.9400   1
  -4  -9  -1 1338.04 69.1400   1
   4  -9   1 1281.37 62.5300   1
   4   9   1 1259.38 56.2800   1
   4   9   1 1239.05 56.7200   1
   2  18   2 578.470 33.6000   1
   2  18   2 613.100 35.3600   1
   2 -18   2 621.180 46.7300   1
  -2 -18  -2 636.220 31.8700   1
   2 -18   2 557.960 36.9500   1
  -2  18  -2 681.770 43.3400   1
   2 -18   2 627.490 38.7500   1
  -2 -18  -2 564.540 32.6400   1
  -2 -18  -2 524.750 30.8300   1
   2 -21  -3 15.0500 15.8500   1
  -2  21   3 37.0300 9.08000   1
   2 -21  -3 35.8600 17.1200   1
   2  21  -3 31.7900 10.2100   1
  -2 -21   3 55.5100 16.8000   1
   0 -15  -4 484.680 31.3500   1
   0 -15  -4 534.690 27.4900   1
   0  15   4 420.230 33.0500   1
   0  15   4 593.930 39.0100   1
   0  15   4 579.710 35.0800   1
   0 -15  -4 607.190 34.9200   1
   0 -15   4 529.420 59.2900   1
   0  15  -4 543.400 29.9200   1
   0 -15   4 521.490 38.4300   1
   0  15  -4 354.380 36.3500   1
   0 -15   4 484.510 32.1200   1
   0 -23   2 1029.41 56.9200   1
   0 -23  -2 1100.26 53.1400   1
   0 -23   2 1139.44 56.2000   1
   0 -23   2 1063.43 75.0700   1
   0 -23   2 1155.21 68.3700   1
   0  23   2 977.420 62.2100   1
   0  23  -2 1162.05 51.9200   1
   0 -23  -2 1098.40 56.8600   1
  -3 -12  -2 46.3600 13.4500   1
   3  12   2 45.4000 16.9900   1
   3  12   2 51.1100 17.1300   1
  -3  12  -2 25.7800 20.6500   1
   3 -12   2 17.2400 28.9900   1
  -5  -7   4 315.610 44.1500   1
   5   7  -4 308.640 22.8200   1
   5   7  -4 355.640 32.6900   1
  -5   7   4 284.580 27.1300   1
   5  -7  -4 304.950 24.3800   1
   5  -7  -4 368.690 18.7100   1
   0   0   5 11.5400 18.8100   1
   0   0   5 10.9300 34.1700   1
   0   0  -5 9.69000 8.52000   1
  -5  -8   1 108.140 18.7300   1
   5  -8  -1 131.450 26.7100   1
   5   8  -1 171.250 22.1400   1
  -5   8   1 82.9300 33.7300   1
   3  21  -1 103.500 18.2400   1
  -3 -21   1 77.8100 16.7000   1
  -3 -21   1 112.950 21.3100   1
   3  21  -1 86.5600 13.7400   1
   3 -21  -1 93.5000 17.6300   1
   3 -21  -1 20.1200 18.9200   1
   0   1   5 90.9100 29.7500   1
   0   1  -5 123.920 15.2500   1
   0  -1   5 121.650 21.2900   1
   0   1   5 153.020 23.9800   1
   0  -1   5 119.450 30.6900   1
   0  -1   5 150.760 40.8700   1
   0  -1  -5 130.930 13.7700   1
   4   8  -5 1457.28 65.0400   1
   4  -8  -5 1339.54 78.9100   1
   4   8  -5 1401.86 76.2600   1
   4  -8  -5 1551.21 62.6500   1
   4   8  -5 1591.07 63.8100   1
   4   8  -5 1438.23 71.0700   1
   4  -8  -5 1613.60 68.0300   1
   3  21  -2 268.010 22.7400   1
  -3 -21   2 259.680 25.2600   1
   3  21  -2 343.600 26.6300   1
  -3 -21   2 377.540 28.7200   1
  -3  21   2 243.950 22.1900   1
   3 -21  -2 284.790 35.7400   1
  -3  21   2 264.310 23.2200   1
   3 -21  -2 297.690 25.9100   1
   2  23   0 1264.66 54.0200   1
  -2 -23   0 1172.35 51.1100   1
   2 -23   0 1360.52 77.0000   1
   2  23   0 1038.06 73.7500   1
   2 -23   0 1233.76 61.8500   1
  -2 -23   0 1131.99 52.4200   1
  -2 -23   0 967.690 49.5000   1
   0  -2   5 12.1500 8.75000   1
   0  -2  -5 12.8700 8.98000   1
   0   2  -5 9.19000 7.68000   1
   0   2   5 32.4400 31.9300   1
   0  -2   5 12.4200 27.5800   1
   0  -2   5 -14.230 24.8500   1
   0   2   5 23.5300 25.4800   1
   4  14  -4 35.6600 15.7600   1
   4  14  -4 25.5300 14.1600   1
  -4 -14   4 -2.5600 26.4000   1
   4  14  -4 9.93000 12.3300   1
  -4  14   4 -3.0300 9.67000   1
   4 -14  -4 15.7100 14.0700   1
  -1  10   5 2196.07 103.070   1
   1  10  -5 2151.10 85.7800   1
   1 -10  -5 2183.46 86.6100   1
  -1 -10   5 1780.30 74.7100   1
   1  10  -5 2255.88 89.4200   1
   1 -10  -5 2084.59 85.6400   1
  -1  10   5 2255.16 98.8400   1
   1 -10  -5 1905.86 83.5100   1
  -1 -10   5 2257.30 98.1300   1
   2 -12  -5 974.670 50.3000   1
   2 -12  -5 851.300 40.5200   1
  -2  12   5 1002.23 53.6700   1
   2 -12  -5 1075.20 52.6600   1
   2  12  -5 1070.34 49.3000   1
  -2 -12   5 850.330 43.5100   1
   2  12  -5 882.380 65.8500   1
  -2 -12   5 989.940 57.9400   1
   2  12  -5 832.030 43.2300   1
   2  12  -5 782.680 45.4900   1
   2 -23  -2 106.340 16.3400   1
  -2  23   2 92.4000 12.2000   1
   2  23  -2 68.8600 12.3200   1
  -2 -23   2 104.390 17.1600   1
  -2 -23   2 100.680 15.9400   1
   2 -23  -2 123.060 22.7900   1
  -2  23   2 92.7900 15.6900   1
   2  23  -2 78.2600 14.6000   1
   3  20   0 1812.56 77.9600   1
  -3 -20   0 1796.15 80.9900   1
   3  20   0 1986.53 81.9700   1
  -3 -20   0 1939.79 85.8700   1
   3 -20   0 1805.18 93.2200   1
   2 -18  -4 0.30000 17.4100   1
   2 -18  -4 33.8600 14.5400   1
   2 -18  -4 17.0800 16.7300   1
   2  18  -4 9.07000 10.9700   1
  -2 -18   4 25.9100 11.9700   1
  -3  17   4 158.640 17.4200   1
   3 -17  -4 170.080 18.7500   1
   3  17  -4 166.190 17.4900   1
  -3 -17   4 186.930 22.4300   1
   3  17  -4 159.960 15.5500   1
   0  -3   5 274.470 43.8700   1
   0  -3  -5 269.440 21.8200   1
   0   3   5 276.050 42.1500   1
   0  -3   5 247.440 24.0200   1
   0   3   5 259.430 31.1400   1
   0  -3   5 242.070 29.3700   1
   0   3  -5 296.320 23.7800   1
   4  17  -1 663.860 38.2200   1
   4  17  -1 721.570 36.9000   1
  -4 -17   1 813.230 49.4500   1
   4 -17  -1 703.390 43.0400   1
  -4  17   1 688.730 60.6200   1
  -5  11   2 139.020 32.6500   1
  -5 -11   2 198.350 25.1700   1
   5  11  -2 145.460 15.9200   1
   5 -11  -2 178.940 24.3900   1
   5  11  -2 167.060 20.4600   1
   5  11  -2 185.140 25.4000   1
  -5   8   4 978.570 53.6200   1
   5  -8  -4 1157.88 52.6400   1
   5  -8  -4 1103.83 47.8800   1
   5   8  -4 1083.31 48.8000   1
   5   8  -4 838.220 43.6100   1
  -5  -8   4 1208.62 68.5700   1
   3  20  -3 846.800 39.7700   1
   3 -20  -3 846.290 44.4500   1
   3 -20  -3 621.880 50.1700   1
  -3  20   3 793.360 39.8200   1
  -3 -20   3 932.060 44.9700   1
   3  20  -3 797.600 42.3700   1
  -3  20   3 736.690 39.6800   1
  -3 -20   3 812.070 51.4700   1
   4 -10   1 166.080 25.0200   1
   4  10   1 204.370 23.8000   1
  -4 -10  -1 191.390 25.5900   1
   4  10   1 173.920 19.9300   1
  -4  10  -1 195.830 25.0500   1
  -5  11   3 284.930 42.0600   1
  -5 -11   3 369.230 25.7700   1
   5  11  -3 372.500 20.6400   1
   5 -11  -3 405.280 29.0400   1
   5  11  -3 388.550 26.9300   1
   0  -4   5 737.040 58.8700   1
   0   4  -5 805.050 38.9700   1
   0  -4  -5 841.350 41.5900   1
   0  -4   5 696.530 39.3400   1
   0   4   5 733.200 47.4200   1
   0  -4   5 758.470 47.3700   1
   0   4   5 788.600 56.0400   1
   0   4   5 912.430 47.8100   1
   2 -13   3 434.520 38.4900   1
  -2 -13  -3 301.190 27.1300   1
   2  13   3 348.220 30.1000   1
   2  13   3 393.660 25.8500   1
   2 -13   3 350.470 27.5300   1
  -2 -13  -3 371.600 23.7500   1
  -2  13  -3 391.060 33.4200   1
   5   9  -1 728.640 82.1700   1
  -5  -9   1 643.030 45.5800   1
  -5  -9   1 709.710 38.3400   1
   5  -9  -1 788.180 45.8600   1
   5   9  -1 663.760 33.2600   1
  -5   9   1 641.850 46.4700   1
   1 -11   4 374.230 25.8800   1
   1  11   4 397.520 31.2700   1
   1  11   4 298.590 26.3300   1
   1 -11   4 369.490 36.1500   1
  -1 -11  -4 419.160 26.8100   1
  -1  11  -4 452.120 32.6600   1
   1 -11   4 432.770 47.2800   1
   1  11   4 461.710 29.7200   1
   1 -11   4 323.660 28.3700   1
   1  11   4 366.110 40.8000   1
  -1 -11  -4 316.500 27.2600   1
   4  17  -3 0.21000 9.52000   1
   4  17  -3 26.7500 17.6500   1
   4  17  -3 3.81000 9.86000   1
  -4 -17   3 -9.8200 16.3400   1
  -4  17   3 -0.0300 6.93000   1
  -4  17   3 5.93000 8.86000   1
   4 -17  -3 25.0900 19.0700   1
  -3  12   5 369.590 21.8500   1
   3 -12  -5 456.990 33.8100   1
  -3  12   5 510.440 35.3100   1
   3 -12  -5 456.570 25.9100   1
   3  12  -5 389.540 29.8600   1
   3  12  -5 356.970 35.0300   1
   3  12  -5 437.320 26.0300   1
   4  15   0 14.9600 16.2900   1
   4  15   0 -2.2300 15.6800   1
  -4 -15   0 6.52000 14.1400   1
  -4  15   0 -15.570 23.3600   1
   4 -15   0 1.08000 25.4100   1
   0  25   1 117.130 14.4800   1
   0 -25   1 87.5900 22.7600   1
   0 -25   1 112.540 26.6900   1
   0 -25   1 106.660 14.0000   1
   0  25   1 99.5200 18.2500   1
   0 -25  -1 83.2900 12.0900   1
   0 -25   1 85.2700 18.8900   1
   0 -25  -1 120.920 16.5100   1
   0  25  -1 108.540 13.2000   1
  -1 -18  -3 154.770 16.1500   1
   1 -18   3 220.700 21.7300   1
  -1 -18  -3 207.970 20.1400   1
  -1  18  -3 177.480 24.5900   1
   1 -18   3 234.810 43.1300   1
   1 -18   3 232.630 36.7300   1
   1  18   3 209.720 22.0400   1
   1  18   3 211.890 27.9000   1
   1 -18   3 153.550 18.6800   1
  -1 -18  -3 191.400 22.8400   1
   4   9  -5 14.2400 12.3600   1
   4   9  -5 2.43000 11.6000   1
   4  -9  -5 17.5500 10.0300   1
   4   9  -5 2.89000 10.7200   1
   4  -9  -5 14.7600 14.2700   1
   4  -9  -5 8.84000 10.5800   1
   4   9  -5 20.8500 14.6000   1
  -1  25   0 133.670 15.5300   1
   1  25   0 126.080 15.1300   1
   1 -25   0 136.270 17.0800   1
   1 -25   0 124.240 24.8900   1
   1 -25   0 164.650 26.4100   1
   1 -25   0 120.000 42.8300   1
  -1 -25   0 132.720 16.1000   1
  -1 -25   0 170.250 22.4100   1
   1 -24   1 -0.2700 9.82000   1
  -1 -24  -1 16.4800 9.60000   1
   1 -24   1 13.3800 16.0100   1
   1  24   1 1.50000 8.50000   1
  -1 -24  -1 14.3700 13.5200   1
   1 -24   1 5.63000 14.0600   1
   1 -24   1 -1.1300 36.0200   1
  -1  24  -1 13.7900 10.6200   1
   1 -24   1 -0.0200 24.9800   1
   1  24   1 -7.7100 16.1600   1
   1 -25  -1 146.140 35.4100   1
   1 -25  -1 134.200 17.6200   1
  -1 -25   1 173.320 22.1600   1
  -1  25   1 138.310 14.7300   1
   1  25  -1 154.700 16.1600   1
   1 -25  -1 146.880 17.9000   1
  -1 -25   1 134.660 13.5700   1
  -1  25   1 112.270 19.5900   1
   1 -24  -2 173.420 21.2300   1
  -1 -24   2 135.640 21.4000   1
   1 -24  -2 128.910 17.2900   1
  -1 -24   2 110.990 14.5700   1
  -1 -24   2 110.070 20.4300   1
  -1  24   2 117.230 19.2200   1
   1  24  -2 132.280 14.8400   1
   3  13   2 94.5900 24.5200   1
   3  13   2 65.4600 17.6400   1
  -3 -13  -2 81.4500 14.1700   1
  -3  13  -2 95.2600 19.5600   1
   3 -13   2 101.150 28.5000   1
  -4 -18   2 525.060 34.9100   1
   4  18  -2 464.740 25.0600   1
   4  18  -2 447.750 31.1500   1
  -4 -18   2 554.710 34.2400   1
   4 -18  -2 469.950 36.9500   1
   0   5  -5 27.0000 11.6300   1
   0  -5  -5 14.2600 14.7400   1
   0  -5   5 21.6900 10.1000   1
   0   5   5 25.7100 9.29000   1
   0  -5   5 15.6300 42.3900   1
   0   5   5 31.0800 19.2500   1
   0  -5  -5 27.3100 11.0300   1
   0   5   5 36.7300 23.5800   1
   0  -5   5 34.8300 30.0800   1
   1 -18  -4 3223.71 136.680   1
  -1  18   4 3214.28 131.130   1
   1 -18  -4 3211.03 123.780   1
  -1 -18   4 3446.20 144.600   1
  -1 -18   4 2932.64 113.920   1
   1  18  -4 3373.29 127.360   1
   1  11  -5 99.5200 12.2400   1
   1 -11  -5 97.1300 14.1400   1
   1  11  -5 96.5400 18.0800   1
  -1 -11   5 126.690 16.7200   1
  -1  11   5 86.8000 17.0900   1
  -1 -11   5 111.340 29.5900   1
   1 -11  -5 105.530 14.5000   1
   1 -11  -5 108.650 13.7700   1
  -1  11   5 122.470 20.2300   1
   2 -24  -1 60.4800 22.3200   1
  -2  24   1 95.6800 18.8300   1
  -2 -24   1 89.1800 12.9900   1
   2  24  -1 99.6100 13.1400   1
  -2 -24   1 87.8400 16.0100   1
   2 -24  -1 69.3200 21.4300   1
   2  24  -1 93.9500 14.1100   1
   1 -22   2 520.500 66.5800   1
   1 -22   2 361.210 40.2300   1
  -1 -22  -2 510.110 45.2300   1
  -1 -22  -2 358.020 36.6700   1
  -1 -22  -2 427.710 42.9600   1
   1 -22   2 543.040 54.0900   1
   1  22   2 418.860 49.4700   1
   1 -22   2 533.900 60.5100   1
   1  22   2 507.280 47.7000   1
   1  22   2 494.110 47.0000   1
   0 -16  -4 7.98000 12.7000   1
   0 -16  -4 2.14000 10.7700   1
   0  16   4 1.01000 14.2500   1
   0  16   4 18.1300 11.5600   1
   0 -16  -4 0.09000 7.10000   1
   0  16   4 29.2700 14.9300   1
   0 -16  -4 -3.1600 7.24000   1
   0  16  -4 -1.1800 17.5000   1
   0  16  -4 18.6400 15.1400   1
   0 -16   4 -6.0100 21.5100   1
   0 -16   4 5.68000 10.5300   1
   0 -16   4 37.1900 32.7900   1
   3 -18   1 574.370 42.2600   1
   3  18   1 568.540 32.0500   1
   3  18   1 495.770 45.7700   1
  -3 -18  -1 564.040 27.5200   1
  -3  18  -1 490.020 57.7300   1
  -5   9   4 370.680 39.8100   1
   5   9  -4 348.660 36.2900   1
   5  -9  -4 494.500 46.9800   1
  -5  -9   4 444.310 53.2100   1
   5  -9  -4 392.180 36.8900   1
   5   9  -4 404.920 37.8100   1
   2 -13  -5 38.0400 11.5300   1
   2 -13  -5 17.3900 27.0300   1
   2 -13  -5 35.1800 8.79000   1
   2 -13  -5 27.0500 18.4100   1
  -2  13   5 34.5000 12.4600   1
   2  13  -5 24.4100 14.7900   1
  -2 -13   5 30.0000 10.3300   1
  -2 -13   5 83.7400 19.9100   1
   2  13  -5 46.3300 13.2200   1
   2  13  -5 33.6100 8.73000   1
   2 -22   1 2.29000 13.9800   1
   2 -22   1 24.5200 38.0300   1
   2  22   1 -8.3100 20.7700   1
  -2 -22  -1 31.1600 13.2400   1
   2 -22   1 27.8700 12.7100   1
  -2 -22  -1 38.7800 10.9200   1
  -2 -22  -1 26.7800 14.0700   1
   5   0   0 15.0400 22.1100   1
  -5   0   0 34.5700 22.5100   1
  -1  22   3 2178.96 94.4500   1
   1 -22  -3 2376.30 88.1600   1
   1 -22  -3 2330.55 80.2100   1
   1  22  -3 2517.54 86.8100   1
  -1 -22   3 2479.41 100.250   1
  -1 -22   3 2113.76 74.4600   1
  -5   1   0 879.020 41.9000   1
  -5  -1   0 871.370 42.3900   1
   5  -1   0 1019.14 52.2900   1
   5   1   0 828.260 37.4100   1
  -4  15   4 120.000 15.9400   1
   4 -15  -4 203.170 26.6000   1
   4  15  -4 135.530 18.4100   1
  -4 -15   4 135.700 27.0500   1
   4  15  -4 106.300 12.3900   1
   4  15  -4 176.790 24.2900   1
  -2  19  -2 557.880 45.0600   1
   2 -19   2 417.090 42.9300   1
  -2 -19  -2 419.950 40.4800   1
  -2 -19  -2 484.170 43.3100   1
   2  19   2 447.780 43.5300   1
   2  19   2 480.460 43.5800   1
   2 -19   2 540.940 59.0900   1
   2 -19   2 447.500 42.5700   1
  -2 -19  -2 363.560 35.2100   1
   5  12  -2 25.3100 15.8300   1
   5  12  -2 13.9000 21.3200   1
  -5 -12   2 -12.470 18.9100   1
   5  12  -2 1.94000 13.9000   1
   5 -12  -2 4.29000 21.3400   1
  -5  12   2 2.37000 39.0100   1
   0   6   5 490.280 48.1100   1
   0  -6  -5 431.280 44.0800   1
   0   6   5 577.410 35.2400   1
   0   6  -5 603.860 30.1700   1
   0  -6   5 508.110 49.3500   1
   0   6   5 605.100 36.9200   1
   0  -6  -5 624.430 28.7300   1
   0  -6   5 515.210 65.5800   1
   0  -6   5 625.100 45.0700   1
  -5  10   1 1838.99 77.6500   1
  -5 -10   1 1885.15 72.0300   1
  -5 -10   1 1905.09 76.5600   1
   5  10  -1 2011.76 82.5800   1
   5 -10  -1 1827.86 70.4400   1
   5  10  -1 1825.36 62.6200   1
  -5   2   0 3.73000 24.4700   1
   5   2   0 36.5200 21.2900   1
   5  -2   0 55.0600 17.1300   1
  -5  -2   0 16.3400 16.8900   1
   0 -21  -3 697.160 35.7100   1
   0 -21  -3 743.710 36.9600   1
   0  21   3 702.400 36.1100   1
   0  21   3 780.400 40.0700   1
   0  21   3 534.480 59.3000   1
   0 -21   3 707.940 36.6900   1
   0 -21   3 829.890 63.0900   1
   0 -21   3 653.180 44.9800   1
   0  21  -3 727.880 35.1800   1
  -4  11  -1 282.460 33.8700   1
  -4 -11  -1 285.340 33.3200   1
   4 -11   1 265.100 32.8400   1
   4  11   1 318.960 35.0800   1
   4 -10  -5 221.040 33.2500   1
   4 -10  -5 342.130 34.6300   1
   4  10  -5 325.680 37.1800   1
   4  10  -5 185.400 24.5100   1
   4 -10  -5 282.250 28.4000   1
   4  10  -5 342.440 32.2600   1
   5  12  -3 146.020 26.1100   1
   5  12  -3 117.920 17.0300   1
  -5 -12   3 150.900 23.2300   1
   5 -12  -3 87.7000 20.7500   1
   2 -22  -3 1055.95 47.6600   1
  -2  22   3 752.340 40.8600   1
   2 -22  -3 1003.57 55.1100   1
   2  22  -3 978.010 40.6800   1
  -2 -22   3 982.200 41.5000   1
   1  12   4 136.490 21.4600   1
  -1 -12  -4 92.3700 10.6800   1
   1  12   4 120.680 20.1800   1
   1 -12   4 156.290 29.1600   1
   1  12   4 114.730 26.1700   1
   1 -12   4 131.420 20.7100   1
   1  12   4 92.2900 14.0400   1
   1 -12   4 115.060 17.0500   1
  -1 -12  -4 125.290 16.7500   1
  -1  12  -4 135.860 22.4000   1
  -1  12  -4 124.920 23.1600   1
   1 -12   4 83.3700 46.4800   1
   5   3   0 821.530 36.8100   1
  -5   3   0 800.120 40.3500   1
   5  -3   0 914.670 46.9300   1
  -5  -3   0 659.540 36.2900   1
  -5  -3   0 865.720 46.4800   1
   3 -13  -5 57.9900 11.5000   1
   3 -13  -5 33.5200 9.31000   1
   3  13  -5 51.0800 12.4900   1
   3  13  -5 43.7500 11.7300   1
   3  13  -5 40.9100 16.4400   1
   3  13  -5 45.8700 15.0500   1
  -3 -22   1 1130.60 50.2900   1
   3  22  -1 1211.68 45.1900   1
  -3 -22   1 1111.35 49.2000   1
   3  22  -1 1120.21 47.9200   1
   3 -22  -1 1236.87 56.5900   1
   3 -22  -1 1313.42 68.0700   1
  -3  18   4 602.770 31.9400   1
   3 -18  -4 671.730 35.4800   1
   3  18  -4 476.220 44.2300   1
  -3 -18   4 708.270 37.2200   1
   3  18  -4 597.330 26.8800   1
  -2 -14  -3 44.2400 10.4600   1
  -2 -14  -3 87.2700 13.0300   1
   2 -14   3 61.6000 11.3900   1
   2 -14   3 4.43000 29.1800   1
   2  14   3 112.930 28.6500   1
  -2  14  -3 80.0800 19.8300   1
   2  14   3 77.2500 18.2800   1
   0  26   0 8.36000 11.1000   1
   0 -26   0 -9.6500 8.02000   1
   0 -26   0 14.4000 19.0800   1
   2 -19  -4 8.52000 18.5700   1
   2 -19  -4 17.4100 14.0500   1
   2 -19  -4 34.1200 13.0200   1
  -2 -19   4 -1.3900 15.8400   1
   2  19  -4 35.7100 11.6600   1
   4  18  -1 3027.47 95.0700   1
  -4 -18   1 3092.16 104.440   1
   4  18  -1 2970.20 112.350   1
  -4  18   1 2664.38 112.520   1
   4 -18  -1 2666.30 105.710   1
   0  24   2 94.0500 20.7000   1
   0 -24   2 80.4800 14.4300   1
   0  24  -2 142.520 17.6600   1
   0 -24  -2 157.540 18.3000   1
   0 -24   2 81.0800 15.2500   1
   0 -24   2 111.920 23.7400   1
  -3 -22   2 965.440 41.6200   1
  -3 -22   2 918.470 49.4200   1
   3  22  -2 1032.12 43.6200   1
   3  22  -2 802.200 38.3300   1
   3 -22  -2 1058.85 55.6800   1
   3 -22  -2 876.140 66.5100   1
  -3  22   2 720.530 38.2800   1
  -3  22   2 785.090 39.6100   1
   3  21   0 448.430 42.8500   1
   3  21   0 416.980 43.9600   1
  -3 -21   0 305.280 30.6500   1
  -3 -21   0 408.720 39.4900   1
   3 -21   0 433.820 49.8200   1
   3 -21   0 378.680 38.5700   1
   5   4   0 940.700 47.1400   1
   5   4   0 896.980 40.6200   1
   5  -4   0 1002.40 47.9100   1
  -5  -4   0 1015.04 46.3300   1
  -5  -4   0 985.510 46.6500   1
  -5   4   0 962.960 46.6600   1
  -1  12   5 1936.88 95.7900   1
   1 -12  -5 2323.75 89.3300   1
   1 -12  -5 2293.66 86.6700   1
   1 -12  -5 2265.06 77.4100   1
   1 -12  -5 2036.63 75.4900   1
  -1  12   5 1877.88 72.0500   1
  -1 -12   5 2522.60 92.9800   1
   1  12  -5 2389.04 81.3800   1
  -1 -12   5 2409.31 93.6100   1
   1  12  -5 2248.64 79.3700   1
   0   7   5 18.4700 8.60000   1
   0  -7  -5 33.3500 10.1900   1
   0   7   5 31.6700 19.6600   1
   0   7  -5 40.4100 11.0300   1
   0  -7   5 33.1800 21.9400   1
   0  -7   5 60.9600 43.1000   1
   0  -7   5 18.8200 9.94000   1
   0  -7  -5 8.53000 14.5500   1
   0   7   5 29.2700 19.6400   1
   4  16   0 12.3100 15.2600   1
  -4 -16   0 30.8500 21.9300   1
   4  16   0 -28.020 23.2300   1
   4 -16   0 -20.370 27.2100   1
  -4  16   0 -13.660 24.1700   1
   5 -10  -4 1079.44 46.8100   1
   5  10  -4 1144.89 60.8400   1
  -5 -10   4 1049.72 55.1900   1
   5  10  -4 1025.66 38.4400   1
   3  14   2 16.8000 12.8700   1
  -3 -14  -2 19.2500 17.5500   1
   3 -14   2 22.0000 19.7800   1
   3  14   2 14.7000 17.0000   1
  -3  14  -2 -10.860 21.8100   1
   2  24   0 1182.15 45.2800   1
   2 -24   0 1193.24 57.0600   1
  -2 -24   0 950.910 39.9100   1
   2 -24   0 1173.40 67.5600   1
   2  24   0 854.310 58.7000   1
  -2 -24   0 1141.34 51.0000   1
  -4 -18   3 657.620 36.1700   1
   4  18  -3 620.200 35.0500   1
   4  18  -3 579.250 28.9900   1
  -4  18   3 532.790 48.8000   1
   4 -18  -3 560.060 37.0000   1
  -4  18   3 415.860 40.0300   1
  -3   0  -3 2594.71 92.5700   1
   3   0   3 3161.80 109.920   1
  -2 -24   2 2570.18 88.5700   1
  -2  24   2 2456.07 91.2700   1
   2 -24  -2 2762.49 97.5700   1
   2  24  -2 2580.91 82.8900   1
  -2 -24   2 2682.69 97.8600   1
  -2  24   2 2122.99 84.4300   1
   2 -24  -2 2595.68 114.900   1
   3   1   3 32.0900 34.9700   1
  -3   1  -3 38.8600 16.3100   1
  -3  -1  -3 70.0700 21.0700   1
   5   0  -5 4072.13 345.400   1
   1  19   3 1490.90 58.7500   1
   1  19   3 1568.52 65.8400   1
  -1 -19  -3 1465.23 57.2600   1
  -1 -19  -3 1664.80 66.6900   1
   1 -19   3 1595.70 67.3800   1
   1 -19   3 1408.74 77.2300   1
   1 -19   3 1598.50 74.7700   1
  -1  19  -3 1520.93 79.6000   1
  -3 -21   3 373.790 36.5900   1
   3 -21  -3 358.730 49.1700   1
  -3  21   3 348.330 33.9200   1
  -3  21   3 359.840 34.6900   1
  -3 -21   3 354.800 41.8400   1
   3  21  -3 369.180 33.7800   1
   3  21  -3 325.750 33.0900   1
   3 -21  -3 454.720 45.2700   1
   5  -1  -5 47.9000 10.4900   1
   5   1  -5 33.9700 13.8400   1
  -5 -11   1 666.570 40.4500   1
  -5 -11   1 783.600 39.4300   1
  -5  11   1 696.550 46.4100   1
   5  11  -1 653.890 52.7000   1
   5 -11  -1 740.850 37.1600   1
   5  11  -1 728.000 33.0200   1
   5   5   0 1322.18 62.0000   1
   5   5   0 1422.48 53.2700   1
  -5   5   0 1363.19 62.1700   1
  -5  -5   0 1665.31 67.9200   1
  -5  -5   0 1470.51 61.0000   1
   5  -5   0 1477.07 63.4900   1
  -3   2  -3 3805.04 331.030   1
   3   2   3 3458.63 115.720   1
   3  -2   3 3694.79 322.430   1
  -3  -2  -3 3656.88 314.720   1
  -2  14   5 1062.50 49.4000   1
   2 -14  -5 1123.52 48.1400   1
   2 -14  -5 844.180 37.0900   1
   2 -14  -5 935.760 42.3400   1
  -2 -14   5 1019.02 48.6400   1
   2  14  -5 738.660 38.9200   1
  -2 -14   5 1086.83 51.8200   1
   2  14  -5 682.980 52.2500   1
   2  14  -5 736.210 41.8500   1
   2  14  -5 1030.82 42.5000   1
   5  13  -2 217.550 24.6200   1
  -5 -13   2 225.620 29.2800   1
   5  13  -2 190.670 24.3700   1
   5  13  -2 268.360 32.9700   1
   5 -13  -2 181.470 24.8200   1
  -5  13   2 165.490 36.3600   1
   4  11  -5 59.2500 14.9000   1
   4 -11  -5 36.8900 10.4900   1
   4  11  -5 39.3700 14.8800   1
   4 -11  -5 34.4500 11.2200   1
  -4  11   5 29.2100 12.2600   1
   4 -11  -5 32.7500 15.9300   1
   4  11  -5 36.2500 17.1600   1
   4  11  -5 37.1900 14.5500   1
  -4  12  -1 1004.63 50.9300   1
   4  12   1 968.640 46.8800   1
  -4 -12  -1 1028.14 46.9700   1
   4 -12   1 941.410 49.3400   1
   4  12   1 1094.77 50.0700   1
   5  -2  -5 1626.58 59.3700   1
   5   2  -5 1485.12 55.7200   1
   4  19  -2 31.7700 19.4800   1
   4  19  -2 25.2400 13.7400   1
  -4 -19   2 26.3600 17.5500   1
  -4 -19   2 28.9400 16.4300   1
   4 -19  -2 2.26000 17.0500   1
   0 -17  -4 707.320 36.0000   1
   0 -17  -4 697.110 39.0300   1
   0  17   4 944.180 45.3500   1
   0  17   4 888.710 47.6200   1
   0 -17  -4 889.010 44.8200   1
   0 -17  -4 782.730 38.6500   1
   0  17  -4 770.270 56.1500   1
   0  17  -4 953.770 42.4400   1
   0 -17   4 913.500 40.9500   1
   0 -17   4 880.120 62.5400   1
   0 -17   4 840.370 48.0200   1
  -3  -3  -3 125.880 18.9300   1
   3  -3   3 102.250 29.1300   1
  -3   3  -3 110.910 26.6500   1
   3   3   3 30.7000 27.3000   1
   1 -19  -4 58.4500 16.4900   1
   1 -19  -4 19.4700 16.7900   1
  -1  19   4 58.8800 21.8800   1
   1  19  -4 35.3700 12.2700   1
  -1 -19   4 66.0000 29.0800   1
  -1 -19   4 75.4200 15.4100   1
   5  13  -3 51.5100 15.8800   1
   5  13  -3 52.3800 13.6000   1
  -5 -13   3 87.0300 18.5200   1
   5 -13  -3 74.0800 18.6600   1
   0  -8   5 124.530 26.7700   1
   0   8   5 134.820 19.9800   1
   0  -8  -5 87.3800 11.9100   1
   0   8  -5 123.000 16.1000   1
   0  -8  -5 152.830 18.3700   1
   0  -8   5 116.210 17.0200   1
   0   8   5 97.1000 14.1200   1
   0  -8   5 7.14000 44.6700   1
   0   8   5 148.020 25.7200   1
  -4  16   4 23.5200 7.29000   1
   4 -16  -4 24.5100 15.1200   1
   4  16  -4 11.7400 8.41000   1
   4  16  -4 33.6600 10.6800   1
   4  16  -4 15.5400 18.7800   1
  -4 -16   4 33.7700 24.9700   1
   5   3  -5 114.590 18.2600   1
  -5   3   5 111.120 21.6700   1
   5  -3  -5 148.210 19.0300   1
   5  -3  -5 163.250 18.1800   1
   1  13   4 240.000 26.7900   1
  -1  13  -4 381.430 41.9800   1
  -1 -13  -4 349.900 32.6700   1
   1 -13   4 239.690 27.8700   1
   1  13   4 250.900 37.8100   1
   1  13   4 278.130 31.0000   1
   1  13   4 334.170 35.1200   1
   1 -13   4 311.560 38.9500   1
   1 -13   4 389.700 53.4200   1
   1 -13   4 327.510 33.1000   1
  -1  13  -4 305.780 36.6100   1
   3  19   1 203.810 25.7700   1
   3  19   1 202.190 23.5000   1
  -3 -19  -1 180.400 22.6300   1
   3 -19   1 170.790 28.4400   1
  -3  19  -1 179.090 32.7100   1
   5   6   0 353.880 36.5700   1
  -5  -6   0 349.590 37.2100   1
  -5  -6   0 409.040 46.6800   1
  -5   6   0 367.480 39.6800   1
   5  -6   0 415.290 41.7400   1
   5   6   0 433.740 43.2200   1
   1 -25   1 152.820 35.0600   1
   1 -25   1 148.230 21.5100   1
   1 -25   1 216.120 29.9900   1
  -1  25  -1 259.620 29.2600   1
   1  25   1 229.670 25.1400   1
   1 -25   1 242.380 27.0200   1
  -1 -25  -1 210.650 24.6000   1
   1 -25   1 192.840 25.2500   1
  -1 -25  -1 291.400 28.5900   1
   0 -26  -1 1959.95 74.5800   1
   0 -26   1 1735.29 64.4800   1
   0 -26   1 1710.83 73.9800   1
   0  26   1 1447.25 72.1900   1
   0 -26   1 1788.69 66.0500   1
   0 -26   1 1410.23 77.6400   1
   0  26  -1 1941.31 67.3200   1
   0  26   1 1888.48 68.3300   1
   0 -26  -1 1934.59 67.3900   1
   3   4   3 1425.17 58.0700   1
   3   4   3 1243.45 51.2100   1
  -3  -4  -3 1451.57 63.8600   1
   3  -4   3 1369.52 64.6900   1
  -3   4  -3 1401.62 61.3800   1
   3 -14  -5 282.140 28.4700   1
   3 -14  -5 315.400 35.6000   1
   3  14  -5 237.240 31.2000   1
   3  14  -5 294.090 30.1200   1
  -3 -14   5 292.870 31.7800   1
  -1 -26   0 1857.66 64.1500   1
   1 -26   0 1605.95 73.5200   1
  -1 -26   0 2211.60 80.2400   1
  -1  26   0 2008.07 74.6100   1
   1  26   0 1881.15 64.4500   1
   1 -26   0 1857.23 79.9500   1
   1 -26   0 2096.14 76.7600   1
  -5 -11   4 235.590 33.9500   1
   5  11  -4 200.650 26.4700   1
   5  11  -4 192.810 23.2700   1
   5 -11  -4 207.370 25.2200   1
   1  26  -1 68.3100 10.3100   1
  -1  26   1 75.9000 11.8300   1
   1 -26  -1 72.1300 14.7300   1
   1 -26  -1 57.8400 24.0900   1
  -1  26   1 77.0700 15.0200   1
  -1 -26   1 64.7600 14.5100   1
   1 -26  -1 61.1500 11.8100   1
  -1 -26   1 75.8100 11.6300   1
   5   4  -5 629.980 29.4900   1
  -5   4   5 578.320 37.2600   1
   5  -4  -5 651.610 32.5000   1
   5  -4  -5 678.130 31.7600   1
   1 -25  -2 1312.21 55.9000   1
  -1 -25   2 1059.31 51.9100   1
   1 -25  -2 1204.28 55.2400   1
   1  25  -2 1136.23 45.6600   1
  -1 -25   2 1190.72 49.7200   1
  -1  25   2 922.270 52.8400   1
   2 -20   2 502.490 46.0300   1
   2  20   2 571.430 29.4200   1
   2 -20   2 546.750 58.0700   1
  -2 -20  -2 580.010 27.5800   1
  -2 -20  -2 446.110 42.6800   1
  -2 -20  -2 336.690 32.7100   1
  -2  20  -2 453.800 50.1900   1
   2  20   2 509.570 48.0500   1
  -2  15  -3 131.290 24.0400   1
  -2 -15  -3 94.2400 15.0600   1
   2 -15   3 89.7200 24.4100   1
   2  15   3 138.820 22.2100   1
   2  15   3 117.500 17.8000   1
  -2 -15  -3 81.9400 12.2300   1
   2 -15   3 92.3600 11.2200   1
   2   0   4 3664.59 318.360   1
  -2   0  -4 3421.13 112.970   1
  -1 -23  -2 523.090 47.3300   1
   1 -23   2 344.450 41.3800   1
   1 -23   2 529.960 49.7400   1
  -1 -23  -2 340.680 36.1100   1
  -1 -23  -2 467.390 43.8800   1
   1 -23   2 526.350 54.2400   1
   1  23   2 531.130 51.1000   1
   1  23   2 516.660 51.3000   1
   1 -23   2 647.290 58.4600   1
   1  23   2 392.820 50.6400   1
  -1  13   5 71.7900 17.4300   1
  -1  13   5 122.480 19.4500   1
   1 -13  -5 94.8700 14.7000   1
   1 -13  -5 120.610 20.0000   1
   1 -13  -5 91.4100 13.0900   1
   1  13  -5 102.970 13.4200   1
  -1 -13   5 116.730 18.1900   1
  -1 -13   5 155.240 32.9200   1
   1  13  -5 92.1100 17.1100   1
  -2  -1  -4 -14.470 16.7800   1
  -2   1  -4 44.5200 18.2900   1
  -2 -25   1 583.060 33.2400   1
   2 -25  -1 565.040 40.2900   1
  -2 -25   1 631.840 30.2800   1
   2  25  -1 705.760 31.7900   1
   2 -25  -1 676.300 34.7500   1
   2 -23   1 119.210 22.7800   1
  -2 -23  -1 171.620 23.7500   1
  -2 -23  -1 96.4600 14.4900   1
  -2 -23  -1 124.380 18.6700   1
   2 -23   1 165.370 28.6500   1
   2  23   1 90.0100 18.8600   1
   2  23   1 101.430 25.2400   1
   2   2   4 3328.73 115.310   1
   2  -2   4 3373.72 116.330   1
  -2  -2  -4 3270.94 105.430   1
  -2   2  -4 3272.12 110.860   1
   1 -23  -3 107.360 16.4300   1
   1 -23  -3 96.3200 14.6600   1
  -1  23   3 97.6600 15.1000   1
   1  23  -3 100.370 12.6900   1
  -1 -23   3 131.050 22.1200   1
  -1 -23   3 113.190 26.3400   1
  -3  -5  -3 39.3200 18.4000   1
   3  -5   3 26.8100 20.5700   1
   3   5   3 50.8400 17.1500   1
  -3   5  -3 12.0100 21.8900   1
   3   0  -6 9.75000 13.8300   1
   3  15   2 49.2500 25.0500   1
  -3  15  -2 71.2500 25.3900   1
   3  15   2 58.8100 13.8500   1
   3 -15   2 53.2100 30.3800   1
  -3 -15  -2 80.8300 13.4700   1
   0  22   3 173.380 29.5400   1
   0  22   3 153.500 19.3900   1
   0  22   3 133.130 22.2900   1
   0 -22  -3 137.750 19.4000   1
   0 -22  -3 138.870 17.3700   1
   0 -22   3 101.020 23.2300   1
   0 -22   3 118.490 43.0400   1
   0 -22   3 134.480 23.0800   1
   0  22  -3 161.490 21.6800   1
  -5 -12   1 666.570 37.1100   1
   5  12  -1 610.150 30.4500   1
   5  12  -1 629.910 41.9300   1
  -5 -12   1 665.860 41.4700   1
  -5  12   1 613.880 49.9900   1
   5 -12  -1 577.240 39.7700   1
   3  -1  -6 1562.76 60.8400   1
   3   1  -6 1458.11 52.8500   1
  -3  19   4 -1.3900 7.71000   1
  -3 -19   4 -1.1200 15.9100   1
   3 -19  -4 -42.050 16.4000   1
   3  19  -4 5.11000 7.26000   1
   3  19  -4 3.76000 9.98000   1
   0   9   5 357.380 37.1400   1
   0  -9   5 378.760 36.8200   1
   0   9   5 419.650 41.0900   1
   0  -9  -5 343.650 35.8600   1
   0   9   5 403.760 44.0500   1
   0   9  -5 498.640 47.8500   1
   0  -9   5 468.140 49.2200   1
   0  -9  -5 467.640 43.2300   1
   0  -9   5 456.590 62.8000   1
  -5   5   5 360.060 38.0600   1
   5  -5  -5 436.040 41.3100   1
   5   5  -5 392.510 37.9900   1
   5  -5  -5 423.000 39.4200   1
   5   7   0 37.7400 14.3100   1
   5   7   0 53.0100 17.1700   1
  -5   7   0 44.5000 25.5200   1
  -5  -7   0 22.0500 24.8600   1
  -5  -7   0 92.8800 25.6400   1
   5  -7   0 27.0300 18.1000   1
   4  19  -1 236.220 32.6400   1
   4  19  -1 268.390 27.9500   1
  -4 -19   1 172.800 23.6900   1
   4 -19  -1 305.460 38.1000   1
  -4 -17   0 118.950 19.5300   1
   4  17   0 108.490 18.3500   1
   4  17   0 111.550 20.8300   1
  -4  17   0 109.030 38.3500   1
   4 -17   0 69.4400 26.2500   1
  -2  -3  -4 40.5100 12.8300   1
  -2   3  -4 66.1000 14.3000   1
   2   3   4 35.0300 13.4100   1
  -4  12   5 567.810 32.2800   1
   4 -12  -5 419.440 51.6800   1
   4 -12  -5 693.470 35.5100   1
   4 -12  -5 751.030 36.2000   1
   4  12  -5 692.440 28.6600   1
   4  12  -5 541.500 59.6000   1
   4  12  -5 762.230 42.6700   1
   3   2  -6 94.6700 12.3900   1
   3  -2  -6 95.0600 15.1800   1
   3  -2  -6 49.5100 19.9600   1
   2 -20  -4 248.730 26.6700   1
   2 -20  -4 251.230 27.5800   1
   2  20  -4 319.920 32.0300   1
  -2 -20   4 248.510 26.4700   1
  -4  13  -1 202.200 35.8300   1
   4  13   1 206.710 23.8800   1
   4 -13   1 190.230 34.4200   1
  -4 -13  -1 250.890 29.1400   1
   2 -23  -3 75.4200 14.4100   1
   2 -23  -3 57.9100 18.5500   1
  -2 -23   3 87.5000 14.4100   1
   2  23  -3 55.0300 10.6700   1
   5  14  -2 179.690 24.6800   1
   5  14  -2 191.170 20.8500   1
  -5 -14   2 224.130 29.4900   1
  -5  14   2 264.250 49.4100   1
   5 -14  -2 146.170 25.9700   1
   2 -15  -5 8.17000 7.64000   1
   2 -15  -5 23.5800 11.7500   1
  -2  15   5 7.21000 12.9600   1
   2 -15  -5 11.8300 18.1600   1
   2  15  -5 1.53000 14.8900   1
   2  15  -5 27.0200 13.1500   1
  -2 -15   5 17.8800 25.4400   1
   2  15  -5 11.4200 7.43000   1
  -2 -15   5 9.45000 9.73000   1
   2  15  -5 14.0800 10.0900   1
   3  -3  -6 1074.60 44.9700   1
   3   3  -6 1080.70 48.5800   1
   3  -3  -6 895.460 51.9000   1
   3  23  -1 101.630 21.1600   1
  -3 -23   1 75.7500 14.9000   1
   3  23  -1 99.7000 11.2600   1
  -3 -23   1 130.150 21.3100   1
   3 -23  -1 104.280 22.0100   1
   3 -23  -1 71.4100 20.1000   1
   4   0   2 216.800 28.4300   1
  -4   0  -2 195.330 25.4300   1
  -2   4  -4 2442.92 86.5800   1
   2   4   4 2272.83 83.1700   1
   2   4   4 2401.40 91.0300   1
   2  -4   4 2277.06 92.5900   1
  -2  -4  -4 2140.52 74.2000   1
  -3   6  -3 271.520 34.9000   1
   3   6   3 246.440 33.2700   1
  -3  -6  -3 274.380 34.7400   1
   3   6   3 232.670 27.7000   1
   3  -6   3 312.190 41.7500   1
  -4 -19   3 -0.8200 12.1100   1
  -4  19   3 3.67000 6.82000   1
   4  19  -3 21.9700 14.3300   1
   4 -19  -3 1.95000 14.1100   1
   4  19  -3 14.3800 18.3300   1
   4   1   2 7.58000 24.7800   1
   4  -1   2 47.7300 26.6000   1
  -4  -1  -2 43.0600 20.5500   1
  -4   1  -2 24.5300 21.5800   1
   5  14  -3 92.5000 17.6200   1
  -5 -14   3 107.190 23.8000   1
   5  14  -3 103.450 11.8200   1
   5 -14  -3 84.8300 16.4200   1
   3  22   0 170.390 27.0000   1
  -3 -22   0 115.990 17.0600   1
   3  22   0 112.600 15.1900   1
  -3 -22   0 91.8000 16.2600   1
   3 -22   0 187.650 34.8300   1
   3 -22   0 122.910 20.4900   1
  -3 -23   2 116.640 20.8900   1
   3  23  -2 98.0200 15.3000   1
  -3 -23   2 95.7200 21.3000   1
   3  23  -2 73.3500 11.2200   1
   3 -23  -2 99.2500 20.1200   1
  -3  23   2 75.9600 11.7400   1
  -3  23   2 85.0200 12.2700   1
   3 -23  -2 86.2300 24.4000   1
   5  -6  -5 242.080 27.6600   1
   5   6  -5 257.720 26.4200   1
   5  -6  -5 202.770 21.2300   1
  -5   6   5 191.600 23.9400   1
  -2   0   6 774.450 47.4000   1
   2   0  -6 742.030 42.4600   1
   2   0  -6 766.650 38.2500   1
  -1  14  -4 165.490 25.4000   1
  -1 -14  -4 208.610 24.7200   1
   1 -14   4 211.060 23.8400   1
   1  14   4 156.000 32.6000   1
   1  14   4 185.830 29.2900   1
   1  14   4 203.990 27.2800   1
   1 -14   4 172.440 31.0100   1
   1 -14   4 206.500 43.6500   1
   1 -14   4 129.620 18.1400   1
   1  14   4 140.730 18.4000   1
   4   2   2 612.070 33.6200   1
   4  -2   2 558.970 33.6200   1
  -4  -2  -2 554.320 56.1100   1
  -4   2  -2 607.280 40.0300   1
  -2  -1   6 33.6500 16.1100   1
   2  -1  -6 32.3100 14.8400   1
   2   1  -6 47.7700 16.3100   1
   2   1  -6 29.7900 11.9400   1
  -2   1   6 9.51000 14.4200   1
   2  -1  -6 44.4500 10.5800   1
   2   1  -6 56.6200 11.4600   1
  -5 -12   4 571.450 45.6200   1
   5 -12  -4 542.050 52.8900   1
   5  12  -4 483.240 43.0500   1
   5  12  -4 551.440 56.3900   1
   0 -25   2 453.670 48.7000   1
   0 -25   2 499.680 46.6500   1
   0 -25  -2 453.240 43.8700   1
   0  25  -2 497.100 46.2800   1
   0 -25  -2 445.920 41.5200   1
   0 -25   2 330.310 37.1400   1
   0  25   2 370.890 44.2500   1
   0 -25   2 281.160 31.0200   1
   1  20   3 1070.33 47.7400   1
  -1 -20  -3 1100.43 51.7100   1
  -1 -20  -3 1085.67 45.3900   1
   1  20   3 1080.19 51.4800   1
   1 -20   3 1188.92 76.3400   1
   1 -20   3 1057.38 46.5100   1
   1 -20   3 1043.21 60.7000   1
   1 -20   3 934.550 43.2100   1
  -1  20  -3 1099.71 68.0200   1
   3  -4  -6 474.560 48.6200   1
   3   4  -6 569.890 35.9500   1
   3   4  -6 619.440 30.4700   1
   3  -4  -6 618.100 28.3100   1
   2   2  -6 989.060 46.8100   1
   2   2  -6 917.610 41.0400   1
  -2   2   6 792.070 40.2700   1
   2  -2  -6 1020.06 45.0200   1
  -2  -2   6 977.790 59.9500   1
   2   2  -6 852.770 50.8400   1
   2  -2  -6 942.440 45.6600   1
  -5   8   0 40.0600 28.9100   1
  -5  -8   0 56.6600 26.4100   1
   5   8   0 34.1400 14.7400   1
   5   8   0 67.8100 17.1300   1
   5  -8   0 47.8500 18.7200   1
   0 -18  -4 167.880 22.8400   1
   0 -18  -4 107.210 16.8000   1
   0 -18  -4 108.600 15.8400   1
   0 -18  -4 161.540 22.1800   1
   0  18   4 138.870 21.1900   1
   0 -18   4 158.220 37.4500   1
   0  18  -4 166.770 20.9700   1
   0  18  -4 155.350 27.9000   1
   0 -18   4 136.320 18.1800   1
   0 -18   4 139.970 28.4100   1
   0 -27   0 -33.590 16.6400   1
   0  27   0 10.1800 7.86000   1
   0 -27   0 0.95000 8.27000   1
  -4  17   4 51.5900 8.41000   1
   4 -17  -4 74.7800 17.9700   1
   4  17  -4 42.3000 9.30000   1
   4  17  -4 55.1500 11.3500   1
   4  17  -4 69.9600 18.0300   1
  -4 -17   4 77.4700 25.5500   1
   4  -3   2 511.530 53.8500   1
  -4  -3  -2 463.810 45.2300   1
   4   3   2 440.800 44.8400   1
  -4   3  -2 524.150 55.6500   1
  -4   3  -2 484.900 49.4400   1
   2   5   4 873.500 45.1400   1
   2  -5   4 770.700 43.2700   1
  -2  -5  -4 841.570 36.2700   1
  -2   5  -4 830.920 41.7900   1
   2   5   4 652.890 36.6200   1
   2   5   4 816.970 39.1700   1
   3 -15  -5 152.660 18.7800   1
   3 -15  -5 131.370 16.7200   1
   3  15  -5 102.140 15.8700   1
   3  15  -5 131.890 19.3000   1
  -3 -15   5 117.790 20.9900   1
  -2 -25   0 844.950 41.1500   1
   2 -25   0 921.140 54.0100   1
   2  25   0 571.670 48.6500   1
  -2 -25   0 857.240 39.3400   1
   2  25   0 827.340 35.3600   1
   2 -25   0 752.790 58.4800   1
  -4 -20   2 375.960 38.8400   1
  -4 -20   2 301.390 35.3800   1
   4  20  -2 297.700 28.4500   1
   4  20  -2 316.880 35.2700   1
   4 -20  -2 271.920 32.3800   1
  -3  22   3 254.190 27.2100   1
   3  22  -3 263.410 28.5600   1
   3  22  -3 308.900 30.0500   1
  -3 -22   3 367.060 39.4400   1
   3 -22  -3 333.610 37.1700   1
   3 -22  -3 242.740 39.0000   1
  -3  22   3 292.430 29.6900   1
  -3 -22   3 287.700 36.6200   1
   0  10   5 293.430 31.4300   1
   0 -10   5 381.380 38.3000   1
   0 -10  -5 473.680 44.2300   1
   0  10  -5 441.670 41.2300   1
   0  10   5 444.740 44.0200   1
   0 -10  -5 343.280 35.9100   1
   0 -10  -5 336.390 34.0600   1
   0  10   5 396.810 40.4000   1
   0 -10   5 497.610 56.1900   1
   0 -10   5 376.810 49.5000   1
   1 -14  -5 1080.09 48.7600   1
   1 -14  -5 1217.56 48.7800   1
  -1  14   5 1250.78 57.5600   1
   1 -14  -5 954.810 47.3600   1
   1  14  -5 1161.47 47.2200   1
   1  14  -5 1000.72 52.1100   1
  -1 -14   5 1038.84 44.7700   1
  -1 -14   5 1011.16 50.8800   1
   2   3  -6 749.420 41.4500   1
   2  -3  -6 748.260 40.2700   1
   2  -3  -6 809.340 37.5700   1
   2   3  -6 784.080 38.7900   1
  -2  -3   6 742.450 40.1500   1
   2  -3  -6 590.760 42.9600   1
   2   3  -6 502.340 50.4400   1
   1 -20  -4 1912.04 75.1200   1
  -1  20   4 2349.81 88.2600   1
   1 -20  -4 2017.97 71.8400   1
   1  20  -4 2060.69 78.6800   1
  -1 -20   4 1932.13 75.6700   1
  -1 -20   4 1973.97 80.2700   1
  -3   7  -3 164.930 23.9600   1
  -3  -7  -3 131.350 22.7500   1
   3  -7   3 131.970 25.9300   1
   3   7   3 170.670 24.2000   1
   3   7   3 167.380 27.4800   1
   2 -25  -2 -35.200 17.3900   1
   2 -25  -2 19.2100 16.4000   1
  -2  25   2 5.09000 13.9200   1
  -2 -25   2 26.9300 14.4500   1
   2 -25  -2 -12.450 17.4300   1
  -2  25   2 8.90000 8.12000   1
   2  25  -2 24.7800 13.1100   1
  -2  25   2 11.9700 8.33000   1
  -2 -25   2 18.3200 13.3800   1
  -2 -16  -3 11.4400 7.25000   1
   2 -16   3 43.3200 18.8900   1
  -2  16  -3 24.2500 19.4100   1
   2 -16   3 11.3700 8.88000   1
  -2 -16  -3 50.4800 16.5500   1
   2  16   3 15.3000 23.8900   1
   2  16   3 35.7500 15.7600   1
   2 -16   3 38.3600 32.7700   1
   3  -5  -6 92.0100 13.1300   1
   3   5  -6 97.3100 14.3200   1
   3   5  -6 91.1900 12.8900   1
   3  -5  -6 76.9500 18.1700   1
   3   5  -6 97.7900 16.0500   1
  -4   4  -2 270.950 31.9900   1
   4   4   2 257.970 33.2500   1
  -4  -4  -2 283.860 33.9700   1
  -4   4  -2 309.160 36.5100   1
   4  -4   2 296.360 34.9000   1
   4   4   2 269.050 41.5900   1
  -5   7   5 330.760 36.2100   1
   5  -7  -5 447.480 42.0800   1
   5   7  -5 410.010 37.3600   1
   5  -7  -5 447.850 40.7200   1
   5  13  -1 340.070 35.7500   1
   5  13  -1 348.530 35.1200   1
  -5 -13   1 326.660 34.6500   1
  -5 -13   1 394.490 45.2500   1
  -5  13   1 285.930 40.5000   1
   5 -13  -1 405.800 45.1000   1
   3  20   1 549.950 50.8000   1
   3  20   1 500.840 48.2900   1
  -3 -20  -1 529.620 50.4200   1
  -3  20  -1 547.750 66.0800   1
   3 -20   1 505.670 52.3900   1
   4 -13  -5 110.060 15.4700   1
   4 -13  -5 91.9300 15.0000   1
   4 -13  -5 62.0200 20.0400   1
  -4  13   5 89.6400 10.9400   1
   4  13  -5 80.0800 16.7000   1
   4  13  -5 106.720 20.0900   1
   4  13  -5 104.640 12.4500   1
   2   4  -6 34.6200 14.9300   1
   2   4  -6 46.0900 13.2000   1
   2  -4  -6 21.4200 15.4100   1
   2  -4  -6 16.0800 9.71000   1
   2  -4  -6 14.6500 11.3700   1
   2   4  -6 4.36000 11.1600   1
  -2  -4   6 0.31000 16.3100   1
   2   6   4 171.900 22.2300   1
   2   6   4 180.830 29.1100   1
   2   6   4 276.300 40.1200   1
   2  -6   4 269.910 34.7600   1
  -2   6  -4 282.380 33.1400   1
  -2  -6  -4 237.440 25.3800   1
  -3 -16  -2 234.670 27.5100   1
   3  16   2 245.720 28.2100   1
   3  16   2 247.360 29.7200   1
  -3  16  -2 224.780 29.9100   1
   3 -16   2 230.710 37.0500   1
   4  14   1 2335.55 80.7100   1
  -4 -14  -1 2650.82 100.480   1
   4  14   1 2387.06 91.1000   1
  -4  14  -1 2371.59 105.570   1
   4 -14   1 2174.36 91.4500   1
   5   9   0 80.5800 21.8000   1
  -5  -9   0 69.1000 24.8100   1
   5   9   0 31.7100 20.0700   1
   5  -9   0 51.7500 26.9700   1
  -5   9   0 58.3900 22.8000   1
   2  21   2 68.7200 11.4700   1
  -2 -21  -2 53.3500 11.9400   1
  -2  21  -2 104.810 35.5100   1
   2 -21   2 37.8500 11.9200   1
  -2 -21  -2 76.8800 15.1900   1
   2 -21   2 55.5300 20.7200   1
   2  21   2 101.080 22.5800   1
  -2 -21  -2 50.7200 8.89000   1
   2 -21   2 78.2000 34.9600   1
  -4  -5  -2 356.270 39.5800   1
  -4   5  -2 323.920 37.1600   1
   4   5   2 403.100 40.1400   1
   4  -5   2 380.430 45.3600   1
   4   5   2 332.560 40.4800   1
  -4   5  -2 361.690 39.5500   1
  -6   0   3 7.49000 32.2400   1
   6   0  -3 16.1500 14.8600   1
  -6   1   3 722.360 47.8200   1
  -6  -1   3 763.780 48.6300   1
   6  -1  -3 779.840 34.0100   1
   6   1  -3 681.560 33.6700   1
   5  15  -2 7.18000 15.5800   1
   5  15  -2 -1.2600 15.4600   1
  -5 -15   2 44.9400 16.8000   1
  -5  15   2 85.9900 51.4900   1
   5 -15  -2 -35.650 23.1400   1
   3  -6  -6 613.640 50.1200   1
   3  -6  -6 499.500 53.1100   1
   3   6  -6 541.490 54.5200   1
   3   6  -6 443.210 53.5400   1
   3   6  -6 603.350 29.0200   1
   3  -6  -6 571.110 28.0700   1
   3  -6  -6 639.970 49.8800   1
   3   6  -6 423.520 46.1900   1
   3  -6  -6 524.480 51.2300   1
   4  18   0 277.100 27.8200   1
   4  18   0 284.940 32.1500   1
  -4 -18   0 276.830 31.9500   1
  -4  18   0 211.150 45.3900   1
   4 -18   0 299.830 35.2000   1
   2  -5  -6 2015.61 72.9500   1
   2   5  -6 2295.13 78.0100   1
  -2  -5   6 2060.99 79.0200   1
   2   5  -6 1619.73 68.8800   1
   2   5  -6 2059.15 80.6200   1
   2  -5  -6 2173.52 84.1000   1
   3   8   3 40.0000 16.5200   1
   3   8   3 23.7000 20.8400   1
  -3   8  -3 32.3100 21.8000   1
  -3   8  -3 12.4300 20.8000   1
  -3  -8  -3 16.4700 18.3400   1
   3  -8   3 4.88000 20.9100   1
   6   2  -3 472.130 43.3300   1
   6  -2  -3 427.880 39.7000   1
  -6   2   3 471.580 51.5200   1
  -6  -2   3 570.840 41.2300   1
   6   2  -3 521.360 46.9500   1
  -2  16   5 578.880 39.1300   1
   2 -16  -5 660.220 39.3700   1
   2 -16  -5 614.020 36.6300   1
  -2 -16   5 651.870 40.4700   1
   2  16  -5 601.100 39.9500   1
  -2 -16   5 586.530 34.7500   1
   5  13  -4 -1.5300 16.3100   1
  -5 -13   4 39.9000 27.1300   1
   5  13  -4 28.8500 14.9900   1
   5 -13  -4 50.7800 18.4800   1
   4   0  -6 2233.87 97.0700   1
   4   0  -6 1896.64 89.6300   1
  -3  20   4 283.720 29.3500   1
   3 -20  -4 353.610 33.9700   1
   3  20  -4 364.080 32.7300   1
   3  20  -4 264.840 27.5300   1
  -3 -20   4 415.110 22.3500   1
   5  15  -3 37.1300 13.3500   1
   5  15  -3 60.3100 20.8700   1
  -5 -15   3 74.1200 23.8800   1
   5 -15  -3 23.7900 15.5400   1
  -5   8   5 11.6600 11.5900   1
   5   8  -5 -10.330 11.1000   1
   5  -8  -5 -2.7800 11.4300   1
   5   8  -5 -7.7500 12.7700   1
   5  -8  -5 4.65000 9.31000   1
   4   1  -6 25.5300 10.5500   1
   4  -1  -6 25.8400 12.9900   1
   4   1  -6 16.3700 9.93000   1
   4  -1  -6 25.9000 11.8800   1
  -1 -26  -1 827.270 43.5600   1
   1 -26   1 769.220 44.8600   1
  -1 -26  -1 776.500 46.4100   1
  -1  26  -1 803.230 45.2300   1
   1  26   1 753.610 42.7600   1
   1 -26   1 573.400 36.5900   1
   1 -26   1 551.140 41.5100   1
   1 -26   1 729.150 52.5600   1
   1 -26   1 651.420 75.5300   1
   1 -24   2 274.910 52.5700   1
   1 -24   2 314.920 30.3200   1
  -1 -24  -2 347.180 32.6300   1
   1 -24   2 209.300 28.5900   1
  -1 -24  -2 378.680 32.5200   1
   1  24   2 298.190 30.9700   1
   1  24   2 345.570 33.2900   1
   1 -24   2 250.310 28.4600   1
   1 -24   2 282.800 40.4200   1
   1  24   2 254.620 30.7700   1
   0 -11   5 746.100 55.7100   1
   0 -11  -5 617.670 36.9300   1
   0  11   5 689.460 46.6700   1
   0  11   5 719.560 45.5900   1
   0  11  -5 833.720 49.9800   1
   0 -11  -5 732.000 39.3200   1
   0 -11  -5 604.540 39.3900   1
   0  11  -5 729.690 40.9600   1
   0 -11   5 657.350 40.6200   1
   0 -11   5 810.300 62.2700   1
   0  11   5 520.590 36.9500   1
   4  20  -1 455.130 35.4400   1
   4  20  -1 413.700 22.0900   1
  -4 -20   1 482.290 34.2500   1
   4 -20  -1 357.060 41.3800   1
  -1 -15  -4 33.2200 15.9100   1
   1  15   4 51.3000 16.9700   1
   1  15   4 25.5700 19.5900   1
   1  15   4 40.1900 25.5500   1
  -1  15  -4 7.97000 15.8100   1
   1 -15   4 16.7600 9.11000   1
   1 -15   4 26.9400 31.4000   1
   1 -15   4 162.510 54.7300   1
   1 -15   4 33.5000 17.1700   1
  -2   7  -4 319.680 32.0000   1
  -2  -7  -4 291.860 26.3200   1
   2   7   4 223.380 23.0500   1
   2  -7   4 301.960 43.2700   1
   2   7   4 281.080 30.4600   1
   2   7   4 295.510 33.1600   1
   0 -27  -1 247.290 25.3000   1
   0 -27   1 250.120 25.3900   1
   0 -27   1 180.810 29.0600   1
   0 -27   1 232.770 23.0800   1
   0 -27  -1 248.500 25.0000   1
   0  27   1 245.550 24.6300   1
   0  27  -1 269.320 28.0200   1
   1 -26  -2 286.910 30.2000   1
  -1 -26   2 264.200 26.2200   1
   1 -26  -2 292.810 29.5900   1
  -1 -26   2 209.780 30.6400   1
  -1 -26   2 255.130 28.8400   1
   1  26  -2 328.960 29.2100   1
  -1  26   2 212.260 29.4400   1
   6   3  -3 8.85000 14.5500   1
  -6  -3   3 15.3400 21.4600   1
  -6   3   3 -11.380 25.9600   1
   6  -3  -3 32.3800 13.9400   1
   6   3  -3 -6.7800 16.5900   1
   4  -2  -6 1649.98 75.9100   1
   4   2  -6 1434.69 72.8600   1
   4  -2  -6 1446.17 74.2800   1
   4   2  -6 1578.14 71.6900   1
   1 -27   0 662.050 37.6000   1
  -1 -27   0 670.960 39.7000   1
   1 -27   0 680.130 43.9100   1
   1  27   0 815.020 45.9600   1
  -1  27   0 679.520 41.1900   1
  -1 -27   0 648.860 39.5600   1
   1 -27   0 592.120 53.3700   1
   1 -27   0 671.110 56.2600   1
   2  24   1 59.1300 24.0800   1
   2 -24   1 49.4400 23.6500   1
   2  24   1 80.3300 23.2800   1
  -2 -24  -1 62.5200 19.1600   1
  -2 -24  -1 45.2200 10.4200   1
  -2 -24  -1 95.2900 17.1300   1
   2 -24   1 57.2400 16.7300   1
   0  23   3 172.740 23.7700   1
   0  23   3 181.030 27.0700   1
   0  23   3 149.370 24.7600   1
   0 -23  -3 199.700 22.8900   1
   0 -23  -3 226.310 25.0100   1
   0 -23   3 172.890 40.7800   1
   0 -23   3 193.650 28.7500   1
   0 -23   3 203.010 25.7000   1
   0  23  -3 165.580 19.1600   1
  -1 -27   1 152.270 18.0400   1
   1  27  -1 147.590 15.9000   1
   1 -27  -1 119.200 18.0700   1
  -1 -27   1 157.250 22.7800   1
  -1  27   1 147.190 18.0800   1
   1 -27  -1 150.090 20.2200   1
  -4  -6  -2 368.850 39.1900   1
   4   6   2 327.480 33.8200   1
   4   6   2 339.620 36.7400   1
   4  -6   2 331.650 35.8900   1
  -4   6  -2 358.350 34.8100   1
   2 -21  -4 222.030 24.3800   1
   2 -21  -4 265.670 27.0000   1
  -2 -21   4 276.340 27.9600   1
   2  21  -4 219.290 21.5700   1
   1 -24  -3 786.470 42.3000   1
  -1  24   3 656.990 41.4500   1
  -1  24   3 639.090 44.8600   1
   1 -24  -3 813.500 48.5500   1
   1  24  -3 845.550 43.7800   1
  -1 -24   3 844.530 52.0900   1
  -1 -24   3 844.460 46.5800   1
   2 -26  -1 41.8000 16.9800   1
   2  26  -1 35.8600 13.4000   1
  -2 -26   1 32.1200 10.8000   1
  -2 -26   1 64.2200 15.2700   1
   2 -26  -1 36.1800 15.2100   1
   3  -7  -6 0.13000 8.18000   1
   3  -7  -6 6.69000 13.3400   1
   3   7  -6 2.98000 10.9300   1
   3   7  -6 12.8000 13.6400   1
   3  -7  -6 3.99000 10.1200   1
   3  -7  -6 10.4800 13.1300   1
   3   7  -6 2.64000 10.1300   1
   3   7  -6 0.49000 25.9900   1
   3   7  -6 3.78000 8.68000   1
   4  -3  -6 229.410 26.1000   1
   4  -3  -6 279.800 36.2200   1
   4   3  -6 268.560 27.4000   1
   4   3  -6 328.300 29.8000   1
   4  -3  -6 358.820 30.6500   1
   2  -6  -6 -9.1500 11.3800   1
  -2  -6   6 -34.180 20.7400   1
   2  -6  -6 -3.9000 14.6900   1
   2   6  -6 4.29000 11.2500   1
   2   6  -6 -7.0400 11.3600   1
   2  -6  -6 20.8500 13.7100   1
   2   6  -6 19.3700 10.4300   1
   4 -20  -3 59.8800 17.6200   1
  -4  20   3 57.0400 11.1000   1
  -4  20   3 41.5500 10.8400   1
   4 -20  -3 64.0000 16.3200   1
   4  20  -3 56.7000 15.5800   1
  -4 -20   3 59.7200 18.2100   1
   4  20  -3 79.5200 22.1500   1
  -1  15   5 97.4200 17.6400   1
   1 -15  -5 63.4800 11.1200   1
   1 -15  -5 66.0800 13.9300   1
   1 -15  -5 72.4400 15.1100   1
  -1 -15   5 34.6800 21.0800   1
  -1 -15   5 87.9000 15.7000   1
   1  15  -5 77.3700 14.7700   1
   1  15  -5 55.8200 13.9500   1
  -6  -4   3 543.060 38.8500   1
  -6   4   3 544.950 50.2100   1
   6   4  -3 520.210 29.4700   1
   6  -4  -3 542.080 32.9000   1
   6   4  -3 502.130 27.8600   1
   3 -16  -5 23.2800 9.04000   1
   3 -16  -5 15.4800 14.9500   1
   3  16  -5 19.8100 15.2700   1
  -3 -16   5 19.4300 11.9800   1
   3  16  -5 16.9700 9.97000   1
   2 -24  -3 45.6200 14.5600   1
   2 -24  -3 64.3200 18.2800   1
  -2  24   3 56.2900 12.4700   1
   2  24  -3 55.1500 14.8800   1
  -2 -24   3 92.6400 16.2400   1
  -5 -14   1 957.450 51.7900   1
  -5 -14   1 762.460 44.1900   1
   5  14  -1 700.910 39.8000   1
   5  14  -1 769.610 48.2100   1
  -5  14   1 854.000 57.0400   1
   5 -14  -1 759.580 46.0800   1
   5 -10   0 20.0900 26.2400   1
  -5  10   0 58.7800 24.1800   1
  -5 -10   0 10.0500 24.7300   1
   5  10   0 59.8900 18.4900   1
   5  10   0 28.8800 23.2200   1
   4 -18  -4 26.1700 16.7000   1
  -4  18   4 14.9300 8.39000   1
   4 -18  -4 29.3800 16.8900   1
   4  18  -4 19.6800 8.18000   1
   4  18  -4 16.4800 13.3800   1
  -4 -18   4 31.4100 23.4600   1
   4  18  -4 20.0200 10.4000   1
   0 -19  -4 602.770 35.8700   1
   0  19   4 575.080 43.3400   1
   0  19   4 570.950 37.1800   1
   0 -19  -4 553.520 36.3500   1
   0 -19   4 575.260 36.4700   1
   0 -19   4 531.070 39.7800   1
   0  19  -4 559.610 33.7200   1
   0  19  -4 423.290 55.2500   1
   0 -19   4 450.210 52.0500   1
  -6   0   2 1687.14 88.1800   1
   6   0  -2 1876.14 87.7300   1
   4 -14  -5 126.090 18.8500   1
   4 -14  -5 47.1000 17.6300   1
   4 -14  -5 103.860 14.8500   1
  -4  14   5 87.0000 14.4400   1
   4 -14  -5 98.0400 16.5600   1
   4  14  -5 47.9400 13.2400   1
   4  14  -5 89.4000 15.0500   1
   4  14  -5 91.6400 15.6400   1
  -3   9  -3 406.530 32.6900   1
  -3  -9  -3 353.050 31.9500   1
   3  -9   3 335.720 40.1500   1
   3   9   3 331.350 35.8300   1
   3   9   3 375.090 40.9800   1
  -3   9  -3 406.590 31.5400   1
   6   1  -2 79.7700 18.1000   1
   6  -1  -2 95.3400 23.0600   1
  -6  -1   2 116.140 31.9200   1
  -6   1   2 82.4200 24.0300   1
   4   4  -6 1028.54 52.4200   1
   4  -4  -6 1094.34 54.7000   1
   4   4  -6 838.030 47.0400   1
   4  -4  -6 773.210 59.2300   1
   3  24  -1 1135.41 54.5400   1
  -3 -24   1 1241.86 62.1300   1
   3  24  -1 1023.62 54.8000   1
  -3 -24   1 1299.47 67.1200   1
   3 -24  -1 1150.15 60.9200   1
   3 -24  -1 931.670 60.3500   1
  -1 -21  -3 593.850 35.2300   1
   1  21   3 476.130 31.1800   1
   1  21   3 589.570 40.5000   1
  -1 -21  -3 506.220 36.1000   1
   1 -21   3 589.290 36.0300   1
   1 -21   3 817.650 69.4300   1
   1 -21   3 568.070 48.0300   1
   1 -21   3 683.360 39.9200   1
  -1  21  -3 627.640 57.2400   1
  -3 -23   0 8.34000 20.7300   1
   3  23   0 -10.250 16.3000   1
   3  23   0 11.7500 9.56000   1
  -3 -23   0 31.7600 15.6200   1
   3 -23   0 23.2900 26.8900   1
   3 -23   0 8.28000 19.3400   1
  -2 -17  -3 -2.3900 10.8400   1
  -2  17  -3 -8.8800 20.9400   1
   2  17   3 -5.3800 16.5200   1
   2  17   3 4.42000 20.8200   1
   2 -17   3 -0.1800 9.72000   1
   2 -17   3 -0.5900 22.3800   1
  -2 -17  -3 4.35000 6.63000   1
   5   9  -5 64.5400 14.9200   1
   5  -9  -5 57.4800 13.7100   1
   5  -9  -5 61.3800 11.9400   1
  -5   9   5 56.8800 13.3900   1
   5   9  -5 67.5500 14.3900   1
  -2   8  -4 99.1800 22.1500   1
   2   8   4 78.1100 38.3100   1
  -2  -8  -4 124.730 18.3300   1
   2   8   4 120.400 21.4500   1
   2  -8   4 110.600 52.2500   1
  -6   2   2 3279.44 145.050   1
  -6  -2   2 3520.85 76.5600   1
   6   2  -2 3144.51 135.770   1
   6  -2  -2 3315.05 58.4300   1
  -4   7  -2 199.980 30.5000   1
  -4  -7  -2 214.610 29.7900   1
   4   7   2 142.650 26.9200   1
   4  -7   2 253.530 35.5200   1
   4   7   2 125.010 24.2200   1
   3  24  -2 212.770 20.2800   1
   3  24  -2 123.110 15.4000   1
  -3 -24   2 193.320 24.4400   1
  -3 -24   2 188.950 22.3400   1
   3 -24  -2 153.920 28.8500   1
  -3  24   2 142.340 16.2500   1
   3 -24  -2 251.770 26.9300   1
  -3  24   2 136.120 17.1300   1
  -6   5   3 165.270 43.5200   1
  -6  -5   3 130.660 24.7600   1
   6   5  -3 81.6600 14.4700   1
   6  -5  -3 121.630 17.7200   1
   6   5  -3 115.650 19.9000   1
   4  21  -2 1418.13 74.6300   1
  -4 -21   2 1708.52 88.6000   1
   4  21  -2 1566.10 70.7700   1
   4 -21  -2 1432.29 80.1900   1
   4  15   1 12.0700 12.7100   1
  -4 -15  -1 23.9900 15.4600   1
   4 -15   1 23.8800 21.3900   1
  -4  15  -1 31.9300 22.1300   1
   2  -7  -6 424.690 24.0500   1
   2   7  -6 416.740 21.6500   1
   2  -7  -6 376.470 36.2400   1
  -2  -7   6 344.210 37.3700   1
   2   7  -6 337.110 34.4700   1
  -2   7   6 404.980 40.0500   1
   2  -7  -6 347.490 37.1600   1
   2   7  -6 465.400 29.7600   1
   6  -3  -2 80.6300 17.3000   1
  -6   3   2 174.980 36.8700   1
  -6  -3   2 86.8100 21.8300   1
   6   3  -2 105.660 17.0900   1
   1 -21  -4 324.130 32.9900   1
  -1  21   4 377.150 35.2300   1
   1 -21  -4 314.850 31.8100   1
   1  21  -4 436.350 21.7500   1
  -1 -21   4 356.880 37.2900   1
  -1 -21   4 403.370 36.2800   1
  -3   8   6 562.500 39.4900   1
   3   8  -6 472.160 37.7900   1
   3  -8  -6 548.970 45.5000   1
   3   8  -6 413.090 36.3200   1
   3   8  -6 466.390 38.7500   1
   3  -8  -6 604.600 35.1600   1
   3  -8  -6 524.780 38.2700   1
   3   8  -6 517.220 35.2600   1
   3  -8  -6 454.870 38.4900   1
   3   8  -6 574.930 35.3500   1
  -3 -17  -2 46.2800 16.1600   1
   3  17   2 55.7300 19.0400   1
   3  17   2 41.1700 18.5300   1
  -3  17  -2 4.46000 19.3000   1
   3 -17   2 19.1700 23.3200   1
   0 -12  -5 734.330 40.4500   1
   0 -12  -5 913.390 51.5000   1
   0 -12  -5 1031.47 51.5400   1
   0  12   5 937.510 51.2200   1
   0  12   5 999.570 58.9100   1
   0 -12   5 965.890 67.5400   1
   0  12  -5 1105.48 62.8900   1
   0  12  -5 1018.34 56.4600   1
   0 -12   5 902.840 50.8500   1
   0 -12   5 994.250 67.8900   1
   4  -5  -6 597.710 31.9900   1
   4   5  -6 430.050 24.7700   1
   4  -5  -6 387.660 41.5500   1
   4   5  -6 514.760 28.7700   1
  -3  23   3 482.080 33.1500   1
   3 -23  -3 457.650 47.2700   1
   3 -23  -3 688.120 42.1700   1
   3  23  -3 688.750 37.8000   1
  -3  23   3 549.790 32.9400   1
  -3 -23   3 652.810 47.8900   1
  -3 -23   3 674.290 39.3200   1
  -6   0   4 977.760 58.6800   1
  -6   0   4 1415.11 80.0100   1
   6   0  -4 1259.65 63.0800   1
   6   0  -4 1404.50 66.4800   1
   0  26  -2 46.9800 16.3300   1
   0 -26  -2 47.8200 19.4900   1
   0 -26   2 39.1200 9.62000   1
   0 -26   2 50.0800 14.7900   1
   0 -26   2 23.3900 19.6700   1
   0  26   2 49.7700 15.1100   1
   0 -26   2 47.0600 13.2300   1
   0 -26  -2 88.3100 16.6500   1
   6  -1  -4 212.880 24.2100   1
  -6   1   4 184.810 21.6300   1
  -6   1   4 246.810 38.6600   1
   6   1  -4 239.350 22.8800   1
   6   1  -4 258.840 27.2400   1
   6  -1  -4 259.750 26.3500   1
  -6  -1   4 262.450 37.4100   1
  -6  -1   4 148.230 21.1100   1
   5  14  -4 105.050 14.2800   1
   5 -14  -4 109.260 20.8300   1
  -5 -14   4 89.5200 23.6600   1
   5  14  -4 85.5400 20.1000   1
   5  16  -2 145.160 25.2200   1
   5  16  -2 138.970 17.2000   1
  -5 -16   2 145.020 20.7300   1
  -5  16   2 139.150 37.9900   1
   5 -16  -2 130.100 21.9800   1
   3  21   1 1755.17 80.7900   1
   3  21   1 1830.30 88.9600   1
  -3 -21  -1 1627.45 75.9000   1
   3 -21   1 1728.32 88.5400   1
   3 -21   1 1622.08 78.3500   1
  -3  21  -1 1774.86 103.340   1
   1   0   5 138.960 32.1700   1
   1   0   5 146.730 47.9500   1
  -1   0  -5 101.770 14.1100   1
   1   0   5 72.8000 13.3600   1
  -6   2   4 1031.78 63.9100   1
  -6  -2   4 1019.73 62.6000   1
   6  -2  -4 964.640 47.5200   1
   6   2  -4 929.370 46.0700   1
   6  -2  -4 945.210 50.1600   1
   6   2  -4 1019.54 50.5100   1
  -6   2   4 711.420 46.9100   1
  -6  -2   4 703.360 52.5700   1
   1   1   5 -45.450 37.4100   1
   1   1   5 -7.0200 27.3600   1
   1  -1   5 17.3100 28.5900   1
   1  -1   5 32.9200 41.4000   1
   1   1   5 9.16000 9.11000   1
   1  -1   5 13.3600 11.7100   1
  -1  -1  -5 -5.1000 10.2200   1
  -1   1  -5 1.92000 12.6900   1
  -6   4   2 1516.53 79.6500   1
  -6  -4   2 1300.08 68.6100   1
   6  -4  -2 1299.91 65.0500   1
   6   4  -2 1264.40 61.8700   1
   6   6  -3 191.500 28.2700   1
   6   6  -3 239.330 23.4300   1
  -6   6   3 208.600 43.2200   1
  -6  -6   3 219.780 29.3200   1
   6   6  -3 250.980 25.1800   1
   6  -6  -3 240.450 26.5800   1
   2  26   0 17.7300 21.2800   1
   2 -26   0 69.0000 27.4000   1
  -2 -26   0 57.9500 16.0000   1
   2  26   0 45.2100 11.5300   1
   2 -26   0 70.5000 16.7900   1
  -2 -26   0 34.2500 17.4200   1
  -2 -26   0 34.6100 12.3400   1
  -5 -16   3 67.1800 24.3900   1
   5  16  -3 67.0700 23.1700   1
   5 -16  -3 102.220 24.1700   1
   5  16  -3 34.8500 14.9400   1
   2 -17  -5 1.82000 12.0800   1
  -2  17   5 -10.900 12.9700   1
   2 -17  -5 -14.510 15.4600   1
   2 -17  -5 6.74000 6.40000   1
  -2 -17   5 9.99000 10.7000   1
  -2 -17   5 3.82000 18.4000   1
   2  17  -5 -3.5800 11.8100   1
   0 -28   0 1431.83 67.6400   1
   0  28   0 1474.53 71.7000   1
   0 -28   0 1485.81 71.8100   1
   1  -2   5 478.000 39.7800   1
   1   2   5 392.380 47.7700   1
  -1  -2  -5 445.370 23.4900   1
   1   2   5 298.500 28.9300   1
   1   2   5 499.350 39.4700   1
  -1   2  -5 428.640 20.5700   1
   1  -2   5 477.920 53.4500   1
   1  16   4 880.540 51.9000   1
  -1 -16  -4 930.050 48.3500   1
   1  16   4 977.270 57.1300   1
   1 -16   4 881.030 61.8600   1
   1 -16   4 929.830 51.6100   1
   1 -16   4 939.300 66.9900   1
  -1  16  -4 764.920 59.9400   1
   4   8   2 1261.52 64.5100   1
   4   8   2 1645.80 80.3200   1
   4  -8   2 1579.04 80.3600   1
  -4  -8  -2 1688.02 89.8700   1
  -4   8  -2 1589.36 95.7200   1
   5 -11   0 -8.0700 27.2300   1
  -5  11   0 -2.0600 28.6900   1
  -5 -11   0 -2.3200 23.7900   1
   3  10   3 204.800 36.9900   1
   3  10   3 246.700 30.8300   1
   3 -10   3 275.140 32.9900   1
  -3  10  -3 296.000 32.8200   1
  -3 -10  -3 229.360 24.2400   1
  -6   3   4 156.020 22.4400   1
  -6  -3   4 169.660 24.5900   1
  -6   3   4 247.100 39.9600   1
  -6  -3   4 222.110 36.2600   1
   6  -3  -4 270.440 26.3000   1
   6   3  -4 200.960 20.3300   1
   6   3  -4 226.250 24.2500   1
   6  -3  -4 253.120 25.6900   1
  -2 -26   2 1483.50 72.0400   1
   2 -26  -2 1511.79 74.9900   1
   2 -26  -2 1335.44 86.1000   1
  -2  26   2 1158.54 64.8100   1
  -2 -26   2 1138.65 67.6300   1
   2 -26  -2 1096.32 60.3600   1
  -2  26   2 1052.13 55.1400   1
   2  26  -2 1605.72 73.0600   1
  -2  26   2 1445.93 74.9800   1
   4  19   0 414.990 25.0700   1
  -4 -19   0 432.250 25.2700   1
   4  19   0 412.050 20.2500   1
  -4  19   0 399.750 54.5400   1
   4 -19   0 369.420 37.8000   1
  -2  -9  -4 383.180 35.3900   1
  -2   9  -4 375.490 37.0000   1
   2   9   4 353.740 54.7300   1
   2   9   4 373.730 36.3400   1
   2  -9   4 382.770 40.1900   1
   4   6  -6 242.480 24.1400   1
   4   6  -6 207.050 29.1200   1
   4  -6  -6 213.930 30.9000   1
   4  -6  -6 269.130 26.3200   1
   5 -10  -5 9.42000 12.0000   1
   5  10  -5 9.14000 13.7400   1
   5 -10  -5 29.8100 13.0800   1
   5  10  -5 18.2700 10.6400   1
   2   8  -6 59.1500 10.6000   1
  -2  -8   6 23.1100 22.1900   1
   2  -8  -6 57.6600 16.9800   1
   2  -8  -6 39.7900 13.7500   1
   2   8  -6 44.0400 15.8400   1
   2  -8  -6 39.0200 12.8600   1
  -2   8   6 55.5300 16.7000   1
   2   8  -6 52.0400 13.0400   1
  -2 -22  -2 722.680 43.4700   1
  -2 -22  -2 738.090 38.1000   1
  -2  22  -2 757.470 60.9200   1
   2 -22   2 738.900 41.6900   1
   2 -22   2 728.440 50.0600   1
   2  22   2 733.030 39.6700   1
   2  22   2 719.250 45.5300   1
   2 -22   2 496.330 38.8800   1
   1   3   5 70.3000 26.0100   1
  -1   3  -5 84.3300 13.0300   1
  -1  -3  -5 73.6800 15.1800   1
   1   3   5 60.8600 11.9700   1
   1  -3   5 -4.1900 41.3300   1
   1   3   5 92.6100 38.8100   1
   1  -3   5 66.7300 27.5700   1
   1   0  -6 22.9400 15.3300   1
   1   0  -6 48.8600 14.6100   1
   1   0  -6 42.6500 12.3000   1
  -1   0   6 37.8600 22.9000   1
   6   5  -2 440.690 20.9500   1
   6   5  -2 516.630 34.0400   1
   6  -5  -2 458.800 33.0100   1
  -6  -5   2 504.820 35.8800   1
  -6   5   2 459.210 38.1500   1
   1  -1  -6 2136.79 100.280   1
   1   1  -6 1851.87 85.1400   1
   1  -1  -6 1963.11 92.6500   1
   1   1  -6 1824.02 83.5000   1
  -1  -1   6 1933.29 96.8200   1
   1  -1  -6 1591.20 81.2000   1
  -1   1   6 2003.93 103.690   1
   3   9  -6 10.6200 8.94000   1
  -3   9   6 20.0300 12.7200   1
   3  -9  -6 23.9000 9.83000   1
   3   9  -6 7.53000 20.6800   1
   3   9  -6 -0.8800 12.8600   1
   3  -9  -6 28.9000 14.3700   1
   3  -9  -6 23.0700 8.25000   1
   3   9  -6 26.7200 11.4100   1
   3   9  -6 23.1200 9.88000   1
   3  -9  -6 16.2600 12.5900   1
   3 -21  -4 22.8100 17.6400   1
  -3  21   4 19.5600 7.32000   1
   3  21  -4 7.85000 7.85000   1
   3  21  -4 32.1600 13.1300   1
  -3 -21   4 47.5700 14.5800   1
  -1  16   5 9.16000 14.2700   1
   1 -16  -5 7.41000 11.5700   1
   1 -16  -5 7.35000 11.5400   1
   1 -16  -5 9.81000 8.26000   1
   1  16  -5 8.53000 21.6400   1
  -1 -16   5 6.05000 29.0500   1
  -1 -16   5 6.32000 12.5500   1
   1  16  -5 7.67000 16.3500   1
  -5 -15   1 52.5300 18.7300   1
   5  15  -1 89.2300 19.8000   1
   5  15  -1 101.580 17.9700   1
  -5  15   1 124.360 44.3500   1
   5 -15  -1 103.410 22.5000   1
  -6   4   4 525.270 47.2500   1
   6   4  -4 455.700 27.0000   1
  -6  -4   4 576.950 45.0500   1
   6   4  -4 570.460 31.2100   1
   6  -4  -4 514.860 31.8200   1
   6  -4  -4 546.960 30.7500   1
  -6  -4   4 379.290 39.7700   1
  -6   4   4 321.960 36.2300   1
   4  21  -1 430.000 20.0000   1
   4  21  -1 327.490 35.7600   1
  -4 -21   1 385.430 37.4000   1
   4 -21  -1 373.990 38.5700   1
   1  -2  -6 11.4000 9.98000   1
  -1  -2   6 -22.820 18.2200   1
   1   2  -6 -6.8900 12.1300   1
   1  -2  -6 9.06000 15.4800   1
  -1   2   6 12.2800 21.1800   1
   1   2  -6 17.0600 11.4900   1
   1  -2  -6 15.5100 11.9400   1
   1   2  -6 24.5600 11.9600   1
  -6  -7   3 303.480 33.6000   1
   6  -7  -3 292.260 30.8600   1
   6   7  -3 229.060 24.7200   1
   6   7  -3 266.730 28.3600   1
  -6   7   3 241.980 38.1800   1
   6   7  -3 242.580 26.2800   1
   3 -17  -5 -4.1500 13.1100   1
   3  17  -5 11.1700 8.65000   1
   3  17  -5 1.77000 14.8600   1
  -3 -17   5 20.0200 17.2700   1
  -4  15   5 46.0800 10.1100   1
   4 -15  -5 60.8200 16.4100   1
   4 -15  -5 38.7700 16.0800   1
   4 -15  -5 72.2800 16.9800   1
   4  15  -5 34.8000 13.6200   1
   4  15  -5 14.9500 14.6000   1
   4  15  -5 49.5000 15.5800   1
   1  -4   5 23.9000 42.0600   1
   1   4   5 71.7800 36.4100   1
   1  -4   5 12.7800 21.4300   1
  -1  -4  -5 10.3000 13.3600   1
  -1   4  -5 30.3800 10.8600   1
   1   4   5 39.6000 20.1200   1
   1   4   5 17.5600 9.26000   1
  -1  -3   6 896.290 55.2200   1
   1   3  -6 787.730 51.9700   1
   1  -3  -6 936.480 52.8700   1
   1  -3  -6 667.070 44.1100   1
  -1   3   6 850.390 53.2900   1
   1   3  -6 954.190 49.4200   1
   1  -3  -6 930.490 48.2400   1
   1   3  -6 953.450 52.5300   1
   2 -22  -4 1321.44 72.5800   1
   2 -22  -4 1292.79 69.8600   1
  -2 -22   4 1363.37 72.2600   1
   2  22  -4 1433.44 70.2600   1
   4   7  -6 51.3900 13.3600   1
   4   7  -6 44.1000 11.8900   1
   4  -7  -6 44.0100 15.1700   1
   4  -7  -6 81.5200 14.7900   1
   0  13   5 296.630 31.2300   1
   0 -13  -5 478.760 28.8100   1
   0 -13  -5 399.470 37.5600   1
   0  13   5 432.900 27.6400   1
   0 -13  -5 351.890 32.8000   1
   0  13   5 444.850 25.8700   1
   0  13  -5 451.680 34.1900   1
   0 -13   5 480.070 55.8700   1
   0 -13   5 463.620 38.7500   1
   0 -13   5 439.820 25.7900   1
   0  13  -5 512.760 34.1800   1
  -4  19   4 -3.5200 9.31000   1
   4 -19  -4 8.81000 14.3300   1
   4 -19  -4 11.9800 16.3700   1
   4  19  -4 4.30000 9.10000   1
  -4 -19   4 8.82000 25.6900   1
   4  19  -4 16.8200 13.6100   1
   4  19  -4 -4.9500 9.84000   1
   1 -25   2 120.460 42.4100   1
   1  25   2 21.9000 13.6500   1
   1 -25   2 33.1900 27.9700   1
   1  25   2 52.3100 12.4200   1
   1  25   2 109.420 24.6700   1
   1 -25   2 49.6300 19.9300   1
   1 -25   2 28.7700 11.2700   1
  -1 -25  -2 60.1300 12.5800   1
   1 -25   2 33.3400 9.63000   1
  -1  25  -2 54.0100 16.6900   1
  -1 -25  -2 40.5100 17.7800   1
  -6   6   2 54.9800 36.2400   1
  -6  -6   2 112.860 21.6100   1
   6   6  -2 40.8600 16.6800   1
   6  -6  -2 62.9700 23.1200   1
  -4  21   3 90.5000 12.5700   1
   4 -21  -3 166.660 23.8800   1
   4 -21  -3 129.550 24.1000   1
  -4  21   3 110.000 13.4300   1
  -4 -21   3 124.900 22.8300   1
  -4 -21   3 175.380 22.5000   1
   4  21  -3 123.920 24.1900   1
   4  21  -3 135.000 17.7400   1
   4   9   2 285.590 28.9100   1
   4  -9   2 249.660 35.4000   1
  -4   9  -2 332.930 38.5300   1
  -4  -9  -2 335.500 35.7900   1
   6  -5  -4 212.630 23.8400   1
   6   5  -4 203.590 19.9600   1
  -6  -5   4 232.770 34.9900   1
  -6   5   4 201.080 39.8100   1
   6   5  -4 258.880 26.5500   1
   0 -24  -3 774.690 41.5500   1
   0  24   3 635.710 37.8500   1
   0  24   3 540.250 42.4600   1
   0 -24  -3 678.660 39.3600   1
   0 -24   3 734.580 53.1100   1
   0  24  -3 799.350 42.0200   1
   0 -24   3 682.640 39.1500   1
   0 -24   3 722.200 48.9300   1
   4  16   1 2804.05 121.250   1
   4  16   1 3098.39 141.420   1
  -4 -16  -1 2637.62 117.710   1
  -4  16  -1 2884.02 132.740   1
   4 -16   1 2825.23 129.970   1
   2  18   3 41.7300 18.2400   1
  -2 -18  -3 57.9900 13.2900   1
  -2  18  -3 81.0200 24.0700   1
   2 -18   3 28.1100 14.1400   1
   2 -18   3 21.4400 32.0100   1
   2 -18   3 47.7700 10.6600   1
   2  18   3 56.8600 17.0100   1
   0  20   4 362.690 47.5300   1
   0 -20  -4 455.620 28.6100   1
   0 -20  -4 507.500 35.2000   1
   0  20   4 467.710 33.4800   1
   0  20   4 496.290 38.6600   1
   0  20  -4 493.420 31.5100   1
   0 -20   4 469.990 51.0900   1
   0 -20   4 514.140 33.5500   1
   0 -20   4 546.160 40.4400   1
   1   5   5 236.680 29.1500   1
   1  -5   5 249.630 31.9100   1
   1  -5   5 227.750 53.2800   1
   1   5   5 245.660 43.2200   1
   1   5   5 155.680 20.1700   1
  -1   5  -5 233.880 22.9600   1
   1   5   5 282.900 33.1600   1
  -1  -5  -5 216.920 21.2000   1
   2  -9  -6 219.450 23.4600   1
   2   9  -6 174.700 20.2800   1
   2   9  -6 167.850 21.6800   1
   2   9  -6 240.380 25.8000   1
   2  -9  -6 260.900 27.0500   1
  -2   9   6 275.350 30.0800   1
  -2  -9   6 261.510 29.5500   1
   1 -27   1 -36.400 26.6800   1
  -1  27  -1 -0.3000 10.1800   1
   1  27   1 -0.7500 9.27000   1
   1 -27   1 16.7200 23.8500   1
   1 -27   1 3.64000 11.2700   1
  -1 -27  -1 3.07000 12.2900   1
   1 -27   1 10.7300 13.1900   1
   1 -27   1 13.0600 14.7100   1
  -1 -27  -1 20.0800 17.0500   1
   2 -25   1 329.860 49.4800   1
   2  25   1 185.850 32.3500   1
   2 -25   1 311.860 33.0200   1
  -2 -25  -1 230.760 26.7300   1
  -2 -25  -1 306.870 28.1800   1
   2  25   1 311.670 34.5200   1
  -2 -25  -1 304.740 29.0200   1
   2  10   4 667.090 42.6400   1
   2 -10   4 578.680 41.2400   1
   2  10   4 625.900 55.3500   1
  -2 -10  -4 622.810 34.3700   1
  -2  10  -4 642.230 45.0700   1
  -1  25   3 48.4700 10.8600   1
  -1  25   3 44.9800 14.0700   1
   1 -25  -3 29.8900 13.1700   1
   1 -25  -3 53.1700 15.6000   1
  -1 -25   3 74.4000 20.3300   1
  -1 -25   3 44.9100 17.0000   1
   1  25  -3 54.7700 12.8100   1
   1   4  -6 665.120 35.8400   1
   1   4  -6 634.530 38.9000   1
   1  -4  -6 609.990 36.0700   1
  -1  -4   6 579.720 44.7200   1
   1  -4  -6 596.190 38.7600   1
  -1   4   6 562.670 40.9500   1
   3  11   3 363.280 33.8900   1
   3  11   3 318.370 31.4900   1
   3 -11   3 276.420 39.3500   1
  -3  11  -3 415.260 36.2200   1
  -3 -11  -3 360.100 34.1400   1
   5 -15  -4 129.100 23.2700   1
  -5 -15   4 98.4600 31.5300   1
   5  15  -4 88.3600 17.0100   1
   5  15  -4 102.370 17.8300   1
  -1 -27   2 577.210 41.3800   1
  -1  27   2 493.180 39.8500   1
   1  27  -2 694.040 37.7700   1
  -1 -27   2 670.050 42.0300   1
   1 -27  -2 645.760 40.2300   1
   1 -27  -2 736.090 46.0800   1
   5  12   0 699.780 37.8800   1
   5  12   0 654.340 39.1500   1
  -5 -12   0 704.020 48.9500   1
   5 -12   0 687.390 49.1800   1
  -5  12   0 730.620 52.5700   1
   5  11  -5 8.13000 13.1100   1
   5 -11  -5 26.1300 9.93000   1
   5 -11  -5 36.9600 15.0600   1
   5  11  -5 34.0300 13.9200   1
   0 -28   1 1167.38 60.8600   1
   0 -28  -1 1193.73 66.1900   1
   0  28   1 1081.26 55.3800   1
   0 -28   1 1274.78 66.2100   1
   0  28  -1 1012.78 51.2700   1
   0 -28  -1 1110.47 58.5600   1
   0 -28   1 861.270 67.9200   1
  -6   8   3 2346.89 116.520   1
   6  -8  -3 2147.85 98.7800   1
  -6  -8   3 2584.01 120.160   1
   6   8  -3 2323.78 104.150   1
   6   8  -3 2379.05 105.470   1
   6   8  -3 2553.19 125.410   1
   3 -18   2 50.9000 31.7400   1
   3  18   2 32.5700 22.4500   1
   3  18   2 -7.1400 17.7800   1
  -3 -18  -2 19.3500 12.1600   1
  -3  18  -2 0.89000 19.9100   1
  -1 -28   0 1217.24 61.0600   1
  -1  28   0 1316.56 68.8900   1
   1 -28   0 1161.60 62.7800   1
  -1 -28   0 1414.95 70.4400   1
   1  28   0 1260.88 65.7900   1
   1 -28   0 1113.13 91.2200   1
   1 -28   0 1200.55 73.2100   1
   1 -28   0 1197.38 60.5400   1
   1  22   3 215.270 25.5800   1
  -1 -22  -3 206.980 22.5600   1
  -1 -22  -3 185.510 19.2900   1
   1  22   3 228.440 23.9500   1
   1 -22   3 217.950 54.1900   1
   1 -22   3 197.930 30.8900   1
   1 -22   3 237.350 28.6300   1
   5 -17  -2 45.3300 22.8300   1
   5  17  -2 25.4200 14.1200   1
  -5 -17   2 54.7400 16.6800   1
  -5  17   2 69.1500 50.7700   1
   5  17  -2 41.7500 20.9800   1
   3 -10  -6 587.590 37.8800   1
  -3  10   6 595.720 43.1600   1
   3 -10  -6 604.940 45.7600   1
   3 -10  -6 653.450 37.7000   1
   3  10  -6 661.170 36.8300   1
   3  10  -6 510.670 42.6600   1
   3  10  -6 494.500 54.2600   1
  -5   0  -1 36.3800 28.0100   1
  -5   0  -1 28.1200 21.4600   1
   5   0   1 45.3800 24.8500   1
  -1 -28   1 117.230 20.6700   1
  -1  28   1 101.570 13.9900   1
   1  28  -1 105.120 13.5000   1
   1 -28  -1 103.940 14.7000   1
  -1 -28   1 120.520 16.4700   1
   1 -28  -1 170.270 20.8200   1
   2 -27  -1 215.410 28.5200   1
   2 -27  -1 187.140 27.6100   1
  -2 -27   1 192.300 22.2000   1
  -2  27   1 193.840 22.3100   1
   2  27  -1 213.600 20.4100   1
  -2 -27   1 199.480 20.6900   1
  -5  -1  -1 133.060 23.4500   1
  -5  -1  -1 119.050 26.8800   1
  -5   1  -1 113.070 20.9700   1
   5   1   1 129.530 21.7000   1
   5  -1   1 108.540 21.6000   1
   2 -25  -3 19.0200 13.1000   1
   2 -25  -3 -4.4800 12.5500   1
   2 -25  -3 2.08000 23.2000   1
   2  25  -3 -5.4100 9.86000   1
  -2 -25   3 10.2400 13.5800   1
  -6  -6   4 159.770 36.9800   1
   6   6  -4 110.460 14.5400   1
   6  -6  -4 117.800 16.9600   1
   6   6  -4 135.210 16.8500   1
  -6   6   4 201.650 39.1400   1
  -6   7   2 1718.78 89.6900   1
   6   7  -2 1791.15 94.9700   1
  -6  -7   2 1869.79 89.0100   1
   6  -7  -2 1765.97 84.9600   1
   6   7  -2 1611.97 78.1200   1
   4  -8  -6 55.6900 13.5000   1
   4   8  -6 43.4300 12.8400   1
   4  -8  -6 62.7300 13.8200   1
   4   8  -6 60.4500 16.2300   1
  -3 -24   0 -23.270 14.1600   1
   3  24   0 4.02000 9.62000   1
   3  24   0 -2.2200 23.0900   1
  -3 -24   0 1.70000 15.0900   1
   3 -24   0 22.5700 26.6800   1
   3 -24   0 -12.010 18.9200   1
  -5   2  -1 487.930 39.7800   1
   5  -2   1 493.300 38.7400   1
   5   2   1 540.930 36.9100   1
  -5  -2  -1 475.340 36.3900   1
  -5  -2  -1 537.730 36.5300   1
   1   5  -6 869.010 49.0200   1
   1  -5  -6 1013.00 51.0500   1
   1  -5  -6 939.240 51.2700   1
   1   5  -6 1016.08 54.8400   1
  -1  -5   6 923.620 56.0200   1
  -1   5   6 882.910 62.7500   1
  -4 -22   2 1312.59 74.1200   1
   4  22  -2 1308.01 60.5100   1
   4  22  -2 1271.53 68.5600   1
   4 -22  -2 1222.79 73.6400   1
   4 -22  -2 1294.65 66.1800   1
   5  17  -3 237.270 26.4100   1
   5 -17  -3 206.290 28.6100   1
   5  17  -3 173.830 18.0400   1
  -5 -17   3 197.000 24.4900   1
   1  -6   5 285.260 29.2800   1
   1   6   5 285.000 40.1100   1
   1  -6   5 267.520 55.7400   1
   1  -6   5 304.080 35.4200   1
   1   6   5 324.340 34.6600   1
  -1   6  -5 287.960 29.3600   1
   1   6   5 317.890 31.2200   1
  -1  -6  -5 305.340 27.1900   1
  -3 -25   1 46.9400 17.0500   1
   3  25  -1 15.9300 15.9300   1
  -3 -25   1 -11.650 14.7400   1
   3  25  -1 33.0700 12.3500   1
   3 -25  -1 23.0600 21.7600   1
   3 -25  -1 30.7100 28.4800   1
  -1 -17  -4 58.2000 14.6200   1
   1  17   4 64.5500 15.5700   1
   1  17   4 75.4800 18.7600   1
   1 -17   4 87.2000 18.1200   1
   1 -17   4 160.730 49.1800   1
   1 -17   4 146.070 37.3000   1
  -1  17  -4 51.9500 19.9700   1
   1 -22  -4 245.330 28.1600   1
  -1  22   4 250.600 31.9800   1
   1 -22  -4 246.990 23.3700   1
  -1 -22   4 250.550 24.5800   1
  -1 -22   4 245.850 32.4700   1
   1  22  -4 279.570 26.0200   1
   2 -18  -5 406.720 28.0900   1
  -2  18   5 396.170 30.1800   1
   2 -18  -5 358.420 34.6300   1
   2  18  -5 408.560 27.1600   1
  -2 -18   5 381.960 25.1200   1
  -3 -25   2 117.000 18.3500   1
   3  25  -2 148.510 17.1100   1
  -3 -25   2 147.980 24.6100   1
  -3  25   2 80.7000 12.1800   1
   3 -25  -2 116.990 24.4500   1
   3 -25  -2 109.070 21.1600   1
  -5  -3  -1 1060.59 51.4500   1
  -5  -3  -1 925.900 52.1200   1
   5   3   1 847.430 42.5000   1
   5  -3   1 838.660 45.9900   1
  -5   3  -1 890.100 49.1300   1
   4 -10   2 1048.44 62.2900   1
  -4  10  -2 1118.94 65.5000   1
   4  10   2 1162.08 55.8300   1
   4  10   2 1279.85 57.4500   1
  -4 -10  -2 1203.37 59.2100   1
  -3 -22  -1 389.410 24.2200   1
   3  22   1 324.490 31.6900   1
   3  22   1 281.050 30.8000   1
   3 -22   1 404.860 36.4700   1
   3 -22   1 347.620 36.8200   1
  -3  22  -1 349.760 45.3400   1
   3 -24  -3 400.300 40.1400   1
   3 -24  -3 510.530 34.2800   1
   3  24  -3 541.880 26.9800   1
  -3 -24   3 643.880 39.2500   1
  -3 -24   3 461.520 41.9400   1
   5  16  -1 36.6100 11.5200   1
  -5 -16   1 -30.220 24.2800   1
   5  16  -1 55.8800 13.1500   1
   5  16  -1 13.9800 22.1100   1
  -5  16   1 51.7600 38.6700   1
   5 -16  -1 35.6200 24.1300   1
  -2  10   6 55.6200 15.3400   1
   2 -10  -6 40.5400 17.8700   1
   2 -10  -6 50.2400 11.3000   1
  -2 -10   6 18.3700 17.8600   1
   2  10  -6 50.1200 15.4300   1
   2  10  -6 44.4900 10.2200   1
   4  20   0 8.13000 16.6400   1
   4  20   0 28.8800 16.1000   1
  -4 -20   0 -12.600 21.1000   1
   4 -20   0 10.1800 19.3400   1
  -4  20   0 43.4500 37.3200   1
   1 -17  -5 168.670 22.1800   1
  -1  17   5 224.530 30.5400   1
   1 -17  -5 139.480 18.2300   1
   1 -17  -5 222.130 25.7200   1
  -1 -17   5 234.250 25.6500   1
  -1 -17   5 187.300 28.5700   1
   1  17  -5 228.640 24.2100   1
   6   7  -4 396.420 20.6500   1
   6   7  -4 425.660 28.8000   1
   6  -7  -4 463.700 28.6400   1
   6   7  -4 457.460 24.3100   1
  -6  -7   4 434.390 42.1900   1
  -6   7   4 486.090 47.2600   1
   2  11   4 764.940 38.3400   1
   2  11   4 844.410 45.6800   1
   2 -11   4 789.540 49.9100   1
  -2  11  -4 768.410 49.9600   1
  -2  11  -4 887.420 59.5300   1
  -2 -11  -4 717.610 35.5100   1
   4 -16  -5 16.5600 14.7900   1
  -4  16   5 6.69000 9.49000   1
   4  16  -5 24.7200 15.5200   1
   4  16  -5 44.8000 14.5600   1
   1   6  -6 464.390 26.0000   1
   1  -6  -6 491.810 31.4400   1
   1  -6  -6 472.810 28.8000   1
  -1  -6   6 546.080 37.5200   1
   1   6  -6 486.080 26.3900   1
  -1   6   6 372.630 28.6200   1
   6   9  -3 62.0800 15.9700   1
  -6   9   3 81.6300 44.3300   1
  -6  -9   3 52.1500 25.5600   1
   6   9  -3 36.7300 12.4000   1
   6  -9  -3 32.7400 14.6500   1
   6   9  -3 62.1300 17.9400   1
  -5  -4  -1 44.8300 24.4600   1
   5  -4   1 34.3000 27.2700   1
   5   4   1 31.3900 16.3700   1
  -5   4  -1 83.3500 27.5800   1
   0  14   5 2492.48 94.7800   1
   0  14   5 2809.67 108.800   1
   0 -14  -5 2526.44 102.860   1
   0 -14  -5 2914.44 100.730   1
   0  14  -5 2700.63 113.540   1
   0 -14   5 2972.46 117.640   1
   0 -14   5 3212.41 94.8800   1
   0 -14   5 2739.01 97.7500   1
   1  -7   5 118.800 26.3800   1
  -1   7  -5 129.390 19.3400   1
   1   7   5 87.1800 30.0800   1
  -1  -7  -5 110.670 17.0900   1
   1   7   5 142.990 41.2000   1
   1   7   5 133.420 26.7800   1
   1  -7   5 69.3000 28.1600   1
   3  12   3 496.940 39.0700   1
   3 -12   3 477.790 34.2800   1
   3  12   3 559.570 33.3600   1
  -3 -12  -3 486.470 25.4100   1
  -3  12  -3 479.380 34.3600   1
   6   8  -2 414.530 44.4500   1
   6   8  -2 531.210 28.4200   1
   6  -8  -2 495.520 32.7800   1
  -6  -8   2 573.730 33.0600   1
  -6   8   2 585.970 42.7600   1
   3 -18  -5 46.3600 11.9900   1
  -3 -18   5 65.1300 18.3300   1
   3  18  -5 32.5800 11.1000   1
   0 -27   2 2.28000 18.5000   1
   0 -27   2 28.0000 19.4400   1
   0  27   2 18.6600 16.1500   1
   0  27  -2 21.1800 13.7500   1
   0 -27  -2 33.5400 13.7700   1
   0 -27   2 6.55000 7.15000   1
   0 -27  -2 14.7900 10.4600   1
   5 -12  -5 55.5300 14.4600   1
   5 -12  -5 40.1200 12.3400   1
   5  12  -5 44.1700 11.1500   1
   5  12  -5 52.3100 14.9400   1
  -3  11   6 29.6600 13.1800   1
   3 -11  -6 41.9000 14.3400   1
   3 -11  -6 20.6800 7.81000   1
   3 -11  -6 25.4700 7.77000   1
   3 -11  -6 25.2100 11.0200   1
   3  11  -6 11.4000 8.63000   1
   3  11  -6 4.21000 10.9000   1
   4  -9  -6 76.3000 10.6000   1
   4   9  -6 96.2000 13.9600   1
   4  -9  -6 60.9000 13.5000   1
   4  -9  -6 99.5300 14.5800   1
  -5 -13   0 4.49000 16.0100   1
   5  13   0 -1.8600 12.5600   1
   5 -13   0 33.2500 20.3200   1
  -5  13   0 37.5300 30.3500   1
   2  23   2 137.380 22.0700   1
   2  23   2 147.210 19.0900   1
   2 -23   2 214.980 39.6500   1
  -2 -23  -2 155.840 24.5500   1
  -2 -23  -2 132.940 16.5900   1
   2 -23   2 142.000 25.4300   1
   2 -27   0 56.0300 20.6600   1
   2  27   0 28.3800 11.4200   1
  -2 -27   0 73.2300 13.8900   1
   2 -27   0 81.4200 18.0700   1
  -2 -27   0 67.5800 15.1500   1
   3 -22  -4 144.130 21.2400   1
   3  22  -4 129.280 15.7200   1
  -3 -22   4 104.040 21.1900   1
  -6   0   1 3.70000 26.7900   1
   6   0  -1 25.7300 15.9000   1
   5  -5   1 -23.780 18.8900   1
   5   5   1 -6.7000 24.3000   1
   5   5   1 -4.1600 20.0600   1
  -5   5  -1 17.7700 18.0100   1
  -5  -5  -1 1.29000 17.7300   1
  -4 -17  -1 51.1100 15.9300   1
   4  17   1 3.45000 14.1700   1
  -4  17  -1 39.7100 28.3900   1
   4 -17   1 -13.440 25.8000   1
   6  -1  -1 1560.22 66.3800   1
   6   1  -1 1499.96 64.3500   1
  -6   1   1 1573.12 70.7800   1
  -6  -1   1 1655.09 73.8900   1
   4  22  -1 102.890 23.5000   1
  -4 -22   1 132.380 20.8400   1
   4  22  -1 120.100 15.5300   1
   4 -22  -1 147.970 32.2500   1
   5 -16  -4 404.620 32.6400   1
   5  16  -4 446.760 30.2800   1
  -5 -16   4 470.870 35.0900   1
   5  16  -4 389.530 23.5100   1
   2 -27  -2 64.8800 16.3000   1
   2  27  -2 88.0900 14.5900   1
  -2  27   2 63.9500 10.8200   1
  -2 -27   2 94.4000 17.0900   1
   2 -27  -2 59.3700 15.3200   1
  -2 -27   2 63.8700 15.2600   1
  -1  -7   6 -23.070 26.9300   1
   1   7  -6 9.86000 12.2800   1
   1  -7  -6 -10.460 13.4200   1
   1  -7  -6 28.3700 13.7000   1
  -1   7   6 -12.550 19.5600   1
   1   7  -6 4.51000 11.2700   1
  -1   7   6 14.3100 12.5800   1
  -6  -2   1 180.210 25.3200   1
  -6   2   1 193.980 27.3800   1
   6  -2  -1 148.680 21.5900   1
   6   2  -1 183.220 23.0700   1
   4 -20  -4 241.090 31.0200   1
   4 -20  -4 202.010 23.1700   1
   4  20  -4 223.460 21.8200   1
  -4 -20   4 226.960 37.5600   1
   4  20  -4 207.560 24.3500   1
   2  19   3 7.81000 15.1700   1
  -2 -19  -3 7.23000 10.9900   1
   2  19   3 -2.1000 17.0200   1
   2 -19   3 -20.220 23.3100   1
  -2  19  -3 20.7500 17.9100   1
   2 -19   3 12.9500 13.5700   1
  -6  -8   4 8.03000 29.8800   1
   6  -8  -4 6.82000 11.8100   1
   6   8  -4 0.09000 15.6300   1
  -6   8   4 49.3800 35.3500   1
   0 -29   0 7.72000 11.1700   1
   0  29   0 -7.8500 9.20000   1
   0 -29   0 -9.1600 18.9400   1
   4 -11   2 273.270 33.9500   1
  -4 -11  -2 269.900 28.4400   1
  -4  11  -2 235.510 34.0500   1
   4  11   2 245.760 30.6400   1
  -1  -8  -5 406.360 25.2600   1
   1  -8   5 411.920 28.9600   1
   1   8   5 418.070 44.3800   1
   1  -8   5 406.530 45.7600   1
   1  -8   5 446.120 34.8800   1
   1   8   5 483.540 36.4800   1
   1   8   5 442.250 32.6800   1
  -1   8  -5 415.640 28.4100   1
   5   0  -6 -19.770 13.3700   1
   4 -22  -3 -39.830 19.8800   1
   4 -22  -3 12.7900 21.1000   1
  -4 -22   3 6.43000 14.7400   1
   4  22  -3 7.97000 14.3700   1
   4  22  -3 -18.110 14.7700   1
  -4 -22   3 1.87000 15.4000   1
  -6   3   1 1135.29 63.0200   1
  -6  -3   1 1133.47 52.4600   1
   6  -3  -1 1188.79 53.7100   1
   6   3  -1 1144.71 54.8600   1
   2 -23  -4 538.710 35.2700   1
   2 -23  -4 591.800 36.2500   1
   2  23  -4 513.240 27.9400   1
  -2 -23   4 574.380 32.5700   1
   2 -11  -6 333.420 33.2600   1
   2 -11  -6 347.510 34.7300   1
  -2  11   6 424.690 33.1400   1
   2  11  -6 345.770 32.7600   1
  -2 -11   6 336.190 35.5200   1
   2  11  -6 351.180 31.9600   1
   5  -1  -6 61.5300 11.0600   1
   5   1  -6 48.8300 14.7200   1
   0  21   4 2007.38 85.9700   1
   0  21   4 1759.43 83.1200   1
   0 -21  -4 1965.54 77.2400   1
   0 -21  -4 1841.65 73.3500   1
   0 -21   4 1880.99 92.1500   1
   0  21  -4 2085.74 85.5900   1
   0 -21   4 1775.64 72.5800   1
   0 -21   4 2058.34 88.1200   1
  -6  10   3 625.920 54.8800   1
   6  10  -3 590.100 31.5300   1
   6  10  -3 627.040 41.5400   1
  -6 -10   3 708.160 43.9100   1
   6  10  -3 691.990 32.3800   1
   6 -10  -3 634.010 38.8800   1
  -5 -18   2 40.5300 21.5900   1
  -5 -18   2 36.4900 19.5700   1
   5  18  -2 38.2300 14.0600   1
   5 -18  -2 66.4100 26.8000   1
   5  18  -2 33.5000 16.6000   1
   6  -9  -2 379.910 30.0000   1
   6   9  -2 320.700 43.3700   1
   6   9  -2 315.970 29.6100   1
  -6  -9   2 371.290 24.8400   1
  -6   9   2 213.800 44.7100   1
  -5  -6  -1 160.830 23.9100   1
  -5   6  -1 131.970 30.2400   1
   5  -6   1 184.470 32.3100   1
   5   6   1 188.160 28.5900   1
   5   6   1 139.110 22.1000   1
   3  19   2 14.7200 24.5300   1
  -3 -19  -2 39.6900 15.6900   1
   3  19   2 72.7000 18.5900   1
   3 -19   2 56.8400 23.1000   1
  -3  19  -2 47.0300 36.8000   1
   5   2  -6 26.9000 14.6500   1
   5  -2  -6 11.2400 10.0000   1
  -2  12  -4 478.350 35.1000   1
   2  12   4 578.700 36.2200   1
  -2  12  -4 528.980 35.9000   1
  -2 -12  -4 548.560 27.6000   1
   2 -12   4 497.620 42.7200   1
   2  12   4 426.810 44.4000   1
   5 -18  -3 435.600 31.9300   1
  -5 -18   3 513.310 33.8500   1
   5  18  -3 448.350 24.4100   1
   5  18  -3 444.320 32.9300   1
   4 -10  -6 5.77000 12.6400   1
   4 -10  -6 4.41000 8.11000   1
  -4  10   6 3.32000 11.0700   1
   4 -10  -6 5.57000 7.92000   1
   4  10  -6 -2.0200 13.1400   1
  -6   4   1 582.960 44.5900   1
  -6  -4   1 496.330 30.5900   1
   6  -4  -1 563.230 35.7100   1
   6   4  -1 491.080 28.4700   1
   1  18   4 418.040 28.7100   1
  -1 -18  -4 452.540 29.7900   1
   1  18   4 566.000 34.7400   1
   1 -18   4 579.900 57.1800   1
   1 -18   4 560.570 40.6700   1
  -1  18  -4 469.550 40.1300   1
   1 -18   4 544.930 33.7100   1
  -1 -26  -2 3173.10 62.5100   1
  -1  26  -2 3343.15 67.0400   1
  -1 -26  -2 3102.97 115.430   1
   1 -26   2 3213.02 74.3600   1
   1 -26   2 3203.66 115.830   1
   1 -26   2 3034.86 130.050   1
   1  26   2 3238.61 64.6300   1
   1  26   2 3154.14 70.9200   1
   0 -25  -3 -6.6900 12.8200   1
   0 -25  -3 -17.670 15.3000   1
   0  25   3 -1.6200 8.78000   1
   0 -25   3 -5.2300 12.9600   1
   0  25  -3 -9.6700 11.7400   1
   0 -25   3 44.6200 21.1700   1
   5  -3  -6 174.620 21.0100   1
   5   3  -6 157.240 20.4300   1
   1  -8  -6 74.3400 12.2000   1
   1   8  -6 57.9500 11.0900   1
   1  -8  -6 70.1100 14.4900   1
   1   8  -6 54.2000 13.1900   1
  -1   8   6 57.1000 18.5400   1
  -1  -8   6 102.740 23.5800   1
  -1   8   6 51.4500 16.6400   1
  -3 -13  -3 265.680 28.0500   1
   3  13   3 191.360 37.2000   1
   3  13   3 247.890 27.3600   1
   3 -13   3 174.440 33.8300   1
  -3  13  -3 234.030 31.8900   1
  -3  12   6 234.100 26.6000   1
   3 -12  -6 205.900 21.2400   1
   3 -12  -6 234.860 29.4900   1
   3 -12  -6 225.220 27.5100   1
   3  12  -6 219.580 22.1900   1
   3  12  -6 160.910 24.0100   1
   2 -19  -5 39.1500 13.8100   1
  -2  19   5 69.3700 21.4700   1
   2 -19  -5 35.2000 10.8600   1
  -2 -19   5 48.9700 16.4300   1
   2  19  -5 76.6500 15.9400   1
   1  23   3 881.220 45.1700   1
  -1 -23  -3 841.540 46.0500   1
  -1 -23  -3 853.540 38.3200   1
   1  23   3 907.130 43.8100   1
   1 -23   3 937.170 69.9300   1
   1 -23   3 879.870 44.3800   1
   1 -23   3 930.940 52.6100   1
   2 -26   1 533.680 35.1000   1
  -2 -26  -1 502.720 32.2800   1
  -2 -26  -1 530.580 27.6200   1
   2  26   1 498.420 30.6200   1
   2 -26   1 422.440 37.3800   1
   0 -15  -5 2.52000 9.30000   1
   0  15   5 -19.310 25.4700   1
   0  15   5 2.21000 15.0800   1
   0 -15  -5 22.2700 11.5300   1
   0 -15   5 9.38000 22.2600   1
   0  15  -5 0.09000 18.4000   1
   0  15  -5 29.5500 13.1500   1
   0 -15   5 18.3000 33.3300   1
   0 -15   5 29.7400 15.1800   1
   5 -13  -5 443.550 29.2300   1
   5  13  -5 506.890 24.2400   1
   5  13  -5 459.300 30.7200   1
   5  17  -1 -11.100 16.2400   1
   5  17  -1 6.62000 11.8500   1
   5  17  -1 -12.260 13.8100   1
  -5 -17   1 -12.390 16.8100   1
   5 -17  -1 18.4700 26.0200   1
  -5  17   1 -3.8200 29.9200   1
   1 -26  -3 374.400 24.7500   1
  -1  26   3 319.340 34.7500   1
   1 -26  -3 392.420 28.5500   1
  -1 -26   3 395.320 27.8300   1
   1  26  -3 385.190 23.0800   1
   6  -9  -4 10.4100 15.2600   1
  -6  -9   4 -15.300 22.2600   1
   6   9  -4 20.9000 12.4800   1
   6   9  -4 12.2100 15.5300   1
   6   0  -5 -5.6900 10.4300   1
   6   0  -5 19.7700 10.4700   1
   4 -17  -5 11.8100 11.4100   1
   4  17  -5 8.46000 15.3800   1
   4  17  -5 14.3900 14.3100   1
   6   1  -5 257.980 25.4300   1
   6  -1  -5 235.570 22.9100   1
   6  -1  -5 249.940 24.8100   1
   6   1  -5 247.690 25.7500   1
  -5  -7  -1 11.6400 17.9000   1
  -5   7  -1 40.7900 25.6600   1
   5  -7   1 9.63000 19.4400   1
   5   7   1 51.0500 16.2600   1
   1 -28   1 692.740 69.3300   1
   1 -28   1 777.190 42.2200   1
  -1 -28  -1 773.350 40.7900   1
  -1  28  -1 742.060 42.3700   1
   1  28   1 668.340 37.0900   1
   1 -28   1 603.390 34.5000   1
   1 -28   1 652.820 45.2200   1
  -1 -28  -1 701.960 36.0200   1
   5  -4  -6 418.900 22.6200   1
   5   4  -6 400.340 21.2800   1
  -5 -14   0 1458.28 68.8900   1
   5  14   0 1425.64 62.6600   1
   5  14   0 1434.01 56.3100   1
   5 -14   0 1451.51 65.0800   1
  -5  14   0 1499.72 69.2700   1
   4  23  -2 410.530 21.6900   1
  -4 -23   2 446.680 33.5600   1
   4  23  -2 371.510 23.3500   1
   4 -23  -2 472.450 30.1000   1
  -4 -23   2 418.360 29.4100   1
   4 -23  -2 390.600 34.8300   1
   1 -18  -5 216.090 24.3700   1
   1 -18  -5 141.630 19.0300   1
  -1  18   5 171.520 22.7700   1
   1  18  -5 164.330 22.3500   1
  -1 -18   5 149.740 25.7400   1
  -1 -18   5 139.290 17.9800   1
  -6   5   1 415.480 32.7700   1
  -6  -5   1 443.610 29.0800   1
   6   5  -1 510.290 28.2200   1
   6   5  -1 439.360 33.2600   1
   6  -5  -1 486.470 29.3500   1
   1  -9   5 84.7900 25.8100   1
   1  -9   5 173.370 40.2100   1
   1   9   5 191.830 39.3300   1
   1  -9   5 164.550 20.5000   1
  -1  -9  -5 143.750 17.3700   1
  -1   9  -5 162.190 21.7000   1
   1   9   5 147.160 26.2800   1
   6   2  -5 291.260 27.7500   1
   6  -2  -5 323.530 31.0200   1
   6   2  -5 318.610 31.9400   1
   6  -2  -5 327.970 30.0600   1
  -1  23   4 12.0200 15.9400   1
   1 -23  -4 48.1900 12.0900   1
   1 -23  -4 50.4200 18.2100   1
  -1 -23   4 -12.000 28.7300   1
   1  23  -4 25.0300 14.7600   1
  -1 -23   4 55.5500 16.1100   1
  -1 -28   2 308.190 35.4000   1
   1 -28  -2 404.900 28.4900   1
   1  28  -2 407.130 23.4600   1
   1 -28  -2 455.870 27.1200   1
  -1 -28   2 430.920 25.4200   1
   2 -26  -3 289.710 29.2700   1
   2 -26  -3 332.920 33.3700   1
   2  26  -3 296.930 28.4900   1
  -2 -26   3 291.220 28.8500   1
  -3 -25   0 545.720 32.9500   1
   3  25   0 459.560 25.4100   1
  -3 -25   0 441.520 30.6700   1
   3  25   0 486.670 30.0200   1
   3 -25   0 537.940 34.6200   1
   3 -25   0 514.650 48.5700   1
   4 -12   2 1342.28 66.9700   1
  -4 -12  -2 1435.38 58.6000   1
   4  12   2 1336.25 77.7300   1
   4  12   2 1399.82 65.4200   1
  -4  12  -2 1512.05 80.1000   1
   6  10  -2 -0.0200 11.9800   1
   6 -10  -2 41.9000 20.0000   1
  -6 -10   2 21.0200 16.4500   1
  -6  10   2 9.34000 29.5900   1
   4  21   0 293.200 31.4600   1
  -4 -21   0 329.520 33.3500   1
   4  21   0 240.960 23.8900   1
  -4  21   0 339.530 52.8700   1
   4 -21   0 335.500 38.1500   1
   0 -29  -1 112.740 17.8300   1
   0  29  -1 114.800 24.2100   1
   0 -29  -1 86.4600 16.6500   1
   0 -29   1 78.4700 10.8500   1
   0 -29   1 101.640 20.9800   1
   0  29   1 100.260 13.7600   1
  -3 -23  -1 941.510 45.1200   1
  -3 -23  -1 1016.64 43.3500   1
   3  23   1 1109.90 52.2200   1
   3  23   1 1104.30 50.6800   1
   3 -23   1 1026.07 52.3800   1
   3 -23   1 1091.84 63.9600   1
  -2 -28   1 71.3600 11.6700   1
   2  28  -1 80.4300 15.8600   1
  -2 -28   1 75.0800 15.4000   1
   2 -28  -1 73.0800 19.9900   1
   2 -28  -1 115.420 24.3000   1
   2 -28  -1 62.6000 16.0400   1
  -2  28   1 83.4800 15.0400   1
   6  11  -3 410.400 25.6300   1
   6 -11  -3 354.540 34.7700   1
   6  11  -3 377.520 24.5400   1
   6  11  -3 403.990 32.8800   1
  -6  11   3 341.260 46.5800   1
  -6 -11   3 479.880 36.8600   1
   3 -19  -5 64.3300 15.3700   1
   3 -19  -5 107.200 16.1500   1
   3  19  -5 129.100 16.3300   1
  -3 -19   5 94.9400 18.7600   1
  -3 -26   1 1121.08 63.1100   1
   3  26  -1 1271.10 54.2900   1
  -3 -26   1 1150.23 57.2900   1
   3  26  -1 1253.43 59.1600   1
   3 -26  -1 1217.41 79.6300   1
   3 -26  -1 1391.59 61.6000   1
   6  -3  -5 51.4700 11.4200   1
   6  -3  -5 51.1500 11.6200   1
   6   3  -5 67.6200 13.9400   1
   6   3  -5 51.7900 12.0400   1
  -1 -29   0 441.850 24.3300   1
   1 -29   0 351.680 33.8100   1
   1  29   0 471.280 27.9300   1
   1 -29   0 328.530 47.6300   1
   1 -29   0 416.060 41.6600   1
   1 -29   0 498.180 28.7700   1
  -1  29   0 502.780 32.0400   1
  -1 -29   0 466.040 26.8200   1
   2 -12  -6 217.200 24.1500   1
  -2  12   6 232.740 26.9200   1
   2 -12  -6 205.670 29.4300   1
   2 -12  -6 284.060 28.8300   1
  -2 -12   6 306.240 38.1400   1
  -2 -12   6 213.600 26.1700   1
   2  12  -6 232.560 23.8700   1
   2  12  -6 241.810 25.9600   1
   1  29  -1 28.3500 9.40000   1
  -1  29   1 28.2000 9.55000   1
  -1 -29   1 44.8400 14.5600   1
   1 -29  -1 -7.9400 13.9100   1
   1 -29  -1 28.2000 13.3300   1
  -1 -29   1 21.6200 8.82000   1
   5  -5  -6 456.970 27.9600   1
   5   5  -6 446.660 23.4400   1
   5  -5  -6 424.420 24.7600   1
  -3 -26   2 408.050 30.7700   1
   3  26  -2 358.670 21.2700   1
  -3 -26   2 363.890 24.2000   1
   3 -26  -2 285.600 41.3200   1
   3 -26  -2 376.030 28.3300   1
   5 -17  -4 174.290 23.5900   1
  -5 -17   4 219.620 36.2500   1
   5  17  -4 185.120 27.0500   1
   5  17  -4 167.510 18.3300   1
   1  -9  -6 73.6100 13.2200   1
   1   9  -6 60.4800 13.2100   1
  -1  -9   6 42.4900 10.1600   1
  -1   9   6 53.2200 20.1900   1
  -1  -9   6 42.9700 25.1800   1
  -1   9   6 77.0700 17.3500   1
   1   9  -6 72.6900 12.0800   1
   1  -9  -6 79.7700 12.6200   1
  -4 -18  -1 3398.10 76.5700   1
   4  18   1 3290.24 68.7200   1
   4  18   1 2897.09 106.150   1
   4 -18   1 3001.45 118.810   1
  -4  18  -1 3127.55 128.650   1
   6   6  -1 2077.55 79.4700   1
   6  -6  -1 1893.80 81.5500   1
  -6  -6   1 2001.48 83.4100   1
  -6   6   1 1897.80 82.1900   1
  -4  11   6 31.3800 13.5200   1
   4 -11  -6 45.1300 10.5500   1
   4 -11  -6 32.4300 12.1700   1
   4 -11  -6 32.9800 10.2600   1
   4  11  -6 26.2900 11.7600   1
   4  11  -6 35.8800 14.5200   1
   3 -25  -3 1949.92 86.8500   1
  -3 -25   3 1809.69 76.4900   1
   3  25  -3 1707.79 62.9000   1
  -3 -25   3 1238.07 73.2700   1
   2 -13   4 115.620 31.7700   1
   2  13   4 163.710 27.5700   1
   2  13   4 91.9400 35.1900   1
  -2  13  -4 120.770 19.6600   1
  -2 -13  -4 99.7400 19.1600   1
   6  -4  -5 37.6700 13.4700   1
   6  -4  -5 24.1100 13.7000   1
   6   4  -5 24.9400 13.1500   1
   5   8   1 1671.85 70.2100   1
   5  -8   1 1851.56 79.8900   1
   5   8   1 1946.69 77.7000   1
  -5   8  -1 1844.00 76.8600   1
  -5  -8  -1 1772.76 69.8300   1
   6  10  -4 5.26000 10.4500   1
  -6 -10   4 37.3400 23.8100   1
   6  10  -4 12.7200 13.2400   1
   2  20   3 224.060 24.1200   1
  -2 -20  -3 204.470 21.3500   1
   2  20   3 192.180 25.2000   1
  -2  20  -3 188.690 32.1400   1
   2 -20   3 207.290 44.0100   1
   2 -20   3 205.770 32.6600   1
  -1 -10  -5 1791.60 71.2000   1
  -1  10  -5 1924.96 81.0800   1
   1 -10   5 1586.95 63.8200   1
   1  10   5 1797.18 76.0600   1
   1  10   5 1836.06 74.1000   1
   1  10   5 1728.27 96.7600   1
   1 -10   5 1898.00 98.2700   1
   1 -10   5 1670.82 77.0300   1
   3 -13  -6 227.890 24.4300   1
   3 -13  -6 203.580 23.9300   1
   3 -13  -6 192.080 21.3600   1
  -3  13   6 242.470 28.0200   1
   3  13  -6 235.860 23.3400   1
   3  13  -6 125.310 19.1300   1
   5   6  -6 368.690 18.6500   1
   5  -6  -6 307.250 28.3500   1
   5  -6  -6 350.450 33.3400   1
   3 -23  -4 61.2100 14.0300   1
   3  23  -4 35.6800 12.7500   1
  -3 -23   4 48.6900 14.0900   1
  -2 -24  -2 44.7500 11.6500   1
   2  24   2 11.6600 13.8200   1
   2 -24   2 18.6600 24.4300   1
   2 -24   2 -16.930 14.7000   1
   2  24   2 -8.3200 17.0400   1
  -2 -24  -2 -5.4100 13.9700   1
   4 -21  -4 145.170 19.5500   1
   4 -21  -4 113.330 24.3200   1
  -4 -21   4 124.450 27.5000   1
   4  21  -4 155.590 24.9400   1
  -4 -21   4 137.620 25.6300   1
   4  21  -4 148.090 16.8900   1
   3  14   3 273.440 29.1000   1
   3  14   3 281.650 38.7300   1
  -3 -14  -3 262.470 26.0400   1
   3 -14   3 301.680 36.5400   1
  -3  14  -3 210.240 26.9000   1
  -4 -23   1 405.090 32.5500   1
   4  23  -1 372.860 19.1000   1
   4  23  -1 293.540 31.3200   1
   4 -23  -1 374.790 25.9100   1
   4 -23  -1 327.970 37.1000   1
  -5 -19   2 34.1500 26.4200   1
   5 -19  -2 31.6200 17.7700   1
   5  19  -2 29.7200 20.6600   1
   5  19  -2 27.3800 10.8500   1
  -5 -19   2 44.4200 15.3800   1
  -6  -5   5 200.560 46.7600   1
   6  -5  -5 200.400 22.5900   1
   6   5  -5 184.700 19.3000   1
   6  -5  -5 200.710 22.6300   1
   5 -14  -5 192.320 30.3800   1
   5  14  -5 201.170 25.3200   1
   5  14  -5 218.870 24.2700   1
  -6  -7   1 742.620 40.5700   1
   6  -7  -1 688.270 39.8200   1
   6   7  -1 350.390 76.3400   1
  -6   7   1 642.270 40.1000   1
   6   7  -1 649.910 37.9700   1
   0 -28   2 88.5400 13.9000   1
   0 -28   2 119.610 22.8200   1
   0 -28  -2 151.730 23.0100   1
   0  28  -2 122.730 16.0800   1
   0 -28   2 148.860 25.5900   1
   0 -28  -2 157.640 17.9900   1
   3  20   2 250.180 27.1600   1
   3  20   2 222.720 32.5500   1
  -3 -20  -2 251.840 27.5000   1
  -3  20  -2 211.600 38.8700   1
   3 -20   2 202.920 23.9100   1
   3 -20   2 261.650 38.1900   1
   6 -11  -2 46.4800 16.5900   1
  -6  11   2 -21.220 42.3400   1
   6  11  -2 28.3600 12.8000   1
  -6 -11   2 28.6800 16.7200   1
   5 -19  -3 354.450 41.7900   1
  -5 -19   3 364.780 28.0400   1
   5  19  -3 331.930 31.5000   1
   5  19  -3 281.240 32.2000   1
   0  16   5 2702.51 104.360   1
   0  16   5 2330.41 98.3500   1
   0 -16  -5 2031.55 79.0000   1
   0 -16  -5 2476.48 88.9300   1
   0 -16   5 2636.91 125.970   1
   0 -16   5 2450.04 108.340   1
   0 -16   5 2344.64 92.0100   1
   0  16  -5 2579.13 93.2300   1
   0 -22  -4 418.580 26.3600   1
   0 -22  -4 325.590 34.6900   1
   0  22   4 403.510 32.4500   1
   0  22   4 340.170 40.1200   1
   0  22  -4 396.180 28.1000   1
   0 -22   4 374.130 25.0600   1
   0 -22   4 325.640 41.7100   1
   0 -22   4 382.290 50.6500   1
   5  15   0 18.7100 12.4300   1
  -5 -15   0 11.0700 23.4900   1
   5 -15   0 -2.2000 20.0900   1
  -5  15   0 -5.3200 23.2800   1
  -1 -19  -4 44.3000 15.1300   1
   1  19   4 27.8200 15.2300   1
   1  19   4 31.0900 23.6000   1
  -1  19  -4 20.8400 22.5200   1
   1 -19   4 10.3700 13.2300   1
   1 -19   4 -2.7700 35.1900   1
   1 -19   4 33.8400 29.8100   1
   4 -23  -3 -1.2500 13.9400   1
   4 -23  -3 -24.890 18.8300   1
   4  23  -3 23.3700 18.3600   1
  -4 -23   3 18.7900 19.7000   1
   4  23  -3 29.1100 14.5500   1
  -4 -23   3 21.5500 15.2700   1
   4  13   2 919.620 62.3900   1
   4  13   2 1109.40 51.9000   1
   4 -13   2 1176.81 61.1400   1
  -4 -13  -2 1039.35 58.6700   1
  -4  13  -2 1057.65 55.0200   1
   6 -12  -3 56.3500 21.6300   1
   6  12  -3 69.6200 17.2400   1
   6  12  -3 105.660 31.2900   1
  -6  12   3 49.1300 45.1200   1
  -6 -12   3 93.8700 24.8000   1
   6  12  -3 79.4600 12.8700   1
  -2 -28   0 285.360 28.7700   1
   2  28   0 287.760 27.3200   1
  -2 -28   0 325.040 30.4100   1
   2 -28   0 384.690 31.6100   1
   2 -28   0 277.590 33.7200   1
  -1  10   6 -12.460 12.5200   1
  -1  10   6 4.12000 15.1900   1
   1 -10  -6 1.06000 11.5200   1
   1 -10  -6 -16.230 11.0200   1
  -1 -10   6 9.08000 8.56000   1
  -1 -10   6 -34.970 24.7900   1
   1  10  -6 -1.0200 10.3000   1
   1  10  -6 -14.080 16.7200   1
  -5 -18   1 16.8000 21.9900   1
   5  18  -1 79.7000 15.2500   1
   5  18  -1 22.7000 17.1800   1
   5  18  -1 20.5500 16.9700   1
  -5  18   1 58.7500 60.3900   1
   5 -18  -1 26.7200 23.8300   1
   2 -24  -4 730.060 39.6700   1
   2 -24  -4 748.330 44.9500   1
   2  24  -4 745.590 36.8200   1
  -2 -24   4 781.610 40.9500   1
   5  -9   1 153.850 30.1100   1
  -5   9  -1 205.750 34.8500   1
  -5  -9  -1 188.400 24.6200   1
   5   9   1 181.720 23.5400   1
   2 -13  -6 83.6200 15.3800   1
   2 -13  -6 84.4700 13.2600   1
  -2  13   6 101.650 20.7000   1
   2 -13  -6 96.6500 17.1800   1
   2  13  -6 88.5400 13.0500   1
   2  13  -6 105.830 16.1700   1
  -2 -13   6 79.7700 11.8100   1
  -2 -13   6 87.4400 24.9600   1
   5  -7  -6 476.510 24.9500   1
   5   7  -6 502.870 26.2800   1
   5  -7  -6 499.250 28.9700   1
   2  28  -2 356.220 33.2200   1
  -2 -28   2 257.240 29.7600   1
  -2 -28   2 338.990 32.4200   1
  -2  28   2 293.080 30.5300   1
   2 -28  -2 319.460 33.2900   1
   2 -28  -2 343.760 33.7400   1
   2 -28  -2 170.990 43.9200   1
   4 -18  -5 194.040 22.2800   1
   4  18  -5 170.920 21.0100   1
  -6  -6   5 515.120 46.1500   1
   6  -6  -5 440.350 24.3500   1
   6   6  -5 440.710 22.8000   1
   6  -6  -5 399.910 24.8500   1
   2 -20  -5 121.820 22.0500   1
   2 -20  -5 145.990 19.9100   1
  -2  20   5 222.550 29.8400   1
   2  20  -5 156.100 18.7800   1
  -2 -20   5 162.440 19.6100   1
   4 -12  -6 34.1400 15.4800   1
   4 -12  -6 29.0300 10.7700   1
  -4  12   6 19.1200 12.0800   1
   4  12  -6 12.6700 10.4600   1
   4  12  -6 29.7400 11.7600   1
  -1  19   5 20.0500 15.2200   1
   1 -19  -5 42.9600 11.9500   1
   1 -19  -5 54.5800 13.3100   1
  -1 -19   5 64.8500 29.5100   1
  -1 -19   5 45.2700 12.2400   1
   1  19  -5 47.9500 16.8500   1
   6  11  -4 480.800 27.3300   1
  -6 -11   4 573.820 45.8500   1
   6 -11  -4 480.570 31.3700   1
   6  11  -4 476.730 32.5400   1
  -6   8   1 1149.99 60.8200   1
  -6  -8   1 1027.36 49.9900   1
   6  -8  -1 1053.91 51.3400   1
   6   8  -1 1028.07 43.8500   1
   6   8  -1 1201.15 64.7400   1
   0 -30   0 1937.28 77.9300   1
   0  30   0 1824.96 68.7900   1
   0 -30   0 1934.60 80.8800   1
  -1  11  -5 392.030 32.9400   1
  -1 -11  -5 368.490 18.4500   1
   1 -11   5 404.260 31.1000   1
   1  11   5 357.090 45.8900   1
   1 -11   5 417.650 46.3900   1
   1 -11   5 362.890 32.0700   1
   1  11   5 462.230 33.4600   1
   1  11   5 385.000 57.7000   1
   2 -14   4 163.670 23.9800   1
   2 -14   4 193.600 30.1600   1
  -2 -14  -4 212.500 21.9300   1
   2  14   4 150.970 22.2200   1
  -2  14  -4 118.570 19.6600   1
   2  14   4 225.940 30.1800   1
  -1 -24  -3 114.830 17.9400   1
   1  24   3 99.9500 17.5000   1
  -1 -24  -3 116.700 18.9800   1
   1  24   3 100.190 26.6700   1
   1 -24   3 103.230 18.1200   1
   1 -24   3 62.9100 31.0900   1
   1 -24   3 157.290 51.7100   1
   0 -26  -3 198.020 23.0200   1
   0 -26  -3 215.730 22.0000   1
   0  26   3 210.060 23.9700   1
   0  26  -3 226.190 23.4300   1
   0 -26   3 218.300 30.7200   1
   0 -26   3 261.800 26.9100   1
   1  27   2 52.3400 10.0800   1
   1 -27   2 45.5200 15.8700   1
  -1 -27  -2 79.6000 11.9000   1
  -1  27  -2 66.3800 17.7700   1
  -1 -27  -2 62.1400 19.7100   1
   1 -27   2 92.9300 33.3000   1
   1 -27   2 82.4700 32.1900   1
   1  27   2 99.6500 24.9700   1
   5 -18  -4 71.9300 19.5800   1
   5  18  -4 59.6200 11.3500   1
  -5 -18   4 76.9000 25.9200   1
   5  18  -4 66.6300 16.0100   1
   3 -20  -5 214.720 26.1600   1
   3 -20  -5 198.300 24.6500   1
  -3 -20   5 232.700 27.5700   1
   3  20  -5 204.060 22.0000   1
  -3  14   6 252.230 31.2500   1
   3 -14  -6 176.590 25.7600   1
   3 -14  -6 184.280 21.7900   1
   3 -14  -6 217.980 23.8300   1
   3  14  -6 201.620 25.9900   1
   3  14  -6 205.070 21.9500   1
   6  -7  -5 1106.18 46.3000   1
   6   7  -5 1126.23 44.0300   1
   6  -7  -5 1222.77 51.4000   1
  -6  -7   5 1477.04 81.5000   1
  -4 -24   2 862.740 50.2700   1
   4  24  -2 789.710 34.8600   1
   4  24  -2 780.430 40.6200   1
   4 -24  -2 756.470 51.5600   1
   4 -24  -2 850.160 48.6600   1
  -4 -24   2 737.980 39.9900   1
   5  -8  -6 90.2500 12.9300   1
   5   8  -6 131.530 16.1400   1
   5  -8  -6 98.2800 13.2000   1
   4  19   1 342.250 49.0900   1
  -4 -19  -1 323.620 32.9000   1
   4  19   1 334.020 34.8700   1
   4 -19   1 358.200 43.7500   1
  -4  19  -1 322.540 40.0800   1
   4  22   0 1962.88 77.6500   1
  -4 -22   0 2196.30 86.8700   1
   4  22   0 1879.67 71.0300   1
   4 -22   0 1897.01 87.4900   1
  -4  22   0 1915.95 96.6700   1
   2 -27   1 57.7800 22.5800   1
   2  27   1 87.1000 23.3000   1
   2 -27   1 114.840 20.0700   1
  -2 -27  -1 98.8400 22.9600   1
  -2 -27  -1 53.8000 11.4500   1
  -6  12   2 292.080 43.4800   1
  -6 -12   2 299.140 34.4100   1
   6  12  -2 282.030 26.8200   1
   6 -12  -2 332.640 34.1000   1
   6  12  -2 337.410 30.9300   1
   6  12  -2 303.060 33.9100   1
   1 -24  -4 51.3000 16.3300   1
   1 -24  -4 57.2100 18.3000   1
  -1 -24   4 32.6300 25.0500   1
   1  24  -4 29.5000 16.7400   1
  -1 -24   4 69.7400 16.7000   1
   0   0   6 75.1500 30.1200   1
   0   0  -6 84.8700 14.7400   1
   0   0  -6 103.360 17.2400   1
  -1  27   3 8.03000 8.28000   1
   1 -27  -3 9.59000 15.6300   1
   1 -27  -3 18.6400 16.3900   1
  -1 -27   3 26.7100 13.5300   1
   1  27  -3 9.07000 15.3400   1
  -3  15  -3 378.760 30.3200   1
  -3 -15  -3 366.520 22.9800   1
   3 -15   3 334.380 34.4100   1
   3  15   3 392.050 30.2700   1
   3  15   3 351.380 54.5700   1
   0   1  -6 45.1600 11.8000   1
   0  -1  -6 46.9800 13.5800   1
   0   1  -6 44.1500 15.7200   1
   0  -1  -6 50.8500 11.8100   1
   0  -1   6 42.2600 21.1200   1
   0   1   6 47.0500 21.0400   1
  -5 -10  -1 2004.95 87.6100   1
  -5  10  -1 1983.66 87.4500   1
   5 -10   1 1983.51 75.8400   1
   5  10   1 1907.01 75.4000   1
   5  10   1 1953.03 69.7600   1
  -1  11   6 37.2600 13.3800   1
   1 -11  -6 14.6400 14.3500   1
  -1  11   6 46.8400 16.5700   1
   1 -11  -6 49.9000 12.2400   1
   1  11  -6 35.3600 10.3600   1
  -1 -11   6 24.4600 9.59000   1
  -1 -11   6 41.6400 20.9700   1
   1  11  -6 50.8700 16.2100   1
   5 -15  -5 1626.34 70.0600   1
   5  15  -5 1589.44 71.7000   1
   5  15  -5 1555.04 55.1600   1
  -3 -24  -1 420.170 22.8300   1
  -3 -24  -1 364.130 57.6000   1
   3  24   1 382.840 22.5800   1
   3  24   1 384.190 26.6400   1
   3 -24   1 392.860 25.6000   1
   3 -24   1 373.920 31.9300   1
   0   2  -6 578.730 28.1600   1
   0  -2  -6 580.660 30.6600   1
   0   2  -6 515.730 33.3300   1
   0  -2  -6 571.320 29.6100   1
   0  -2   6 590.940 46.7800   1
   0   2   6 606.010 44.1100   1
   6  13  -3 662.100 40.7200   1
   6  13  -3 597.910 30.5800   1
  -6  13   3 499.960 62.7300   1
  -6 -13   3 550.210 32.4500   1
   6  13  -3 576.190 29.3600   1
   6 -13  -3 587.750 33.5800   1
   3  26   0 25.5300 23.6800   1
   3  26   0 17.9900 10.0000   1
  -3 -26   0 -20.460 16.6700   1
  -3 -26   0 17.5100 15.0500   1
   3 -26   0 -16.360 31.0400   1
   3 -26   0 0.86000 21.3000   1
  -6   9   1 -2.4500 23.7600   1
  -6  -9   1 16.4800 17.1600   1
   6   9  -1 29.1400 29.6000   1
   6   9  -1 5.13000 13.3100   1
   6  -9  -1 33.4700 17.5400   1
   2 -27  -3 18.2900 12.8500   1
   2 -27  -3 17.7700 13.4000   1
   2  27  -3 10.3100 12.0900   1
  -2 -27   3 6.08000 13.1400   1
  -4 -14  -2 340.670 28.9900   1
   4  14   2 273.900 51.8600   1
   4  14   2 379.900 26.7800   1
  -4  14  -2 364.670 30.0100   1
   4 -14   2 384.250 38.8100   1
  -1  29  -1 320.710 25.7300   1
  -1 -29  -1 315.960 31.7300   1
   1 -29   1 266.990 37.3600   1
   1 -29   1 339.690 36.9200   1
   1 -29   1 321.610 28.7000   1
  -1 -29  -1 313.430 23.9600   1
   1 -29   1 255.950 21.6600   1
   1  29   1 320.160 26.9600   1
   0   3   6 39.6600 19.8700   1
   0  -3  -6 53.2800 14.5400   1
   0   3  -6 44.6200 13.1500   1
   0  -3  -6 55.5600 14.0500   1
   0  -3   6 72.2500 22.1400   1
   0   3  -6 52.2500 12.7900   1
   1 -29  -2 143.750 17.9000   1
   1 -29  -2 132.250 14.9300   1
   1  29  -2 156.740 16.8600   1
  -1 -29   2 202.410 24.5900   1
  -1 -29   2 106.670 16.4000   1
   4 -13  -6 639.680 32.1900   1
  -4  13   6 654.140 42.0000   1
   4 -13  -6 737.020 43.6000   1
   4  13  -6 681.270 27.8400   1
   4  13  -6 653.880 38.6000   1
   2 -14  -6 314.200 25.0100   1
  -2  14   6 460.070 33.3100   1
   2 -14  -6 362.780 56.3500   1
   2 -14  -6 385.690 28.3500   1
   2  14  -6 322.350 26.5400   1
   2  14  -6 413.530 25.4800   1
  -2 -14   6 371.740 27.8300   1
  -2 -14   6 409.680 28.8200   1
   5  16   0 973.840 42.1000   1
   5  16   0 1131.94 51.2300   1
  -5 -16   0 945.850 44.4200   1
   5 -16   0 964.580 47.6000   1
  -5  16   0 975.470 57.8600   1
  -3 -27   1 341.520 29.1100   1
   3  27  -1 344.750 24.4700   1
  -3 -27   1 321.150 28.6500   1
   3  27  -1 331.880 32.7100   1
   3 -27  -1 290.310 29.7700   1
   3 -27  -1 380.370 35.2200   1
  -2 -21  -3 50.2200 12.1000   1
   2  21   3 76.5200 18.7100   1
   2  21   3 37.9500 15.4700   1
   2 -21   3 22.6000 14.3300   1
  -2  21  -3 34.1400 26.3300   1
   2 -21   3 21.6300 35.3300   1
   0 -17  -5 47.5300 11.1300   1
   0  17   5 66.1700 22.3200   1
   0  17   5 51.8600 17.3000   1
   0 -17  -5 51.2500 12.4600   1
   0  17  -5 72.2000 15.4200   1
   0 -17   5 5.85000 33.1700   1
   0  17  -5 55.9900 17.0300   1
   0 -17   5 54.4500 33.3600   1
   0 -17   5 43.9400 11.9900   1
   6 -12  -4 27.3100 13.5700   1
   6  12  -4 53.9500 17.3800   1
  -6 -12   4 89.9500 23.6800   1
   6  12  -4 45.3300 11.5100   1
   5 -20  -2 5.59000 22.2600   1
  -5 -20   2 -13.280 17.5900   1
   5  20  -2 29.5400 20.5600   1
  -5 -20   2 43.9100 19.5600   1
   5  20  -2 38.4800 13.5300   1
  -6  -8   5 244.330 37.3200   1
   6  -8  -5 225.780 19.0700   1
   6   8  -5 221.770 20.5200   1
   6  -8  -5 245.900 22.8700   1
   3 -27  -2 1.40000 18.8000   1
   3  27  -2 -14.750 11.8400   1
  -3 -27   2 -13.360 18.7500   1
  -3 -27   2 0.88000 14.1500   1
   3 -27  -2 4.13000 18.4800   1
   3 -26  -3 235.260 29.8900   1
   3 -26  -3 396.840 28.3600   1
   3  26  -3 361.630 54.1200   1
  -3 -26   3 363.720 55.0300   1
  -2 -29   1 732.020 35.4200   1
   2  29  -1 796.130 34.5700   1
  -2 -29   1 786.850 38.1700   1
   2 -29  -1 665.020 53.8900   1
   2 -29  -1 700.590 35.7400   1
  -2  29   1 672.110 36.3400   1
   2 -29  -1 658.560 33.7300   1
   1  12   5 958.400 56.2000   1
   1  12   5 940.690 51.3500   1
   1  12   5 872.300 55.6400   1
  -1 -12  -5 781.160 34.1700   1
   1 -12   5 946.300 50.7300   1
   1 -12   5 875.730 58.1000   1
   1 -12   5 753.630 37.9800   1
  -1  12  -5 893.320 51.4600   1
   4 -22  -4 -41.130 23.0400   1
   4  22  -4 11.9300 10.3100   1
   4  22  -4 9.97000 13.8300   1
  -4 -22   4 -2.1300 14.9600   1
   5  -9  -6 1072.67 46.4200   1
   5   9  -6 1114.46 44.7900   1
   5  -9  -6 1041.30 40.3600   1
   0 -30   1 735.240 37.5500   1
   0 -30   1 668.630 32.5000   1
   0  30   1 610.780 31.1100   1
   0 -30  -1 811.730 40.5200   1
   0  30  -1 904.610 44.2300   1
   0 -30  -1 778.270 44.4200   1
   0   4  -6 80.8500 15.1300   1
   0   4  -6 77.1200 12.5900   1
   0  -4  -6 103.580 27.4200   1
   0  -4   6 99.3400 32.0500   1
   0  -4  -6 69.3700 12.1600   1
   0   4   6 39.7900 20.2900   1
   1  30   0 586.390 27.2200   1
   1 -30   0 503.570 29.8900   1
  -1  30   0 646.690 34.9800   1
  -1 -30   0 575.880 31.4400   1
   1 -30   0 617.010 31.9400   1
   1 -30   0 494.140 47.9500   1
   1 -30   0 577.820 40.2200   1
  -1 -30   0 654.060 34.6400   1
   5 -20  -3 535.050 41.1100   1
  -5 -20   3 457.320 29.6800   1
   5  20  -3 420.100 26.6700   1
   5  20  -3 485.920 26.2500   1
   3  21   2 809.970 42.5300   1
  -3 -21  -2 657.840 31.6100   1
   3  21   2 709.260 32.8300   1
  -3  21  -2 762.080 51.8000   1
   3 -21   2 732.620 51.5800   1
   3 -21   2 712.750 35.5900   1
  -1 -30   1 47.9200 11.2100   1
   1 -30  -1 46.2000 14.5300   1
   1  30  -1 38.0200 9.54000   1
  -1  30   1 52.8400 10.6800   1
  -1 -30   1 17.5600 19.4400   1
   1 -30  -1 22.5800 14.0600   1
   3 -24  -4 32.0700 18.5100   1
   3  24  -4 -13.070 12.5200   1
  -3 -24   4 -6.2300 16.9400   1
   1  20   4 186.840 27.0800   1
  -1 -20  -4 200.220 21.7300   1
   1  20   4 222.000 23.4300   1
  -1  20  -4 205.910 28.8800   1
   1 -20   4 208.590 22.8000   1
   1 -20   4 216.150 30.4700   1
   1 -20   4 322.260 51.4100   1
   5  19  -1 -4.5600 11.2700   1
   5  19  -1 -18.070 24.2000   1
   5  19  -1 4.11000 14.6500   1
   5 -19  -1 -21.570 19.2100   1
  -5  19   1 13.6600 45.2400   1
  -5 -19   1 1.08000 16.9700   1
   4  24  -1 -6.2700 12.2400   1
  -4 -24   1 -5.7800 19.6000   1
   4  24  -1 5.55000 20.4300   1
   4 -24  -1 9.60000 25.7300   1
   4 -24  -1 29.1300 22.6400   1
   2 -25   2 96.4300 34.7900   1
  -2 -25  -2 24.5000 20.9000   1
  -2 -25  -2 60.6300 12.1400   1
   2 -25   2 58.4400 22.0400   1
   2  25   2 43.7000 22.0100   1
   2  25   2 78.8200 14.4200   1
  -2 -15  -4 106.120 16.9000   1
   2  15   4 78.1300 24.1400   1
   2  15   4 101.750 22.7800   1
  -2  15  -4 101.200 21.1600   1
   2 -15   4 148.030 27.4900   1
   2 -15   4 113.590 18.9100   1
   4 -19  -5 24.0000 15.3000   1
   4  19  -5 23.8100 14.1800   1
   5 -11   1 20.4400 30.1300   1
   5  11   1 -20.930 18.0300   1
  -5  11  -1 -43.410 20.4300   1
  -5 -11  -1 35.7900 24.6300   1
   0  23   4 577.630 32.9800   1
   0 -23  -4 535.580 28.0600   1
   0 -23  -4 564.950 32.8900   1
   0  23  -4 689.200 36.2000   1
   0 -23   4 649.460 32.7900   1
   0 -23   4 612.550 43.9700   1
   1 -12  -6 147.980 18.3300   1
   1 -12  -6 125.650 17.7900   1
  -1  12   6 111.480 22.1500   1
  -1  12   6 133.320 21.9800   1
  -1 -12   6 127.390 15.5000   1
   1  12  -6 137.910 16.1300   1
   1  12  -6 147.460 17.2200   1
  -1 -12   6 190.110 30.5600   1
   6 -13  -2 42.6500 17.8900   1
   6  13  -2 20.7600 17.0400   1
   6  13  -2 21.5700 12.3100   1
   6  13  -2 32.5700 14.4900   1
  -6  13   2 44.0900 31.9300   1
  -6 -13   2 20.3600 23.1700   1
   0   5  -6 156.990 14.5300   1
   0  -5  -6 174.730 16.1400   1
   0   5   6 142.150 29.5500   1
   0  -5   6 185.580 27.4300   1
   0   5  -6 147.970 17.5700   1
   0  -5  -6 143.840 17.3100   1
  -3   0  -4 -12.540 19.0300   1
   3   0   4 -17.270 28.0200   1
   6  10  -1 26.9800 13.2300   1
   6  10  -1 15.5600 17.2300   1
  -6  10   1 30.3000 31.1300   1
  -6 -10   1 15.5100 17.2800   1
   6 -10  -1 80.3500 20.4300   1
   2 -21  -5 51.0500 13.7600   1
  -2  21   5 71.1400 16.6800   1
   2 -21  -5 72.1000 16.6300   1
  -2 -21   5 69.3900 15.7000   1
   2  21  -5 66.5900 18.0600   1
   3 -15  -6 -2.0200 7.89000   1
  -3  15   6 15.2100 12.1200   1
   3 -15  -6 1.40000 12.2100   1
   3 -15  -6 -6.9800 13.3200   1
   3  15  -6 1.81000 7.43000   1
   3  15  -6 11.1300 11.1800   1
   3  -1   4 114.420 30.5300   1
  -3  -1  -4 56.8100 17.2700   1
   3   1   4 100.560 26.2600   1
  -3   1  -4 36.3800 20.0200   1
   4 -24  -3 139.600 27.9000   1
   4 -24  -3 230.920 23.3700   1
   4  24  -3 161.630 20.0900   1
  -4 -24   3 192.240 24.4100   1
   4  24  -3 166.610 18.9600   1
  -4 -24   3 156.260 20.7100   1
  -1  20   5 137.630 22.1700   1
   1 -20  -5 117.680 17.7900   1
   1 -20  -5 90.0100 17.6400   1
  -1 -20   5 84.6100 23.8700   1
  -1 -20   5 99.5200 14.5900   1
   1  20  -5 121.100 16.1600   1
   3   2   4 93.5400 21.7300   1
  -3  -2  -4 88.0500 23.1200   1
   3  -2   4 127.550 28.7400   1
  -3   2  -4 90.6900 17.6100   1
  -6  -9   5 556.570 52.7700   1
   6   9  -5 498.020 36.1400   1
   6  -9  -5 545.650 30.6100   1
   6   9  -5 576.070 25.2700   1
   6  -9  -5 545.760 28.7300   1
   2 -25  -4 165.960 21.9700   1
   2 -25  -4 199.240 21.7500   1
  -2 -25   4 183.880 18.8900   1
   2  25  -4 187.720 19.6200   1
  -3 -16  -3 48.9900 12.7500   1
  -3  16  -3 28.9000 24.6600   1
   3  16   3 53.8300 18.2800   1
   3  16   3 38.0100 27.0100   1
   3 -16   3 26.1000 34.1700   1
   6  14  -3 24.3300 12.4000   1
   6  14  -3 52.1300 12.1100   1
   6 -14  -3 35.9200 23.3300   1
  -6  14   3 14.8100 36.5600   1
   6  14  -3 52.4900 20.2300   1
  -6 -14   3 29.5700 23.7300   1
   0 -29  -2 72.1100 18.3700   1
   0 -29  -2 55.9600 15.9800   1
   0 -29   2 29.6300 23.5500   1
   0 -29   2 32.5400 14.0800   1
   0  29  -2 47.4200 11.5600   1
   5 -19  -4 366.010 30.4000   1
   5  19  -4 343.470 34.1300   1
  -5 -19   4 418.110 35.2800   1
   5  19  -4 336.390 24.2200   1
   5 -16  -5 13.8700 14.7100   1
   5  16  -5 8.48000 10.8600   1
   5  16  -5 4.09000 12.3300   1
   5 -10  -6 75.0500 13.0900   1
   5 -10  -6 75.4200 11.0300   1
   5  10  -6 52.9900 11.2600   1
   3   3   4 31.9600 19.1700   1
   3  -3   4 73.3700 22.0200   1
  -3  -3  -4 70.7600 21.0400   1
  -3   3  -4 61.9500 16.8700   1
   4   0   3 -12.900 19.9000   1
  -4   0  -3 15.8500 16.6200   1
  -4  -1  -3 12.8400 23.7900   1
  -4   1  -3 15.6200 16.7900   1
   4   1   3 19.0700 26.0400   1
   4  -1   3 23.9600 19.9400   1
   4  15   2 1518.38 58.9800   1
   4  15   2 1399.30 59.7300   1
  -4 -15  -2 1400.13 64.9300   1
  -4  15  -2 1557.17 73.6600   1
   4 -15   2 1316.44 58.5700   1
   0  -6   6 363.880 61.5200   1
   0  -6  -6 431.160 25.6800   1
   0   6  -6 356.040 56.1600   1
   0  -6  -6 437.510 24.2200   1
   0   6  -6 402.610 22.2000   1
   0  -6   6 466.940 41.8400   1
   0   6   6 381.480 34.6100   1
  -6 -13   4 1320.48 59.3400   1
   6  13  -4 1283.57 49.9400   1
   6 -13  -4 1212.45 51.5900   1
   6  13  -4 1337.24 65.6000   1
   3 -21  -5 74.9500 16.4000   1
   3 -21  -5 68.7600 15.7000   1
  -3 -21   5 59.4400 19.0600   1
   3  21  -5 62.9000 15.6900   1
  -4  14   6 12.8600 13.6300   1
   4 -14  -6 -8.9100 14.1800   1
   4 -14  -6 8.74000 7.58000   1
   4  14  -6 -15.780 13.9800   1
   4  14  -6 17.9500 10.5700   1
  -2 -29   0 33.5400 12.9200   1
   2  29   0 40.4900 11.8600   1
  -2 -29   0 59.6400 15.0500   1
   2 -29   0 69.4000 37.1100   1
   2 -29   0 59.9700 19.4800   1
   2 -29   0 16.3400 14.7800   1
  -2  29   0 50.1300 11.5300   1
   2 -29   0 54.9800 25.6500   1
   4  20   1 1794.69 64.8600   1
   4  20   1 2124.08 72.5600   1
  -4 -20  -1 2136.74 81.7100   1
   4 -20   1 2066.79 83.2900   1
  -4  20  -1 2189.51 93.6300   1
  -4   2  -3 657.970 43.9100   1
   4   2   3 652.890 41.6500   1
   4  -2   3 713.930 41.5700   1
  -4  -2  -3 744.930 42.6400   1
   1  13   5 912.900 49.4200   1
   1  13   5 901.780 56.5900   1
  -1 -13  -5 961.350 46.2100   1
   1  13   5 1015.07 44.1100   1
   1 -13   5 950.320 53.0300   1
  -1  13  -5 844.050 50.8300   1
  -1  13  -5 924.630 49.5500   1
   1 -13   5 995.460 53.3500   1
   1 -13   5 978.860 69.3300   1
   2 -15  -6 61.5600 10.2900   1
  -2  15   6 74.3900 20.0400   1
   2 -15  -6 72.3700 12.7400   1
   2 -15  -6 62.9700 14.1900   1
  -2 -15   6 64.2400 24.3300   1
   2  15  -6 64.9200 18.6100   1
  -2 -15   6 90.4700 14.4500   1
   2 -29  -2 365.140 25.9600   1
   2 -29  -2 326.440 27.1400   1
  -2 -29   2 299.940 28.2500   1
  -2 -29   2 329.630 26.5400   1
   2  29  -2 365.190 19.7200   1
   3   4   4 386.790 29.1300   1
  -3  -4  -4 314.110 30.5600   1
  -3   4  -4 382.990 36.2100   1
   3  -4   4 336.140 33.5800   1
  -1 -25  -3 459.930 24.8000   1
   1  25   3 440.330 29.5200   1
  -1 -25  -3 369.270 27.1800   1
   1  25   3 484.730 29.2800   1
  -1  25  -3 439.420 29.4700   1
   1 -25   3 354.150 63.8500   1
   1 -25   3 334.390 49.2400   1
   1 -25   3 507.510 30.2300   1
  -5 -17   0 70.8400 24.5000   1
   5  17   0 79.2800 19.1400   1
   5 -17   0 82.6400 27.9900   1
  -5  17   0 94.6900 39.6200   1
   4  -3   3 626.260 64.0700   1
  -4  -3  -3 622.440 35.7100   1
   4   3   3 683.430 41.8000   1
  -4   3  -3 670.490 39.6100   1
   4  23   0 -3.2300 13.7600   1
  -4 -23   0 -7.8400 21.3100   1
   4  23   0 7.54000 17.0400   1
   4 -23   0 8.36000 21.7500   1
   5  12   1 1106.41 46.6500   1
   5  12   1 1099.80 46.8200   1
  -5 -12  -1 1079.74 53.4900   1
  -5  12  -1 1081.16 60.0400   1
   5 -12   1 1051.67 51.1400   1
   0  18   5 2804.41 93.2800   1
   0 -18  -5 2830.73 398.080   1
   0 -18   5 2808.00 112.180   1
   0 -18   5 2945.34 424.270   1
   0 -18   5 2552.06 89.3300   1
   0  18  -5 2724.22 98.6800   1
   6   0   0 171.670 21.5800   1
  -6   0   0 164.460 22.0900   1
   0  27   3 101.310 13.4800   1
   0 -27  -3 125.630 16.9400   1
   0 -27  -3 108.740 16.5800   1
   0 -27   3 153.580 25.2700   1
   0  27  -3 122.040 15.5300   1
   0 -27   3 124.670 20.2500   1
  -4 -25   2 380.130 29.9800   1
   4  25  -2 362.120 55.6600   1
   4  25  -2 365.670 20.3600   1
  -4 -25   2 418.580 33.3100   1
   4 -25  -2 325.320 28.3200   1
   4 -25  -2 366.230 38.1400   1
   6  11  -1 -26.790 20.4100   1
   6  11  -1 -5.7600 12.9100   1
  -6  11   1 -28.910 31.1200   1
  -6 -11   1 11.7700 16.5700   1
   6 -11  -1 -15.600 22.2000   1
  -6  -1   0 45.6000 18.7100   1
   6  -1   0 -57.420 24.8400   1
  -6   1   0 -56.710 22.9500   1
   6   1   0 -2.1400 20.6200   1
   6 -10  -5 69.0100 15.7300   1
   6  10  -5 60.2300 14.1400   1
  -6 -10   5 78.8500 31.0400   1
   6  10  -5 53.9700 16.7800   1
   1 -25  -4 9.03000 13.4900   1
   1 -25  -4 6.41000 11.2800   1
   1  25  -4 21.4400 12.0400   1
  -1 -25   4 11.1900 12.7900   1
  -1 -25   4 -11.160 18.7600   1
   0  -7   6 126.800 34.1600   1
   0   7  -6 147.780 15.3700   1
   0  -7  -6 149.410 15.3300   1
   0  -7  -6 114.600 16.2400   1
   0   7  -6 180.750 21.3600   1
   0  -7   6 94.1200 30.1500   1
   0   7   6 141.640 23.0700   1
   0   7   6 143.350 22.7100   1
  -1  13   6 38.2900 17.3700   1
   1 -13  -6 24.5600 14.7100   1
   1 -13  -6 28.1300 11.0800   1
   1  13  -6 45.4200 16.9000   1
   1  13  -6 17.9000 9.54000   1
  -1 -13   6 31.1200 11.8500   1
  -1 -13   6 70.7300 22.7900   1
   1  28   2 1035.79 48.9800   1
  -1 -28  -2 1019.78 43.4600   1
   1  28   2 1015.90 46.4000   1
   1 -28   2 931.560 64.5200   1
   1 -28   2 895.710 70.7200   1
   1 -28   2 1165.69 52.3700   1
  -1 -28  -2 1116.08 54.8400   1
  -1  28  -2 1091.30 45.1700   1
   3   5   4 -7.9200 18.6400   1
  -3   5  -4 7.54000 22.0800   1
  -3  -5  -4 6.86000 16.6700   1
   3  -5   4 38.6800 22.2500   1
  -6   2   0 126.070 29.3900   1
   6  -2   0 180.730 22.7100   1
   6   2   0 194.870 25.8200   1
  -6  -2   0 116.710 26.0200   1
  -4   4  -3 78.5300 20.6900   1
   4  -4   3 114.920 23.5000   1
   4   4   3 26.4800 20.2400   1
  -4  -4  -3 76.5100 18.0600   1
   0 -31   0 31.2100 12.8100   1
   0  31   0 -12.570 10.8800   1
   0 -31   0 6.02000 14.1800   1
  -2 -16  -4 43.5500 16.8400   1
   2  16   4 27.7900 20.6000   1
   2  16   4 28.3300 17.2700   1
   2 -16   4 66.7700 34.7500   1
   2 -16   4 33.6500 13.1800   1
  -2  16  -4 20.5000 21.1500   1
   6  14  -2 75.7900 14.1000   1
   6 -14  -2 118.360 24.7400   1
   6  14  -2 111.900 14.9000   1
  -6 -14   2 113.390 22.6200   1
  -6  14   2 118.770 41.6600   1
   6  14  -2 70.6800 21.5200   1
   3  25   1 90.1200 16.3200   1
   3  25   1 98.6300 23.2800   1
  -3 -25  -1 68.5300 17.0800   1
  -3 -25  -1 63.8600 13.2400   1
   3 -25   1 108.970 24.0500   1
   3 -25   1 111.230 25.9000   1
   5 -21  -2 -1.5300 24.2800   1
  -5 -21   2 20.8000 26.3500   1
   5  21  -2 25.9100 14.7800   1
   5  21  -2 20.1100 22.7700   1
   2  22   3 446.970 28.4000   1
  -2 -22  -3 511.560 25.2300   1
   2  22   3 480.040 33.9200   1
   2 -22   3 495.280 37.5100   1
  -2  22  -3 503.020 41.9100   1
   2 -22   3 503.590 35.6000   1
   2  28   1 2814.51 92.2900   1
  -2 -28  -1 2774.08 89.1800   1
  -2 -28  -1 2423.05 81.7300   1
   2 -28   1 2821.50 97.2200   1
   2 -28   1 2508.64 111.190   1
   1 -28  -3 162.640 18.3200   1
   1 -28  -3 235.640 23.6500   1
   1  28  -3 193.510 21.8300   1
  -1 -28   3 231.310 25.3700   1
   5 -11  -6 1172.46 49.0400   1
   5 -11  -6 1085.31 46.9000   1
   5  11  -6 1030.87 40.5600   1
   6  -3   0 638.000 38.1100   1
   6   3   0 738.420 35.8900   1
  -6   3   0 677.510 38.1700   1
  -6  -3   0 672.240 49.9000   1
   3   0  -7 1841.49 68.3600   1
   3   0  -7 1793.96 70.0100   1
   3 -16  -6 146.840 22.9000   1
   3 -16  -6 105.710 13.0100   1
   3 -16  -6 107.460 15.0300   1
  -3  16   6 152.340 20.1600   1
   3  16  -6 117.420 14.5400   1
   3  -1  -7 47.2600 15.2000   1
   3   1  -7 28.8800 14.1600   1
   3  -1  -7 40.2800 16.9000   1
   3   1  -7 57.8800 14.3900   1
   5 -21  -3 77.8200 23.1800   1
  -5 -21   3 64.0300 22.3000   1
   5  21  -3 57.6800 14.0300   1
   5  21  -3 68.4200 17.3800   1
   5 -20  -1 312.520 31.1000   1
   5  20  -1 365.130 31.0000   1
   5  20  -1 365.190 22.1200   1
  -5  20   1 331.250 51.0900   1
  -5 -20   1 345.760 33.3100   1
   5  20  -1 373.080 22.9700   1
  -3 -27   0 202.480 25.8000   1
   3  27   0 155.340 24.9600   1
   3  27   0 219.670 19.4000   1
  -3 -27   0 192.190 20.5200   1
   3 -27   0 183.860 21.5300   1
   3 -27   0 180.570 36.8600   1
   4 -23  -4 536.990 30.7500   1
   4  23  -4 585.960 29.2800   1
  -4 -23   4 633.560 34.3800   1
  -1 -21  -4 320.920 27.5600   1
  -1 -21  -4 355.950 53.8600   1
   1  21   4 317.050 31.6500   1
   1  21   4 345.850 30.1500   1
  -1  21  -4 342.420 39.4400   1
   1 -21   4 359.100 60.0100   1
   1 -21   4 326.550 29.5100   1
   1 -21   4 434.530 58.8600   1
   4  -5   3 1581.80 66.3900   1
  -4   5  -3 1747.14 81.1400   1
   4   5   3 1609.15 62.4100   1
  -4   5  -3 1651.20 75.9200   1
  -4  -5  -3 1658.07 66.0400   1
   3  22   2 68.7300 19.2500   1
   3  22   2 86.0700 13.9200   1
  -3 -22  -2 83.5500 14.4500   1
   3 -22   2 143.900 26.5200   1
   3 -22   2 121.730 23.6300   1
  -3  22  -2 157.160 29.9000   1
   4 -20  -5 455.710 32.5500   1
   4  20  -5 501.150 27.5200   1
   3   2  -7 1539.84 66.9700   1
   3  -2  -7 1465.23 57.0000   1
   3   2  -7 1472.72 56.2600   1
   3  -2  -7 1619.56 73.5200   1
  -6 -15   3 188.970 29.6000   1
   6  15  -3 186.960 20.9200   1
   6 -15  -3 227.890 25.6900   1
   6  15  -3 180.290 17.7800   1
  -6  15   3 244.790 42.8200   1
   6  15  -3 200.350 22.6600   1
  -3   6  -4 1331.34 64.9700   1
  -3  -6  -4 1320.11 57.6400   1
   3   6   4 1242.04 50.4800   1
   3  -6   4 1251.47 59.6800   1
   3   6   4 1447.74 63.6700   1
   2 -28  -3 122.120 16.8000   1
   2 -28  -3 96.0400 17.7100   1
   2  28  -3 85.5700 12.2500   1
  -2 -28   3 101.860 16.3800   1
   6   4   0 36.7600 16.1900   1
   6  -4   0 16.1600 18.4700   1
  -6  -4   0 55.3000 27.6300   1
  -6   4   0 78.0700 21.2000   1
  -6 -14   4 37.3700 28.3600   1
   6  14  -4 25.5300 10.6100   1
   6  14  -4 9.46000 17.3900   1
   6 -14  -4 26.6100 14.8400   1
   0   8   6 1188.47 61.1100   1
   0  -8   6 1418.88 67.8500   1
   0   8  -6 1297.69 51.6400   1
   0   8  -6 1350.25 53.9700   1
   0  -8  -6 1118.77 51.1600   1
   0  -8  -6 1240.33 53.3100   1
   0  -8   6 1446.06 64.6400   1
   0   8   6 1368.75 58.3100   1
  -3  17  -3 193.380 28.4600   1
  -3 -17  -3 212.130 22.9000   1
   3 -17   3 124.690 26.5900   1
   3  17   3 226.450 23.8200   1
   3  17   3 180.670 25.9100   1
  -3 -28   1 427.410 26.8700   1
   3 -28  -1 424.590 27.0300   1
   3 -28  -1 380.070 36.7600   1
  -3 -28   1 488.770 32.5400   1
   3  28  -1 483.520 24.2300   1
   3  28  -1 450.020 30.7000   1
   3   3  -7 17.5000 11.2200   1
   3   3  -7 20.1400 13.2500   1
   3  -3  -7 -32.470 13.3000   1
   3  -3  -7 2.73000 14.6900   1
   1  14   5 99.9600 29.0800   1
  -1 -14  -5 95.9400 16.5100   1
   1  14   5 148.890 24.0800   1
   1 -14   5 162.360 28.7500   1
  -1  14  -5 112.370 21.8200   1
   1 -14   5 127.540 16.3500   1
   1 -14   5 130.500 39.2600   1
  -1  14  -5 103.030 21.5100   1
   4 -15  -6 947.950 45.4100   1
   4 -15  -6 917.660 44.3300   1
  -4  15   6 908.870 57.6500   1
   4  15  -6 826.970 45.3400   1
   4  15  -6 1076.01 39.3600   1
   1 -30   1 1771.38 90.1400   1
  -1 -30  -1 1841.98 67.5400   1
   1 -30   1 1539.43 89.9000   1
  -1  30  -1 1897.05 72.1000   1
   1 -30   1 1474.48 58.2800   1
  -1 -30  -1 1864.04 70.5900   1
   1 -30   1 1764.83 70.3400   1
   3 -25  -4 161.440 20.5300   1
   3 -25  -4 190.240 21.9800   1
   3  25  -4 152.860 15.1800   1
  -3 -25   4 111.660 19.9000   1
   3 -27  -3 156.270 28.8900   1
   3 -27  -3 222.390 25.5800   1
  -3 -27   3 271.580 23.5600   1
   3  27  -3 234.780 18.5100   1
  -4 -16  -2 56.0300 17.0900   1
   4  16   2 62.1200 20.5400   1
   4 -16   2 36.8300 31.6200   1
  -4  16  -2 92.5800 30.4200   1
   5 -17  -5 651.010 39.6700   1
   5  17  -5 637.780 28.0800   1
   5  17  -5 664.960 34.9400   1
   1 -21  -5 266.030 23.0300   1
  -1  21   5 308.650 28.7800   1
   1 -21  -5 314.480 23.7200   1
  -1 -21   5 266.810 31.3300   1
  -1 -21   5 320.270 31.8300   1
   1  21  -5 274.370 28.3500   1
   4  25  -1 5.58000 19.7100   1
   4  25  -1 9.20000 13.0300   1
  -4 -25   1 -8.8100 15.3800   1
   4 -25  -1 3.58000 15.9100   1
   4 -25  -1 46.8800 28.9500   1
  -3 -28   2 76.1900 20.4000   1
   3  28  -2 44.6200 10.9100   1
  -3 -28   2 53.4800 15.7200   1
   3 -28  -2 39.7900 19.3300   1
   3 -28  -2 22.0400 19.4500   1
   2 -22  -5 -4.5200 12.8600   1
  -2  22   5 21.8600 15.4500   1
   2 -22  -5 33.2600 11.7100   1
  -2 -22   5 35.8700 15.0500   1
   2  22  -5 52.8700 12.9300   1
   1 -30  -2 57.7600 14.2800   1
   1 -30  -2 45.4200 14.5500   1
   1  30  -2 66.8900 13.8700   1
  -1 -30   2 68.1900 15.4000   1
   6  11  -5 561.930 35.8700   1
   6 -11  -5 632.480 33.0800   1
   6  11  -5 620.920 27.4100   1
  -6 -11   5 823.170 62.9400   1
  -6 -12   1 18.7000 20.4600   1
   6 -12  -1 -39.330 25.2900   1
   6  12  -1 -19.360 12.6700   1
  -6  12   1 46.1700 35.0200   1
   6  12  -1 10.6900 21.0300   1
   5  13   1 45.1100 18.5500   1
  -5 -13  -1 63.5800 18.3200   1
   5 -13   1 6.64000 20.3600   1
  -5  13  -1 105.890 29.7700   1
  -2  16   6 17.8100 18.9600   1
   2 -16  -6 4.18000 9.96000   1
   2 -16  -6 -6.4300 12.8900   1
   2  16  -6 -9.5500 12.0200   1
  -2 -16   6 6.00000 22.9100   1
  -2 -16   6 -10.350 11.9400   1
   0  24   4 1538.64 62.5900   1
   0 -24  -4 1501.07 58.7900   1
   0 -24  -4 1458.57 64.7300   1
   0 -24   4 1501.60 67.9700   1
   0  24  -4 1491.43 61.6700   1
   0 -24   4 1403.02 59.2300   1
  -4   6  -3 607.020 41.4200   1
  -4   6  -3 516.700 42.4600   1
  -4  -6  -3 539.700 32.3600   1
   4  -6   3 481.540 40.9000   1
   4   6   3 487.120 31.0300   1
   4   6   3 480.330 29.2900   1
   2  26   2 122.800 20.6000   1
   2  26   2 87.5100 14.7000   1
   2 -26   2 109.690 26.9800   1
  -2 -26  -2 95.0400 17.4300   1
  -2 -26  -2 111.900 17.4600   1
   2 -26   2 89.1000 20.9300   1
  -2   0  -5 3.87000 15.0700   1
   2   0   5 -23.200 26.8300   1
   6   5   0 660.710 35.6400   1
   6  -5   0 646.910 37.1000   1
  -6  -5   0 747.480 46.0400   1
  -6   5   0 580.070 40.7600   1
   5 -20  -4 4.85000 17.7500   1
   5  20  -4 -9.3800 17.4100   1
  -5 -20   4 -7.8800 26.1500   1
   5  20  -4 -1.2100 14.9800   1
   4   0  -7 5.79000 12.5200   1
   2  -1   5 243.490 33.3300   1
  -2   1  -5 206.550 19.8400   1
   2   1   5 202.980 26.4500   1
  -2  -1  -5 223.970 24.9900   1
   3   4  -7 825.160 41.1300   1
   3  -4  -7 789.340 39.6700   1
   3  -4  -7 821.740 45.1800   1
   3   4  -7 858.620 41.0200   1
  -2 -30   1 282.080 25.0200   1
   2  30  -1 284.080 24.1300   1
  -2 -30   1 234.780 22.3000   1
   2 -30  -1 209.310 22.0600   1
   2 -30  -1 186.550 44.3900   1
   2 -30  -1 201.740 29.3000   1
   2 -30  -1 243.460 24.7900   1
  -2  30   1 217.920 19.7900   1
   4   1  -7 2.82000 10.2200   1
   4  -1  -7 4.92000 12.4700   1
   3   7   4 -20.230 19.7000   1
   3  -7   4 -24.830 34.1100   1
  -3  -7  -4 11.4200 19.0500   1
  -3   7  -4 11.2300 23.5400   1
  -2  -2  -5 417.950 25.9700   1
  -2   2  -5 342.820 32.7800   1
   2  -2   5 421.760 36.1100   1
   2   2   5 457.750 31.9300   1
   4 -25  -3 -15.190 20.1800   1
   4 -25  -3 -8.0300 15.7700   1
   4  25  -3 -10.280 21.3700   1
  -4 -25   3 16.4800 17.5600   1
   4  25  -3 3.55000 12.7500   1
  -4 -25   3 -6.5000 14.5700   1
   0 -31   1 346.010 27.4500   1
   0 -31  -1 330.510 27.5900   1
   0  31  -1 323.450 24.2600   1
   0 -31   1 302.820 26.3600   1
   0 -31  -1 364.660 25.9700   1
   4   2  -7 34.5200 10.6900   1
   4  -2  -7 49.7800 12.9900   1
  -1  14   6 987.400 46.1500   1
   1 -14  -6 959.500 40.5600   1
   1 -14  -6 754.290 40.5600   1
  -1 -14   6 940.850 52.1900   1
  -1 -14   6 773.760 40.1700   1
   1  14  -6 916.220 45.2400   1
  -1 -31   0 244.770 26.5100   1
   1 -31   0 280.220 24.4000   1
  -1  31   0 251.280 23.9300   1
   1  31   0 231.620 18.9500   1
   1 -31   0 221.820 22.0000   1
  -1 -31   0 225.060 21.1900   1
   1 -31   0 196.250 23.7700   1
   5 -12  -6 25.8700 12.7100   1
   5 -12  -6 27.3600 9.55000   1
   5  12  -6 45.0200 13.1900   1
  -5 -18   0 1498.13 61.9400   1
   5  18   0 1477.59 60.3400   1
   5  18   0 1492.21 53.6500   1
   5 -18   0 1572.61 76.5700   1
  -5  18   0 1553.99 76.2600   1
   1  31  -1 71.7300 10.8400   1
   1 -31  -1 81.8700 19.0900   1
  -1 -31   1 46.9600 14.9800   1
  -1  31   1 65.6500 10.6400   1
   1 -31  -1 60.7500 11.6700   1
  -1 -31   1 70.4800 13.6900   1
   4  21   1 337.730 33.3900   1
   4  21   1 447.150 25.0500   1
  -4 -21  -1 459.450 30.4900   1
   4 -21   1 498.330 34.9900   1
  -4  21  -1 375.470 42.2000   1
   3 -22  -5 467.810 37.5700   1
   3 -22  -5 420.240 29.2400   1
  -3 -22   5 383.500 23.8500   1
   3  22  -5 381.060 20.5900   1
   2  -3   5 325.060 39.1600   1
   2   3   5 299.220 29.9100   1
  -2  -3  -5 323.110 26.8800   1
  -2   3  -5 258.300 25.9400   1
   6   0  -6 74.6300 14.5800   1
  -6 -15   2 48.6200 17.6100   1
   6 -15  -2 136.460 28.1600   1
   6  15  -2 83.7700 19.1100   1
  -6  15   2 63.4900 33.9700   1
   6  15  -2 66.2000 21.2700   1
   6  15  -2 64.1800 16.1700   1
   0   9   6 35.0700 17.5700   1
   0  -9   6 -8.1000 31.0000   1
   0   9  -6 7.28000 10.9100   1
   0  -9  -6 4.28000 10.8600   1
   0  -9  -6 14.4100 9.95000   1
   0   9  -6 -0.3400 16.8400   1
   0  -9   6 -15.990 29.9800   1
   4   3  -7 3.92000 13.2600   1
   4  -3  -7 -7.3200 9.51000   1
   6  -1  -6 -23.420 14.2100   1
   6   1  -6 -3.1400 12.1700   1
   6  -1  -6 -0.3800 9.97000   1
   3  -5  -7 47.5500 11.4200   1
   3   5  -7 57.1000 16.7700   1
   3   5  -7 71.1300 13.1100   1
   3  -5  -7 68.6700 23.2000   1
   2 -26  -4 603.390 36.3300   1
   2 -26  -4 643.870 33.8700   1
  -2 -26   4 589.580 44.4000   1
   2  26  -4 696.940 32.1000   1
   6  -6   0 145.200 22.1900   1
  -6  -6   0 197.600 28.0600   1
  -6   6   0 189.630 26.3200   1
   6   6   0 148.730 22.5900   1
   6   6   0 158.290 25.2200   1
   0 -19  -5 715.140 31.1700   1
   0  19   5 610.350 35.2500   1
   0  19  -5 647.260 34.9200   1
   0 -19   5 547.060 30.0500   1
   0 -19   5 691.560 50.0100   1
   0 -19   5 629.890 50.4600   1
   4   7   3 114.750 38.2500   1
  -4   7  -3 248.370 35.8700   1
  -4   7  -3 238.190 33.8800   1
  -4  -7  -3 205.390 22.3600   1
   4  -7   3 223.240 32.8400   1
   4   7   3 279.740 29.8800   1
   2  17   4 101.840 19.5000   1
  -2 -17  -4 137.650 15.5600   1
   2  17   4 110.830 22.8500   1
   2 -17   4 134.770 19.7800   1
   2 -17   4 170.200 38.8100   1
  -2  17  -4 120.290 22.7400   1
   6  -2  -6 27.7500 10.8200   1
   6   2  -6 56.3300 14.1600   1
   6  -2  -6 24.2800 15.1600   1
  -2   4  -5 793.210 46.2500   1
  -2  -4  -5 749.170 39.2700   1
   2  -4   5 827.630 56.1000   1
   2   4   5 881.670 50.5400   1
   4   4  -7 209.730 23.7300   1
   4  -4  -7 234.670 24.5000   1
  -3  -8  -4 1233.49 63.6800   1
   3  -8   4 1170.46 64.1900   1
   3   8   4 1246.24 61.0100   1
  -3   8  -4 1274.53 79.2200   1
   3   8   4 1299.03 64.6000   1
   6  -3  -6 172.790 22.5200   1
   6  -3  -6 174.590 21.4100   1
   6   3  -6 146.760 18.9300   1
   3 -17  -6 20.7600 14.8600   1
   3 -17  -6 33.0200 12.9000   1
  -3  17   6 28.1300 16.3500   1
  -3 -17   6 15.5000 14.8900   1
   3  17  -6 11.8700 11.6100   1
   4  24   0 1375.86 66.9600   1
   4  24   0 1298.34 60.8900   1
  -4 -24   0 1512.51 56.4900   1
   4 -24   0 1343.97 67.4600   1
   4 -24   0 1384.66 79.0000   1
   0 -30  -2 584.560 37.4400   1
   0 -30  -2 663.630 35.8900   1
   0  30  -2 689.830 41.2000   1
   0 -30   2 621.420 34.8700   1
   0 -30   2 523.010 37.2700   1
   6 -15  -4 1475.60 48.2400   1
   6  15  -4 1296.63 64.8600   1
   6  15  -4 1350.45 57.4100   1
  -6 -15   4 1503.48 52.3000   1
  -6 -16   3 32.5300 18.7900   1
   6  16  -3 4.61000 11.8000   1
   6  16  -3 8.09000 19.0800   1
   6 -12  -5 24.2500 15.9600   1
   6  12  -5 32.2800 16.6800   1
  -6 -12   5 54.0400 36.4200   1
   6  12  -5 15.4300 12.9000   1
   3  -6  -7 186.770 20.4700   1
   3   6  -7 172.730 22.2800   1
   3  -6  -7 216.110 28.1200   1
   3   6  -7 136.860 20.7000   1
   1  26   3 139.130 28.1100   1
   1  26   3 131.840 19.9200   1
  -1 -26  -3 98.2700 19.8300   1
  -1 -26  -3 100.960 15.2500   1
  -1  26  -3 96.7100 16.7900   1
   1 -26   3 121.610 19.5000   1
   1 -26   3 79.1800 43.3000   1
   1 -26   3 129.430 34.3000   1
   2   0  -7 6.92000 11.6900   1
  -2   0   7 32.9200 20.4700   1
   2   0  -7 23.0500 10.4500   1
  -6 -13   1 12.0800 23.5200   1
  -6  13   1 41.0800 35.1400   1
   6  13  -1 0.59000 16.5300   1
   6  13  -1 -4.4800 12.6300   1
   6 -13  -1 -5.8700 27.4800   1
  -6 -13   1 22.2400 20.0400   1
  -1 -15  -5 870.280 41.1200   1
   1  15   5 955.800 57.2100   1
   1  15   5 958.870 53.1700   1
   1 -15   5 878.250 72.1500   1
   1 -15   5 841.660 47.9900   1
  -1  15  -5 803.670 63.6100   1
   1 -15   5 766.010 58.0700   1
   2   1  -7 1363.49 62.4500   1
   2  -1  -7 1253.84 57.2500   1
   2   1  -7 1317.57 64.1000   1
   2  -1  -7 1288.02 63.6700   1
  -2   1   7 1359.05 71.1100   1
  -2  -1   7 1376.72 70.5400   1
  -6   7   0 200.730 34.0100   1
   6   7   0 120.690 23.1600   1
   6   7   0 174.380 27.1300   1
   6  -7   0 184.530 31.1000   1
  -6  -7   0 160.310 29.6200   1
   5  22  -2 22.7200 15.3900   1
   5  22  -2 9.80000 20.6100   1
  -5 -22   2 36.6900 19.8700   1
  -5 -22   2 31.4700 19.3300   1
   5 -22  -2 18.6200 19.0300   1
   2  30   0 54.3100 10.2000   1
  -2 -30   0 65.7900 14.8700   1
  -2 -30   0 72.9600 16.2500   1
   2 -30   0 16.4400 31.5200   1
   2 -30   0 51.4700 25.1400   1
   2 -30   0 63.5100 17.6500   1
   2 -30   0 38.9000 12.8400   1
  -2  30   0 73.6400 15.5700   1
  -2  -5  -5 163.500 21.8700   1
   2   5   5 211.250 29.7700   1
   2  -5   5 275.240 36.4600   1
  -2   5  -5 199.490 26.1400   1
   6  -4  -6 -1.2500 10.1800   1
   6   4  -6 21.3800 10.8800   1
   6  -4  -6 30.1000 11.0400   1
   4 -16  -6 0.43000 13.1800   1
  -4  16   6 -16.840 14.0400   1
   4 -16  -6 5.48000 7.86000   1
   4  16  -6 14.8300 14.1300   1
   4  16  -6 8.09000 10.7500   1
   5  14   1 211.590 27.8700   1
   5  14   1 227.920 26.5000   1
  -5 -14  -1 257.980 35.1300   1
   5 -14   1 263.180 39.7800   1
  -5  14  -1 294.530 37.6600   1
   4  -5  -7 83.2600 16.0000   1
   4   5  -7 53.5200 12.0700   1
   4 -26  -2 425.510 29.5700   1
  -4 -26   2 436.980 32.6200   1
   4  26  -2 392.580 23.7700   1
  -4 -26   2 367.480 26.0300   1
   4  26  -2 344.760 30.3700   1
   4 -26  -2 374.080 33.7800   1
   2   2  -7 145.690 21.1300   1
  -2   2   7 109.180 20.0300   1
  -2  -2   7 127.490 21.8300   1
   2  -2  -7 121.610 18.0700   1
   2   2  -7 141.140 22.6500   1
   2  -2  -7 164.100 19.6200   1
   4   8   3 94.6200 43.2500   1
   4   8   3 196.870 29.6700   1
   4  -8   3 91.6700 24.5300   1
  -4   8  -3 162.890 27.9500   1
  -4  -8  -3 142.700 22.0500   1
   5   0   2 -0.7300 19.3300   1
  -5   0  -2 42.9500 25.6400   1
  -5   0  -2 14.9200 19.9000   1
  -2 -23  -3 99.8700 15.3200   1
   2  23   3 154.220 26.9300   1
   2  23   3 115.960 20.3300   1
  -2  23  -3 110.140 33.2100   1
   2 -23   3 108.790 18.9500   1
   2 -23   3 152.600 30.8000   1
   5 -21  -1 317.630 35.0800   1
   5  21  -1 350.030 27.1300   1
   5  21  -1 422.850 32.1400   1
  -5  21   1 391.410 45.6100   1
  -5 -21   1 387.310 28.3100   1
   5  21  -1 440.050 29.1600   1
  -3  18  -3 44.8600 20.1800   1
  -3 -18  -3 38.9800 16.8600   1
   3 -18   3 54.8300 30.2900   1
   3  18   3 50.2700 14.3700   1
   3  18   3 -9.0900 17.7300   1
  -5  -1  -2 -8.4000 19.3700   1
  -5   1  -2 -24.040 18.1700   1
  -5  -1  -2 34.6900 23.9200   1
  -5   1  -2 -13.450 27.6400   1
   5  -1   2 -3.7300 24.9300   1
   5   1   2 -42.890 18.5800   1
   1 -26  -4 44.7000 17.5200   1
   1 -26  -4 25.2200 12.4700   1
  -1 -26   4 12.8900 18.7300   1
   1  26  -4 38.1900 13.8000   1
  -1 -26   4 -23.050 19.6400   1
  -4 -17  -2 416.430 32.9700   1
   4  17   2 399.270 28.8600   1
   4  17   2 464.080 30.5000   1
  -4  17  -2 506.180 39.6100   1
   4 -17   2 418.890 32.9100   1
   0  10   6 991.770 58.0600   1
   0  10   6 1063.01 52.8200   1
   0 -10  -6 972.560 48.6300   1
   0 -10  -6 929.410 49.0100   1
   0 -10   6 1088.13 63.2300   1
   0 -10   6 1229.53 69.9100   1
   0  10  -6 1061.02 54.2400   1
   0  10  -6 1059.75 55.2700   1
   2 -30  -2 7.96000 20.4800   1
   2 -30  -2 -7.6100 24.2100   1
   2 -30  -2 21.2100 17.8300   1
   2  30  -2 8.39000 11.4800   1
  -2 -30   2 23.5300 18.2600   1
  -2 -30   2 15.8500 13.6200   1
   5 -22  -3 13.1800 21.5700   1
  -5 -22   3 6.06000 14.8500   1
   5  22  -3 -8.6600 10.4600   1
   5  22  -3 24.0100 15.6600   1
   4 -21  -5 191.650 24.4900   1
   4  21  -5 212.730 23.3800   1
   0 -28  -3 470.560 32.8800   1
   0 -28  -3 479.320 29.0600   1
   0 -28   3 508.270 40.8500   1
   0 -28   3 503.730 34.0300   1
   0  28  -3 562.990 32.2300   1
   5  18  -5 555.450 30.0200   1
   5  18  -5 498.990 34.8400   1
  -1 -22  -4 -7.2500 14.0100   1
  -1 -22  -4 11.5600 13.1300   1
   1  22   4 -0.2700 14.0700   1
   1  22   4 23.8100 21.9200   1
   1 -22   4 40.6000 30.2000   1
   1 -22   4 28.0500 36.1500   1
   1 -22   4 11.2800 19.1700   1
  -5   2  -2 153.040 26.7700   1
   5   2   2 182.890 30.6200   1
   5  -2   2 100.850 30.9000   1
  -5  -2  -2 104.730 25.7500   1
  -5   2  -2 234.550 29.7600   1
  -2  -3   7 441.960 40.1000   1
   2   3  -7 458.690 30.5000   1
   2  -3  -7 501.820 30.3900   1
   2  -3  -7 461.080 29.6800   1
   2   3  -7 442.800 29.5700   1
   2 -17  -6 94.2900 20.4700   1
   2 -17  -6 102.800 16.5500   1
  -2  17   6 123.130 23.5100   1
   2  17  -6 160.340 20.2200   1
  -2 -17   6 108.440 15.8700   1
  -2 -17   6 125.670 23.7900   1
   5 -13  -6 514.480 30.2700   1
   5  13  -6 503.390 25.7400   1
   3  26   1 218.380 24.7600   1
  -3 -26  -1 173.520 26.2000   1
  -3 -26  -1 176.610 20.9900   1
   3  26   1 273.010 25.6300   1
   3 -26   1 208.940 25.9400   1
   3 -26   1 184.750 39.3100   1
  -3 -23  -2 277.070 17.4000   1
   3  23   2 291.410 25.1600   1
   3  23   2 317.050 24.2700   1
   3 -23   2 332.620 39.9900   1
   3 -23   2 347.320 26.4500   1
  -3  23  -2 290.570 39.2300   1
  -1  15   6 -4.9100 14.0200   1
   1 -15  -6 -1.7800 9.66000   1
   1 -15  -6 9.64000 12.1300   1
   1  15  -6 20.2900 13.5300   1
  -1 -15   6 -13.260 9.53000   1
  -1 -15   6 -57.290 26.1700   1
   6  -5  -6 381.500 25.6400   1
   6  -5  -6 394.130 25.4300   1
   6   5  -6 424.690 24.0500   1
   3   7  -7 600.860 38.0400   1
   3  -7  -7 674.420 39.8700   1
   3  -7  -7 707.200 46.2400   1
   3   7  -7 649.240 42.9900   1
   4 -24  -4 5.58000 17.5500   1
   4  24  -4 36.8900 15.6900   1
  -4 -24   4 -3.4200 20.6000   1
  -3   9  -4 32.6000 24.4700   1
   3  -9   4 46.3200 24.9800   1
  -3   9  -4 38.1300 18.7600   1
  -3  -9  -4 6.88000 13.2400   1
   3   9   4 42.2000 19.1800   1
  -1 -29  -2 54.6900 20.3000   1
  -1 -29  -2 60.8000 12.6200   1
   1  29   2 79.9100 20.8400   1
   1  29   2 56.1000 12.9100   1
  -1  29  -2 46.9800 16.7500   1
   1 -29   2 78.2000 20.7500   1
   1 -29   2 -20.370 43.5500   1
   1 -29   2 40.2200 23.6300   1
   2   6   5 686.900 44.6600   1
   2  -6   5 701.130 48.7100   1
  -2   6  -5 719.310 43.0100   1
  -2  -6  -5 757.020 40.0000   1
   5   3   2 310.720 31.9000   1
  -5  -3  -2 302.650 32.3000   1
  -5   3  -2 328.870 32.1700   1
   5  -3   2 323.060 29.2000   1
   4   6  -7 229.620 24.9700   1
   4  -6  -7 260.360 26.3500   1
  -7   0   3 1160.69 63.4600   1
   7   0  -3 1294.93 59.1800   1
   7   1  -3 18.9800 14.0700   1
   7  -1  -3 11.3000 14.2000   1
  -7   1   3 -12.560 30.4300   1
  -7  -1   3 18.3200 29.1900   1
  -2  -4   7 414.930 32.5800   1
   2   4  -7 466.030 28.9400   1
   2   4  -7 433.280 30.3700   1
   2  -4  -7 432.930 27.1000   1
   2  -4  -7 402.430 27.4500   1
  -6   8   0 229.950 32.3700   1
   6   8   0 165.160 22.5500   1
  -6  -8   0 255.570 32.7000   1
   6  -8   0 233.920 30.5800   1
  -6  -8   0 212.120 33.4200   1
   1 -22  -5 1117.10 56.0900   1
  -1  22   5 1314.83 64.0200   1
   1 -22  -5 1090.67 58.0200   1
  -1 -22   5 1220.23 71.0100   1
  -1 -22   5 1215.35 60.4600   1
   1  22  -5 1301.42 57.3900   1
  -2 -29  -1 34.0100 15.3200   1
   2  29   1 39.4600 23.4300   1
  -2 -29  -1 25.0100 13.6400   1
   2 -29   1 37.0400 22.7300   1
   2 -29   1 -22.620 32.5300   1
   2 -29   1 -2.7900 21.9100   1
   6  16  -2 -65.420 20.7400   1
   6  16  -2 -10.160 15.3000   1
   6  16  -2 21.3400 12.2400   1
  -6 -16   2 -10.550 22.9600   1
  -6  16   2 64.9800 49.0700   1
   6 -16  -2 -0.0900 23.0000   1
   1 -29  -3 -42.250 18.1200   1
   1 -29  -3 4.66000 11.3900   1
  -1 -29   3 23.1100 13.7400   1
   1  29  -3 14.7200 15.6800   1
  -7  -2   3 933.390 52.6600   1
  -7   2   3 948.430 56.4800   1
   7   2  -3 933.310 46.8000   1
   7  -2  -3 909.010 43.5800   1
   5 -21  -4 397.940 34.7700   1
   5  21  -4 418.740 25.5800   1
   5  21  -4 427.130 28.8300   1
  -5 -21   4 581.060 46.5500   1
  -3 -28   0 223.470 28.7900   1
   3  28   0 257.860 28.8000   1
  -3 -28   0 269.630 30.2800   1
   3  28   0 249.700 29.8700   1
   3 -28   0 165.930 28.1000   1
   3 -28   0 281.340 36.9400   1
   2 -23  -5 20.4800 14.1600   1
  -2  23   5 2.32000 21.4700   1
   2 -23  -5 8.96000 18.2100   1
   2  23  -5 -6.6900 15.2500   1
  -2 -23   5 17.3300 12.5500   1
   0 -32   0 2029.75 60.1600   1
   0 -32   0 1978.81 50.6700   1
   0  32   0 1656.19 42.0700   1
  -5   4  -2 266.680 31.4300   1
   5   4   2 221.350 31.8500   1
  -5  -4  -2 218.800 33.8600   1
   5  -4   2 353.150 29.8300   1
  -7   0   4 -15.780 29.7800   1
   7   0  -4 11.4200 15.7800   1
   5  19   0 11.9500 12.4700   1
  -5 -19   0 5.86000 23.9200   1
  -5  19   0 11.1500 36.3100   1
   5 -19   0 22.6400 30.5800   1
   4   9   3 660.260 40.0200   1
   4  -9   3 632.090 46.0300   1
  -4  -9  -3 601.220 36.5800   1
  -4   9  -3 630.170 47.5700   1
   4   9   3 621.730 37.9600   1
   7  -1  -4 51.7500 16.7200   1
   7   1  -4 -1.2000 12.6300   1
  -7   1   4 21.0600 28.8200   1
   7   1  -4 26.3700 12.5900   1
  -7  -1   4 96.9600 30.6400   1
   6   6  -6 44.0700 14.8500   1
   6  -6  -6 54.8300 11.7200   1
   6  -6  -6 57.1700 11.8000   1
  -7   3   3 216.320 36.4400   1
   7  -3  -3 267.720 32.0000   1
   7   3  -3 197.820 26.5600   1
  -7  -3   3 243.240 34.0500   1
   6 -13  -5 800.630 44.0500   1
  -6 -13   5 812.230 57.0000   1
   6  13  -5 661.670 32.0200   1
   6  13  -5 732.540 47.5800   1
   3 -26  -4 110.580 20.9900   1
   3 -26  -4 125.810 18.8700   1
  -3 -26   4 117.620 18.6300   1
   3  26  -4 109.160 17.7700   1
   2 -29  -3 242.150 31.0000   1
   2 -29  -3 259.330 29.5000   1
   2  29  -3 247.660 26.8100   1
  -2 -29   3 206.830 26.4600   1
  -7   2   4 96.9400 31.5200   1
  -7  -2   4 197.500 40.2900   1
   7   2  -4 177.780 20.8700   1
   7  -2  -4 170.040 21.4500   1
   7   2  -4 172.720 22.8200   1
   4 -26  -1 120.780 20.9900   1
   4  26  -1 117.030 20.9500   1
   4 -26  -1 163.440 28.3200   1
   4  26  -1 135.080 18.4400   1
  -4 -26   1 154.880 22.2000   1
  -2  -5   7 312.230 26.5100   1
   2  -5  -7 318.280 25.7000   1
   2   5  -7 304.320 23.5100   1
   2  -5  -7 300.780 22.4900   1
   2   5  -7 349.200 26.4500   1
   2  18   4 106.800 21.4000   1
   2  18   4 78.9200 23.1200   1
  -2 -18  -4 124.400 17.1800   1
  -2  18  -4 128.350 25.3100   1
   2 -18   4 109.320 20.5600   1
   2 -18   4 112.760 32.9900   1
   0 -25  -4 130.200 17.4800   1
   0 -25  -4 92.5900 18.7000   1
   0  25   4 45.0200 22.5400   1
   0 -25   4 150.310 22.7100   1
   0 -25   4 188.170 33.6100   1
   0  25  -4 111.810 17.3000   1
   2   7   5 828.970 53.0000   1
  -2   7  -5 825.230 46.6900   1
  -2  -7  -5 768.290 43.4300   1
   2  -7   5 734.300 52.0800   1
   2   7   5 875.870 46.6300   1
   3   8  -7 66.6900 14.3800   1
   3   8  -7 92.0300 14.7100   1
   3  -8  -7 80.5500 18.9800   1
   3  -8  -7 101.160 13.7700   1
   0 -11  -6 24.0100 16.1200   1
   0  11   6 19.1000 14.7500   1
   0 -11  -6 37.2600 13.4800   1
   0  11   6 30.3000 20.5200   1
   0 -11   6 44.7500 24.3800   1
   0  11  -6 49.2200 14.5100   1
   0  11  -6 26.3500 12.1000   1
   4  -7  -7 250.850 27.8700   1
   4   7  -7 236.820 25.1700   1
   3 -28  -3 37.3200 18.9400   1
  -3 -28   3 59.3700 18.9500   1
   3  28  -3 11.0800 14.4300   1
  -4 -22  -1 100.030 17.6500   1
   4  22   1 128.790 20.1800   1
   4  22   1 61.1400 26.3200   1
  -4  22  -1 125.070 41.7300   1
   4 -22   1 136.220 34.9700   1
  -6 -14   1 -22.680 27.0300   1
  -6 -14   1 -33.700 16.3000   1
   6  14  -1 -8.0600 20.5800   1
   6  14  -1 9.03000 13.0000   1
   6 -14  -1 19.2900 27.8800   1
  -6  14   1 23.0800 35.6100   1
   0 -20  -5 1397.42 68.7800   1
   0 -20  -5 1479.36 43.3800   1
   0  20   5 1555.68 53.3600   1
   0 -20   5 1434.50 76.9600   1
   0 -20   5 1302.74 64.1100   1
   0  20  -5 1477.74 44.2800   1
  -3 -29   1 28.8300 15.6500   1
   3  29  -1 -25.020 16.4800   1
   3 -29  -1 -17.260 23.8800   1
   3 -29  -1 14.2600 20.2400   1
   3  29  -1 18.7000 11.5500   1
  -3 -29   1 9.94000 16.3900   1
   6 -16  -4 -11.620 19.0800   1
   6  16  -4 -25.710 17.0900   1
   6  16  -4 1.98000 10.5600   1
  -6 -16   4 29.9600 28.5600   1
  -5   5  -2 102.920 29.4600   1
   5  -5   2 68.8200 30.4100   1
   5   5   2 103.670 21.0900   1
  -5  -5  -2 124.570 27.0000   1
   2 -27   2 41.1500 33.5800   1
   2 -27   2 74.8700 36.5100   1
  -2 -27  -2 14.0400 13.6400   1
   2  27   2 33.2000 23.4600   1
   2  27   2 6.87000 12.0500   1
  -2 -27  -2 -21.780 17.9800   1
   2 -27   2 12.3500 15.5100   1
  -7  -3   4 153.230 43.3800   1
  -7   3   4 165.900 35.1800   1
   7  -3  -4 110.370 18.2700   1
   7   3  -4 116.800 19.6100   1
   7   3  -4 137.720 18.2100   1
   7   4  -3 523.180 28.8800   1
  -7   4   3 525.430 41.8800   1
  -7  -4   3 630.120 41.2700   1
   7  -4  -3 549.720 31.7000   1
   6  17  -3 75.2300 16.7300   1
  -6 -17   3 30.5300 22.4500   1
   6  17  -3 50.7400 20.9900   1
   6 -17  -3 11.4300 21.9500   1
   3 -23  -5 673.000 41.5700   1
   3 -23  -5 694.820 43.0000   1
  -3 -23   5 666.000 42.1300   1
   3  23  -5 687.310 35.4500   1
   3 -18  -6 147.860 23.5300   1
  -3  18   6 167.260 23.9600   1
   3 -18  -6 141.440 20.2500   1
  -3 -18   6 135.900 20.5500   1
   3  18  -6 115.730 19.9500   1
   3 -29  -2 100.690 18.8600   1
   3 -29  -2 69.1000 18.6800   1
  -3 -29   2 149.370 24.8900   1
   3  29  -2 133.310 19.3000   1
  -3 -29   2 108.010 18.6400   1
  -3 -10  -4 563.890 33.4200   1
  -3  10  -4 639.240 45.0200   1
   3  10   4 647.340 39.9300   1
  -3  10  -4 618.420 45.6000   1
   3  10   4 567.680 37.0500   1
   3 -10   4 556.840 38.3900   1
  -1 -16  -5 13.7400 12.1700   1
   1  16   5 18.8900 15.2800   1
  -1  16  -5 10.2600 16.3200   1
   1 -16   5 -0.0400 16.6000   1
   1 -16   5 -9.3700 35.4900   1
   1 -16   5 7.68000 31.4600   1
   5  15   1 71.7700 16.4100   1
   5  15   1 102.760 23.0100   1
  -5 -15  -1 125.290 21.8500   1
   5 -15   1 80.4400 23.9200   1
  -5  15  -1 134.780 37.0400   1
   4 -26  -3 427.920 27.9000   1
   4 -26  -3 260.690 39.3600   1
  -4 -26   3 415.730 34.2100   1
   4  26  -3 348.100 25.1700   1
   4  26  -3 434.510 24.7900   1
  -1 -31  -1 57.5600 15.8400   1
  -1 -31  -1 48.9600 11.1300   1
   1 -31   1 44.3100 21.1200   1
   1 -31   1 23.0700 11.4100   1
  -1  31  -1 72.6200 15.4500   1
   1 -31   1 -5.4000 32.9400   1
   1 -31   1 51.3200 19.9500   1
  -6  -9   0 1216.67 70.6600   1
  -6  -9   0 1253.21 66.6500   1
  -6   9   0 1267.78 72.7000   1
   6   9   0 1196.74 57.2700   1
   6   9   0 1118.82 51.5600   1
   6  -9   0 1106.52 61.3800   1
   6  -7  -6 97.2000 17.5600   1
   6   7  -6 139.720 20.1000   1
   6  -7  -6 118.080 15.9900   1
   1 -31  -2 153.250 18.5500   1
   1 -31  -2 195.000 25.8100   1
   1  31  -2 181.000 20.9800   1
  -1 -31   2 215.650 29.0200   1
   4 -17  -6 396.180 32.4600   1
   4 -17  -6 323.430 27.7500   1
  -4  17   6 360.350 32.2300   1
   4  17  -6 351.050 20.5400   1
   2   6  -7 962.130 49.0400   1
   2   6  -7 837.690 41.1900   1
   2  -6  -7 891.010 49.1500   1
  -2  -6   7 832.050 49.4100   1
   2  -6  -7 865.040 45.3700   1
   5 -14  -6 44.3600 14.3800   1
   5  14  -6 52.0000 11.8000   1
  -7  -4   4 710.550 49.8100   1
   7  -4  -4 765.320 41.9800   1
   7   4  -4 691.740 34.9400   1
  -7   4   4 689.570 49.9700   1
   7   4  -4 675.420 33.5800   1
  -7  -5   3 188.420 29.3100   1
  -7   5   3 250.020 39.0300   1
   7  -5  -3 189.070 23.5300   1
   7   5  -3 179.920 22.0700   1
  -2 -31   1 526.890 33.2300   1
   2 -31  -1 499.580 38.1700   1
   2 -31  -1 438.300 39.9100   1
   2 -31  -1 395.700 54.9400   1
   2  31  -1 538.430 32.5400   1
  -2  31   1 476.760 34.9600   1
  -2 -31   1 529.790 36.0800   1
   2 -31  -1 483.500 31.2200   1
  -4 -10  -3 42.8000 23.0500   1
  -4  10  -3 82.8600 20.4400   1
   4  10   3 99.9600 24.0200   1
   4 -10   3 72.9100 33.2600   1
  -5   6  -2 38.6400 20.1400   1
   5  -6   2 6.86000 21.4300   1
   5   6   2 -23.140 16.9200   1
   5   6   2 -28.790 17.5800   1
  -5  -6  -2 -14.950 21.8700   1
  -4 -18  -2 1.37000 13.5900   1
   4 -18   2 51.1500 28.5600   1
   4  18   2 19.1600 17.2200   1
   4  18   2 21.2500 23.0400   1
  -4  18  -2 16.0200 20.9900   1
  -2 -27   4 451.130 30.1800   1
   2  27  -4 480.920 28.6600   1
   2 -27  -4 473.150 34.6400   1
   2 -27  -4 539.700 31.9600   1
   2   8   5 203.750 26.9700   1
   2   8   5 176.380 29.5700   1
   2  -8   5 170.820 37.9600   1
  -2  -8  -5 149.480 18.9400   1
  -2   8  -5 178.140 27.9600   1
   4  -8  -7 331.540 24.8900   1
   4   8  -7 306.310 19.5800   1
   1  16  -6 1424.73 69.5500   1
   1 -16  -6 1314.27 59.1300   1
  -1 -16   6 1298.60 65.8700   1
  -1 -16   6 1174.80 60.0900   1
  -1  16   6 1237.83 60.7200   1
   3  19   3 535.740 31.9300   1
  -3 -19  -3 545.650 30.7300   1
   3  19   3 511.820 32.7400   1
   3 -19   3 505.540 33.8300   1
  -3  19  -3 604.880 41.4300   1
   3 -19   3 478.450 39.9300   1
   3   9  -7 38.0900 13.6200   1
   3  -9  -7 46.9600 11.7600   1
   3  -9  -7 88.0900 16.3300   1
   3   9  -7 34.4800 10.4700   1
   2  18  -6 -2.3000 18.2200   1
  -2 -18   6 9.53000 12.7200   1
   2 -18  -6 -0.7600 11.5000   1
  -2 -18   6 39.1400 28.1400   1
  -2  18   6 16.0700 13.7500   1
   2 -18  -6 -4.8800 12.5200   1
   5  19  -5 927.780 51.0200   1
   5 -19  -5 877.130 48.4400   1
   5  19  -5 995.580 44.7700   1
   0 -32   1 151.130 24.5300   1
   0 -32  -1 134.410 19.6700   1
   0  32  -1 167.140 22.6000   1
   0 -32  -1 215.820 26.0200   1
   0 -32   1 128.510 16.7600   1
   7   5  -4 262.340 29.4000   1
   7  -5  -4 272.710 22.7000   1
   7   5  -4 261.690 28.8000   1
  -7   5   4 234.050 39.8500   1
  -7  -5   4 322.980 33.3600   1
   4  25   0 35.5600 18.4700   1
   4 -25   0 28.5000 20.0500   1
  -4 -25   0 40.5400 20.1500   1
   4 -25   0 77.5700 23.9700   1
   4  25   0 31.2800 12.7100   1
  -1 -32   0 -1.1600 9.22000   1
  -1 -32   0 -21.970 13.9900   1
   1 -32   0 21.7300 15.2900   1
  -1  32   0 19.2000 11.9600   1
   1  32   0 9.54000 8.10000   1
   1 -32   0 6.53000 8.98000   1
  -5 -23   2 27.0500 19.8100   1
   5  23  -2 -15.910 15.8700   1
  -5 -23   2 -5.9900 22.4600   1
   5  23  -2 7.58000 12.9900   1
   5 -23  -2 -0.7800 27.9100   1
   5   0  -7 79.1500 15.8000   1
   1 -32  -1 746.200 46.9400   1
   1  32  -1 722.660 35.7600   1
  -1 -32   1 667.490 38.4500   1
   1 -32  -1 688.260 40.0800   1
  -1 -32   1 533.770 32.9700   1
   5 -22  -1 461.730 39.5700   1
   5  22  -1 501.900 29.3000   1
   5  22  -1 464.230 34.9000   1
  -5 -22   1 525.710 40.4700   1
   5  22  -1 455.740 34.2600   1
   5  -1  -7 -8.6800 12.8500   1
   5   1  -7 -6.3000 12.9000   1
   2   7  -7 233.100 25.1800   1
   2   7  -7 238.580 27.9900   1
   2  -7  -7 246.560 27.6400   1
   2  -7  -7 200.970 23.6500   1
  -2  -7   7 207.270 28.2700   1
   0 -12   6 815.680 61.2300   1
   0  12  -6 831.130 48.6300   1
   0 -12  -6 661.350 36.0500   1
   0  12   6 954.600 49.3600   1
   0  12   6 767.660 60.9900   1
   0  12  -6 760.740 46.4400   1
   0 -12  -6 804.400 39.2100   1
   4  22  -5 775.690 36.3900   1
  -4 -22   5 820.730 44.8700   1
   4 -22  -5 694.770 42.9300   1
   7   6  -3 162.350 23.9100   1
   7  -6  -3 180.270 25.5800   1
  -7  -6   3 186.210 29.1400   1
  -7   6   3 164.770 36.1300   1
   6  14  -5 -3.3100 15.3900   1
  -6 -14   5 23.0400 33.4800   1
   6  14  -5 -7.0300 14.7600   1
   6 -14  -5 24.2100 16.5300   1
   6  -8  -6 167.550 19.8200   1
   6  -8  -6 212.130 22.6200   1
   6   8  -6 208.340 22.2500   1
   6  17  -2 97.6800 19.6000   1
   6  17  -2 124.680 21.2600   1
  -6 -17   2 93.0300 20.4800   1
  -6  17   2 137.590 38.7000   1
   6  17  -2 77.1300 14.8900   1
   6 -17  -2 135.930 24.0600   1
   5   2  -7 224.560 24.8200   1
   5  -2  -7 199.300 23.3800   1
   2  24   3 777.410 44.3100   1
   2  24   3 833.990 47.3400   1
   2 -24   3 775.840 55.0300   1
   2 -24   3 768.200 59.7600   1
   2 -24   3 835.360 48.2800   1
  -2 -24  -3 745.250 36.5900   1
  -2  24  -3 752.950 67.6400   1
  -5 -23   3 183.970 29.2600   1
   5  23  -3 223.250 30.9700   1
   5  23  -3 159.530 26.3100   1
   5 -23  -3 191.150 27.8200   1
   1 -27   3 144.370 45.9500   1
   1  27   3 62.1400 14.0200   1
   1  27   3 67.8500 19.5000   1
   1 -27   3 79.3800 25.3600   1
  -1  27  -3 69.5400 15.4000   1
  -1 -27  -3 82.4000 16.1900   1
   1 -27   3 92.0900 17.9900   1
  -1 -27  -3 80.5300 17.7600   1
   3 -11   4 57.0100 24.9600   1
  -3 -11  -4 46.7100 17.6000   1
  -3  11  -4 4.73000 19.3000   1
   3  11   4 -5.6300 23.9300   1
  -6 -10   0 75.5300 19.3600   1
  -6 -10   0 90.5700 26.0500   1
   6 -10   0 74.7600 21.7600   1
  -6  10   0 72.6700 29.7700   1
   6  10   0 35.8200 16.0400   1
   1 -23   4 598.320 38.0700   1
  -1 -23  -4 539.340 35.0000   1
  -1 -23  -4 561.580 30.3300   1
  -1  23  -4 594.590 33.2300   1
   1  23   4 544.090 33.7500   1
   1 -23   4 619.410 48.1600   1
   1 -23   4 538.070 49.2500   1
  -5   7  -2 -13.380 26.6600   1
  -5  -7  -2 70.1200 26.0500   1
   5  -7   2 4.94000 21.5400   1
   5   7   2 -7.7200 16.8200   1
   5   7   2 -6.7300 25.5500   1
   5   3  -7 -19.000 14.7500   1
   5  -3  -7 12.6500 12.5100   1
  -4 -27   2 737.080 49.0500   1
   4 -27  -2 641.090 41.6100   1
   4 -27  -2 464.360 51.5200   1
   4  27  -2 610.050 35.1600   1
   4  27  -2 613.470 34.7700   1
  -4 -27   2 668.590 43.6700   1
   6 -15  -1 -30.170 25.6000   1
   6  15  -1 4.89000 15.9700   1
   6  15  -1 20.1200 21.5200   1
  -6 -15   1 -13.540 19.1100   1
  -6 -15   1 16.0300 16.4500   1
  -6  15   1 -2.6300 30.4100   1
   7   6  -4 11.3100 17.7200   1
   7   6  -4 73.9000 19.1700   1
  -7  -6   4 -27.670 24.4900   1
  -7   6   4 3.19000 41.9300   1
   7  -6  -4 13.5300 19.5300   1
   0 -31  -2 -22.530 13.5100   1
   0 -31  -2 4.41000 19.9100   1
   0 -31   2 -71.670 25.4100   1
   0 -31   2 19.6500 18.2800   1
   3  24   2 1284.47 59.6900   1
  -3  24  -2 1303.00 89.9900   1
  -3 -24  -2 1301.87 56.9900   1
   3 -24   2 1272.17 62.4800   1
   3  24   2 1286.56 63.1600   1
   3 -24   2 1357.55 73.0600   1
   7   0  -2 7.64000 14.7500   1
  -7   0   2 -13.260 27.3700   1
   2   9   5 644.860 42.1600   1
   2   9   5 523.670 33.8100   1
  -2  -9  -5 450.160 25.4200   1
  -2   9  -5 544.940 38.2000   1
   2  -9   5 648.660 47.1200   1
  -1 -27   4 13.1500 23.8000   1
  -1 -27   4 2.66000 12.8200   1
   1  27  -4 7.40000 12.0900   1
   1 -27  -4 16.3400 16.2200   1
   1 -27  -4 1.72000 17.6200   1
   4  -9  -7 457.640 27.8600   1
   4   9  -7 449.890 29.1900   1
   7   1  -2 156.340 26.0700   1
  -7  -1   2 126.750 31.1100   1
  -7   1   2 142.520 33.8100   1
   7  -1  -2 139.380 23.2000   1
  -5 -20   0 1072.16 56.3500   1
   5  20   0 1122.44 55.5400   1
  -5  20   0 1087.10 69.0500   1
   5  20   0 1146.91 56.3500   1
   5 -20   0 1068.50 65.8500   1
   4  25  -4 525.900 29.9900   1
   4 -25  -4 466.490 32.4500   1
  -4 -25   4 567.320 34.7100   1
  -4 -11  -3 354.400 28.0200   1
  -4  11  -3 343.300 30.4600   1
   4 -11   3 299.260 30.0400   1
   4  11   3 350.690 29.0900   1
   4  11   3 297.880 25.1100   1
   1 -23  -5 274.710 24.0500   1
   1 -23  -5 295.440 20.7400   1
  -1  23   5 304.530 24.9500   1
   1  23  -5 263.060 28.2900   1
  -1 -23   5 221.050 36.7900   1
  -1 -23   5 249.100 29.7000   1
  -6 -17   4 1431.39 72.9900   1
   6 -17  -4 1285.98 64.6300   1
   6  17  -4 1293.01 70.8400   1
   6  17  -4 1207.72 53.1600   1
  -5 -22   4 195.730 32.4100   1
   5 -22  -4 158.490 22.1400   1
   5  22  -4 155.930 20.9500   1
   5  22  -4 193.050 24.8600   1
   5 -22  -4 168.360 25.2500   1
  -2 -19  -4 193.800 22.0100   1
   2  19   4 232.970 29.5400   1
  -2  19  -4 222.330 34.1300   1
   2  19   4 205.600 32.3000   1
   2 -19   4 150.550 30.5400   1
   2 -19   4 180.520 22.4600   1
  -7   2   2 2.01000 22.9600   1
  -7  -2   2 12.4600 26.7200   1
   7  -2  -2 -5.6800 14.9000   1
   7   2  -2 10.8200 14.8000   1
  -3 -27  -1 164.500 22.6100   1
  -3 -27  -1 181.820 21.2100   1
   3  27   1 257.530 33.7000   1
   3  27   1 203.160 22.7700   1
   3 -27   1 225.820 38.3700   1
   3 -27   1 157.560 27.1700   1
   3 -10  -7 7.18000 8.55000   1
   3 -10  -7 -6.6700 13.3200   1
   3  10  -7 19.3800 11.6500   1
   3  10  -7 -8.6200 12.1700   1
   5   4  -7 122.550 16.1900   1
   5  -4  -7 92.8400 13.7200   1
   5  16   1 -8.6900 13.7100   1
   5  16   1 23.1900 21.4500   1
  -5 -16  -1 -5.2000 24.5400   1
   5 -16   1 -10.670 27.7300   1
  -5  16  -1 25.9000 30.0100   1
  -2 -31   0 20.0200 13.1100   1
   2 -31   0 35.5900 17.1400   1
   2 -31   0 14.8900 35.8700   1
   2 -31   0 11.1100 18.9700   1
   2 -31   0 9.27000 10.6700   1
  -2  31   0 1.81000 12.8600   1
   2  31   0 14.2500 11.3300   1
  -2 -31   0 31.4200 14.9400   1
   7   7  -3 85.3600 20.1300   1
   7  -7  -3 74.0300 22.2100   1
  -7   7   3 88.9900 32.2200   1
  -7  -7   3 132.080 30.4000   1
   2   8  -7 844.220 44.5400   1
   2  -8  -7 795.730 45.0200   1
  -2  -8   7 910.060 50.6700   1
   2  -8  -7 838.110 45.7800   1
   2   8  -7 846.780 41.6600   1
   0 -29  -3 18.2000 11.5400   1
   0  29  -3 28.1200 13.0400   1
   0 -29   3 19.0200 14.5400   1
   0 -29  -3 29.8500 19.8200   1
   0 -29   3 38.1900 22.5900   1
   1 -17   5 499.290 44.5500   1
   1 -17   5 601.630 60.3700   1
  -1 -17  -5 607.160 31.9900   1
   1 -17   5 585.690 35.2300   1
  -1  17  -5 588.280 52.8200   1
   1  17   5 631.020 38.8800   1
   1  17   5 629.370 47.8200   1
   5  15  -6 146.120 19.9800   1
   5 -15  -6 134.270 18.7900   1
   5 -15  -6 132.740 21.2400   1
  -6 -18   3 272.870 26.2500   1
   6  18  -3 221.070 24.9900   1
   6 -18  -3 241.590 30.9900   1
   6  18  -3 220.920 30.1600   1
  -2  24   5 311.830 25.1000   1
   2 -24  -5 285.520 22.6800   1
   2 -24  -5 252.900 30.0300   1
   2  24  -5 258.410 26.7500   1
  -2 -24   5 269.340 28.3000   1
   2  31  -2 64.1400 15.2300   1
   2 -31  -2 47.8000 14.7300   1
  -2 -31   2 28.0300 20.4800   1
   2 -31  -2 65.5500 21.5300   1
  -7   3   2 16.7400 24.3400   1
   7   3  -2 22.4800 15.3100   1
   7  -3  -2 35.7600 19.9800   1
  -7  -3   2 100.150 28.8400   1
   6  -9  -6 -0.1100 12.7800   1
   6  -9  -6 20.6000 11.2800   1
   6   9  -6 11.2800 13.8300   1
   3 -19  -6 11.7000 17.5800   1
   3 -19  -6 -9.4100 12.1600   1
   3  19  -6 10.0800 14.4600   1
   5   8   2 168.870 25.0900   1
   5   8   2 124.310 21.8000   1
   5  -8   2 85.4100 33.2800   1
  -5  -8  -2 103.370 26.8300   1
  -5   8  -2 100.290 22.0800   1
   0  21   5 121.750 32.0800   1
   0 -21  -5 105.380 19.7800   1
   0  21  -5 127.820 23.2900   1
   0 -21  -5 95.4200 18.1500   1
   0 -21   5 120.400 20.8700   1
   0 -21   5 120.820 27.8800   1
   7   7  -4 742.970 34.9900   1
  -7   7   4 702.110 57.7200   1
   7   7  -4 653.530 34.4900   1
  -7  -7   4 613.250 47.1700   1
   7  -7  -4 691.600 38.4700   1
   4  18  -6 85.6500 14.1400   1
   4 -18  -6 57.1800 16.9000   1
   5   5  -7 9.97000 10.9100   1
   5  -5  -7 6.67000 11.8400   1
  -1 -30  -2 631.450 34.8200   1
  -1  30  -2 551.350 35.6800   1
  -1 -30  -2 623.990 36.6800   1
   1 -30   2 620.630 36.2900   1
   1 -30   2 708.470 61.6900   1
   1 -30   2 523.000 47.1200   1
   1  30   2 664.030 37.9400   1
   1  30   2 566.210 34.5400   1
   4  23   1 26.1700 12.3700   1
  -4 -23  -1 16.4300 14.4900   1
  -4  23  -1 71.8700 31.4200   1
   4 -23   1 13.9700 23.4700   1
   4  23   1 4.29000 22.1300   1
  -6  11   0 545.670 42.7000   1
   6 -11   0 692.370 45.6000   1
   6  11   0 634.470 33.6200   1
   6  11   0 603.790 37.8300   1
  -6 -11   0 650.970 39.2700   1
  -6 -11   0 666.440 40.1300   1
   7  -4  -2 283.560 21.3000   1
   7   4  -2 289.240 26.5500   1
  -7   4   2 201.190 32.2900   1
  -7  -4   2 362.080 33.1400   1
   0 -13  -6 13.4800 11.4800   1
   0 -13  -6 7.91000 10.8300   1
   0  13   6 8.45000 14.3100   1
   0  13  -6 -20.990 13.6300   1
   0 -13   6 -27.000 28.4500   1
   3  12   4 341.490 28.7700   1
  -3  12  -4 318.830 32.7400   1
   3 -12   4 341.110 41.1100   1
   3  12   4 405.720 29.5300   1
  -3 -12  -4 390.250 23.4500   1
   1  17  -6 45.8700 15.2100   1
   1 -17  -6 8.97000 12.2200   1
  -1  17   6 -11.470 20.9700   1
  -1 -17   6 5.07000 30.5900   1
  -1 -17   6 25.8100 13.9400   1
   3  29   0 25.0500 22.1700   1
   3  29   0 13.7200 13.7800   1
   3 -29   0 34.4500 27.6700   1
  -3 -29   0 57.0500 17.3600   1
   3 -29   0 75.9000 18.3000   1
  -3 -29   0 42.3700 16.1400   1
   2 -30   1 336.910 32.7100   1
  -2 -30  -1 386.400 23.1600   1
  -2 -30  -1 419.860 27.5700   1
   2 -30   1 448.540 29.8000   1
   2 -30   1 500.380 65.9700   1
   2 -30   1 369.400 45.4600   1
   2  30   1 524.380 32.4500   1
   0 -26  -4 701.930 40.7900   1
   0 -26   4 755.410 40.8300   1
   0 -26  -4 666.620 36.9300   1
   0 -26   4 783.520 52.4000   1
   0  26  -4 776.520 40.0200   1
   0  26   4 748.490 43.5000   1
   3 -27  -4 27.1300 17.7500   1
  -3 -27   4 19.7500 14.0600   1
   3 -27  -4 8.12000 13.3400   1
  -1 -30   3 10.0700 19.1100   1
   1 -30  -3 -13.210 10.7800   1
   1 -30  -3 -27.720 13.0500   1
   1  30  -3 19.6400 16.0000   1
  -2 -10  -5 123.090 17.5800   1
  -2  10  -5 164.910 25.4700   1
   2  10   5 187.560 24.2100   1
   2 -10   5 182.180 36.4300   1
   2  10   5 172.430 42.8200   1
  -4 -19  -2 510.770 30.7800   1
   4  19   2 571.390 35.1500   1
   4  19   2 439.920 33.5600   1
  -4  19  -2 519.980 40.7400   1
   4 -19   2 509.560 39.1400   1
   3 -24  -5 284.000 28.2400   1
   3 -24  -5 300.710 31.4100   1
  -3 -24   5 319.650 22.7500   1
   3  24  -5 268.680 19.5900   1
  -4 -27   1 240.970 23.8100   1
   4  27  -1 307.970 21.3500   1
   4  27  -1 218.000 26.4100   1
   4 -27  -1 280.480 30.5500   1
   4 -27  -1 300.770 29.2600   1
  -4 -27   1 282.440 24.2400   1
   7   0  -5 73.0300 15.2300   1
  -7   0   5 -38.700 48.4700   1
   7   0  -5 84.5600 17.7600   1
   4  10  -7 207.150 19.4200   1
   4 -10  -7 239.660 22.1400   1
   1   0   6 40.0300 32.1700   1
   1   0   6 1.76000 39.1300   1
  -1   0  -6 -3.4900 10.1400   1
   7  -8  -3 -0.7000 20.9700   1
  -7   8   3 69.4600 40.5300   1
   7   8  -3 7.21000 17.5800   1
  -7  -8   3 14.6000 29.8900   1
   7   8  -3 40.4500 16.7500   1
   7  -1  -5 54.9500 16.6800   1
  -7  -1   5 5.52000 40.0700   1
   7  -1  -5 53.8500 17.3300   1
   7   1  -5 44.4800 15.6800   1
   7   1  -5 42.6900 15.0500   1
  -7   1   5 112.980 36.4100   1
  -1   1  -6 15.0300 12.6400   1
  -1  -1  -6 9.43000 12.7500   1
   1   1   6 19.2900 40.2300   1
   1  -1   6 12.4100 30.6900   1
   1  -1   6 11.4500 22.0500   1
   1   1   6 21.8100 20.9200   1
   6 -15  -5 253.490 54.4400   1
   6  15  -5 196.920 21.1400   1
  -6 -15   5 219.630 38.6000   1
   6  15  -5 277.520 17.7600   1
  -2  -9   7 3.59000 17.6500   1
   2   9  -7 -9.5900 12.2100   1
   2  -9  -7 -17.600 11.1400   1
   2   9  -7 -9.7600 10.9000   1
  -2  19   6 85.3200 20.3400   1
   2 -19  -6 78.6100 15.2700   1
   2 -19  -6 65.8300 16.6600   1
  -2 -19   6 88.3700 13.5600   1
   2  19  -6 78.1400 14.4700   1
  -2 -19   6 66.7500 20.8200   1
   3  20   3 770.750 41.6700   1
  -3 -20  -3 864.940 41.7500   1
   3  20   3 898.950 52.4200   1
   3 -20   3 784.810 46.9500   1
   3 -20   3 858.210 49.4500   1
  -3  20  -3 883.600 54.0600   1
   7   2  -5 43.5800 12.3700   1
   7  -2  -5 42.9700 14.8400   1
   7   2  -5 28.3300 15.2700   1
  -7   2   5 40.0600 34.9700   1
  -7  -2   5 15.4500 32.3200   1
   7  -2  -5 41.4200 15.0000   1
  -1   2  -6 179.640 18.1700   1
  -1  -2  -6 151.900 17.9900   1
   1   2   6 232.850 37.1500   1
   1  -2   6 195.630 36.7300   1
   1  -2   6 208.170 28.0700   1
   1   2   6 189.430 30.4200   1
   5   6  -7 20.0300 14.8300   1
   5  -6  -7 3.36000 9.75000   1
  -7  -5   2 71.2500 21.3300   1
   7  -5  -2 53.7000 22.7600   1
   7   5  -2 34.1700 18.6200   1
  -7   5   2 55.8900 27.7000   1
   3  11  -7 150.620 16.6800   1
   3  11  -7 100.840 14.2700   1
   3 -11  -7 108.740 18.8600   1
   3 -11  -7 102.250 13.1700   1
   2  30  -3 -1.8100 13.8200   1
   2 -30  -3 14.2100 17.0300   1
   2 -30  -3 -7.1500 13.5800   1
  -2 -30   3 -29.050 18.8200   1
   5  20  -5 14.9100 16.5700   1
   5 -20  -5 24.7300 13.3300   1
   5  20  -5 22.9900 13.6500   1
   4  12   3 21.7200 20.0100   1
   4 -12   3 57.0500 25.9100   1
  -4  12  -3 -12.440 17.3600   1
  -4 -12  -3 -4.2500 14.3900   1
   3  29  -3 31.6500 10.3700   1
  -3 -29   3 65.5800 19.1100   1
   3 -29  -3 44.9300 14.9700   1
   3 -29  -3 21.7300 17.3200   1
   2 -28   2 576.040 69.1300   1
   2  28   2 724.620 38.0900   1
   2  28   2 683.350 40.6800   1
   2 -28   2 734.360 52.2300   1
  -2 -28  -2 728.480 34.6400   1
  -2 -28  -2 809.120 59.1000   1
   2 -28   2 767.130 45.6900   1
   0 -33   0 19.8700 17.7900   1
   0  33   0 8.48000 10.8600   1
   0 -33   0 2.04000 9.04000   1
  -7  -8   4 14.5800 31.4100   1
   7   8  -4 12.3700 12.6400   1
   7  -8  -4 18.2600 23.7900   1
   7   8  -4 5.01000 12.4500   1
  -7   8   4 -24.810 33.7300   1
  -5   9  -2 57.0100 26.7600   1
  -5  -9  -2 110.750 23.7300   1
   5  -9   2 69.6100 23.0800   1
   5   9   2 105.560 19.2700   1
   5   9   2 48.0800 24.4900   1
   6  18  -2 24.5400 20.6500   1
   6  18  -2 -6.6700 15.4100   1
   6 -18  -2 -22.700 23.3000   1
   6  18  -2 6.75000 11.7900   1
  -6 -18   2 41.3700 20.6800   1
  -6  18   2 -29.930 49.2200   1
   4  27  -3 316.920 24.3600   1
   4  27  -3 359.020 24.5300   1
  -4 -27   3 334.520 27.2600   1
   4 -27  -3 359.570 32.3000   1
   6 -10  -6 236.370 24.3900   1
   6 -10  -6 251.110 21.7600   1
   6  10  -6 251.430 20.0400   1
   7   3  -5 115.820 19.2100   1
   7  -3  -5 110.160 18.9300   1
   7   3  -5 129.080 18.2000   1
   7  -3  -5 106.220 14.4300   1
  -7  -3   5 117.770 43.6700   1
  -1  -3  -6 -9.0800 12.6200   1
   1   3   6 -51.850 41.5900   1
   1  -3   6 -68.250 38.8500   1
   1  -3   6 113.190 33.4800   1
   1   3   6 33.3000 25.3000   1
  -1   3  -6 12.3800 12.9300   1
  -3 -30   1 80.8100 20.1500   1
  -3 -30   1 122.060 18.1800   1
   3  30  -1 114.480 19.7700   1
   3 -30  -1 92.3900 25.9000   1
   3 -30  -1 84.0900 21.6800   1
   3  30  -1 117.460 14.5200   1
  -6  16   1 31.4900 39.7700   1
   6  16  -1 38.9100 17.3200   1
  -6 -16   1 24.3000 24.9500   1
   6  16  -1 16.9700 17.9700   1
   6 -16  -1 25.5200 24.5400   1
  -6 -16   1 25.7900 23.7500   1
   3 -30  -2 39.8400 19.3700   1
   3 -30  -2 55.9000 22.9600   1
   3  30  -2 70.8800 11.9500   1
  -3 -30   2 114.370 20.9300   1
  -3 -30   2 112.360 19.5500   1
   1   0  -7 158.030 20.1100   1
   1   0  -7 169.310 19.1300   1
  -1   0   7 193.060 27.7900   1
  -1   1   7 198.220 27.7000   1
  -1  -1   7 232.880 31.8900   1
   1  -1  -7 255.200 54.1200   1
   1   1  -7 256.550 55.2600   1
   1  -1  -7 287.250 21.8200   1
   1   1  -7 283.130 23.7000   1
   5  23  -1 523.980 29.8400   1
  -5 -23   1 404.210 36.3500   1
   5  23  -1 404.980 28.2500   1
   5  23  -1 490.880 27.3900   1
   5 -23  -1 500.420 41.5600   1
   5  24  -2 523.430 32.5800   1
   5  24  -2 528.720 31.2000   1
  -5 -24   2 391.480 32.9000   1
  -5 -24   2 571.860 42.7800   1
   5 -24  -2 507.100 39.3500   1
  -7  -4   5 113.960 40.0200   1
   7   4  -5 45.3700 15.4600   1
   7   4  -5 62.6000 18.0600   1
   7  -4  -5 28.1200 16.8500   1
   7  -4  -5 84.3100 13.6800   1
  -7   6   2 836.030 52.3800   1
  -7  -6   2 799.080 43.6100   1
   7  -6  -2 820.820 44.1600   1
   7   6  -2 794.220 38.4900   1
   1  -4   6 367.590 32.9300   1
   1  -4   6 329.600 47.2800   1
   1   4   6 329.900 38.0100   1
  -1  -4  -6 317.320 24.0300   1
   1   4   6 304.320 29.0900   1
  -1   4  -6 300.840 22.6500   1
   1  -2  -7 272.480 23.0300   1
   1  -2  -7 296.620 20.3400   1
  -1  -2   7 288.800 29.6400   1
   1   2  -7 243.910 21.6300   1
  -1   2   7 201.130 24.3200   1
   1   2  -7 279.080 23.4300   1
   4 -23  -5 283.600 23.2000   1
   4  23  -5 266.960 17.7200   1
  -4 -23   5 260.320 55.6800   1
  -7   9   3 55.8600 44.6400   1
   7   9  -3 47.1600 16.9000   1
  -7  -9   3 9.90000 20.8600   1
   7  -9  -3 24.7200 19.6000   1
   7   9  -3 30.4800 15.6600   1
  -2 -28   4 451.990 30.6800   1
   2 -28  -4 401.570 26.2800   1
   2  28  -4 452.010 27.1100   1
   2 -28  -4 443.310 31.5900   1
   5  -7  -7 -5.0300 9.94000   1
   5   7  -7 12.4700 10.5600   1
   5  -7  -7 21.4100 13.4800   1
   5  17   1 -13.270 24.0400   1
  -5 -17  -1 -18.350 16.1200   1
   5  17   1 -35.260 17.0700   1
  -5  17  -1 127.090 32.2300   1
   5 -17   1 -21.150 27.5700   1
  -1  32  -1 1496.61 61.6700   1
   1 -32   1 1650.29 75.8600   1
   1 -32   1 1313.51 84.2000   1
   1 -32   1 1642.74 92.3500   1
  -1 -32  -1 1578.13 63.9500   1
  -1 -32  -1 1409.45 66.1400   1
   5 -16  -6 64.4400 17.5900   1
   5  16  -6 25.4200 14.2900   1
   6  12   0 275.000 21.9200   1
  -6 -12   0 239.720 26.7500   1
  -6  12   0 282.080 31.6500   1
   6 -12   0 247.320 32.6800   1
   6  12   0 250.090 48.3300   1
  -6 -12   0 316.400 32.6700   1
  -6 -18   4 40.4300 25.2100   1
   6  18  -4 -11.170 12.6300   1
   6 -18  -4 -0.3500 22.4300   1
   6  18  -4 22.2500 15.5900   1
   4  26   0 795.700 42.1100   1
   4  26   0 847.090 44.5400   1
   4 -26   0 789.050 55.4800   1
   4 -26   0 829.670 47.3800   1
  -4 -26   0 888.870 50.8500   1
   2 -11   5 330.590 39.2800   1
  -2  11  -5 335.130 29.2200   1
   2  11   5 336.170 31.2200   1
   2  11   5 324.530 26.3700   1
   2  11   5 270.390 40.5900   1
   2 -11   5 290.160 23.9600   1
  -2 -11  -5 302.620 20.0200   1
  -5 -24   3 35.4800 19.3600   1
   5  24  -3 49.5200 11.2900   1
   5  24  -3 60.6100 23.2600   1
   5 -24  -3 23.0700 17.8100   1
   5 -24  -3 36.9700 19.5200   1
   1 -32  -2 62.3200 12.1700   1
   1 -32  -2 87.1700 20.6600   1
   1  32  -2 84.4700 12.0600   1
  -1 -32   2 75.6700 16.1300   1
   4  11  -7 1042.95 45.1700   1
   4 -11  -7 941.320 52.5800   1
   1  -3  -7 433.770 25.2400   1
   1   3  -7 453.930 27.4600   1
   1  -3  -7 393.730 25.2400   1
   1   3  -7 441.300 27.9200   1
  -1   3   7 407.360 33.6400   1
  -1  -3   7 420.430 36.3100   1
   1 -18   5 81.8100 33.0000   1
   1 -18   5 47.9400 36.1900   1
   1 -18   5 19.1900 12.4400   1
  -1 -18  -5 59.6900 12.6700   1
   1  18   5 84.5700 23.9600   1
   2  10  -7 161.660 17.6700   1
   2 -10  -7 166.860 16.8800   1
   2  10  -7 124.040 12.9400   1
  -2 -10   7 130.080 26.2000   1
  -1 -24  -4 759.970 37.5300   1
  -1  24  -4 800.290 40.6800   1
   1  24   4 738.260 41.0000   1
   1 -24   4 747.490 54.2200   1
   1 -24   4 811.940 64.2700   1
   1 -24   4 803.330 42.5900   1
  -1 -24  -4 655.480 42.1900   1
   3  13   4 31.6700 21.5200   1
   3 -13   4 59.3100 34.5200   1
  -3 -13  -4 86.3400 18.8200   1
  -3  13  -4 61.0200 21.4700   1
   3  13   4 32.3600 19.1100   1
   2 -25   3 7.00000 31.2500   1
  -2 -25  -3 33.5800 11.6400   1
   2 -25   3 41.9000 36.5900   1
   2 -25   3 47.2100 19.5000   1
  -2 -25  -3 -5.7800 14.0800   1
   2  25   3 6.92000 17.5300   1
   2  25   3 -1.3800 11.7600   1
   5 -21   0 253.240 58.9400   1
   5  21   0 252.790 55.0200   1
  -5  21   0 252.430 61.4200   1
  -5 -21   0 227.950 24.6400   1
   5  21   0 231.510 20.1900   1
  -2 -20  -4 149.440 16.1200   1
   2  20   4 153.770 27.9200   1
   2  20   4 145.290 19.0500   1
   2 -20   4 188.870 43.7500   1
   2 -20   4 160.690 21.0900   1
  -2  20  -4 154.710 26.9400   1
   2 -20   4 186.280 30.8400   1
   0  14  -6 209.070 23.4800   1
   0  14   6 198.690 21.7200   1
   0 -14  -6 155.120 18.8400   1
   0 -14  -6 219.880 19.7800   1
   0 -14   6 194.930 28.8400   1
  -7   9   4 2077.18 421.620   1
  -7  -9   4 2006.43 404.560   1
   7   9  -4 2020.02 406.370   1
   7   9  -4 1917.72 77.1600   1
   7  -9  -4 1916.89 79.8500   1
   7   9  -4 1967.87 76.3300   1
  -2 -32   1 55.1800 23.9500   1
   2 -32  -1 1.83000 14.4100   1
   2 -32  -1 32.3900 23.9500   1
  -2 -32   1 11.1600 12.9500   1
   2 -32  -1 27.2300 18.9900   1
   2 -32  -1 22.8000 18.9700   1
   2  32  -1 20.4600 11.8200   1
   6  19  -3 89.2400 18.6100   1
   6  19  -3 88.1900 13.4300   1
  -6 -19   3 153.510 24.8700   1
   6 -19  -3 83.5100 23.4400   1
   7   5  -5 110.450 15.2400   1
   7  -5  -5 95.5300 19.4800   1
   7   5  -5 90.4000 16.4600   1
  -7  -5   5 34.0600 30.0200   1
   1  -5   6 139.140 44.4000   1
  -1   5  -6 123.150 17.7500   1
   1  -5   6 152.350 27.2600   1
   1   5   6 107.250 29.6600   1
   1   5   6 66.8000 40.2000   1
  -1  -5  -6 128.520 16.4800   1
   5  10   2 48.0900 17.0000   1
   5 -10   2 63.6100 28.8200   1
  -5 -10  -2 45.3700 18.1700   1
  -5  10  -2 38.9300 24.6400   1
   3 -12  -7 48.0200 10.8200   1
   3 -12  -7 19.9000 19.3900   1
   3  12  -7 39.5100 12.8300   1
   1   4  -7 147.880 17.5800   1
  -1   4   7 41.1600 23.5200   1
   1  -4  -7 98.3800 17.5500   1
   1  -4  -7 82.2500 16.4600   1
   1   4  -7 117.730 14.4800   1
  -1  -4   7 91.2700 21.8200   1
   1 -28   3 347.770 49.9900   1
   1 -28   3 232.010 25.2800   1
   1 -28   3 240.670 30.8900   1
  -1 -28  -3 249.550 24.1800   1
  -1  28  -3 228.580 24.3000   1
   1  28   3 237.400 25.4700   1
  -1 -28  -3 296.450 20.8400   1
   5  23  -4 186.400 19.8700   1
   5  23  -4 209.430 24.6800   1
   5 -23  -4 182.710 23.9100   1
  -3  20   6 55.6300 20.3700   1
   3 -20  -6 14.6300 12.7200   1
   3 -20  -6 11.6500 14.0200   1
   3  20  -6 29.2800 12.0500   1
  -3 -20   6 31.8200 12.8500   1
   3 -25   2 13.7800 15.2500   1
  -3  25  -2 70.8000 42.0300   1
   3  25   2 0.39000 14.4300   1
   3 -25   2 -7.8900 30.1000   1
  -3 -25  -2 48.2900 12.6700   1
   3  25   2 10.3900 25.2200   1
  -7   7   2 221.290 40.2600   1
  -7  -7   2 165.730 23.8100   1
   7   7  -2 186.380 20.1200   1
   7  -7  -2 290.530 38.2100   1
   6 -11  -6 644.440 42.2500   1
   6 -11  -6 666.560 34.5300   1
   6  11  -6 717.280 34.3500   1
   4 -19  -6 182.720 20.7600   1
   4  19  -6 184.670 16.4500   1
  -1 -24   5 788.270 43.4900   1
  -1 -24   5 780.300 47.3400   1
  -1  24   5 841.220 46.0000   1
   1 -24  -5 785.100 41.0700   1
   1 -24  -5 786.520 42.7200   1
   1  24  -5 805.920 47.1300   1
   4 -13   3 317.670 37.4600   1
   4  13   3 292.980 24.0100   1
   4  13   3 308.590 30.1000   1
  -4 -13  -3 372.550 31.7500   1
  -4  13  -3 280.820 31.3600   1
   0 -33  -1 188.050 20.2300   1
   0  33  -1 177.020 18.4100   1
   0 -33  -1 197.930 25.2600   1
   0 -33   1 195.440 23.1300   1
  -1 -18   6 933.880 52.8500   1
  -1  18   6 1103.50 54.0200   1
   1  18  -6 1225.89 58.1400   1
   1 -18  -6 1007.89 48.8100   1
  -1 -18   6 1031.44 57.0500   1
   6 -16  -5 16.1900 16.6300   1
   6  16  -5 9.16000 10.3700   1
  -6 -16   5 38.2700 38.5100   1
   6  16  -5 29.2500 16.0300   1
   5   8  -7 125.560 17.5000   1
   5  -8  -7 133.000 15.1400   1
   4 -28  -2 51.3800 16.5800   1
  -4 -28   2 73.9800 21.3700   1
   4  28  -2 27.2200 12.5200   1
  -4 -28   2 81.9600 21.4100   1
   4  28  -2 70.3300 21.4500   1
   4 -28  -2 46.8200 20.6600   1
  -1 -33   0 206.300 19.1100   1
   1 -33   0 226.000 22.2900   1
   1 -33   0 202.680 20.2000   1
  -1 -33   0 206.230 23.7600   1
  -1  33   0 190.500 18.0600   1
   1  33   0 184.660 18.3600   1
   0  22  -5 38.9900 17.1300   1
   0 -22  -5 26.2400 16.9200   1
   0 -22   5 28.3000 12.1200   1
   0 -22   5 -32.920 23.0300   1
   0 -22  -5 34.9200 11.8000   1
   0  22   5 25.3000 22.6400   1
   4 -26  -4 50.9600 18.8100   1
  -4 -26   4 4.09000 21.2500   1
   4  26  -4 12.2600 10.2100   1
  -1 -33   1 44.5100 14.9300   1
   1  33  -1 14.4500 9.38000   1
   1 -33  -1 42.8300 12.8300   1
  -1 -33   1 21.0600 11.0100   1
   1 -33  -1 13.2500 21.2700   1
   1 -28  -4 121.570 17.1100   1
   1  28  -4 120.100 17.8900   1
  -1 -28   4 85.7300 29.0400   1
  -1 -28   4 103.350 18.9400   1
   1 -28  -4 139.890 18.1200   1
   7  -6  -5 47.7800 18.4700   1
   7   6  -5 21.0900 11.9900   1
   7   6  -5 13.6800 11.6100   1
  -7  -6   5 -72.860 42.5200   1
   1   6   6 376.000 44.2700   1
  -1  -6  -6 355.240 22.3600   1
  -1   6  -6 462.710 32.4600   1
   1   6   6 474.990 34.3500   1
   1  -6   6 498.020 42.1200   1
   1  -6   6 403.220 51.2500   1
  -7  10   3 260.470 70.0900   1
   7  10  -3 95.3800 29.0900   1
   7  10  -3 164.910 21.3800   1
   7  10  -3 151.590 16.7800   1
   7 -10  -3 135.880 23.0700   1
  -7 -10   3 261.020 60.3000   1
   1   5  -7 514.800 27.4900   1
  -1  -5   7 500.580 35.8000   1
   1  -5  -7 525.780 28.2600   1
   1  -5  -7 496.510 30.8000   1
   1   5  -7 472.750 28.4600   1
  -1   5   7 438.760 35.0200   1
  -2  25   5 105.170 23.5300   1
   2 -25  -5 93.2400 15.1400   1
   2 -25  -5 108.450 15.9400   1
  -2 -25   5 100.680 15.6700   1
   2  25  -5 91.1500 17.0600   1
   4  20   2 884.590 51.9300   1
   4  20   2 905.820 45.9300   1
   4 -20   2 786.980 51.9200   1
  -4 -20  -2 905.090 50.8700   1
  -4  20  -2 989.360 59.5900   1
   3  28   1 -8.7800 13.0600   1
   3  28   1 -23.580 17.0800   1
   3 -28   1 -2.7500 23.6800   1
   3 -28   1 -11.290 15.3900   1
  -3 -28  -1 -43.860 21.4400   1
  -3 -28  -1 2.29000 12.0500   1
  -4 -24  -1 58.9000 15.5300   1
   4 -24   1 108.630 18.3600   1
  -4  24  -1 12.7100 31.5800   1
   4 -24   1 103.300 24.5800   1
   4  24   1 59.7200 16.0800   1
   4  24   1 98.4300 19.5400   1
   2 -20  -6 173.180 20.0500   1
   2 -20  -6 164.910 17.7600   1
  -2  20   6 183.980 21.0700   1
  -2 -20   6 156.190 18.5300   1
   2  20  -6 181.690 21.3200   1
  -6 -17   1 -4.1800 16.3100   1
   6  17  -1 52.4500 21.6600   1
   6 -17  -1 19.9700 19.9700   1
   6  17  -1 31.8000 12.9300   1
  -6 -17   1 -7.9000 23.9700   1
  -6  17   1 17.0800 31.1300   1
   7  10  -4 144.690 16.6100   1
   7 -10  -4 110.370 17.5800   1
  -7 -10   4 196.630 33.6300   1
  -7  10   4 100.670 39.3600   1
   7  10  -4 152.460 17.3500   1
  -2 -11   7 37.2500 26.5800   1
   2  11  -7 32.6900 12.9000   1
   2 -11  -7 29.6200 12.5700   1
   0 -32   2 1147.22 57.4600   1
   0 -32  -2 1125.70 49.8600   1
   0  32  -2 1071.75 48.5300   1
   0 -32  -2 1162.09 55.6600   1
  -2  12  -5 -6.0700 21.2700   1
  -2 -12  -5 25.9900 17.1200   1
   2 -12   5 -0.4600 16.6200   1
   2  12   5 -11.680 31.7500   1
   2 -12   5 -62.760 33.6900   1
   2  12   5 10.5000 21.9200   1
   2 -12   5 0.59000 38.5300   1
  -2  12  -5 11.6300 15.3500   1
  -6 -13   0 209.370 31.6300   1
   6 -13   0 190.530 27.2700   1
   6  13   0 219.180 24.0500   1
   6  13   0 150.050 21.8800   1
  -6 -13   0 169.970 26.7700   1
  -6  13   0 148.440 34.7500   1
   4  12  -7 102.380 13.6400   1
   4 -12  -7 80.0700 11.8100   1
   4  12  -7 55.9900 19.0100   1
   4 -12  -7 25.8000 21.7500   1
  -7   8   2 273.890 40.3800   1
  -7  -8   2 402.610 29.2700   1
   7  -8  -2 370.930 43.2500   1
   7   8  -2 412.130 24.9900   1
   7   8  -2 307.070 46.4200   1
   3  21   3 115.710 20.7600   1
  -3  21  -3 108.720 34.1500   1
   3  21   3 118.760 21.8800   1
   3 -21   3 93.5400 34.5900   1
  -3 -21  -3 97.5100 15.2400   1
   3 -21   3 117.250 18.1400   1
   6  19  -2 58.5500 17.6200   1
  -6 -19   2 73.6300 22.7400   1
   6  19  -2 49.2200 12.5700   1
   6  19  -2 61.8600 25.5200   1
  -6  19   2 12.4900 37.8300   1
   6 -19  -2 70.9100 26.8800   1
   0 -30  -3 212.790 21.8500   1
   0 -30  -3 202.030 19.8600   1
   0  30  -3 218.780 21.8700   1
   0 -30   3 152.290 25.7300   1
   0 -30   3 231.890 22.0700   1
   6   0   1 60.9900 19.6300   1
  -6   0  -1 83.3600 21.6600   1
   6   1   1 1927.17 81.9400   1
   6  -1   1 1741.47 80.6700   1
  -6  -1  -1 1696.71 78.8900   1
  -6   1  -1 1827.78 89.5100   1
   5  21  -5 431.800 24.6300   1
   5 -21  -5 418.390 31.9500   1
   5  21  -5 461.460 31.1700   1
   5  11   2 966.370 59.1700   1
   5 -11   2 944.970 56.2100   1
  -5 -11  -2 1132.81 61.4300   1
  -5  11  -2 1133.52 62.9700   1
   5  11   2 1092.16 54.4300   1
   2 -32   0 648.310 72.5700   1
   2 -32   0 561.690 35.8100   1
  -2 -32   0 640.650 39.2700   1
  -2  32   0 556.220 37.9400   1
   2  32   0 575.290 33.1500   1
   2 -32   0 613.660 38.7900   1
  -2 -32   0 651.160 36.7000   1
   2 -32   0 575.970 61.4100   1
   1   6  -7 109.500 15.3900   1
   1  -6  -7 61.6100 11.9900   1
   1   6  -7 96.4200 15.6300   1
  -1   6   7 100.290 24.3800   1
  -1  -6   7 75.7300 25.9900   1
   1  -6  -7 91.4900 16.9400   1
   3 -25  -5 1210.72 58.6500   1
   3 -25  -5 1096.80 58.6100   1
   3  25  -5 1123.42 48.3600   1
  -3 -25   5 1240.13 68.4900   1
   7  -7  -5 4.33000 12.1400   1
   7   7  -5 6.80000 10.9100   1
   7   7  -5 -27.220 14.1300   1
  -7  -7   5 29.8500 30.0900   1
   1   7   6 14.3300 26.4300   1
   1  -7   6 30.6200 34.2000   1
   1  -7   6 68.6100 44.8600   1
   1   7   6 47.1000 27.3400   1
  -1  -7  -6 11.8300 15.8700   1
  -1   7  -6 35.1600 14.6600   1
  -3 -14  -4 -15.130 12.7300   1
   3 -14   4 72.5200 25.7000   1
  -3  14  -4 19.9400 19.6200   1
   3  14   4 13.8500 22.7700   1
   3  14   4 1.78000 24.2500   1
   6  -2   1 369.440 36.2800   1
   6   2   1 260.420 58.3200   1
  -6  -2  -1 313.020 25.9800   1
  -6   2  -1 307.840 34.3000   1
   5   9  -7 14.0100 10.5300   1
   5  -9  -7 33.7800 11.8400   1
   5 -17  -6 27.6200 16.8300   1
   5  17  -6 24.6600 12.9900   1
   0 -27   4 159.540 30.8300   1
   0 -27  -4 40.4400 13.2500   1
   0 -27   4 62.5100 14.6300   1
   0  27   4 57.6800 21.0500   1
   0 -27  -4 51.3400 12.3800   1
   0  27  -4 55.2500 17.7300   1
   2 -32  -2 24.6500 15.1200   1
   2  32  -2 27.7400 13.0600   1
  -2 -32   2 40.7500 14.6500   1
   2 -32  -2 -20.690 20.2400   1
   6 -12  -6 407.410 29.4100   1
   6  12  -6 343.720 21.6100   1
   6 -12  -6 403.320 25.2000   1
   0 -15   6 55.2500 31.6600   1
   0  15  -6 50.5100 14.5500   1
   0 -15  -6 65.6900 13.2500   1
   0  15   6 16.3900 18.3900   1
  -5 -18  -1 169.120 27.6100   1
   5  18   1 141.340 27.1100   1
   5  18   1 178.930 24.3900   1
   5 -18   1 121.770 25.6400   1
  -5  18  -1 133.530 27.5600   1
   3 -28  -4 490.990 31.2700   1
   3  28  -4 470.460 30.3200   1
   3 -28  -4 429.330 36.2900   1
  -3 -28   4 526.360 34.5000   1
   3 -13  -7 125.080 15.0200   1
   3  13  -7 98.9600 14.9600   1
   3 -13  -7 132.270 17.4200   1
   6   3   1 1193.70 58.8500   1
  -6  -3  -1 1394.09 64.8400   1
  -6   3  -1 1264.14 68.1800   1
   6  -3   1 1221.16 60.0000   1
   4  28  -1 159.590 24.6300   1
  -4 -28   1 191.380 27.4000   1
   4  28  -1 185.710 26.1300   1
  -4 -28   1 167.370 20.5000   1
   4 -28  -1 221.920 23.3900   1
   4 -28  -1 147.590 26.7400   1
   1 -31   2 148.200 33.3700   1
  -1  31  -2 131.200 15.9400   1
  -1 -31  -2 114.330 17.0900   1
   1 -31   2 117.080 18.4900   1
   1  31   2 119.010 21.8700   1
  -1 -31  -2 108.040 13.9800   1
   1 -31   2 186.750 36.3200   1
   1  31   2 103.260 13.6400   1
   6  19  -4 547.810 38.3600   1
   6  19  -4 513.860 30.0100   1
  -6 -19   4 705.330 47.4400   1
   6 -19  -4 538.040 37.8800   1
   3 -30   0 91.0200 24.7800   1
  -3 -30   0 41.8600 13.1100   1
   3  30   0 126.240 27.4200   1
   3 -30   0 60.3500 17.7300   1
  -3 -30   0 40.7700 16.0400   1
   3  30   0 69.6900 11.8000   1
  -7  11   3 583.150 47.9500   1
   7  11  -3 440.220 37.7000   1
   7  11  -3 519.760 29.8600   1
   7 -11  -3 639.260 38.1700   1
   7  11  -3 495.650 31.4500   1
  -7 -11   3 560.510 41.3700   1
   4  14   3 134.330 20.1200   1
   4 -14   3 57.4300 26.2500   1
   4  14   3 139.450 22.0900   1
  -4 -14  -3 123.370 17.7400   1
  -4  14  -3 155.930 23.2700   1
   1 -19   5 371.400 25.5800   1
  -1 -19  -5 425.210 23.8000   1
   1 -19   5 349.750 55.8400   1
   1 -19   5 485.070 43.6400   1
   1  19   5 336.670 25.8700   1
   2 -31   1 224.530 28.6400   1
   2  31   1 227.670 25.2800   1
   2 -31   1 221.400 38.7500   1
   2 -31   1 245.080 24.3300   1
  -2  31  -1 262.760 24.1000   1
  -2 -31  -1 239.180 22.3700   1
  -2 -31  -1 187.100 20.2400   1
   1  31  -3 28.8400 14.1000   1
   1 -31  -3 9.05000 11.2800   1
   1 -31  -3 -25.740 16.6300   1
  -1 -31   3 40.7900 15.0600   1
   7   9  -2 537.110 30.3000   1
   7   9  -2 557.570 38.0000   1
   7  -9  -2 495.290 32.3400   1
  -7   9   2 573.680 44.0200   1
  -7  -9   2 584.150 58.2200   1
  -1   7   7 861.780 55.6800   1
   1   7  -7 959.440 48.3600   1
   1   7  -7 1006.44 47.9000   1
   1  -7  -7 944.830 50.5000   1
   1  -7  -7 1002.20 47.8000   1
  -1  -7   7 917.460 59.0500   1
  -6   4  -1 349.750 28.6100   1
  -6  -4  -1 434.690 31.3700   1
  -6  -4  -1 292.600 34.9900   1
   6  -4   1 336.500 29.1400   1
   6   4   1 430.830 32.1200   1
   5  24  -1 585.940 33.8400   1
   5  24  -1 510.850 29.8200   1
  -5 -24   1 493.370 34.5100   1
   5  24  -1 554.260 31.2100   1
   5 -24  -1 495.950 47.2800   1
  -4 -28   3 218.720 22.9300   1
   4  28  -3 220.670 27.6300   1
   4  28  -3 199.650 20.2100   1
   4 -28  -3 215.060 22.8400   1
   2  29   2 43.6800 18.4400   1
   2 -29   2 38.3500 22.0300   1
   2 -29   2 37.7800 52.1500   1
  -2 -29  -2 -2.7600 13.3000   1
   2 -29   2 22.7000 29.1000   1
   2  29   2 30.7200 10.8500   1
  -2 -29  -2 6.41000 14.5200   1
   6  20  -3 697.980 32.8700   1
  -6 -20   3 714.910 42.7100   1
   6  20  -3 658.420 45.4300   1
   6 -20  -3 622.630 45.2100   1
  -7  11   4 1628.77 87.7300   1
   7  11  -4 1599.13 65.1900   1
  -7 -11   4 1551.99 76.6100   1
   7 -11  -4 1618.36 69.4200   1
   7  11  -4 1499.83 65.1200   1
   7  11  -4 1487.19 74.6700   1
   7   8  -5 238.060 22.1200   1
  -7  -8   5 262.520 41.8100   1
   7  -8  -5 233.580 21.0300   1
   7   8  -5 225.580 21.4100   1
   2 -21   4 322.700 28.0700   1
   2  21   4 312.480 30.1600   1
   2  21   4 253.690 55.4800   1
  -2 -21  -4 260.000 54.3400   1
   2 -21   4 273.170 44.3400   1
  -2  21  -4 251.410 31.1000   1
   2 -21   4 242.010 38.8900   1
   4 -24  -5 420.130 34.1900   1
   4  24  -5 395.770 24.9800   1
  -4 -24   5 366.370 28.2800   1
   1   8   6 96.5400 18.9700   1
   1   8   6 121.020 23.3900   1
   1  -8   6 112.780 26.5200   1
   1  -8   6 139.450 37.4200   1
  -1  -8  -6 81.0600 13.4700   1
   1   8   6 114.050 27.5200   1
  -1   8  -6 84.6500 14.6900   1
  -5 -25   2 8.70000 18.1900   1
   5  25  -2 4.24000 13.4100   1
  -5 -25   2 5.05000 15.0000   1
   5  25  -2 -14.010 23.1400   1
   5 -25  -2 -10.830 15.3800   1
   5 -25  -2 15.4400 24.9500   1
   6  17  -5 48.5000 15.4000   1
   6  17  -5 26.9300 16.5900   1
  -6 -17   5 -2.6100 36.1000   1
  -3 -30   3 24.6700 20.2200   1
   3 -30  -3 4.88000 17.1000   1
   3  30  -3 29.6700 14.1900   1
   3 -30  -3 26.2200 14.9100   1
   2 -12  -7 66.5500 13.3800   1
   2  12  -7 76.4700 16.9300   1
   2 -12  -7 53.6300 15.6700   1
  -2 -12   7 46.3900 24.0700   1
   5  22   0 52.1300 17.9400   1
   5  22   0 39.2200 15.6600   1
  -5  22   0 28.7600 32.2800   1
  -5 -22   0 17.2500 24.2300   1
   5 -22   0 74.8100 23.3700   1
   2 -31  -3 121.530 17.6100   1
  -2 -31   3 125.760 21.6300   1
   2  31  -3 127.900 14.1800   1
   2 -31  -3 119.050 18.1100   1
   2  13   5 157.500 22.3400   1
   2  13   5 131.990 27.8100   1
  -2 -13  -5 139.020 15.7700   1
   2 -13   5 203.640 38.6400   1
   2 -13   5 126.790 18.4000   1
   2  13   5 80.7900 36.6000   1
   2 -13   5 214.180 58.5100   1
  -2  13  -5 150.480 26.4900   1
  -2  13  -5 181.210 24.9500   1
   4 -20  -6 49.4300 14.8800   1
   4  20  -6 12.8500 10.5500   1
   5  10  -7 280.640 19.5600   1
   5 -10  -7 246.040 20.7000   1
   4 -13  -7 374.050 30.4900   1
   4 -13  -7 351.900 22.5300   1
   4  13  -7 389.740 24.3700   1
  -1  19   6 1.97000 17.9800   1
   1 -19  -6 3.41000 14.7500   1
  -1 -19   6 27.9600 27.1500   1
  -1 -19   6 -14.430 10.6400   1
   1  19  -6 3.37000 13.2400   1
   5  25  -3 1044.83 45.4700   1
  -5 -25   3 940.230 50.4000   1
   5  25  -3 938.640 47.5900   1
   5 -25  -3 1011.90 59.1200   1
   5 -25  -3 910.240 59.7200   1
   3 -21  -6 215.560 25.0100   1
   3 -21  -6 183.230 21.7900   1
  -3  21   6 178.800 23.0500   1
   3  21  -6 163.890 16.8500   1
  -3 -21   6 183.090 19.8900   1
   3  31  -1 -1.8800 16.6800   1
   3 -31  -1 11.9500 30.9000   1
  -3 -31   1 5.64000 18.3200   1
   3  31  -1 13.8400 11.2200   1
   3 -31  -1 9.99000 16.2600   1
  -3 -31   1 35.0900 16.1800   1
  -6  14   0 62.9500 26.1900   1
  -6 -14   0 130.950 21.9400   1
  -6 -14   0 100.720 21.4500   1
   6  14   0 110.720 23.3000   1
   6  14   0 48.0600 25.2800   1
   6 -14   0 68.9900 26.8200   1
   5  12   2 508.770 31.2200   1
   5  12   2 445.510 49.6500   1
  -5 -12  -2 580.230 42.4200   1
   5 -12   2 517.320 37.0500   1
  -5  12  -2 579.210 40.8700   1
   6   5   1 346.790 30.8300   1
  -6   5  -1 319.260 34.7200   1
  -6  -5  -1 232.110 24.5700   1
  -6  -5  -1 252.950 60.0300   1
   6  -5   1 328.090 35.4000   1
  -1  25  -4 387.160 25.6300   1
  -1 -25  -4 402.380 26.1700   1
   1 -25   4 401.160 49.5800   1
   1 -25   4 348.380 57.1100   1
   1 -25   4 378.570 26.6500   1
  -1 -25  -4 371.920 29.3200   1
   1  25   4 437.030 34.0200   1
   4  27   0 80.5800 18.6500   1
   4 -27   0 80.1500 28.9500   1
   4 -27   0 38.3300 23.1300   1
  -4 -27   0 66.4900 15.8500   1
   4  27   0 87.6700 16.0500   1
  -3 -31   2 223.750 27.3500   1
   3  31  -2 233.210 20.8400   1
   3 -31  -2 301.880 28.0600   1
   3 -31  -2 243.320 34.4100   1
  -3 -31   2 294.110 25.0500   1
  -2 -26  -3 888.620 42.9300   1
   2  26   3 1048.85 55.9900   1
   2  26   3 888.050 47.6200   1
   2 -26   3 859.620 59.8500   1
   2 -26   3 967.970 47.5000   1
  -2 -26  -3 907.550 52.5700   1
   2 -26   3 1033.32 72.6400   1
   0 -34   0 2154.96 432.990   1
   0 -34   0 1792.45 76.6900   1
   7   0  -1 1563.55 67.2500   1
  -7   0   1 1625.59 74.2600   1
   2 -29  -4 245.040 22.0100   1
   2 -29  -4 271.520 25.9200   1
   2  29  -4 247.070 23.5900   1
  -2 -29   4 227.860 24.8500   1
  -7  -1   1 56.9200 21.9200   1
   7  -1  -1 115.950 26.7600   1
   7   1  -1 37.4200 17.2200   1
  -7   1   1 130.680 26.2600   1
   5  24  -4 565.010 70.6700   1
   5  24  -4 623.850 34.0800   1
   5 -24  -4 562.790 42.2200   1
   1   8  -7 243.350 24.2800   1
   1  -8  -7 235.350 24.9800   1
  -1  -8   7 278.840 32.7700   1
   1  -8  -7 281.790 25.9100   1
   6  13  -6 1194.37 57.9800   1
  -6  18   1 -51.620 43.1300   1
  -6 -18   1 12.1500 23.6200   1
   6 -18  -1 -38.510 19.3700   1
  -6 -18   1 -10.780 19.4600   1
   6  18  -1 11.0900 12.6400   1
   6  18  -1 13.1900 24.4600   1
   3 -15   4 66.7100 26.4600   1
  -3  15  -4 65.2600 22.5300   1
  -3 -15  -4 92.8800 19.5200   1
   3  15   4 129.350 25.2400   1
   3  15   4 61.4600 18.5100   1
   7   2  -1 1032.61 55.6100   1
   7  -2  -1 1081.20 55.4000   1
  -7  -2   1 1149.26 59.3400   1
  -7   2   1 1166.16 66.3600   1
   0 -23  -5 2.75000 11.9700   1
   0  23   5 -6.7700 22.8100   1
   0 -23   5 -6.4200 15.3000   1
   0  23  -5 -48.030 13.3600   1
   0 -23   5 -10.970 23.8400   1
  -1  25   5 363.170 38.1900   1
   1 -25  -5 422.380 32.0100   1
   1 -25  -5 451.590 27.7000   1
  -1 -25   5 321.140 31.4000   1
  -1 -25   5 391.200 92.0100   1
   1  25  -5 402.260 91.0400   1
   4  21   2 706.700 43.2200   1
   4  21   2 751.410 44.7800   1
  -4 -21  -2 697.960 42.1300   1
   4 -21   2 626.750 46.4600   1
  -4  21  -2 725.080 53.7600   1
  -3 -26  -2 478.630 28.3600   1
   3 -26   2 596.430 47.8900   1
   3  26   2 564.930 35.8200   1
   3 -26   2 623.310 41.4800   1
   3  26   2 595.600 36.7500   1
  -7 -10   2 460.870 35.4600   1
   7 -10  -2 404.000 92.0000   1
   7  10  -2 251.820 52.2400   1
   7  10  -2 422.990 27.7900   1
  -7  10   2 427.440 40.6600   1
  -7 -12   3 43.5800 26.2500   1
  -7  12   3 -40.530 32.8500   1
   7  12  -3 38.1300 18.1600   1
   7 -12  -3 54.9600 21.3000   1
   7  12  -3 62.0300 14.3900   1
   3  14  -7 4.20000 12.2300   1
   3 -14  -7 -38.240 13.2200   1
   7   9  -5 -14.500 10.9400   1
   7  -9  -5 22.0300 18.4100   1
   7   9  -5 -20.800 14.7200   1
  -7  -9   5 -8.2800 27.5400   1
   1   9   6 778.630 45.3200   1
  -1  -9  -6 678.430 37.5500   1
  -1   9  -6 804.200 53.9500   1
   1   9   6 779.190 49.2100   1
   1  -9   6 777.890 53.2800   1
   1  -9   6 936.800 65.0400   1
  -6  -6  -1 591.860 41.7800   1
   6   6   1 593.580 36.5400   1
   6  -6   1 594.700 41.3100   1
  -6  -6  -1 622.590 48.5800   1
  -6   6  -1 557.690 42.6800   1
  -2  21   6 425.710 31.1600   1
  -2 -21   6 412.360 94.5600   1
   2  21  -6 427.360 29.2300   1
   2 -21  -6 471.020 31.1700   1
  -1  33  -1 9.18000 14.8600   1
  -1 -33  -1 23.8700 15.2400   1
  -1 -33  -1 8.79000 18.6700   1
   1 -33   1 2.73000 19.1900   1
   1 -33   1 94.1500 25.9600   1
   6  20  -2 13.3400 15.1600   1
   6  20  -2 87.1900 25.1400   1
   6  20  -2 24.6400 22.2300   1
  -6 -20   2 15.4000 20.9900   1
   6 -20  -2 39.6600 24.5200   1
   7   3  -1 452.810 33.5300   1
   7  -3  -1 434.550 29.5700   1
  -7   3   1 527.370 43.9800   1
  -7  -3   1 496.140 34.4700   1
   0  16   6 44.0100 19.4900   1
   0 -16  -6 25.5300 13.1400   1
   0 -16   6 42.0500 34.6400   1
   0  16  -6 -11.490 17.2000   1
  -1 -33   2 367.440 36.4800   1
   1 -33  -2 269.690 27.7200   1
   1  33  -2 244.630 22.9000   1
   1 -33  -2 286.120 27.5900   1
  -1 -29  -3 12.9400 16.9000   1
   1 -29   3 5.20000 18.6500   1
  -1 -29  -3 2.85000 14.3100   1
  -1  29  -3 -16.680 18.6900   1
   1 -29   3 6.11000 28.5000   1
   1 -29   3 47.2900 41.2900   1
   1  29   3 32.6400 26.9400   1
   5 -18  -6 -4.8100 14.6100   1
   5  18  -6 -6.6300 13.1100   1
   7  12  -4 17.6500 26.0900   1
  -7 -12   4 10.9800 22.9900   1
   7  12  -4 26.4600 16.0100   1
   7 -12  -4 44.2100 21.9100   1
   7  12  -4 34.1700 17.5400   1
   4  27  -4 806.940 41.4300   1
   4 -27  -4 770.660 47.5900   1
  -4 -27   4 822.160 49.4500   1
   4  15   3 187.820 27.7400   1
   4  15   3 240.930 26.6500   1
  -4 -15  -3 183.240 26.6900   1
   4 -15   3 179.230 29.4900   1
  -4  15  -3 194.730 30.0100   1
   3  22   3 253.690 28.3600   1
   3  22   3 291.930 31.1300   1
  -3 -22  -3 292.900 27.9700   1
  -3  22  -3 254.040 41.4100   1
   3 -22   3 279.270 31.4400   1
   3 -22   3 279.260 39.6100   1
  -2  26   5 22.3600 23.9900   1
   2 -26  -5 39.8000 18.1400   1
   2 -26  -5 8.27000 15.7200   1
  -2 -26   5 56.1300 14.7800   1
   2  26  -5 67.3500 17.6400   1
   5  22  -5 -24.950 13.1600   1
   5 -22  -5 -24.250 16.7700   1
   5  22  -5 3.11000 14.2800   1
   2 -33  -1 32.9900 12.4400   1
   2 -33  -1 68.3500 32.6400   1
   2 -33  -1 31.2000 23.2800   1
  -2 -33   1 48.8800 15.8500   1
  -2 -33   1 24.2800 14.3100   1
   2  33  -1 44.2400 10.6500   1
   2 -33  -1 42.0700 20.3100   1
   5 -11  -7 234.740 25.6000   1
   5  11  -7 241.640 23.8600   1
  -5  19  -1 29.4700 26.6700   1
  -5 -19  -1 6.88000 17.1900   1
   5 -19   1 15.9100 31.3600   1
   5  19   1 33.4000 14.8200   1
   5  19   1 -26.530 28.1000   1
  -4 -29   2 501.700 40.3500   1
   4  29  -2 480.680 35.1800   1
  -4 -29   2 415.880 94.2000   1
   4  29  -2 420.930 94.3500   1
   4 -29  -2 294.610 39.9300   1
   4 -29  -2 385.190 90.1000   1
   4  25   1 178.060 27.1600   1
  -4  25  -1 148.000 59.4200   1
  -4 -25  -1 235.480 25.3600   1
   4 -25   1 194.720 28.6400   1
   4 -25   1 213.340 37.7500   1
   4  25   1 189.700 20.4200   1
   7   4  -1 1004.29 56.6800   1
   7  -4  -1 994.400 53.4700   1
  -7   4   1 1193.02 70.8100   1
  -7  -4   1 1039.73 56.8200   1
   6   0  -7 -5.9300 10.5700   1
   2 -13  -7 118.690 20.0500   1
  -2 -13   7 123.840 24.1600   1
   2  13  -7 72.7600 20.2300   1
   6   1  -7 22.9800 11.8500   1
   6  -1  -7 9.70000 10.6000   1
   1 -29  -4 2.87000 17.2900   1
   1 -29  -4 18.2800 12.3100   1
  -1 -29   4 42.9100 17.7400   1
   1  29  -4 -17.340 17.1800   1
   1   9  -7 512.170 33.0300   1
   1  -9  -7 502.560 36.9500   1
   1  -9  -7 528.920 34.2400   1
  -1  -9   7 572.290 41.3500   1
  -6  -7  -1 -15.800 17.5400   1
  -6  -7  -1 -9.0300 20.0700   1
   6  -7   1 62.5900 22.6100   1
  -6   7  -1 9.09000 20.9900   1
   6   7   1 -7.6400 16.4300   1
  -6 -20   4 39.8300 19.8400   1
   6  20  -4 37.0000 13.9600   1
   6  20  -4 58.5000 17.6900   1
   6 -20  -4 5.77000 16.5200   1
   6  -2  -7 -19.640 10.2200   1
   6   2  -7 34.9500 11.6000   1
   2 -14   5 210.030 22.7000   1
   2 -14   5 256.750 42.2200   1
  -2  14  -5 183.910 29.8300   1
   2  14   5 216.690 30.3300   1
   2 -14   5 307.070 50.2700   1
  -2 -14  -5 234.070 22.5700   1
   2  14   5 205.130 28.9500   1
  -5  13  -2 504.870 45.8700   1
   5  13   2 524.630 33.0900   1
   5 -13   2 467.080 43.6800   1
  -5 -13  -2 547.120 34.1600   1
   4  14  -7 93.2200 19.2100   1
   4 -14  -7 16.1500 21.3000   1
  -3 -29  -1 22.0600 17.4500   1
  -3 -29  -1 21.1500 15.9200   1
   3 -29   1 -2.9300 19.6700   1
   3 -29   1 2.54000 32.7700   1
   3  29   1 -2.2000 15.0500   1
   3  29   1 -15.020 24.2400   1
   1 -20   5 478.800 43.7100   1
   1  20   5 368.340 35.3600   1
   1 -20   5 422.390 28.9900   1
  -1 -20  -5 499.650 28.7100   1
   1 -20   5 473.090 47.8100   1
   0 -34  -1 38.9700 15.2600   1
   0 -34  -1 31.6500 16.3600   1
   0  34  -1 27.8500 11.2000   1
   0 -34   1 32.7500 14.3100   1
   6  15   0 133.270 23.8200   1
   6 -15   0 107.390 29.4900   1
  -6  15   0 115.860 40.3100   1
   6  15   0 96.1600 25.1900   1
  -6 -15   0 99.9400 27.6900   1
  -7   5   1 902.870 58.9800   1
  -7  -5   1 798.050 46.0000   1
   7   5  -1 684.740 40.8600   1
   7  -5  -1 740.900 41.2700   1
   3 -26  -5 72.7500 18.1700   1
   3 -26  -5 78.4800 16.9900   1
  -3 -26   5 69.5600 18.8600   1
   3  26  -5 86.4800 17.9100   1
   6   3  -7 75.5400 13.9100   1
   6  -3  -7 86.0600 16.1100   1
   6  -3  -7 79.0700 16.2300   1
   7  10  -5 702.340 38.7000   1
   7 -10  -5 721.280 39.6500   1
   7  10  -5 725.950 38.6400   1
  -7 -10   5 877.690 67.8400   1
  -1 -10  -6 67.1400 14.1900   1
   1 -10   6 93.8900 37.2300   1
   1  10   6 76.2300 24.8800   1
  -1  10  -6 65.5100 19.7400   1
   1 -10   6 77.8600 31.6600   1
  -6 -18   5 98.6700 38.4800   1
   6  18  -5 128.490 19.3400   1
   6  18  -5 85.3700 20.3800   1
  -1 -34   0 247.390 24.0100   1
   1 -34   0 250.140 25.9500   1
  -1  34   0 203.080 20.7000   1
  -1 -34   0 216.870 26.1200   1
   1 -34   0 199.550 24.7200   1
  -7  11   2 638.330 57.3500   1
   7  11  -2 687.400 37.4900   1
   7  11  -2 669.280 47.4200   1
   7 -11  -2 671.520 46.7900   1
  -7 -11   2 670.330 38.8000   1
   1 -34  -1 487.130 36.6300   1
  -1 -34   1 541.550 37.2300   1
   1 -34  -1 485.900 28.8800   1
   1  34  -1 465.290 30.9900   1
   6  14  -6 5.52000 13.2600   1
  -6 -21   3 227.370 31.9200   1
   6  21  -3 231.900 28.9300   1
   6  21  -3 179.710 20.3400   1
   6 -21  -3 151.360 40.3500   1
  -7 -13   3 836.240 47.1100   1
   7  13  -3 762.600 40.0600   1
   7 -13  -3 811.810 51.6600   1
   7  13  -3 674.690 38.3800   1
   7  13  -3 781.070 46.5800   1
  -7  13   3 920.230 67.5200   1
   0  28  -4 6.78000 13.1400   1
   0 -28  -4 -8.7900 12.3600   1
   0 -28   4 12.6700 31.7200   1
   0  28   4 3.22000 24.5900   1
   0 -28   4 4.72000 17.2500   1
   0 -28  -4 17.2400 16.5500   1
   0 -31  -3 106.230 18.6100   1
   0 -31  -3 91.0700 17.5500   1
   0  31  -3 82.8300 19.6400   1
   0 -31   3 109.910 22.3700   1
   0 -31   3 118.480 30.0000   1
   6  -4  -7 54.1200 15.0900   1
   6   4  -7 53.2700 14.7300   1
   6  -4  -7 16.1600 12.9600   1
   2 -22   4 766.770 69.3600   1
   2 -22   4 856.920 46.8900   1
  -2 -22  -4 819.300 41.8800   1
   2  22   4 820.350 50.2500   1
   2  22   4 866.620 54.7100   1
   2 -22   4 712.580 59.0100   1
   7   0  -6 -12.600 15.8300   1
   7   0  -6 30.9400 17.7200   1
   0 -33  -2 55.2100 21.3800   1
   0 -33   2 34.1700 18.7700   1
   0 -33  -2 47.0200 12.3400   1
   0  33  -2 45.2500 14.9400   1
   1 -20  -6 229.730 22.4400   1
  -1  20   6 312.440 31.0200   1
   1  20  -6 229.680 26.3300   1
  -1 -20   6 247.690 28.4200   1
  -1 -20   6 293.440 37.7900   1
   7   1  -6 131.580 18.9900   1
   7  -1  -6 178.670 19.4000   1
   7   1  -6 177.430 21.5500   1
   7  -1  -6 158.480 38.4200   1
  -3  16  -4 24.1500 21.5000   1
   3  16   4 44.6700 18.0900   1
   3  16   4 76.9200 18.7400   1
   3 -16   4 37.1500 25.1200   1
  -3 -16  -4 61.7600 19.6800   1
   3  15  -7 339.090 30.4300   1
   3 -15  -7 312.080 33.1400   1
  -6  -8  -1 102.630 23.3000   1
   6  -8   1 145.770 34.7400   1
   6   8   1 105.820 20.8600   1
   6   8   1 121.300 23.1400   1
  -6  -8  -1 135.550 24.7100   1
  -6   8  -1 111.880 33.6600   1
   4 -21  -6 207.560 27.5700   1
   4  21  -6 211.610 20.1600   1
   3 -29  -4 674.150 46.0000   1
   3 -29  -4 618.910 42.5500   1
  -3 -29   4 739.180 48.2600   1
   3  29  -4 735.210 37.5400   1
   7  -6  -1 295.710 35.5200   1
  -7  -6   1 323.950 33.0600   1
  -7   6   1 427.630 39.6600   1
   7   6  -1 312.030 29.9400   1
   5  25  -1 682.630 42.0900   1
  -5 -25   1 821.570 48.2700   1
   5  25  -1 707.100 37.2400   1
   5  25  -1 675.730 37.3600   1
   5 -25  -1 726.750 48.4100   1
   5  23   0 26.5200 18.8500   1
  -5 -23   0 9.30000 21.4800   1
   5  23   0 52.3400 13.8800   1
  -5  23   0 55.4400 33.6900   1
   5 -23   0 67.6900 24.1600   1
   7   2  -6 15.0100 16.1200   1
   7  -2  -6 6.11000 11.6800   1
   7   2  -6 18.7800 15.4900   1
   7  -2  -6 0.37000 11.4700   1
   7  13  -4 565.490 43.6000   1
   7  13  -4 673.230 36.2400   1
   7 -13  -4 703.830 46.9600   1
   7  13  -4 817.140 40.8500   1
  -7 -13   4 709.280 51.7100   1
  -4 -29   1 677.380 41.4200   1
  -4 -29   1 507.810 32.6500   1
   4  29  -1 584.220 37.2500   1
   4  29  -1 619.050 37.9300   1
   4 -29  -1 648.960 42.0100   1
   4 -29  -1 446.510 44.2900   1
  -1 -10   7 135.380 33.4800   1
  -1  10   7 121.070 24.5100   1
   1 -10  -7 88.2500 14.6000   1
   1  10  -7 108.320 20.8000   1
   1 -10  -7 95.1700 17.9600   1
  -3  22   6 236.110 28.7700   1
   3 -22  -6 230.440 28.3100   1
   3 -22  -6 214.360 25.5100   1
   3  22  -6 233.390 25.9200   1
  -3 -22   6 221.640 24.2400   1
   5 -12  -7 189.540 19.3200   1
   5  12  -7 183.140 18.7600   1
   2 -33   0 23.0700 22.7300   1
  -2 -33   0 -7.6800 13.4800   1
  -2  33   0 -3.9900 13.9300   1
   2 -33   0 -14.020 12.8700   1
  -2 -33   0 58.2500 21.0800   1
   2 -33   0 -2.1600 23.3300   1
   2 -33   0 -8.7600 33.3300   1
   4 -25  -5 56.1900 19.6800   1
   4  25  -5 29.8200 14.6800   1
  -4 -25   5 46.1400 18.6000   1
  -6 -19   1 -6.5300 16.7000   1
  -6 -19   1 -38.190 19.2300   1
   6  19  -1 25.1800 17.8900   1
   6  19  -1 -14.780 24.8600   1
   6 -19  -1 44.9200 21.3300   1
  -6  19   1 23.9900 32.9200   1
   5  26  -2 458.580 33.6900   1
  -5 -26   2 472.470 35.6900   1
   5  26  -2 481.840 30.6500   1
  -5 -26   2 539.090 37.1900   1
   5 -26  -2 414.490 97.1600   1
   5 -26  -2 480.190 38.8200   1
   6  -5  -7 231.220 22.9500   1
   6   5  -7 225.910 23.9100   1
   6  -5  -7 226.020 20.9500   1
   0 -17  -6 18.8800 12.3800   1
   0  17  -6 11.2600 13.8400   1
   0  17   6 21.2000 16.2600   1
   0 -17   6 35.3900 24.6700   1
   7  -3  -6 -5.0300 11.6100   1
   7   3  -6 -31.270 11.2900   1
   7  -3  -6 5.28000 12.0900   1
   7   3  -6 32.9600 13.8900   1
   2  33  -2 68.5400 12.7500   1
   2 -33  -2 55.6400 16.5100   1
  -2 -33   2 67.8000 16.8300   1
   2 -33  -2 29.8200 21.7800   1
   2  14  -7 43.1400 18.9600   1
   2 -14  -7 35.3900 17.9800   1
  -2 -14   7 15.0400 19.8400   1
  -3 -31   0 12.1800 19.9900   1
   3  31   0 59.3300 25.8900   1
   3 -31   0 40.3900 22.6500   1
   3  31   0 21.7700 12.3800   1
  -3 -31   0 7.19000 16.7800   1
   3 -31   0 32.0600 24.7700   1
  -1  32  -2 242.760 28.3700   1
   1 -32   2 281.260 28.4800   1
   1 -32   2 305.000 42.2400   1
   1 -32   2 257.110 32.9800   1
   1  32   2 210.400 27.0000   1
  -1 -32  -2 221.130 23.7900   1
  -1 -32  -2 253.730 24.5300   1
  -4 -16  -3 180.180 20.5800   1
   4  16   3 206.100 27.2600   1
   4  16   3 242.810 32.6300   1
  -4  16  -3 199.920 35.0100   1
   4 -16   3 179.130 39.7600   1
   4  29  -3 400.040 91.9800   1
  -4 -29   3 462.100 33.6400   1
   4  29  -3 474.010 27.0800   1
   4 -29  -3 441.150 37.2600   1
   5  26  -3 166.480 22.4100   1
   5 -26  -3 128.070 25.8700   1
   5 -26  -3 200.540 24.5300   1
   5  26  -3 173.690 20.2300   1
  -7 -11   5 66.9600 29.0400   1
   7  11  -5 64.0200 15.2000   1
   7 -11  -5 73.9600 20.6400   1
   7  11  -5 41.7600 13.2800   1
   1  11   6 413.980 99.4900   1
   1  11   6 346.620 36.4000   1
   1 -11   6 327.340 54.7100   1
  -1 -11  -6 382.200 86.5100   1
   1 -11   6 379.560 93.4400   1
   2  32   1 123.670 23.6800   1
  -2 -32  -1 158.790 37.6600   1
  -2  32  -1 147.210 21.8300   1
   2 -32   1 141.670 23.3700   1
   2 -32   1 145.590 43.9200   1
   2 -32   1 67.7300 32.0700   1
  -2 -32  -1 138.850 21.9800   1
   1 -26   4 318.580 30.9100   1
   1  26   4 249.400 28.2000   1
   1 -26   4 288.850 42.2900   1
   1 -26   4 181.650 56.0900   1
  -1 -26  -4 264.380 29.2000   1
  -1  26  -4 266.100 26.3600   1
  -1 -26  -4 294.380 28.4200   1
   5  14   2 2331.62 113.550   1
   5  14   2 2176.62 106.300   1
  -5 -14  -2 2196.80 116.240   1
  -5  14  -2 2363.53 116.260   1
   5 -14   2 2145.28 101.990   1
   2  30   2 2346.01 103.740   1
   2  30   2 2087.43 97.0800   1
  -2 -30  -2 2139.57 95.1000   1
   2 -30   2 2214.65 124.960   1
   2 -30   2 2209.95 127.160   1
   2 -30   2 2391.81 106.810   1
  -2 -30  -2 2282.95 99.8700   1
   4  22   2 1105.17 57.5600   1
   4  22   2 1114.92 57.3800   1
  -4 -22  -2 848.430 47.7200   1
   4 -22   2 965.690 69.4400   1
  -4  22  -2 1057.53 70.2600   1
   1  32  -3 5.17000 13.6600   1
   1 -32  -3 -8.5200 11.4400   1
   1 -32  -3 -6.2100 17.0100   1
  -1 -32   3 2.35000 20.4100   1
   5 -19  -6 343.240 33.4900   1
   5  19  -6 325.830 28.9900   1
  -7   7   1 484.270 38.0600   1
  -7  -7   1 379.910 87.9100   1
   7  -7  -1 456.390 32.6800   1
   7   7  -1 387.480 87.8100   1
   7   4  -6 -15.850 16.2900   1
   7  -4  -6 8.92000 11.6800   1
   7  -4  -6 7.93000 14.7400   1
   7   4  -6 -15.180 10.4300   1
  -7  12   2 287.480 47.5600   1
  -7 -12   2 341.160 36.5700   1
   7 -12  -2 265.260 34.0900   1
   7  12  -2 313.290 30.9800   1
   7  12  -2 342.360 37.9800   1
   2  15   5 250.400 31.2500   1
  -2  15  -5 192.840 28.4400   1
  -2 -15  -5 232.040 25.4300   1
   2 -15   5 232.230 26.7900   1
   2 -15   5 242.020 62.2100   1
   2 -15   5 232.370 42.4700   1
   2  15   5 223.540 25.8700   1
   6  21  -2 150.810 37.9500   1
   6  21  -2 119.660 18.4300   1
   6  21  -2 111.550 25.4300   1
  -6 -21   2 88.4800 20.7200   1
   6 -21  -2 130.990 26.3400   1
   5  25  -4 161.460 37.8300   1
   5  25  -4 189.490 25.7600   1
   5 -25  -4 195.430 23.0600   1
   4  15  -7 169.770 21.8500   1
   4 -15  -7 201.180 24.7800   1
   0 -24  -5 44.6000 13.7900   1
   0 -24  -5 44.5900 17.7000   1
   0  24   5 68.7500 22.7100   1
   0  24  -5 26.3800 14.9500   1
   0 -24   5 43.3400 18.5000   1
   0 -24   5 26.6000 29.0900   1
  -2  22   6 156.720 40.2700   1
   2 -22  -6 146.800 20.4000   1
  -2 -22   6 134.760 19.5100   1
   2  22  -6 159.990 38.6400   1
  -3 -31   3 323.470 35.7200   1
   3 -31  -3 321.620 36.9700   1
   3 -31  -3 350.590 33.3600   1
   3  31  -3 354.230 30.0600   1
  -6  -9  -1 -13.240 24.4200   1
  -6  -9  -1 -7.3400 19.9300   1
   6  -9   1 29.0100 22.1300   1
   6   9   1 -67.920 25.5200   1
   6   9   1 -25.020 15.9300   1
  -6   9  -1 -2.5200 21.6300   1
   2  27   3 3.88000 14.3600   1
  -2 -27  -3 5.35000 16.4300   1
  -2 -27  -3 8.01000 15.4100   1
   2 -27   3 19.8700 19.3900   1
   2 -27   3 -26.570 31.6700   1
   2  27   3 14.2600 17.9400   1
   2 -27   3 1.21000 36.9700   1
   6   6  -7 26.7400 11.8600   1
   6  -6  -7 21.1600 12.9600   1
   6  -6  -7 65.4300 16.2000   1
  -4 -28   0 594.680 39.2500   1
   4  28   0 611.700 40.7700   1
   4  28   0 647.750 36.4900   1
   4 -28   0 570.960 37.3000   1
   4 -28   0 639.520 57.0600   1
   5 -20   1 558.130 38.8500   1
   5  20   1 589.180 34.4500   1
   5  20   1 433.280 33.0600   1
  -5 -20  -1 637.470 40.7100   1
  -5  20  -1 608.640 45.2500   1
   2 -32  -3 -4.9600 14.4600   1
  -2 -32   3 35.0100 15.0400   1
   2  32  -3 26.6000 11.6400   1
   2 -32  -3 10.5400 12.5800   1
   6  16   0 -15.870 13.7600   1
  -6 -16   0 -80.030 23.1700   1
  -6  16   0 -11.760 28.6200   1
   6  16   0 4.38000 17.6600   1
   6 -16   0 -25.880 20.9900   1
   1 -26  -5 551.160 37.1300   1
  -1  26   5 600.310 40.5200   1
   1 -26  -5 547.750 36.3900   1
  -1 -26   5 604.190 39.3900   1
   1  26  -5 677.820 37.1900   1
  -1 -26   5 575.610 45.6600   1
   7 -14  -3 129.470 28.9300   1
   7  14  -3 89.7300 16.6900   1
  -7  14   3 108.950 47.9100   1
  -7 -14   3 192.140 32.9000   1
   7  14  -3 135.700 19.5400   1
   3 -23   3 207.580 33.2300   1
   3  23   3 354.010 34.8400   1
   3  23   3 314.330 35.5900   1
  -3  23  -3 240.580 40.7300   1
  -3 -23  -3 301.140 28.6400   1
   3 -23   3 271.680 27.1600   1
   7  -5  -6 -3.9700 16.4100   1
   7  -5  -6 -16.890 11.5300   1
   7   5  -6 25.0300 13.1500   1
   7   5  -6 12.3300 10.8800   1
  -3 -27  -2 355.090 32.6800   1
   3 -27   2 214.550 37.9500   1
   3  27   2 361.490 34.7000   1
   3  27   2 353.720 38.6500   1
   3 -27   2 372.490 34.1000   1
   3 -32  -1 57.8200 24.6100   1
   3 -32  -1 19.7900 20.7900   1
  -3 -32   1 51.1200 19.5100   1
   3  32  -1 119.090 17.4500   1
  -3 -32   1 77.1900 16.6100   1
   3  32  -1 93.2600 20.0500   1
   6  15  -6 1403.33 60.7800   1
   1 -11  -7 213.450 21.8600   1
   1 -11  -7 163.240 22.1600   1
   1  11  -7 297.000 30.7500   1
  -1 -11   7 256.570 31.9400   1
  -1  11   7 231.400 25.8700   1
   2 -30  -4 48.1000 14.0000   1
   2  30  -4 4.42000 13.5800   1
  -2 -30   4 18.0100 14.0300   1
   2 -30  -4 12.3900 13.5900   1
   5 -23  -5 60.5200 15.7900   1
   5  23  -5 82.1500 17.8200   1
   5  23  -5 72.3600 13.6800   1
  -6 -21   4 164.540 26.5300   1
   6  21  -4 187.170 23.5700   1
   6  21  -4 188.470 19.0800   1
   6 -21  -4 142.950 27.3200   1
   3 -32  -2 9.03000 14.1000   1
   3  32  -2 -4.6100 12.0000   1
  -3 -32   2 -1.6800 18.6700   1
   3 -32  -2 25.5800 16.6900   1
   4   0   4 1973.81 99.0800   1
  -4   0  -4 2106.94 100.460   1
   6  19  -5 230.030 26.1300   1
   6  19  -5 270.660 24.2800   1
  -4   1  -4 341.080 36.3900   1
  -4  -1  -4 372.140 40.5900   1
   4  -1   4 351.620 43.8400   1
   4   1   4 405.370 95.1300   1
   5  13  -7 789.770 39.2300   1
   5 -13  -7 782.830 43.4200   1
   7   8  -1 -0.6400 15.2300   1
   7  -8  -1 55.0500 26.3300   1
  -7  -8   1 17.8800 25.5300   1
  -7   8   1 58.4500 26.1700   1
  -7 -14   4 -27.300 22.4600   1
   7  14  -4 -1.4100 15.0300   1
   7 -14  -4 -25.380 19.2900   1
   7  14  -4 -4.8400 12.3000   1
   7  14  -4 -35.640 19.8500   1
  -1  21  -5 163.550 20.6700   1
  -1 -21  -5 214.480 21.0800   1
   1 -21   5 292.500 54.2300   1
   1 -21   5 195.200 22.1800   1
   1  21   5 175.420 23.3900   1
   1 -21   5 173.530 39.1300   1
   6   7  -7 384.290 86.6800   1
   6  -7  -7 332.010 29.7400   1
   3  16  -7 -12.280 12.4600   1
   3 -16  -7 26.5400 14.4700   1
   4   2   4 1634.31 84.3000   1
  -4   2  -4 1636.58 93.0200   1
  -4  -2  -4 1668.04 100.430   1
   4  -2   4 1642.58 81.6800   1
   4  26   1 22.8100 17.5600   1
   4 -26   1 16.1600 15.9400   1
   4  26   1 -11.760 21.8500   1
   4 -26   1 15.4300 29.6100   1
  -4 -26  -1 5.29000 17.3500   1
   2 -27  -5 169.550 20.0600   1
  -2  27   5 139.340 34.4100   1
   2 -27  -5 177.530 23.3900   1
  -2 -27   5 134.110 21.0900   1
   2  27  -5 180.060 20.9700   1
  -4 -28   4 230.670 28.3700   1
   4  28  -4 232.810 22.7100   1
   4 -28  -4 217.670 28.3000   1
   3  17   4 138.440 23.7100   1
  -3  17  -4 60.4500 26.3800   1
  -3 -17  -4 78.4200 15.7000   1
   3 -17   4 119.460 33.7200   1
   3  17   4 136.660 23.0600   1
   3 -17   4 99.3700 18.1700   1
   0 -35   0 2.83000 18.5300   1
   0 -35   0 22.1500 11.9700   1
   7   6  -6 22.9500 12.7700   1
   7  -6  -6 4.01000 11.0600   1
   7   6  -6 16.3300 13.5600   1
  -7 -12   5 291.840 48.2100   1
   7  12  -5 151.210 35.7300   1
   7 -12  -5 198.120 23.2600   1
  -1 -12  -6 555.050 31.1100   1
   1 -12   6 699.750 66.8000   1
   1 -12   6 558.520 50.5700   1
   1  12   6 601.590 41.6300   1
   1  12   6 552.720 44.8000   1
  -1 -30  -3 1505.25 67.5500   1
  -1  30  -3 1607.40 78.3900   1
   1 -30   3 1470.00 73.5300   1
   1 -30   3 1310.83 101.690   1
   1 -30   3 1402.38 87.2300   1
   1  30   3 1473.44 73.0200   1
  -1 -30  -3 1442.13 81.7700   1
   6 -10   1 -38.990 27.1800   1
  -6 -10  -1 0.55000 25.7400   1
   6  10   1 -1.5500 17.8800   1
  -6  10  -1 5.18000 30.5000   1
   6  10   1 11.5400 21.1600   1
  -4   3  -4 53.5100 19.7300   1
  -4  -3  -4 26.7700 24.3700   1
   4  -3   4 36.4900 22.9900   1
   4   3   4 70.5600 21.6500   1
  -2 -15   7 86.4100 28.8800   1
   2  15  -7 84.6500 16.3200   1
   2 -15  -7 131.240 20.9800   1
   6  22  -3 619.490 45.3500   1
   6  22  -3 604.640 34.4700   1
  -6 -22   3 660.750 42.3400   1
   6 -22  -3 570.020 47.4100   1
   7  13  -2 352.630 48.1900   1
   7  13  -2 322.700 31.8900   1
  -7  13   2 344.100 46.3300   1
  -7 -13   2 335.470 38.2900   1
   7 -13  -2 301.340 35.0200   1
   1 -21  -6 -2.8600 15.4100   1
  -1  21   6 13.5100 15.5900   1
   1  21  -6 15.0500 13.8100   1
  -1 -21   6 19.9900 14.6300   1
  -1 -21   6 6.56000 21.9900   1
   4 -30  -2 -3.6800 20.3500   1
   4  30  -2 60.6200 23.8800   1
   4 -30  -2 15.6100 23.0200   1
  -4 -30   2 -34.320 19.5600   1
   4  30  -2 2.19000 12.4600   1
  -4 -30   2 -0.3900 20.0800   1
   1 -34   1 1585.85 87.2600   1
   1 -34   1 1804.39 89.0900   1
  -1 -34  -1 1634.54 75.0000   1
  -1  34  -1 1668.08 81.4000   1
  -1 -34  -1 1703.38 78.4500   1
   4  17   3 35.5000 25.8900   1
   4  17   3 3.52000 22.0000   1
   4 -17   3 -3.6700 30.7000   1
  -4 -17  -3 12.1200 14.5100   1
  -4  17  -3 -17.900 23.5900   1
  -5 -15  -2 75.6800 20.3500   1
   5  15   2 143.210 27.4800   1
  -5  15  -2 90.2800 30.8000   1
   5 -15   2 121.150 32.4300   1
   1 -30  -4 31.5600 13.8300   1
   1 -30  -4 44.5400 18.3600   1
   1  30  -4 25.3700 18.5800   1
  -1 -30   4 66.0100 16.1500   1
   0  18   6 235.010 28.2400   1
   0 -18  -6 193.510 20.2900   1
   0  18  -6 311.210 32.7800   1
   0 -18   6 237.600 33.1800   1
   2 -23   4 723.930 75.2600   1
   2 -23   4 656.810 59.7000   1
   2  23   4 753.480 43.7000   1
  -2 -23  -4 791.580 40.8500   1
   2 -23   4 761.820 48.2000   1
  -4  -4  -4 380.330 89.7000   1
   4   4   4 504.420 36.1600   1
  -4   4  -4 578.290 47.8300   1
   4  -4   4 461.730 42.6900   1
   1 -34  -2 170.090 21.7600   1
   1  34  -2 134.730 17.9600   1
  -1 -34   2 146.930 22.2700   1
   1 -34  -2 140.610 21.5500   1
   3 -27  -5 664.890 41.5600   1
   3 -27  -5 727.280 47.1000   1
   3  27  -5 773.590 39.2600   1
  -3 -27   5 733.650 43.5300   1
   4 -22  -6 84.6600 21.9400   1
   4 -22  -6 172.300 21.5000   1
   4  22  -6 109.230 19.0200   1
  -6 -20   1 43.4300 24.6500   1
  -6 -20   1 -9.0700 23.2500   1
   6  20  -1 23.0800 21.3900   1
   6  20  -1 32.8500 13.2100   1
   6 -20  -1 26.4300 21.6600   1
  -6  20   1 -24.440 41.4800   1
  -3   0  -5 4743.58 1047.18   1
   3   0   5 4343.44 191.730   1
  -3   1  -5 94.1900 24.3200   1
  -3  -1  -5 33.2100 20.2700   1
   3  -1   5 115.580 51.9300   1
   3   1   5 45.4500 37.7600   1
   6  -8  -7 161.080 38.6400   1
   6   8  -7 189.130 20.5100   1
   3 -30   1 379.870 89.9000   1
   3  30   1 294.220 29.0200   1
  -3 -30  -1 284.530 28.6800   1
  -3 -30  -1 342.140 30.8800   1
   3  30   1 236.890 30.3800   1
   3 -30   1 308.440 32.9700   1
   2 -16   5 51.8900 14.1000   1
   2  16   5 50.3800 18.4400   1
   2  16   5 68.9700 25.9200   1
   2 -16   5 80.7600 38.2100   1
   2 -16   5 116.380 43.2300   1
  -2 -16  -5 47.5700 16.2000   1
  -7   9   1 435.700 45.3100   1
  -7  -9   1 300.490 33.9000   1
   7   9  -1 404.010 93.9100   1
   7  -9  -1 352.500 35.4100   1
   7   9  -1 378.210 85.9900   1
   4 -16  -7 -58.090 20.3500   1
   4  16  -7 22.4300 15.9200   1
   0   0  -7 13.1900 10.0900   1
   0   0  -7 11.1400 12.3100   1
   0   0   7 35.3700 26.0700   1
   1 -12  -7 122.860 21.2400   1
   1  12  -7 116.220 19.0500   1
  -1 -12   7 158.990 44.9100   1
  -1  12   7 103.630 21.4300   1
   2  34  -1 0.24000 10.9500   1
  -2 -34   1 -4.4400 13.0700   1
  -2 -34   1 -5.7400 14.3100   1
   2 -34  -1 -24.930 21.0800   1
   2 -34  -1 4.94000 15.7700   1
   7  -7  -6 388.140 88.2000   1
   7  -7  -6 429.780 28.3500   1
   7   7  -6 444.900 29.1100   1
   0  -1  -7 824.370 41.4200   1
   0   1   7 941.800 59.5000   1
   0  -1   7 992.830 72.0500   1
   0  -1  -7 866.660 49.1300   1
   0   1  -7 830.160 48.6400   1
   0   1  -7 997.270 52.8200   1
   3   2   5 1380.17 75.9500   1
   3  -2   5 1402.26 77.3800   1
  -3  -2  -5 1158.89 62.8000   1
  -3   2  -5 1403.79 73.9500   1
  -3  23   6 36.4000 15.8100   1
   3 -23  -6 34.4700 17.8600   1
   3 -23  -6 50.5800 15.0000   1
   3  23  -6 48.3100 12.6500   1
  -3 -23   6 27.6800 19.3600   1
   5  24   0 50.8400 25.5800   1
   5  24   0 -26.650 17.2000   1
  -5 -24   0 46.3100 17.9800   1
  -5  24   0 -32.090 44.2300   1
   5 -24   0 22.3100 23.0000   1
   0  -2   7 388.310 91.4400   1
   0   2  -7 258.270 29.0500   1
   0  -2  -7 250.540 26.0200   1
   0   2  -7 290.090 29.0700   1
   0   2   7 347.390 40.3000   1
   0  -2  -7 264.330 25.1300   1
   7  15  -3 878.150 50.5100   1
  -7  15   3 1100.54 81.4600   1
  -7 -15   3 972.060 53.5200   1
   7  15  -3 1065.94 52.6100   1
   7 -15  -3 971.810 57.7900   1
   7  15  -3 1129.15 65.9100   1
  -4   5  -4 17.6300 19.4200   1
  -4   5  -4 39.3200 19.2400   1
  -4  -5  -4 23.9800 24.0800   1
   4  -5   4 22.1400 27.8700   1
   4   5   4 20.0600 25.6000   1
  -5 -26   1 305.150 34.3300   1
   5  26  -1 279.820 27.2900   1
   5  26  -1 244.050 28.1300   1
   5 -26  -1 316.900 37.5000   1
   5 -26  -1 279.900 31.6100   1
   5  26  -1 263.450 25.9700   1
   5 -20  -6 28.6900 16.0200   1
   5  20  -6 43.0100 14.2800   1
   3   3   5 26.9400 22.1000   1
   3  -3   5 100.620 38.6000   1
  -3  -3  -5 60.5300 16.0500   1
  -3   3  -5 74.4300 18.9700   1
   0 -29  -4 16.7800 16.4300   1
   0  29   4 -6.7100 21.6100   1
   0 -29  -4 9.39000 12.0400   1
   0 -29   4 10.1500 20.1300   1
   0 -29   4 -4.4600 32.2100   1
   0  29  -4 -6.1400 12.9900   1
  -6 -17   0 70.7000 24.9000   1
  -6  17   0 131.290 38.9500   1
   6  17   0 84.5400 17.1500   1
   6 -17   0 142.490 31.5000   1
   6  17   0 71.5800 19.7400   1
   4 -26  -5 829.210 50.7900   1
  -4 -26   5 952.530 55.5300   1
   4  26  -5 960.910 45.1000   1
   6  16  -6 17.6900 13.7200   1
   5 -14  -7 153.050 36.6500   1
   5  14  -7 209.090 22.7700   1
   0  -3  -7 331.260 29.4200   1
   0  -3  -7 315.790 33.0300   1
   0  -3   7 322.890 36.7800   1
   0   3  -7 307.920 31.4800   1
   0   3   7 382.980 91.3600   1
   0   3  -7 390.080 88.1500   1
  -6 -11  -1 72.7900 25.1900   1
  -6  11  -1 14.2000 23.5600   1
   6 -11   1 100.050 29.7800   1
   6  11   1 60.7100 21.3900   1
   6  11   1 41.0400 28.2100   1
   6  22  -2 86.4300 17.7400   1
   6  22  -2 49.8900 16.7100   1
  -6 -22   2 136.510 29.1300   1
   6  22  -2 81.1000 23.1500   1
   6 -22  -2 55.2900 27.0300   1
   4 -23   2 90.2300 22.0600   1
  -4 -23  -2 137.100 21.0300   1
  -4  23  -2 133.420 38.2600   1
   4 -23   2 92.4300 27.2400   1
   4  23   2 170.030 22.8600   1
   4  23   2 118.090 23.1300   1
  -7 -15   4 261.790 37.0600   1
   7  15  -4 270.450 26.3300   1
   7  15  -4 271.120 32.9600   1
   7  15  -4 249.420 23.7100   1
   7 -15  -4 260.780 30.7300   1
   0 -35   1 222.410 26.6600   1
   0  35  -1 188.500 23.9000   1
   0 -35  -1 176.460 26.1100   1
   0 -35  -1 175.610 21.3100   1
   5 -27  -2 146.360 31.2900   1
   5  27  -2 160.130 40.3100   1
   5  27  -2 168.950 21.0300   1
   5 -27  -2 173.870 23.1800   1
  -5 -27   2 220.340 27.6300   1
  -5 -27   2 182.380 25.9100   1
  -7 -13   5 1448.04 86.8800   1
   7 -13  -5 1295.85 66.5700   1
   7  13  -5 1283.20 58.1300   1
  -1 -13  -6 131.980 20.1200   1
   1 -13   6 253.820 47.6600   1
   1 -13   6 198.640 34.4500   1
   1  13   6 154.300 29.9300   1
   0 -32  -3 21.1400 12.0100   1
   0 -32  -3 42.9200 17.3000   1
   0 -32   3 -8.3600 20.7200   1
   0 -32   3 -13.410 25.9300   1
   3 -30  -4 143.520 23.9000   1
   3 -30  -4 191.900 27.0300   1
  -3 -30   4 157.090 27.4900   1
   3  30  -4 179.970 23.4300   1
  -1 -35   0 36.4500 13.5800   1
  -1 -35   0 9.14000 15.1900   1
   1 -35   0 11.6000 18.4900   1
   3   4   5 595.410 39.9800   1
   3  -4   5 614.970 42.7100   1
  -3  -4  -5 565.930 35.0400   1
  -3   4  -5 691.840 45.1800   1
   5  21   1 52.1400 30.5500   1
   5 -21   1 21.8600 23.0500   1
  -5  21  -1 -38.460 27.8700   1
  -5 -21  -1 16.3800 23.5400   1
   5  21   1 42.6900 19.2700   1
   1 -35  -1 61.3500 15.2100   1
   1 -35  -1 42.8600 15.1200   1
   1  35  -1 31.5400 11.4500   1
  -1 -35   1 22.5400 14.9600   1
   4  30  -1 32.4800 21.3400   1
  -4 -30   1 -6.0000 15.2900   1
  -4 -30   1 -8.5500 15.9200   1
   4  30  -1 2.03000 13.2400   1
   4 -30  -1 15.0500 16.5100   1
   4 -30  -1 52.1500 27.8400   1
   2 -23  -6 599.020 33.3900   1
   2  23  -6 756.990 38.4100   1
  -2 -23   6 668.900 38.0000   1
  -2  23   6 743.190 39.7400   1
   7  -8  -6 79.5800 15.5600   1
   7   8  -6 47.2600 11.3800   1
   7  -8  -6 36.8400 11.7800   1
   6  -9  -7 527.000 30.6100   1
   6   9  -7 552.980 28.4900   1
   0   4  -7 339.850 40.4800   1
   0  -4   7 342.620 47.9100   1
   0   4  -7 329.700 38.5500   1
   0  -4  -7 243.370 30.4300   1
   0   4   7 327.690 45.2600   1
   0  -4  -7 302.390 33.8900   1
  -4   6  -4 20.5900 25.6200   1
   4   6   4 68.4900 25.2200   1
   4  -6   4 38.2500 32.4900   1
  -4   6  -4 3.30000 18.8100   1
  -4  -6  -4 11.1400 24.0500   1
   3 -17  -7 363.460 26.9800   1
   3  17  -7 343.140 37.4100   1
   5  27  -3 634.910 32.6700   1
   5  27  -3 522.610 32.4800   1
   5 -27  -3 633.590 45.2900   1
  -5   0  -3 69.7000 25.3300   1
   5   0   3 88.8500 28.3200   1
  -7 -10   1 3.74000 17.9600   1
   7 -10  -1 -28.090 23.7400   1
   7  10  -1 0.21000 14.9500   1
  -7  10   1 48.1300 32.2000   1
   0 -25  -5 159.140 23.8000   1
   0  25   5 191.480 27.2800   1
   0 -25  -5 267.750 29.9000   1
   0 -25   5 189.340 24.4400   1
   0 -25   5 190.700 39.4400   1
   0  25  -5 214.320 28.3200   1
   0 -34   2 715.490 35.3500   1
   0 -34  -2 752.190 38.7300   1
   0  34  -2 823.110 43.5500   1
   0 -34  -2 789.140 33.1700   1
   1 -27   4 260.640 47.8900   1
  -1 -27  -4 325.960 35.3300   1
   1 -27   4 397.370 43.7500   1
   1  27   4 387.330 30.1600   1
  -1  27  -4 394.370 23.8000   1
  -1 -27  -4 310.190 37.2500   1
   1 -27   4 339.030 38.3300   1
  -5   1  -3 -25.800 19.3500   1
  -5   1  -3 43.6000 34.4600   1
  -5  -1  -3 -13.480 18.8700   1
   5  -1   3 62.3900 27.1900   1
   5   1   3 -7.6800 21.3100   1
   5  26  -4 996.070 37.3900   1
   5  26  -4 979.700 45.7300   1
   5 -26  -4 932.360 56.8900   1
   7  14  -2 47.5300 23.7500   1
   7  14  -2 40.4500 16.3100   1
   7 -14  -2 14.9900 19.2400   1
  -7 -14   2 63.5600 19.2000   1
  -7  14   2 43.6200 39.1500   1
   6  20  -5 66.9100 11.8100   1
   6  20  -5 26.4600 18.7700   1
   3  18   4 57.0900 22.2800   1
   3 -18   4 70.5700 33.9300   1
   3 -18   4 131.380 24.3300   1
  -3 -18  -4 76.6900 13.6600   1
  -3  18  -4 75.0600 19.4000   1
   3  18   4 9.90000 22.0600   1
   2  16  -7 6.25000 13.1100   1
   2 -16  -7 -12.420 12.4500   1
  -2 -16   7 25.3600 20.1100   1
  -5   2  -3 24.7500 20.2000   1
   5   2   3 60.8500 21.3100   1
  -5   2  -3 2.33000 18.0900   1
  -5  -2  -3 46.6800 19.4500   1
   5  -2   3 24.1500 26.1000   1
   4  30  -3 132.140 19.3300   1
   4  30  -3 123.070 24.3400   1
  -4 -30   3 153.980 27.9300   1
   4 -30  -3 174.030 25.1200   1
   3   5   5 0.46000 23.8400   1
  -3   5  -5 13.3800 16.3500   1
  -3  -5  -5 7.88000 14.0300   1
   3  -5   5 15.8700 23.5400   1
   6  22  -4 106.640 23.5000   1
   6  22  -4 104.870 15.8800   1
   3 -24   3 53.6000 31.8500   1
   3 -24   3 33.9500 20.8600   1
   3  24   3 11.5300 16.8800   1
  -3 -24  -3 9.25000 15.7800   1
  -3  24  -3 -24.170 31.0600   1
   3  24   3 7.13000 22.1200   1
  -2 -34   0 490.980 29.2200   1
   2 -34   0 362.070 39.6100   1
  -2  34   0 406.080 28.6000   1
   2 -34   0 443.020 31.8500   1
  -2 -34   0 496.130 31.3000   1
   2 -34   0 459.350 44.1200   1
   3  32   0 9.13000 21.7700   1
   3 -32   0 28.9400 27.0300   1
   3 -32   0 0.54000 16.9000   1
  -3 -32   0 45.2200 22.5900   1
  -3 -32   0 25.4100 17.7100   1
   0   5  -7 273.910 32.2600   1
   0  -5  -7 257.600 30.6500   1
   0  -5  -7 225.250 29.4900   1
   0   5  -7 274.640 32.9400   1
   0  -5   7 338.070 42.4400   1
   0   5   7 248.230 38.2600   1
   1  13  -7 96.3600 14.8900   1
   1 -13  -7 100.550 26.2000   1
  -1  13   7 112.250 23.5300   1
  -1 -13   7 116.770 26.3200   1
  -2 -28  -3 1271.85 56.9400   1
   2 -28   3 1245.06 54.8100   1
  -2 -28  -3 1065.78 39.3600   1
   2 -28   3 1165.52 77.1100   1
   2 -28   3 1168.43 67.5600   1
   2  28   3 1230.36 54.5100   1
   5  24  -5 46.1600 11.3800   1
   5  24  -5 26.8200 18.3200   1
   5 -24  -5 19.0800 17.6200   1
   1 -22   5 583.040 48.3600   1
   1  22   5 606.950 33.0200   1
   1 -22   5 568.740 35.9700   1
   1 -22   5 628.000 57.5700   1
  -1 -22  -5 651.960 30.1900   1
  -1  22  -5 637.990 35.1500   1
   4   0  -8 73.0900 11.8300   1
   4   0  -8 49.1300 15.3100   1
  -5  16  -2 1964.27 79.8000   1
   5 -16   2 2041.74 458.480   1
  -5 -16  -2 2016.22 451.770   1
   5  16   2 2033.24 454.800   1
   5  16   2 1668.10 56.8500   1
   4   1  -8 17.5000 11.4100   1
   4   1  -8 18.5100 12.5800   1
   4  -1  -8 32.4200 16.2600   1
   4  -1  -8 34.4700 10.8000   1
  -1  33  -2 36.7700 12.3300   1
  -1 -33  -2 16.2000 15.0600   1
   1 -33   2 6.41000 21.2200   1
  -1 -33  -2 26.0700 18.9800   1
   1  33   2 4.85000 19.4900   1
  -5  -3  -3 95.2600 20.0500   1
  -5   3  -3 95.4000 26.7200   1
  -5   3  -3 41.0900 27.0300   1
   5   3   3 69.3800 21.2400   1
   5  -3   3 64.8400 30.7700   1
  -2 -31  -2 38.2900 14.8800   1
  -2  31  -2 51.8000 16.3300   1
  -2 -31  -2 69.5900 12.3300   1
   2  31   2 42.2300 13.1400   1
   2 -31   2 40.7500 16.5800   1
   2  31   2 59.0500 23.2100   1
   2 -31   2 35.9900 34.3100   1
   2 -31   2 65.3200 24.7200   1
   1 -27  -5 219.250 26.4600   1
   1 -27  -5 269.860 33.4500   1
  -1  27   5 250.680 34.1900   1
   1  27  -5 255.260 30.9200   1
  -1 -27   5 270.620 31.9600   1
  -1 -27   5 294.050 45.1700   1
  -2 -34   2 71.5900 18.7400   1
   2  34  -2 6.82000 9.82000   1
   2 -34  -2 -6.2400 12.2100   1
   2 -34  -2 17.7400 20.8400   1
   4  29   0 105.750 21.5100   1
   4  29   0 140.320 19.7100   1
   4 -29   0 130.200 27.2300   1
   4 -29   0 100.190 38.1900   1
  -4   7  -4 106.690 26.7800   1
  -4   7  -4 112.410 22.0700   1
   4  -7   4 49.1200 31.4600   1
  -4  -7  -4 73.0400 21.9300   1
   4   7   4 139.720 32.5800   1
   4   2  -8 128.680 20.5000   1
   4  -2  -8 163.200 21.6600   1
   4   2  -8 92.4800 16.3700   1
   4  -2  -8 127.860 23.5800   1
   4  18   3 166.240 28.9400   1
  -4 -18  -3 95.6300 20.4600   1
   4  18   3 136.860 21.9100   1
  -4  18  -3 122.720 26.2000   1
   4 -18   3 143.590 29.3100   1
  -2 -33  -1 149.880 22.4200   1
   2 -33   1 148.180 28.3900   1
   2 -33   1 168.640 38.4000   1
  -2  33  -1 133.790 19.0700   1
   2  33   1 164.090 26.0500   1
  -2 -33  -1 139.760 22.1000   1
   2 -33   1 178.090 33.0000   1
   1 -33  -3 7.49000 14.3600   1
   1 -33  -3 5.41000 11.8700   1
  -1 -33   3 25.3100 14.3700   1
   1  33  -3 -0.4300 13.9400   1
   3 -28   2 313.960 44.6200   1
   3 -28   2 372.320 29.4600   1
  -3 -28  -2 389.190 27.1900   1
   3  28   2 484.020 28.7500   1
   3  28   2 439.080 25.1400   1
   2  17   5 6.86000 24.1100   1
   2  17   5 -53.050 20.2600   1
  -2 -17  -5 11.7400 12.2800   1
  -2  17  -5 -7.9300 19.1100   1
   2 -17   5 7.58000 17.9000   1
   2 -17   5 160.830 58.4800   1
   2 -17   5 -2.3200 36.7500   1
   0 -19  -6 22.1700 11.9200   1
   0  19   6 5.56000 19.3600   1
   0  19  -6 28.8300 13.8500   1
   0 -19   6 27.7300 29.3800   1
   7  -9  -6 1185.76 49.7300   1
   7   9  -6 1117.41 41.8200   1
   4 -17  -7 26.5000 14.7800   1
   4  17  -7 39.3300 15.5000   1
   3 -32  -3 87.7700 22.3100   1
   3 -32  -3 91.2400 18.5000   1
   3  32  -3 91.7100 13.8400   1
  -3 -32   3 104.460 21.8400   1
   6  12   1 466.800 31.8500   1
   6  12   1 401.560 39.1200   1
   6 -12   1 365.430 29.8600   1
  -6 -12  -1 535.890 36.9300   1
  -6  12  -1 419.480 40.8500   1
  -3   6  -5 266.190 35.2100   1
  -3  -6  -5 180.210 26.0500   1
   3  -6   5 254.320 37.5100   1
   3   6   5 186.200 36.6100   1
   5   4   3 5.13000 19.7500   1
  -5  -4  -3 30.1700 17.7000   1
   5  -4   3 -25.850 30.4300   1
  -5   4  -3 31.7100 18.3800   1
  -5   4  -3 -26.420 25.4600   1
   3   0  -8 23.5600 15.1800   1
   3   0  -8 13.8400 10.7100   1
   6  10  -7 172.800 22.5100   1
   6 -10  -7 163.560 22.5100   1
   4  -3  -8 156.320 21.0700   1
   4   3  -8 140.550 18.6200   1
   4   3  -8 136.290 22.7900   1
   4  -3  -8 161.090 25.5700   1
   3   1  -8 24.9800 14.3600   1
   3  -1  -8 32.9200 10.7200   1
   3   1  -8 33.2600 11.4700   1
   3  -1  -8 32.0000 14.0100   1
   0  -6   7 120.840 30.9100   1
   0   6   7 145.090 31.4400   1
   0  -6  -7 157.090 19.8800   1
   0   6  -7 146.270 18.4100   1
   0  -6  -7 121.610 18.9500   1
   0   6  -7 142.820 20.7500   1
   7  16  -3 -20.100 18.4000   1
   7  16  -3 50.4200 16.3200   1
  -7 -16   3 -7.8900 27.8600   1
   7 -16  -3 11.3700 17.6000   1
  -7  16   3 46.2600 38.5300   1
   1 -22  -6 42.7800 17.6400   1
  -1  22   6 63.0400 16.6500   1
  -1 -22   6 42.6100 14.8400   1
   1  22  -6 56.9200 19.1700   1
  -1 -22   6 26.5500 28.2700   1
   6  23  -3 338.510 41.1700   1
   6  23  -3 308.280 34.4800   1
  -6 -23   3 305.510 37.5100   1
   6 -23  -3 277.980 38.9900   1
   5  15  -7 1023.80 41.4500   1
   4  27   1 2.26000 18.1000   1
   4  27   1 35.7300 12.0700   1
   4 -27   1 29.3000 23.7700   1
   4 -27   1 100.180 29.9100   1
  -4 -27  -1 8.71000 17.3900   1
   3  -2  -8 110.050 16.0100   1
   3   2  -8 108.900 18.5600   1
   3   2  -8 106.950 15.9600   1
   3  -2  -8 127.380 17.2300   1
  -6 -21   1 96.4600 19.9900   1
   6  21  -1 53.3700 24.9100   1
   6  21  -1 66.4600 18.3500   1
  -6 -21   1 116.840 24.1700   1
   6 -21  -1 29.2500 21.6600   1
  -6  21   1 48.1700 35.2200   1
   2 -33  -3 70.6500 14.7700   1
   2 -33  -3 59.5800 13.5900   1
   2  33  -3 88.0600 12.0300   1
  -2 -33   3 75.6900 19.1100   1
   2 -31  -4 202.170 25.7300   1
   2 -31  -4 172.430 22.1200   1
  -2 -31   4 202.830 25.6300   1
   2  31  -4 128.480 20.6500   1
  -7 -11   1 7.77000 22.7600   1
  -7  11   1 13.4500 26.9700   1
   7 -11  -1 65.0000 24.4500   1
   7  11  -1 21.2300 15.7700   1
   7  11  -1 23.5500 17.3200   1
  -7 -14   5 60.3700 28.7200   1
   7  14  -5 9.81000 14.2500   1
   7 -14  -5 27.7900 19.9300   1
  -1 -14  -6 1308.43 49.4100   1
   1  14   6 1105.84 53.8300   1
   1 -14   6 1376.17 67.3900   1
   1 -14   6 1413.06 75.2500   1
   2 -28  -5 163.200 26.0500   1
   2 -28  -5 193.500 24.1100   1
  -2  28   5 156.570 24.9600   1
   2  28  -5 153.960 22.5000   1
  -2 -28   5 158.110 21.9700   1
   6  17  -6 1776.95 60.0000   1
   4 -23  -6 21.1800 12.9700   1
   4 -23  -6 41.4300 15.6800   1
   4  23  -6 50.4300 13.3300   1
   4  -4  -8 63.8700 17.7400   1
   4   4  -8 47.3700 12.2500   1
   4   4  -8 37.2800 13.6000   1
   4  -4  -8 76.6200 11.4000   1
   3 -33  -1 13.0600 12.6000   1
   3 -33  -1 66.5900 23.6200   1
  -3 -33   1 9.19000 18.7400   1
   3 -33  -1 -2.3800 18.6700   1
   3  33  -1 21.7800 17.2900   1
  -3 -33   1 -7.2900 19.8600   1
   3  33  -1 9.59000 11.1900   1
   6 -18   0 43.0800 27.4100   1
   6  18   0 -55.080 19.1600   1
   6  18   0 22.9600 17.7100   1
  -6  18   0 28.0100 36.8400   1
  -6 -18   0 -3.3800 19.1800   1
   7  16  -4 35.3100 16.9200   1
   7  16  -4 30.9900 13.7900   1
  -7 -16   4 0.49000 27.9800   1
   7  16  -4 23.2500 15.0100   1
   7 -16  -4 22.9300 20.9300   1
   4  29  -4 409.180 21.3200   1
  -4 -29   4 376.990 27.8600   1
   4 -29  -4 419.400 28.8500   1
   2 -24   4 212.730 53.2400   1
   2  24   4 164.140 25.9100   1
   2 -24   4 200.410 26.2300   1
   2 -24   4 211.480 40.4800   1
  -2 -24  -4 148.700 20.0500   1
   5  -5   3 8.24000 27.1500   1
  -5   5  -3 -3.9100 22.7600   1
  -5  -5  -3 -24.940 17.8900   1
   5   5   3 14.3400 20.0300   1
   3   3  -8 -2.2600 11.7700   1
   3  -3  -8 -4.6500 9.65000   1
   3   3  -8 4.83000 10.6600   1
   3  -3  -8 7.62000 10.1400   1
  -4   8  -4 32.5200 27.3800   1
  -4   8  -4 2.13000 21.0700   1
   4  -8   4 74.5200 31.1000   1
   4   8   4 30.3800 22.9500   1
  -4  -8  -4 -20.040 16.3400   1
   3 -33  -2 422.420 27.3000   1
  -3 -33   2 420.700 28.7200   1
   3 -33  -2 407.510 32.2600   1
   3  33  -2 423.390 23.3200   1
  -3   7  -5 43.5700 21.3300   1
   3  -7   5 75.1300 24.5300   1
  -3  -7  -5 55.8000 20.2100   1
   3   7   5 42.6900 24.3600   1
   5 -21  -6 552.610 34.3300   1
   5  21  -6 638.120 28.9400   1
  -3  24   6 462.070 34.0600   1
   3 -24  -6 594.550 37.5800   1
   3 -24  -6 681.010 40.2400   1
   3  24  -6 644.740 31.1800   1
  -3 -24   6 670.180 35.1800   1
   7 -15  -2 145.540 25.8900   1
  -7  15   2 88.8300 47.0700   1
   7  15  -2 136.910 20.0700   1
  -7 -15   2 138.640 29.7100   1
   7  15  -2 139.340 26.6700   1
   0   7  -7 162.670 23.5900   1
   0  -7  -7 120.400 18.8600   1
   0  -7  -7 164.360 23.0900   1
   0   7  -7 177.510 22.5500   1
   0  -7   7 149.250 28.4900   1
   0   7   7 172.220 33.0400   1
   1  31   3 26.5300 19.3900   1
  -1 -31  -3 27.7900 20.3700   1
   1 -31   3 -23.450 18.5100   1
   1 -31   3 -13.080 27.0800   1
   1 -31   3 28.6300 39.9500   1
  -1  31  -3 -1.2800 13.2200   1
  -1 -31  -3 -3.4200 13.9200   1
   3  -4  -8 315.230 38.9000   1
   3   4  -8 354.770 24.4200   1
   3  -4  -8 288.650 32.9500   1
   3   4  -8 315.980 37.0500   1
   4   5  -8 145.630 22.7100   1
   4  -5  -8 139.290 17.9600   1
   4   5  -8 138.820 18.7000   1
   4  -5  -8 139.680 23.4500   1
   5  25   0 2.66000 12.5500   1
   5  25   0 0.29000 22.0200   1
  -5 -25   0 -16.390 17.5500   1
   5 -25   0 -31.110 27.4900   1
   7  10  -6 268.060 28.9700   1
   7 -10  -6 239.930 32.1400   1
   3 -28  -5 76.9900 17.0200   1
   3 -28  -5 77.4800 15.5100   1
  -3 -28   5 97.9600 26.6500   1
   3  28  -5 117.670 19.5500   1
   3 -18  -7 20.2700 14.3900   1
   3  18  -7 -4.8400 17.4300   1
  -1  14   7 50.6100 17.8400   1
   1 -14  -7 30.2100 12.2500   1
  -1 -14   7 72.8200 26.8700   1
   1  14  -7 49.5000 17.4500   1
  -4 -31   2 135.380 27.1800   1
   4  31  -2 93.4400 18.1100   1
  -4 -31   2 142.660 23.5700   1
   4  31  -2 153.580 20.9000   1
   4 -31  -2 77.3400 24.4700   1
   4 -31  -2 153.170 24.2500   1
   5   6   3 408.650 33.1600   1
  -5  -6  -3 413.440 28.3400   1
  -5   6  -3 423.740 45.0300   1
   5  -6   3 455.100 32.4300   1
   2 -17  -7 16.5700 12.9500   1
  -2 -17   7 16.8100 19.5900   1
   2  17  -7 22.8900 16.6400   1
   6  11  -7 812.520 33.4900   1
   6 -11  -7 968.300 42.6200   1
  -6 -23   2 528.000 33.8900   1
   6  23  -2 512.150 24.9200   1
   6  23  -2 323.610 41.3500   1
   6  23  -2 465.840 24.4300   1
   6 -23  -2 491.130 38.5200   1
   1 -31  -4 172.340 24.5700   1
   1 -31  -4 149.010 23.4500   1
  -1 -31   4 178.820 25.6100   1
   1  31  -4 148.000 22.2800   1
   5 -22   1 710.660 55.6500   1
  -5  22  -1 774.180 55.6200   1
  -5 -22  -1 695.510 41.6200   1
   5  22   1 792.430 45.2400   1
   5  22   1 825.790 39.5400   1
   0 -36   0 316.500 37.6700   1
   3  19   4 38.0400 24.4400   1
   3  19   4 34.0500 19.6300   1
  -3 -19  -4 -25.200 15.6400   1
   3 -19   4 48.5300 14.8400   1
   3 -19   4 25.5800 31.7300   1
  -3  19  -4 69.9900 20.7500   1
   6  13   1 99.5100 30.6800   1
   6 -13   1 11.9800 31.0500   1
  -6 -13  -1 -22.160 24.6600   1
  -6  13  -1 0.23000 22.6800   1
   4 -24   2 692.570 36.8100   1
   4  24   2 545.280 33.7100   1
   4  24   2 720.490 39.5700   1
  -4 -24  -2 609.080 33.1000   1
   4 -24   2 722.260 47.2800   1
  -4  24  -2 526.090 45.1500   1
   5  27  -1 807.940 35.9700   1
  -5 -27   1 936.900 52.9300   1
   5  27  -1 761.370 37.6400   1
   5  27  -1 783.350 36.4200   1
   5 -27  -1 716.820 48.3100   1
   5 -27  -1 904.280 42.5600   1
  -5  17  -2 15.8700 23.2100   1
  -5 -17  -2 11.9700 17.2600   1
   5  17   2 21.4300 15.5000   1
   5 -17   2 41.2500 24.8700   1
   3   5  -8 157.190 20.8300   1
   3  -5  -8 181.430 22.9300   1
   3  -5  -8 194.350 24.3700   1
   3   5  -8 160.550 21.1200   1
   3  31   1 9.64000 18.4700   1
   3  31   1 -23.310 13.9100   1
  -3 -31  -1 -5.8000 12.2100   1
   3 -31   1 12.3100 29.6200   1
  -3 -31  -1 3.14000 22.1600   1
   3 -31   1 33.0500 17.0800   1
   4 -27  -5 32.0900 13.8100   1
   4  27  -5 31.1600 13.0700   1
  -4 -27   5 24.6400 15.0200   1
   6  21  -5 477.760 31.1700   1
   6  21  -5 444.820 21.5200   1
  -4   9  -4 97.7500 24.6400   1
   4   9   4 84.9100 20.7300   1
   4  -9   4 15.0100 28.3600   1
  -4  -9  -4 68.3600 17.0200   1
   4   9   4 94.0300 23.2700   1
   3  -8   5 -26.220 23.9000   1
   3   8   5 23.3200 19.5300   1
  -3   8  -5 3.74000 20.9500   1
  -3  -8  -5 40.3200 17.2700   1
   4  -6  -8 -10.020 17.5800   1
   4   6  -8 -12.760 12.8800   1
   4   6  -8 5.89000 13.8300   1
   4  -6  -8 12.3500 13.4500   1
  -2  24   6 75.5500 16.9100   1
   2 -24  -6 53.4600 12.9300   1
   2  24  -6 82.6000 14.9700   1
  -2 -24   6 76.7100 15.9300   1
   7  12  -1 20.6700 18.6800   1
  -7  12   1 -44.660 40.5500   1
  -7 -12   1 10.0300 25.4600   1
   7  12  -1 0.66000 26.4900   1
   7 -12  -1 11.0400 19.7500   1
  -1 -35  -1 -0.1500 10.8500   1
  -1  35  -1 18.0400 11.5500   1
  -1 -35  -1 16.3400 19.1800   1
   1 -35   1 54.6200 19.1800   1
   1 -35   1 17.4700 22.9900   1
  -7   0   0 81.2000 28.8000   1
   7   0   0 39.0800 25.9200   1
   0  -8  -7 144.790 19.1100   1
   0  -8  -7 92.6300 12.4300   1
   0  -8   7 77.1400 29.0000   1
   0   8  -7 95.0600 18.0000   1
   7   1   0 949.080 45.0800   1
   7  -1   0 1016.40 46.5300   1
  -7  -1   0 1028.62 48.4100   1
  -7   1   0 960.950 46.2000   1
   1  35  -2 323.640 36.2600   1
   1 -35  -2 397.270 29.0300   1
  -1 -35   2 349.560 81.7900   1
   1 -35  -2 328.870 36.4500   1
   0 -30  -4 -16.020 16.4600   1
   0 -30  -4 12.5700 16.1300   1
   0  30   4 24.4100 17.8800   1
   0  30  -4 18.2200 13.4300   1
   0 -30   4 -23.060 31.5200   1
   0 -30   4 9.23000 14.5500   1
   2 -18   5 245.970 30.8200   1
   2  18   5 274.940 33.6100   1
   2 -18   5 319.740 55.0200   1
   2 -18   5 312.660 66.7200   1
  -2 -18  -5 347.320 78.9800   1
   4  19   3 27.5300 15.5200   1
  -4 -19  -3 2.99000 14.3200   1
   4  19   3 4.12000 21.5300   1
   4 -19   3 -5.4200 34.6900   1
  -4  19  -3 28.3300 26.7500   1
   5  -7   3 72.9800 23.6400   1
  -5  -7  -3 57.5600 18.7800   1
  -5   7  -3 20.1800 20.4700   1
   5   7   3 101.060 34.2300   1
  -7   2   0 229.030 36.5300   1
  -7  -2   0 307.090 42.9000   1
   7  -2   0 247.060 32.6500   1
   7   2   0 270.880 36.4600   1
   6  23  -4 54.5800 19.7700   1
   6  23  -4 59.4900 11.8000   1
   5  28  -2 764.890 34.8300   1
  -5 -28   2 869.800 45.0700   1
  -5 -28   2 873.290 50.7100   1
   5 -28  -2 771.750 42.3300   1
   5 -28  -2 761.140 55.7200   1
   5  28  -2 667.250 38.9900   1
   4 -18  -7 22.3700 18.4400   1
   4  18  -7 -1.5200 13.5800   1
   5  16  -7 24.2900 13.1500   1
   7 -15  -5 1636.52 65.6000   1
   7  15  -5 1421.14 45.2100   1
  -7 -15   5 1688.61 84.3300   1
   1 -15   6 223.570 58.4000   1
   1 -15   6 12.3400 32.4700   1
  -1 -15  -6 73.0200 13.0000   1
  -7 -17   3 898.990 44.0100   1
   7  17  -3 840.490 48.4900   1
   7  17  -3 879.110 34.1500   1
   7  17  -3 858.880 34.6900   1
  -7  17   3 856.520 58.4300   1
   7 -17  -3 999.210 49.3300   1
   0  26   5 4.22000 20.1600   1
   0 -26  -5 -40.820 15.9500   1
   0 -26  -5 -15.840 12.1400   1
   0 -26   5 -22.860 32.2500   1
   0 -26   5 -1.2300 21.2200   1
   0  26  -5 0.57000 19.7200   1
   2 -35  -1 257.410 31.6600   1
  -2 -35   1 225.590 29.9200   1
   2 -35  -1 214.710 32.5800   1
   2  35  -1 193.790 24.3000   1
   2   0   6 348.440 87.9400   1
   2   0   6 226.590 37.5300   1
  -2   0  -6 242.490 31.7500   1
   5   0  -8 25.8000 15.2000   1
   3   6  -8 201.010 24.7200   1
   3  -6  -8 182.110 25.7900   1
   3  -6  -8 190.970 22.9800   1
   3   6  -8 150.090 23.2500   1
   1  23   5 242.760 31.5900   1
  -1 -23  -5 205.010 24.5200   1
   1 -23   5 134.010 41.0100   1
   1 -23   5 194.130 26.8100   1
   1 -23   5 225.050 45.9800   1
  -1  23  -5 228.040 27.9700   1
   2   1   6 45.7900 35.4700   1
  -2  -1  -6 4.39000 15.7800   1
  -2   1  -6 -4.8000 12.9100   1
   2   1   6 30.2300 27.6100   1
   2  -1   6 -23.440 22.2400   1
   2  -1   6 30.8200 44.0000   1
   5   1  -8 14.8700 15.7200   1
   5  -1  -8 24.0500 13.2200   1
   0  20   6 225.970 29.4700   1
   0 -20  -6 215.090 25.4000   1
   0 -20   6 208.130 41.0800   1
   0  20  -6 209.360 27.7200   1
   3  25   3 126.290 19.6400   1
  -3 -25  -3 93.3100 16.6800   1
   3 -25   3 76.6600 16.1400   1
   3 -25   3 58.0900 33.2900   1
   3  25   3 80.8100 19.0300   1
   5  28  -3 381.670 27.5200   1
   5  28  -3 407.540 22.7600   1
   5 -28  -3 351.430 24.5000   1
   7   3   0 780.920 36.2300   1
   7  -3   0 720.430 40.4600   1
  -7  -3   0 826.020 46.3900   1
  -7   3   0 827.390 42.3200   1
   7 -11  -6 556.780 34.3400   1
   7  11  -6 588.520 27.4400   1
   5  27  -4 -8.4900 10.9600   1
   5 -27  -4 11.8000 15.7300   1
   5  27  -4 13.8300 19.2200   1
   2   2   6 125.910 26.4200   1
   2  -2   6 81.0300 22.8000   1
   2  -2   6 134.710 45.7200   1
  -2  -2  -6 70.5500 16.7200   1
  -2   2  -6 85.9500 17.7900   1
   2   2   6 88.4300 44.7100   1
  -1  28  -4 610.900 31.2200   1
  -1 -28  -4 583.560 29.2700   1
  -1 -28  -4 491.890 31.1200   1
   1 -28   4 625.090 50.5000   1
   1 -28   4 593.470 44.3100   1
   1 -28   4 647.600 33.6400   1
   1  28   4 576.160 34.0900   1
   3 -31  -4 1419.23 54.2100   1
   3 -31  -4 1419.83 61.2000   1
   3  31  -4 1508.87 49.2100   1
  -3 -31   4 1563.63 61.2200   1
   5   2  -8 9.77000 13.6600   1
   5  -2  -8 10.7400 15.4300   1
   5 -25  -5 -9.6300 13.8100   1
   5  25  -5 -1.3000 11.2400   1
   5  25  -5 19.8400 18.2300   1
   4  -7  -8 4.95000 16.0400   1
   4  -7  -8 22.0500 9.11000   1
   4   7  -8 25.9500 11.2600   1
   4   7  -8 0.53000 11.0800   1
  -7 -17   4 21.4800 21.3200   1
   7  17  -4 -13.810 14.2400   1
   7  17  -4 8.47000 12.3000   1
   7  17  -4 -2.0400 18.1100   1
   7 -17  -4 53.1800 20.9900   1
   4  31  -1 785.010 40.2600   1
  -4 -31   1 624.500 40.6800   1
  -4 -31   1 850.430 46.7200   1
   4  31  -1 923.520 35.5300   1
   4 -31  -1 752.870 55.8300   1
   4 -31  -1 891.430 50.1000   1
   6  18  -6 18.7800 15.7300   1
   0 -33  -3 419.460 24.0700   1
   0  33  -3 446.700 29.7900   1
   0 -33   3 398.320 40.1500   1
   0 -33  -3 384.350 30.1400   1
   0 -33   3 457.060 29.5200   1
   3  -9   5 81.4700 25.4000   1
   3   9   5 107.170 27.4600   1
  -3  -9  -5 134.140 20.2500   1
  -3   9  -5 127.900 23.3600   1
  -3   9  -5 135.340 30.0500   1
   3   9   5 97.5300 22.0600   1
   2   3   6 79.1300 27.6800   1
  -2   3  -6 63.5000 17.6200   1
   2  -3   6 99.7400 51.3400   1
   2  -3   6 28.7900 31.2500   1
  -2  -3  -6 65.3600 15.7400   1
   2   3   6 91.4100 48.0800   1
   6 -12  -7 94.4200 15.8000   1
   6  12  -7 105.370 15.8700   1
  -6 -19   0 262.350 39.0000   1
   6  19   0 269.940 31.3000   1
   6  19   0 225.670 50.4600   1
  -6  19   0 274.710 43.6700   1
   6 -19   0 278.440 38.1300   1
   5   3  -8 45.2000 11.2600   1
   5  -3  -8 38.7800 15.1200   1
  -7  -4   0 1078.72 57.9600   1
  -7   4   0 1087.10 52.3500   1
   7  -4   0 1024.78 50.8100   1
   7   4   0 928.430 39.8900   1
  -7 -16   2 112.210 22.2500   1
   7  16  -2 38.6300 16.5000   1
   7  16  -2 47.3600 24.3100   1
   7 -16  -2 73.0200 20.7800   1
  -7  16   2 32.9000 34.2100   1
   4  10   4 239.330 38.5700   1
  -4  10  -4 201.420 31.7700   1
   4 -10   4 273.880 41.4700   1
  -4 -10  -4 204.080 33.5000   1
   4  10   4 288.980 36.6100   1
   0   9  -7 -18.460 19.2500   1
   0  -9   7 -23.980 21.7500   1
   0  -9  -7 47.5400 15.6500   1
   0  -9  -7 -3.8500 12.6000   1
   1 -23  -6 126.590 18.4700   1
  -1  23   6 143.500 23.0500   1
  -1 -23   6 134.330 31.8700   1
  -1 -23   6 134.710 21.2200   1
   1  23  -6 119.260 19.3700   1
   1 -15  -7 79.9500 13.3900   1
  -1 -15   7 100.950 35.5600   1
   1  15  -7 125.250 22.0800   1
  -1  15   7 72.7200 18.6000   1
   6  22  -1 303.170 43.7500   1
   6  22  -1 248.940 28.6400   1
  -6 -22   1 329.010 43.5000   1
  -6 -22   1 365.430 30.2700   1
   6 -22  -1 257.850 35.4700   1
  -6  22   1 232.610 45.2900   1
  -5   8  -3 689.790 54.1400   1
   5   8   3 685.070 42.3600   1
   5  -8   3 676.870 39.2900   1
  -5  -8  -3 596.130 37.7200   1
  -2 -29  -3 66.5800 20.4800   1
   2 -29   3 59.3200 25.9200   1
   2  29   3 63.1100 18.6100   1
   2 -29   3 89.1200 36.3100   1
  -2 -29  -3 55.9100 12.3500   1
   2 -29   3 21.9600 19.6600   1
  -1 -28   5 338.810 40.0800   1
  -1  28   5 405.500 29.5300   1
  -1 -28   5 369.540 29.9900   1
   1 -28  -5 371.450 29.8900   1
   1  28  -5 384.990 27.0900   1
   1 -28  -5 315.170 36.6000   1
   0 -36  -1 321.290 36.3300   1
   0  36  -1 270.780 30.2500   1
   0 -36  -1 368.470 25.7700   1
   0 -36   1 318.280 38.9600   1
   4  31  -3 662.700 36.1500   1
   4  31  -3 701.330 31.0300   1
  -4 -31   3 714.480 36.6900   1
   4 -31  -3 730.580 40.0500   1
   3  -7  -8 394.680 23.9400   1
   3  -7  -8 394.860 23.8300   1
   3   7  -8 377.800 26.3500   1
   6 -24  -3 474.710 34.6000   1
   6  24  -3 514.770 28.3900   1
  -6 -24   3 555.020 34.6000   1
   6  24  -3 588.970 35.6100   1
   1 -36   0 468.290 31.4000   1
  -1 -36   0 470.220 29.9600   1
  -1 -36   0 385.620 34.1000   1
   1 -36  -1 327.190 37.6800   1
   1 -36  -1 364.070 21.0200   1
  -1 -36   1 349.750 81.7700   1
  -6  14  -1 977.560 59.6300   1
   6  14   1 1084.61 51.5500   1
   6  14   1 1079.16 43.8500   1
   6 -14   1 904.520 46.2100   1
  -6 -14  -1 1165.72 54.2300   1
   2   4   6 42.2200 26.4200   1
   2  -4   6 -27.380 44.6300   1
   2  -4   6 -3.7900 27.7800   1
   2   4   6 13.7000 32.2100   1
  -2  -4  -6 -0.9600 15.6500   1
  -2   4  -6 -3.5600 17.8600   1
   5  -4  -8 54.7900 13.3000   1
   5   4  -8 48.2400 13.9900   1
  -4 -30   0 -22.580 21.9100   1
   4  30   0 -9.7600 23.5000   1
   4  30   0 48.4700 12.4200   1
   4 -30   0 16.7800 29.4500   1
   4 -30   0 31.4600 16.8300   1
   7  13  -1 137.710 23.9500   1
  -7  13   1 124.610 39.2900   1
   7 -13  -1 105.650 30.3200   1
   7  13  -1 159.110 27.5600   1
  -7 -13   1 185.550 26.8900   1
   0  35  -2 6.88000 11.3100   1
   0 -35  -2 28.9800 20.7800   1
   0 -35  -2 4.99000 11.3500   1
   0 -35   2 24.8600 15.1100   1
  -8   0   4 37.3700 29.1600   1
   8   0  -4 23.5000 20.9200   1
  -7   5   0 398.560 30.8700   1
   7  -5   0 461.860 34.6200   1
  -7  -5   0 527.930 34.0400   1
   7   5   0 471.400 27.1200   1
   4 -24  -6 13.4100 13.0500   1
   4 -24  -6 -6.6000 15.1100   1
   4  24  -6 -12.860 10.8700   1
   3 -29   2 54.3500 31.6000   1
   3  29   2 154.460 31.5800   1
   3 -29   2 191.040 26.3000   1
   3  29   2 223.700 28.6900   1
  -3 -29  -2 166.790 23.5400   1
  -8   1   4 29.0800 31.0500   1
  -8  -1   4 -46.060 35.9600   1
   8  -1  -4 59.6300 20.6100   1
   8   1  -4 0.17000 18.2900   1
   3 -19  -7 111.330 20.9700   1
   3  19  -7 143.000 22.8500   1
   2 -18  -7 57.0800 17.3900   1
   2  18  -7 13.9300 17.0400   1
  -2 -18   7 -16.990 27.3000   1
   4   8  -8 3.09000 14.1800   1
   4  -8  -8 -2.2100 12.7700   1
   4  -8  -8 6.68000 13.6900   1
  -3 -33   0 119.880 18.6200   1
  -3 -33   0 127.450 26.7000   1
   3 -33   0 149.640 24.0700   1
   3 -33   0 35.3300 26.9500   1
   3  33   0 144.540 27.8200   1
   5 -22  -6 129.600 22.4900   1
   5  22  -6 103.190 19.0700   1
   2 -32   2 1363.06 76.5000   1
   2  32   2 1417.52 58.7000   1
  -2  32  -2 1432.16 55.0700   1
  -2 -32  -2 1438.27 62.6700   1
   2 -32   2 1422.78 56.0600   1
  -2 -32  -2 1381.05 51.5600   1
  -8   2   4 104.720 41.1400   1
  -8  -2   4 71.8000 40.9200   1
   8  -2  -4 74.2000 15.2800   1
   8   2  -4 71.1300 18.1300   1
   2 -25   4 3.05000 15.0800   1
  -2 -25  -4 14.8100 12.8300   1
   2  25   4 11.0600 22.9300   1
   2 -25   4 22.7800 26.1600   1
   2 -25   4 -14.540 37.2100   1
   2 -35   0 7.50000 23.1300   1
   2 -35   0 -13.540 26.8800   1
   2 -35   0 7.65000 19.1900   1
  -2 -35   0 -5.6000 13.9900   1
  -2 -35   0 15.8200 13.8000   1
  -4 -28  -1 74.6400 15.1100   1
   4 -28   1 50.2700 17.0600   1
   4 -28   1 40.7500 34.2100   1
   4  28   1 90.1400 15.6100   1
   4  28   1 46.7800 24.8000   1
   1 -34   2 82.5700 16.9800   1
  -1 -34  -2 91.7900 12.4800   1
  -1  34  -2 43.0700 15.6500   1
   1  34   2 62.2800 19.7300   1
  -1 -34  -2 61.3000 18.9700   1
   1 -34   2 55.1900 27.5700   1
   5  18   2 1404.22 59.1300   1
   5  18   2 1516.60 53.4700   1
   5 -18   2 1581.57 70.8400   1
  -5 -18  -2 1492.62 74.6000   1
  -5  18  -2 1512.90 75.1900   1
   2   5   6 116.940 26.2900   1
   2  -5   6 171.670 52.5500   1
   2   5   6 186.720 44.9200   1
   2  -5   6 112.650 27.0800   1
  -2   5  -6 143.640 21.9900   1
  -2  -5  -6 168.820 24.8500   1
   5   5  -8 204.350 21.2400   1
   5  -5  -8 234.910 22.5400   1
   7  12  -6 452.440 28.3700   1
   2   0  -8 537.870 44.2900   1
   2   0  -8 573.420 42.1500   1
   2 -35  -2 32.6400 17.9600   1
   2  35  -2 42.8400 15.0000   1
   2 -35  -2 97.0300 31.3700   1
  -2 -35   2 65.3900 25.2700   1
  -8   3   4 128.080 46.1000   1
   8   3  -4 30.3400 15.7000   1
   8  -3  -4 64.9600 26.4800   1
  -8  -3   4 33.8000 33.8700   1
   3 -20   4 304.130 29.5800   1
  -3 -20  -4 313.640 32.0000   1
   3  20   4 353.700 88.1300   1
   3  20   4 316.360 34.0500   1
   3 -20   4 156.500 29.6100   1
  -3  20  -4 253.070 32.9700   1
  -2  -1   8 52.7500 21.5000   1
   2   1  -8 78.8800 24.0200   1
   2  -1  -8 68.8500 21.5300   1
   2  -1  -8 54.2500 18.0900   1
   2   1  -8 41.8900 16.6900   1
   2 -29  -5 588.460 42.1600   1
  -2  29   5 598.320 45.7100   1
   2 -29  -5 583.670 37.1800   1
  -2 -29   5 544.250 38.8900   1
   2  29  -5 580.250 40.3200   1
  -3  10  -5 -18.480 23.6500   1
  -3  10  -5 17.9000 18.3300   1
  -3 -10  -5 25.7400 18.0100   1
   3 -10   5 6.26000 24.6900   1
   3  10   5 109.390 28.4800   1
   3  10   5 32.7100 19.4900   1
  -3  25   6 47.5100 20.5000   1
  -3 -25   6 23.2700 17.1900   1
   3 -25  -6 75.7000 27.6100   1
   3 -25  -6 39.3800 19.3800   1
   3  25  -6 30.4500 16.0900   1
   2 -34   1 -52.550 29.6200   1
   2  34   1 -23.910 18.4400   1
  -2  34  -1 11.2600 16.2600   1
  -2 -34  -1 -2.4300 15.3100   1
  -2 -34  -1 0.12000 11.4000   1
   2 -34   1 33.6800 24.1900   1
   2 -34   1 12.8100 38.0700   1
   3 -33  -3 62.0100 24.4700   1
  -3 -33   3 3.08000 17.8800   1
   3  33  -3 18.1900 14.7700   1
   3 -33  -3 1.98000 16.9900   1
   3  -8  -8 410.890 31.0500   1
   3  -8  -8 362.520 29.3600   1
   3   8  -8 393.620 32.3300   1
  -1 -34   3 -1.6600 20.7100   1
   1 -34  -3 34.0800 19.8800   1
   1  34  -3 28.9200 24.0600   1
   1 -34  -3 -9.2900 11.3200   1
   5  -9   3 204.360 35.9800   1
  -5   9  -3 201.440 27.3400   1
  -5  -9  -3 271.430 34.8600   1
   5   9   3 215.670 31.7600   1
   7  -6   0 689.630 48.5200   1
   7   6   0 698.560 45.5700   1
  -7   6   0 541.340 45.4400   1
  -7  -6   0 634.470 46.3200   1
   7  16  -5 33.5600 16.1300   1
  -7 -16   5 36.1000 39.7900   1
   7 -16  -5 26.7900 19.9800   1
  -1 -16  -6 1803.97 95.2200   1
   1  16   6 2016.12 476.790   1
   1 -16   6 1897.88 117.550   1
   1 -16   6 2222.26 529.080   1
   0 -10  -7 3.50000 13.9000   1
   0  10  -7 28.7800 15.8000   1
   0 -10   7 -25.430 28.6700   1
   2   2  -8 882.160 54.7300   1
   2  -2  -8 962.800 56.7500   1
  -2  -2   8 885.760 66.1100   1
   2   2  -8 949.630 63.1200   1
   2  -2  -8 872.500 57.5600   1
  -4  11  -4 201.950 29.0700   1
  -4 -11  -4 204.160 23.9300   1
   4 -11   4 235.960 31.6100   1
   4  11   4 239.700 31.0200   1
   4  11   4 162.120 37.5700   1
   2 -32  -4 12.6000 12.1400   1
   2 -32  -4 82.2000 28.8400   1
   2  32  -4 21.8900 13.9900   1
  -2 -32   4 2.63000 17.3900   1
   5  17  -7 945.140 55.3800   1
   5  23   1 92.4000 33.5600   1
  -5 -23  -1 21.8200 17.5400   1
   5  23   1 -6.2800 19.6500   1
   5 -23   1 114.990 26.5200   1
  -5  23  -1 44.6600 32.0300   1
  -5 -26   0 13.3500 17.3200   1
   5  26   0 50.9000 20.1900   1
   5  26   0 -1.5300 17.9300   1
   5 -26   0 19.3000 17.0000   1
   5 -26   0 -13.420 33.1400   1
   4  30  -4 605.420 39.7100   1
  -4 -30   4 457.190 34.6500   1
   4 -30  -4 486.070 39.7900   1
   6  24  -2 12.6500 12.7500   1
  -6 -24   2 -10.070 16.4300   1
   6  24  -2 53.0000 21.0400   1
   6  24  -2 -1.9900 23.1400   1
   6 -24  -2 -42.330 24.9900   1
   6 -13  -7 894.030 55.4300   1
   6  13  -7 894.380 51.8200   1
  -8   4   4 269.950 48.5400   1
  -8  -4   4 116.100 29.5300   1
   8  -4  -4 133.300 18.7100   1
   8   4  -4 138.550 18.1900   1
   2 -19   5 -44.230 36.2600   1
   2 -19   5 2.72000 45.2000   1
   2  19   5 27.2700 18.0300   1
   2 -19   5 47.6600 20.7300   1
  -2 -19  -5 2.18000 15.2900   1
   7  18  -3 41.8500 21.8800   1
  -7 -18   3 80.0500 35.0700   1
   7  18  -3 86.3100 27.5200   1
   7 -18  -3 32.4800 26.1200   1
   6  22  -5 115.460 21.5200   1
   6  22  -5 100.880 14.1400   1
   6 -22  -5 56.0300 21.4900   1
   4 -19  -7 36.4000 20.5500   1
   4  19  -7 59.5500 19.1400   1
   2  -3  -8 98.4800 27.8300   1
   2   3  -8 80.3400 24.6200   1
  -2  -3   8 93.2800 32.5700   1
   2   3  -8 104.240 18.2500   1
   2  -3  -8 118.760 18.5300   1
   2 -34  -3 54.3100 20.4300   1
   2  34  -3 54.5900 18.8300   1
  -2 -34   3 70.1800 27.6100   1
   2 -34  -3 18.5800 18.0900   1
   8   0  -3 -23.030 18.0100   1
  -8   0   3 -21.350 24.4600   1
   2  -6   6 -20.000 37.3600   1
   2  -6   6 -38.140 22.1800   1
   2   6   6 -28.160 29.0600   1
  -2  -6  -6 -2.8100 15.2800   1
   2   6   6 -60.000 37.0300   1
  -2   6  -6 -4.2100 14.9500   1
   4  20   3 9.07000 22.2400   1
   4 -20   3 36.9000 32.5400   1
   4  20   3 21.8300 21.9800   1
  -4  20  -3 -3.7400 27.5500   1
  -4 -20  -3 12.7500 14.5100   1
   5   6  -8 -13.170 11.3000   1
   5  -6  -8 6.03000 14.2400   1
   8  -1  -3 4.11000 21.1200   1
  -8  -1   3 27.8100 32.2100   1
   8   1  -3 -4.5900 14.5800   1
  -8   1   3 60.2900 30.0600   1
   4  -9  -8 55.1300 17.9800   1
   4  -9  -8 38.7600 17.2300   1
   4   9  -8 33.3300 16.5200   1
  -4 -25  -2 227.660 22.8400   1
   4  25   2 212.540 24.4500   1
   4 -25   2 206.960 30.6200   1
   4 -25   2 194.500 22.7400   1
  -4  25  -2 239.740 48.6900   1
   4  25   2 242.660 30.4300   1
   3 -29  -5 307.460 28.8100   1
   3 -29  -5 328.760 30.1200   1
  -3 -29   5 322.080 34.1200   1
   3  29  -5 289.140 24.9200   1
   3  34  -1 -25.910 20.9300   1
   3 -34  -1 4.44000 18.6100   1
   3 -34  -1 -11.830 36.1000   1
  -3 -34   1 -57.490 18.5700   1
   3  34  -1 10.8500 9.66000   1
   3 -34  -1 -7.0700 12.8800   1
  -3 -34   1 8.51000 16.8900   1
   3 -34  -1 7.70000 16.6800   1
  -8  -2   3 -20.640 34.1800   1
  -8   2   3 -41.680 26.4800   1
   8   2  -3 -19.090 18.6900   1
   8  -2  -3 44.7000 19.2000   1
   7   0  -7 35.3900 18.1200   1
   7   0  -7 41.2500 17.3100   1
  -7 -18   4 40.0300 32.0300   1
   7  18  -4 27.0500 17.7800   1
   7  18  -4 57.3100 23.0700   1
   7  18  -4 38.3600 21.1200   1
   7 -18  -4 4.35000 21.7300   1
   7  -1  -7 9.98000 11.7600   1
   7  -1  -7 23.7300 14.4600   1
   7   1  -7 -10.520 13.2400   1
  -2  25   6 750.140 50.4400   1
   2 -25  -6 841.200 54.9000   1
   2  25  -6 866.510 53.7700   1
  -2 -25   6 692.310 46.5000   1
  -6   0  -2 -35.490 22.8500   1
   6   0   2 31.4600 21.7000   1
   3 -34  -2 31.3300 21.0800   1
   3  34  -2 1.06000 14.2400   1
  -3 -34   2 21.0900 16.0100   1
   3 -34  -2 27.6800 18.4200   1
   6   1   2 33.6300 21.9800   1
  -6   1  -2 -48.900 24.1100   1
  -6  -1  -2 -0.9000 26.4200   1
   6  -1   2 0.39000 21.1500   1
   2  -4  -8 702.750 46.3500   1
   2   4  -8 773.840 48.8300   1
  -2  -4   8 770.760 54.3800   1
   2  -4  -8 835.950 50.7800   1
   2   4  -8 645.470 43.4700   1
   1 -16  -7 14.2800 13.0500   1
   1  16  -7 48.9700 19.0900   1
  -1 -16   7 15.4500 21.6100   1
  -1  16   7 39.8400 20.4100   1
   0  21   6 26.8900 17.7400   1
   0 -21  -6 9.06000 12.5600   1
   0  21  -6 53.5900 23.0700   1
   0 -21   6 -26.170 25.4400   1
   7   7   0 55.0600 22.1500   1
   7  -7   0 63.8000 32.4500   1
  -7  -7   0 15.1700 18.9700   1
  -7   7   0 8.50000 33.9200   1
   1 -32   3 640.050 55.1500   1
   1 -32   3 656.240 67.2500   1
   1 -32   3 789.250 51.7200   1
  -1  32  -3 748.550 48.7300   1
  -1 -32  -3 673.430 52.6100   1
  -1 -32  -3 647.680 40.8500   1
   1  32   3 764.740 51.3900   1
  -8   5   4 85.6600 46.9600   1
  -8  -5   4 -13.330 33.6300   1
   8  -5  -4 112.610 20.3900   1
  -7 -17   2 -47.200 21.7700   1
   7  17  -2 6.67000 16.8200   1
   7  17  -2 -10.230 18.8100   1
   7 -17  -2 7.42000 20.2200   1
  -7  17   2 23.5400 44.1300   1
   6 -19  -6 1172.25 76.4500   1
   6  19  -6 1180.42 65.3600   1
   5  28  -1 13.3400 14.1700   1
   5  28  -1 -3.5700 21.2400   1
  -5 -28   1 -32.670 23.4300   1
   5  28  -1 20.6700 15.6700   1
   5 -28  -1 -9.8200 22.0400   1
   5 -28  -1 41.0900 26.1400   1
   7   2  -7 324.010 29.0100   1
   7  -2  -7 299.370 25.5200   1
   7   2  -7 309.790 25.8000   1
   7  -2  -7 355.880 25.2400   1
   6 -15   1 82.0500 38.9400   1
  -6 -15  -1 17.1400 23.8500   1
  -6  15  -1 16.9300 31.6000   1
   6  15   1 80.1800 26.1800   1
   7 -14  -1 35.6200 23.1200   1
   7  14  -1 46.3800 21.3600   1
  -7 -14   1 17.5900 23.7500   1
  -7  14   1 32.3200 31.3000   1
  -8  -3   3 100.540 31.6000   1
  -8   3   3 112.190 30.0200   1
   8   3  -3 18.9900 21.1000   1
   8  -3  -3 121.130 22.1400   1
   6  24  -4 5.77000 19.1300   1
   6  24  -4 7.80000 11.1800   1
  -6   2  -2 10.3400 19.7900   1
   6  -2   2 -13.100 21.6000   1
   6   2   2 50.2300 28.7600   1
  -6  -2  -2 -16.450 26.4600   1
  -6  -2  -2 -5.7600 26.0900   1
   3   9  -8 188.890 19.8500   1
   3  -9  -8 168.260 18.6400   1
   3  -9  -8 192.250 21.6800   1
   4 -28  -5 492.460 42.4200   1
  -4 -28   5 545.780 46.1100   1
   4  28  -5 498.500 32.7300   1
   4 -28  -5 420.870 38.4000   1
   4  32  -2 26.5700 17.7700   1
   4  32  -2 36.3200 13.9000   1
  -4 -32   2 -2.2100 20.0400   1
   4 -32  -2 76.2700 31.1500   1
  -1 -24  -5 528.730 37.6300   1
   1  24   5 519.270 40.9800   1
   1 -24   5 601.010 66.6600   1
   1 -24   5 516.210 53.4100   1
   1 -24   5 499.570 38.4200   1
  -1  24  -5 572.410 41.5800   1
  -6 -20   0 228.520 26.9600   1
   6  20   0 253.220 25.4900   1
  -6  20   0 172.640 43.3700   1
   6 -20   0 221.500 34.9700   1
  -5  10  -3 756.420 58.0300   1
   5  10   3 804.260 55.7900   1
   5 -10   3 817.790 62.5900   1
  -5 -10  -3 762.940 53.7800   1
   5  10   3 788.930 51.9400   1
  -3  11  -5 30.5700 22.1000   1
  -3  11  -5 18.5400 24.6400   1
   3  11   5 41.7200 24.0800   1
   3  11   5 79.7100 28.7300   1
   3 -11   5 20.3900 24.7900   1
  -3 -11  -5 85.2300 26.0400   1
   2  -7   6 97.4400 46.5200   1
  -2  -7  -6 80.9500 24.8200   1
   2   7   6 103.030 23.8600   1
   2   7   6 123.470 38.4900   1
   2  -7   6 59.1200 33.6000   1
  -2   7  -6 117.270 18.7200   1
   7   3  -7 146.850 16.5200   1
   7   3  -7 95.9800 26.2200   1
   7  -3  -7 144.790 16.9200   1
   7  -3  -7 135.780 16.5600   1
   5  -7  -8 537.640 36.3600   1
   5   7  -8 524.880 36.1200   1
   1 -32  -4 64.0700 22.1700   1
   1 -32  -4 67.8500 27.1800   1
   1  32  -4 44.1300 17.2600   1
  -1 -32   4 35.7400 17.6500   1
  -6  -3  -2 1.54000 25.9000   1
  -6  -3  -2 -22.640 25.7300   1
   6  -3   2 -30.600 21.8300   1
  -6   3  -2 -3.6000 19.7800   1
   6   3   2 -12.700 23.9100   1
   7  13  -6 121.680 18.0200   1
  -8   0   5 9.03000 32.9000   1
   8   0  -5 -2.3000 13.1200   1
   0 -11  -7 60.0100 19.6400   1
   0  11  -7 57.6100 21.0800   1
   0 -11   7 -7.5600 23.2100   1
   2   5  -8 582.840 40.4900   1
   2  -5  -8 600.190 40.7600   1
   2   5  -8 658.620 42.9500   1
   2  -5  -8 657.390 44.6300   1
  -2  -5   8 576.860 47.3300   1
  -8   4   3 -0.3200 29.1000   1
   8  -4  -3 25.8100 16.9800   1
   8   4  -3 -22.350 18.4900   1
  -8  -4   3 -5.9800 23.7800   1
   8   1  -5 166.120 19.2100   1
   8  -1  -5 208.070 23.3800   1
  -8  -1   5 207.400 43.9700   1
  -8   1   5 184.130 45.6500   1
   0 -27  -5 0.50000 13.2800   1
   0 -27  -5 -6.1800 15.0000   1
   0  27   5 24.3800 18.1900   1
   0  27  -5 -5.7700 16.5900   1
   0 -27   5 -1.5500 18.3900   1
   0 -27   5 1.49000 28.5000   1
  -3 -32  -1 392.490 35.4300   1
  -3 -32  -1 447.650 33.3900   1
   3 -32   1 463.400 36.9700   1
   3 -32   1 340.100 88.8400   1
   3  32   1 425.840 31.9200   1
   3  32   1 403.070 32.6200   1
   3  26   3 -58.680 22.2800   1
   3  26   3 1.46000 15.8200   1
   3 -26   3 39.1300 27.8500   1
   3 -26   3 14.4700 20.9800   1
  -3 -26  -3 2.06000 16.0900   1
  -8   6   4 289.500 41.8000   1
   8  -6  -4 326.100 32.3400   1
  -8  -6   4 387.190 43.2900   1
   8   6  -4 316.890 28.9100   1
   4 -12   4 761.510 55.1500   1
  -4  12  -4 579.750 46.7500   1
  -4 -12  -4 548.110 41.4000   1
   4  12   4 679.110 51.0600   1
   4  12   4 642.620 48.2300   1
   5 -29  -2 409.460 36.4900   1
   5  29  -2 393.990 32.9900   1
   5 -29  -2 417.990 40.1400   1
  -5 -29   2 493.040 39.9300   1
  -5 -29   2 536.780 46.6800   1
   5  29  -2 502.930 31.9500   1
   8   2  -5 7.50000 12.6200   1
  -8  -2   5 15.6400 46.1500   1
   8   2  -5 58.5100 24.0200   1
  -8   2   5 74.7700 47.4200   1
   8  -2  -5 40.2500 20.8500   1
   5  26  -5 145.860 17.8200   1
   5 -26  -5 134.720 21.5600   1
   5  26  -5 116.470 18.8700   1
   4 -10  -8 77.7700 24.8400   1
   4  10  -8 29.1200 13.8100   1
   7   4  -7 273.890 23.5900   1
   7  -4  -7 270.610 24.0300   1
   7  -4  -7 331.440 80.4500   1
   6  23  -1 6.50000 15.7300   1
  -6 -23   1 -31.280 27.2500   1
   6  23  -1 37.6700 27.2300   1
  -6 -23   1 35.1800 24.1500   1
  -6  23   1 51.9500 54.6200   1
   6 -23  -1 -8.3600 26.2200   1
   2 -19  -7 87.3900 27.6100   1
   2  19  -7 93.7100 28.3100   1
  -2 -19   7 127.080 24.1000   1
   0  31   4 16.8400 18.6400   1
   0 -31  -4 15.5900 13.7500   1
   0 -31  -4 -22.080 11.8900   1
   0 -31   4 -35.630 31.0300   1
   0  31  -4 -2.1500 13.2700   1
   0 -31   4 4.05000 13.7500   1
   6   4   2 81.9800 32.4900   1
  -6  -4  -2 13.8900 26.1500   1
   6  -4   2 78.6600 34.5500   1
  -6   4  -2 64.0500 29.4800   1
  -6  -4  -2 35.6600 27.2100   1
   7  -8   0 587.630 43.6600   1
  -7  -8   0 577.730 47.9700   1
   7   8   0 571.180 39.0400   1
  -7   8   0 707.840 50.0700   1
   5  28  -4 724.710 47.1200   1
   5  28  -4 711.870 48.4300   1
   5 -28  -4 756.980 56.3800   1
  -1  24   6 12.2200 15.7000   1
   1 -24  -6 -58.010 15.2900   1
  -1 -24   6 8.00000 14.8900   1
  -1 -24   6 -18.810 23.2100   1
   1  24  -6 0.43000 16.9100   1
   3 -20  -7 7.57000 16.9700   1
   3  20  -7 33.2100 14.7800   1
   5  29  -3 569.250 39.8100   1
   5  29  -3 545.380 34.4200   1
   5 -29  -3 583.030 47.9500   1
  -8   3   5 130.610 38.7800   1
   8  -3  -5 130.580 19.7900   1
  -8  -3   5 140.930 35.1600   1
   8   3  -5 110.580 15.8400   1
   8   3  -5 121.150 16.6600   1
  -8   5   3 351.280 89.5500   1
  -8  -5   3 248.760 33.0400   1
   8  -5  -3 326.820 31.8600   1
   8   5  -3 363.930 30.0100   1
   0 -37   0 12.0400 14.9700   1
   6 -14  -7 273.730 25.6100   1
   6  14  -7 317.710 27.8500   1
   1 -29   4 193.700 22.0700   1
   1  29   4 189.990 28.1800   1
   1 -29   4 167.270 28.8800   1
   1 -29   4 243.070 42.8700   1
  -1  29  -4 156.090 19.1500   1
  -1 -29  -4 163.240 19.3800   1
  -1 -29  -4 120.320 18.1800   1
   5  19   2 77.5400 27.7400   1
   5 -19   2 33.9600 25.8100   1
  -5  19  -2 36.5900 25.1700   1
  -5 -19  -2 24.0300 22.1400   1
   2  -6  -8 120.110 15.6400   1
   2   6  -8 128.040 19.2800   1
   2  -6  -8 118.280 17.0000   1
  -2  -6   8 116.810 25.3300   1
  -6 -25   3 399.150 40.3500   1
   6  25  -3 391.360 31.3600   1
   6  25  -3 397.770 33.0100   1
   6 -25  -3 292.940 39.1500   1
   7  17  -5 1260.21 72.7400   1
  -7 -17   5 1533.60 105.070   1
  -1  17  -6 49.5200 22.5700   1
  -1 -17  -6 11.8400 12.2900   1
   1 -17   6 36.1900 32.2000   1
   1 -17   6 42.6200 46.3300   1
  -2  -8  -6 346.720 84.1200   1
   2   8   6 363.980 42.0800   1
   2   8   6 379.730 40.1800   1
   2  -8   6 370.680 44.8100   1
   2  -8   6 308.770 48.3300   1
  -2   8  -6 360.200 32.7300   1
  -1  36  -1 1402.93 84.1600   1
  -1 -36  -1 1314.89 79.9700   1
   1 -36   1 1335.82 77.4100   1
  -1 -36  -1 1222.66 68.3100   1
   5  -8  -8 -0.8300 13.8500   1
   5   8  -8 18.7600 14.1300   1
   3  10  -8 511.690 35.0700   1
   3 -10  -8 445.130 31.7900   1
   7  -5  -7 460.490 33.6300   1
   7  -5  -7 479.470 36.3600   1
   7   5  -7 524.190 35.2900   1
   5 -23  -6 365.970 35.4900   1
   5  23  -6 368.540 27.1400   1
  -6   5  -2 166.780 31.5400   1
  -6  -5  -2 202.110 28.6500   1
  -6  -5  -2 104.590 28.0700   1
   6  -5   2 132.590 34.2400   1
   6   5   2 158.540 27.5000   1
   1 -36  -2 240.780 28.0700   1
   1  36  -2 253.130 24.5800   1
  -1 -36   2 263.990 26.3700   1
   1 -36  -2 263.220 23.9800   1
   8  -4  -5 148.700 22.9800   1
   8   4  -5 93.4600 28.9600   1
  -8  -4   5 184.040 41.6500   1
  -8   4   5 180.150 41.5900   1
   8   4  -5 116.550 16.5600   1
   5  18  -7 50.5400 17.3200   1
  -8  -7   4 171.540 31.9000   1
  -8   7   4 214.860 38.4100   1
   8   7  -4 173.580 23.4500   1
   8  -7  -4 174.300 21.2700   1
   3 -32  -4 67.1200 26.2300   1
   3 -32  -4 -2.1700 14.3100   1
   3  32  -4 22.5900 11.9000   1
  -3 -32   4 -29.600 20.5400   1
   4 -25  -6 -2.7500 14.6900   1
   4 -25  -6 3.57000 13.0300   1
  -4 -25   6 14.3500 14.6100   1
   4  25  -6 27.6900 14.9500   1
  -3 -21  -4 19.7700 16.7100   1
   3 -21   4 -8.5500 17.4900   1
   3  21   4 13.6200 21.4700   1
   3  21   4 -20.320 18.0000   1
   3 -21   4 -21.720 25.6500   1
   4  32  -1 -40.680 21.2800   1
  -4 -32   1 4.47000 21.0700   1
   4  32  -1 0.41000 13.6200   1
  -4 -32   1 21.5100 23.7300   1
   4 -32  -1 19.7900 21.0600   1
   5  11   3 156.540 52.0600   1
  -5 -11  -3 311.770 30.9800   1
  -5  11  -3 347.570 88.5000   1
   5  11   3 346.580 85.7000   1
   5 -11   3 342.700 87.5700   1
  -1  29   5 156.530 22.8900   1
   1 -29  -5 146.240 17.8300   1
   1 -29  -5 133.860 20.6600   1
   1  29  -5 115.390 16.8000   1
  -1 -29   5 106.740 19.3400   1
  -1 -29   5 143.860 24.8400   1
   2 -36  -1 220.680 28.3500   1
  -2 -36   1 255.810 29.6200   1
   2 -36  -1 214.840 22.1800   1
   7  19  -3 1070.83 66.0200   1
   7  19  -3 923.570 61.2700   1
   7  19  -3 978.580 55.0100   1
  -7 -19   3 1128.68 70.2400   1
   7 -19  -3 1060.46 71.7600   1
  -2 -30  -3 1143.90 67.4200   1
   2  30   3 1089.72 67.4200   1
   2 -30   3 1012.97 91.8400   1
   2 -30   3 1177.38 71.3700   1
  -2 -30  -3 969.010 61.6500   1
  -2  30  -3 1222.67 70.5600   1
   2 -30   3 1085.44 77.0400   1
  -3 -12  -5 161.310 21.2800   1
   3 -12   5 205.450 43.2500   1
   3  12   5 133.700 26.2300   1
   3  12   5 165.360 24.8900   1
  -3  12  -5 156.530 25.0600   1
  -8   6   3 25.2200 38.5100   1
  -8  -6   3 -4.6300 29.5000   1
   8  -6  -3 8.79000 16.0200   1
   2  26   4 273.820 31.7300   1
   2 -26   4 249.520 27.2500   1
   2 -26   4 204.480 32.6800   1
  -2 -26  -4 257.230 22.7900   1
   2 -26   4 286.810 47.3400   1
   2 -20   5 63.3000 36.7100   1
  -2 -20  -5 46.2600 19.4600   1
   2 -20   5 54.2300 22.2000   1
   2 -20   5 64.4300 50.2500   1
   2  20   5 84.7100 28.0800   1
   7  15  -1 447.420 31.3400   1
   7  15  -1 434.820 35.4500   1
  -7 -15   1 405.960 36.1000   1
  -7  15   1 403.860 52.8500   1
   7 -15  -1 435.510 40.1100   1
   4 -20  -7 20.3900 15.3000   1
   4  20  -7 55.3900 18.4600   1
   0  12   7 487.590 36.4600   1
   0  12  -7 375.260 46.0600   1
   0 -12  -7 452.900 33.2700   1
   0 -12   7 459.810 52.5800   1
   7   9   0 13.5900 16.9800   1
  -7   9   0 2.88000 23.7600   1
  -7  -9   0 54.9300 30.6000   1
   7  -9   0 -44.910 19.6800   1
   0  34  -3 14.5900 12.2800   1
   0 -34  -3 16.6700 14.6700   1
   0 -34  -3 2.64000 14.5000   1
   0 -34   3 0.28000 14.8700   1
   0 -34   3 18.8500 25.0100   1
   2  -7  -8 495.700 34.8900   1
   2  -7  -8 510.750 35.2700   1
   2   7  -8 480.940 38.4100   1
  -2  -7   8 550.430 47.9800   1
  -1  17   7 3.56000 17.5800   1
   1 -17  -7 -4.2600 12.0800   1
   1  17  -7 22.2200 20.4100   1
  -1 -17   7 5.96000 27.9200   1
   6  16   1 1280.02 78.8000   1
  -6 -16  -1 1365.56 84.4100   1
   6 -16   1 1299.91 85.3700   1
   6  16   1 1284.38 76.8900   1
  -6  16  -1 1170.39 80.8100   1
   8  -5  -5 -18.500 16.9200   1
  -8   5   5 -75.240 44.7700   1
   8   5  -5 15.9300 16.2400   1
   7   6  -7 205.010 20.4900   1
   7  -6  -7 192.270 19.3100   1
   7  -6  -7 163.650 19.6200   1
  -4 -32   3 76.0700 25.7300   1
   4  32  -3 85.2700 24.7000   1
   4 -32  -3 74.9400 30.2300   1
   4  11  -8 192.740 19.0000   1
   4 -11  -8 175.010 25.3800   1
   6  -6   2 268.680 36.5400   1
   6   6   2 275.130 29.2900   1
  -6  -6  -2 317.070 35.2700   1
  -6  -6  -2 257.690 36.1300   1
  -6   6  -2 244.440 28.6700   1
   4 -21   3 156.960 20.6700   1
   4  21   3 191.190 25.0200   1
  -4 -21  -3 186.190 23.8900   1
   4  21   3 170.130 28.9600   1
   4 -21   3 195.230 30.8100   1
  -4  21  -3 174.010 28.7400   1
   7  14  -6 332.940 79.8200   1
  -7 -19   4 551.830 46.6300   1
   7  19  -4 465.240 31.0200   1
   7  19  -4 394.790 29.5500   1
   7  19  -4 358.590 32.2900   1
   7 -19  -4 449.020 38.0900   1
  -4 -31   0 65.2300 28.4900   1
   4  31   0 55.3000 20.9200   1
   4  31   0 -2.4500 22.1000   1
   4 -31   0 7.23000 23.4800   1
   4 -31   0 40.9700 22.8600   1
   3  30   2 220.060 23.9300   1
   3 -30   2 307.680 40.7300   1
   3 -30   2 269.110 29.6900   1
  -3 -30  -2 255.690 23.1900   1
   3  30   2 259.730 28.1200   1
   7  18  -2 72.6900 25.9000   1
  -7  18   2 -12.810 50.2000   1
  -7 -18   2 74.7800 27.2800   1
   7  18  -2 59.1800 20.3200   1
   7 -18  -2 73.7700 28.3900   1
  -3  26   6 346.600 85.9500   1
   3 -26  -6 260.720 24.8100   1
   3 -26  -6 269.280 26.8100   1
  -3 -26   6 276.330 29.0500   1
   3  26  -6 282.280 29.4000   1
  -5 -24  -1 541.130 41.2300   1
   5  24   1 605.260 41.3100   1
   5  24   1 565.350 38.7500   1
  -5  24  -1 537.520 57.2300   1
   5 -24   1 531.560 53.3100   1
   6 -23  -5 565.230 43.3100   1
   6  23  -5 624.260 46.5100   1
   6  23  -5 528.050 33.6000   1
   4  13   4 426.030 37.6700   1
  -4  13  -4 488.330 46.1800   1
   4 -13   4 510.760 42.4100   1
   4  13   4 429.700 57.3500   1
  -4 -13  -4 412.800 37.9300   1
   4  29   1 67.6800 24.4300   1
   4  29   1 68.6800 25.6200   1
  -4 -29  -1 43.2900 18.4500   1
   4 -29   1 44.8900 22.9300   1
   4 -29   1 -16.960 24.5300   1
   2   9   6 147.530 31.6300   1
  -2  -9  -6 112.850 19.7700   1
   2  -9   6 14.5800 55.9200   1
   2   9   6 189.310 28.0700   1
  -2   9  -6 141.380 23.0900   1
   2  -9   6 128.250 27.4100   1
   5   9  -8 762.300 44.9500   1
   5  -9  -8 659.600 42.3000   1
  -8   8   4 387.230 45.7200   1
  -8  -8   4 361.660 42.7400   1
   8   8  -4 375.320 29.5800   1
   8  -8  -4 385.230 30.8100   1
   6 -20  -6 16.6700 22.1500   1
   6  20  -6 14.0400 11.5000   1
   6  25  -2 410.810 35.6100   1
   6  25  -2 374.510 27.4200   1
   6 -25  -2 415.300 38.4600   1
  -6 -25   2 500.260 38.5500   1
   6  25  -2 413.200 30.0100   1
   8   7  -3 811.280 49.2200   1
   8  -7  -3 807.500 53.1100   1
  -8  -7   3 767.250 57.4200   1
  -8   7   3 945.400 71.0600   1
   5  27   0 143.060 19.7000   1
   5  27   0 119.480 27.6500   1
  -5 -27   0 13.4200 20.6100   1
   5 -27   0 114.100 23.0400   1
   5 -27   0 77.5600 34.8300   1
  -2 -33  -2 16.2200 12.0000   1
  -2  33  -2 38.9800 20.4200   1
  -2 -33  -2 -2.1500 18.4400   1
   2 -33   2 9.77000 20.0800   1
   2  33   2 -1.1200 23.1700   1
   2 -33   2 -25.720 40.9700   1
   2 -33   2 15.4700 22.9900   1
   3 -11  -8 281.160 27.9200   1
   3  11  -8 231.980 24.0800   1
   0  22   6 883.170 56.3300   1
   0 -22   6 804.220 58.9300   1
   0  22  -6 824.510 51.0800   1
   0 -22  -6 814.150 49.9400   1
   0 -37  -1 88.6000 29.6000   1
   0 -37   1 61.5200 22.4900   1
   2 -30  -5 33.4400 20.5000   1
   2 -30  -5 10.6800 15.5100   1
  -2 -30   5 53.1400 21.6500   1
   2  30  -5 25.6200 13.6700   1
   8   6  -5 32.5900 19.6800   1
   8  -6  -5 19.9100 14.2400   1
   8   6  -5 60.7800 20.3700   1
  -8  -6   5 13.0800 30.4100   1
   3  34   0 14.7100 17.7300   1
   3 -34   0 0.27000 21.8200   1
  -3 -34   0 39.9100 20.5100   1
  -3 -34   0 69.6800 29.0000   1
   3 -34   0 4.33000 40.5000   1
   3 -34   0 6.60000 23.4400   1
   1 -37   0 182.820 26.5300   1
  -1 -37   0 225.520 23.9300   1
   1 -37  -1 4.82000 13.1400   1
   1 -37  -1 4.87000 19.6500   1
  -1 -37   1 -6.9500 15.0200   1
  -4 -26  -2 179.230 21.0400   1
  -4  26  -2 198.540 37.6200   1
   4 -26   2 239.730 30.1800   1
   4 -26   2 238.150 40.7800   1
   4  26   2 234.470 25.3500   1
   4  26   2 276.920 28.8000   1
   0 -36   2 300.880 31.9500   1
   0  36  -2 336.240 81.8800   1
   0 -36  -2 283.370 25.8800   1
   0 -36  -2 284.240 27.5900   1
   7  -7  -7 103.780 18.8400   1
   7   7  -7 112.840 14.5600   1
   6  21   0 146.100 18.5200   1
  -6 -21   0 226.800 29.9400   1
   6  21   0 208.620 25.4000   1
   6 -21   0 155.530 31.1800   1
  -6  21   0 228.850 43.1600   1
   6  15  -7 95.2200 25.6000   1
  -6  -7  -2 301.190 32.7300   1
  -6   7  -2 230.860 34.7200   1
   6   7   2 244.240 27.6000   1
   6  -7   2 261.720 31.9300   1
  -6  -7  -2 263.510 36.3500   1
   2  -8  -8 76.5100 24.6700   1
   2  -8  -8 55.3900 19.1300   1
   2   8  -8 37.0500 20.7900   1
  -2  -8   8 117.500 27.8400   1
  -2  26   6 120.840 22.6700   1
   2 -26  -6 85.1400 25.8800   1
   2  26  -6 113.840 16.8500   1
  -2 -26   6 74.6300 23.5400   1
  -5  12  -3 721.540 57.8500   1
  -5 -12  -3 644.950 52.1800   1
   5 -12   3 615.120 49.0500   1
   5  12   3 606.760 42.9600   1
   5  12   3 620.630 53.1200   1
   4 -31  -4 54.7100 23.1800   1
  -4 -31   4 50.4300 20.3800   1
   4  31  -4 24.0000 12.4800   1
   1  35   2 22.3400 23.4000   1
   1 -35   2 -10.650 35.4600   1
   1 -35   2 -10.240 19.4800   1
  -1 -35  -2 10.6500 20.6200   1
  -1 -35  -2 4.08000 13.6800   1
  -7 -10   0 526.700 43.2200   1
   7  10   0 481.730 36.2500   1
   7  10   0 447.850 37.7800   1
  -7  10   0 506.600 45.8100   1
   7 -10   0 534.040 44.9700   1
   6  25  -4 69.0700 24.6500   1
   6  25  -4 99.8300 14.2500   1
   6 -25  -4 114.660 19.2200   1
  -2 -36   0 163.210 17.7300   1
   2 -36   0 176.800 28.5700   1
   2 -36   0 257.830 29.4200   1
  -2 -36   0 188.770 21.7100   1
   3  34  -3 -5.1700 10.3100   1
  -3 -34   3 34.7000 17.6900   1
   3 -34  -3 -12.370 13.6000   1
   3 -34  -3 4.63000 14.8900   1
   2 -20  -7 7.43000 12.6000   1
   2  20  -7 -3.2700 16.9900   1
   3  13   5 134.220 21.0700   1
   3  13   5 136.890 29.1600   1
   3 -13   5 191.300 29.7800   1
  -3 -13  -5 159.630 18.8100   1
  -3  13  -5 123.210 24.8000   1
   2 -33  -4 -12.520 11.9500   1
   2 -33  -4 -3.1400 17.3300   1
  -2 -33   4 14.5600 19.3900   1
   2  33  -4 -7.5400 11.0100   1
  -1 -25  -5 -7.7800 17.1600   1
   1  25   5 41.2500 24.5900   1
   1 -25   5 -1.3200 45.7000   1
   1 -25   5 55.7700 20.0800   1
  -1  25  -5 48.8900 24.6300   1
   1 -25   5 28.2900 36.2800   1
  -2  35  -1 247.840 26.1200   1
   2 -35   1 236.200 41.1600   1
   2 -35   1 188.820 28.8200   1
   2  35   1 194.610 28.5200   1
  -2 -35  -1 244.950 26.9100   1
   2 -35   1 239.550 28.8600   1
  -2 -35  -1 246.610 25.1900   1
   3 -30  -5 5.78000 13.1400   1
   3 -30  -5 37.1800 17.1700   1
   3  30  -5 16.3500 13.4200   1
  -3 -30   5 -13.810 17.4000   1
   1  35  -3 -19.750 15.0500   1
   1 -35  -3 -10.210 11.1600   1
  -1 -35   3 -5.3200 14.7400   1
   1 -35  -3 2.85000 14.2000   1
   2 -36  -2 94.6000 25.9200   1
   2  36  -2 61.5600 20.1100   1
  -2 -36   2 114.190 18.3000   1
   2 -36  -2 78.9200 29.3900   1
   7  18  -5 71.0200 21.6400   1
   6   0  -8 347.880 84.4200   1
  -1 -18  -6 1635.74 87.8800   1
   1 -18   6 1539.69 96.9700   1
  -1  18  -6 1581.80 88.1000   1
   1  18   6 1745.98 102.950   1
   1 -18   6 1794.80 123.550   1
   6  -1  -8 64.4000 22.4200   1
   6   1  -8 51.7000 20.5600   1
   8   9  -4 -0.3200 16.4100   1
  -8  -9   4 -34.500 29.3100   1
   8  -9  -4 3.48000 21.9200   1
   0  13  -7 -8.5200 14.2200   1
   0 -13  -7 -9.5900 14.0200   1
   0 -13   7 24.1600 25.3100   1
   3 -21  -7 11.7100 16.7800   1
   3  21  -7 17.7900 12.7300   1
  -8  -8   3 -33.810 21.7100   1
  -8   8   3 28.3000 33.7300   1
   8  -8  -3 -24.980 16.2500   1
   8   8  -3 21.3200 15.0600   1
   2 -10   6 540.110 45.0500   1
   2  10   6 576.150 56.1800   1
   2  10   6 570.040 39.8200   1
  -2 -10  -6 482.520 33.3300   1
   2 -10   6 649.440 69.8200   1
   8   7  -5 144.690 17.2500   1
   8  -7  -5 126.850 18.0500   1
   8   7  -5 102.030 20.0200   1
  -8  -7   5 219.500 41.2900   1
   4 -12  -8 99.4700 20.5100   1
   4  12  -8 83.8000 24.8900   1
   5 -10  -8 8.45000 11.8200   1
   5  10  -8 35.0000 18.0200   1
   5 -20   2 723.460 56.2600   1
  -5 -20  -2 681.930 47.7600   1
  -5  20  -2 582.000 50.1200   1
   5  20   2 610.490 42.0400   1
   5  20   2 683.490 45.8900   1
   5  29  -1 391.040 33.7900   1
  -5 -29   1 423.720 37.4100   1
   5  29  -1 348.820 85.0500   1
   5  29  -1 463.630 31.0100   1
   5 -29  -1 491.290 34.6500   1
   5 -29  -1 312.300 35.4600   1
   6   2  -8 95.2800 26.5700   1
   6  -2  -8 109.120 17.7000   1
   4 -29  -5 108.520 20.8300   1
   4  29  -5 89.1000 25.6700   1
   4 -29  -5 97.9000 29.2100   1
  -4 -29   5 79.8600 26.2700   1
  -6 -24   1 402.960 38.7800   1
  -6 -24   1 658.910 47.9600   1
   6  24  -1 532.150 36.5400   1
   6  24  -1 539.750 41.6000   1
   6 -24  -1 536.500 46.8500   1
   5  19  -7 968.590 55.4800   1
   7  -8  -7 202.350 20.3900   1
   7   8  -7 173.690 20.3700   1
   8   0  -2 255.000 28.4800   1
  -8   0   2 184.470 34.1400   1
   2 -35  -3 50.3100 21.8600   1
  -2 -35   3 55.4400 20.8500   1
   2  35  -3 50.7300 19.4300   1
   2 -35  -3 32.1300 18.4700   1
   7  16  -1 -28.600 17.6000   1
  -7 -16   1 -60.890 22.5200   1
   7 -16  -1 -43.740 29.5600   1
  -7  16   1 -9.3100 31.5700   1
  -8   1   2 54.0000 34.2200   1
  -8  -1   2 84.3300 39.5200   1
   8  -1  -2 22.8300 17.1800   1
   8   1  -2 -49.450 22.1100   1
  -6   8  -2 612.190 55.7100   1
   6   8   2 561.840 42.7200   1
   6  -8   2 551.090 48.9200   1
  -6  -8  -2 556.650 44.2900   1
   3 -27   3 -6.9000 15.0200   1
  -3 -27  -3 1.02000 12.6800   1
   3  27   3 -31.140 18.1000   1
   3 -27   3 16.5900 32.9700   1
   4  14   4 296.620 36.8200   1
   4  14   4 185.380 43.0100   1
  -4 -14  -4 236.570 30.6200   1
   4 -14   4 266.420 42.9100   1
  -4  14  -4 311.220 41.4200   1
   7  15  -6 -0.0500 13.7500   1
   6   3  -8 264.320 30.5700   1
   6  -3  -8 285.090 33.7800   1
  -1  25   6 7.14000 15.6300   1
   1 -25  -6 11.0300 12.8700   1
  -1 -25   6 52.9200 28.7800   1
   1  25  -6 25.5000 17.7100   1
  -1 -25   6 -3.1500 12.7800   1
   2   9  -8 73.4400 20.1400   1
  -2  -9   8 78.5100 24.5600   1
   2  -9  -8 91.7900 18.0900   1
   0 -28  -5 120.730 21.1500   1
   0  28   5 277.670 37.0000   1
   0 -28  -5 117.160 17.0800   1
   0 -28   5 115.850 32.9700   1
   0 -28   5 165.490 22.7900   1
   0  28  -5 153.170 24.0100   1
  -1 -33  -3 21.5800 16.6400   1
  -1  33  -3 2.15000 18.5300   1
  -1 -33  -3 47.6000 18.3100   1
   1  33   3 -8.1600 19.1400   1
   1 -33   3 -6.4300 18.6200   1
   1 -33   3 8.63000 22.4700   1
   8   2  -2 419.270 36.9600   1
   8  -2  -2 442.220 38.8800   1
  -8  -2   2 443.080 45.8800   1
  -8   2   2 515.600 50.1100   1
  -3 -35   1 -14.290 15.3700   1
   3  35  -1 35.7700 25.5000   1
   3 -35  -1 13.8800 18.1200   1
   3 -35  -1 22.7500 17.2000   1
   3 -35  -1 1.67000 15.2900   1
  -6 -17  -1 28.4000 23.9100   1
  -6  17  -1 -10.850 36.2500   1
   6  17   1 32.8400 20.2400   1
   6 -17   1 28.9600 34.1000   1
   3 -12  -8 233.890 32.1100   1
   3  12  -8 296.300 33.0600   1
   5  27  -5 97.6700 23.3800   1
   5  27  -5 117.440 18.9100   1
   5 -27  -5 59.4400 16.4400   1
  -7 -20   3 87.5200 25.5700   1
   7  20  -3 82.5500 15.2100   1
   7  20  -3 63.2600 18.2000   1
   7  20  -3 30.4700 19.8800   1
   7 -20  -3 84.0400 26.4900   1
   1 -18  -7 1.02000 12.3500   1
  -1  18   7 19.5000 15.7300   1
   1  18  -7 19.7100 15.0400   1
  -1 -18   7 -12.890 27.5600   1
   3 -35  -2 348.990 119.740   1
   3  35  -2 401.690 34.6400   1
  -3 -35   2 389.810 34.3500   1
   3 -35  -2 409.260 42.3800   1
   3 -22   4 615.100 49.6600   1
  -3 -22  -4 619.640 47.4500   1
   3  22   4 591.940 50.5500   1
   3 -22   4 603.070 53.9800   1
   5 -24  -6 82.5400 18.6400   1
   5  24  -6 84.7900 15.8500   1
  -4 -33   2 27.8900 17.1700   1
   4  33  -2 11.0900 14.1300   1
   4 -33  -2 34.9600 18.5900   1
  -8  -3   2 174.080 34.2300   1
   8  -3  -2 201.570 32.1000   1
   8   3  -2 235.290 29.3000   1
  -8   3   2 184.720 33.0900   1
   6  26  -3 769.630 62.9300   1
   6  26  -3 723.370 57.4300   1
   5  30  -2 198.470 23.3900   1
  -5 -30   2 229.080 33.9500   1
   5  30  -2 161.290 24.5200   1
   5 -30  -2 181.920 26.8000   1
   5 -30  -2 133.910 53.4800   1
   6   4  -8 122.390 16.1600   1
   6  -4  -8 125.670 16.2900   1
  -2 -21  -5 169.790 25.0900   1
   2 -21   5 165.780 38.2400   1
   2 -21   5 147.340 21.7300   1
   2 -21   5 119.150 40.7800   1
   2  21   5 114.070 20.9000   1
   1 -33  -4 28.2500 16.2100   1
   1 -33  -4 67.9500 13.8600   1
   1  33  -4 50.8700 13.7100   1
   7 -11   0 85.9900 23.7500   1
   7  11   0 79.5800 31.3200   1
   7  11   0 39.5900 23.9900   1
  -7 -11   0 34.0900 20.2300   1
  -7  11   0 90.0600 33.8900   1
   5 -29  -4 27.0100 16.8500   1
   5  29  -4 66.1500 19.3200   1
   5  29  -4 78.7300 17.9100   1
  -8  -8   5 118.270 32.6900   1
   8   8  -5 53.3700 18.1700   1
   8  -8  -5 -12.580 14.0400   1
   8   8  -5 -0.6700 18.3100   1
   4 -21  -7 374.180 37.3300   1
   4  21  -7 365.980 29.7500   1
  -7 -19   2 170.190 31.8400   1
   7  19  -2 186.280 26.6300   1
   7  19  -2 174.270 26.3700   1
  -7  19   2 160.430 43.5200   1
   7 -19  -2 157.650 28.1600   1
   8   9  -3 865.580 63.3800   1
   8  -9  -3 920.490 69.6300   1
  -8  -9   3 995.690 79.3500   1
  -8   9   3 985.680 84.3800   1
  -7 -20   4 26.4900 23.2500   1
   7  20  -4 86.2300 14.8000   1
   7  20  -4 79.9400 18.5500   1
   7 -20  -4 116.210 26.1200   1
   5  13   3 335.290 58.7200   1
   5  13   3 374.080 38.6900   1
   5 -13   3 401.690 41.5700   1
  -5 -13  -3 395.420 35.7800   1
  -5  13  -3 452.430 45.4600   1
  -8  10   4 236.400 46.2700   1
  -8 -10   4 228.450 35.5500   1
   8  10  -4 177.150 24.9300   1
   8 -10  -4 180.570 29.7800   1
  -3 -33  -1 -3.8400 18.1100   1
   3  33   1 57.4200 23.2000   1
   3  33   1 18.1300 14.3100   1
   3 -33   1 -15.260 24.2300   1
   3 -33   1 19.9400 34.6000   1
   3 -33   1 19.9400 20.6900   1
  -3 -33  -1 13.5600 20.4300   1
   5  30  -3 232.430 33.4500   1
   5  30  -3 212.250 24.8400   1
   5 -30  -3 199.970 27.8600   1
   4 -26  -6 -1.7600 14.9000   1
   4 -26  -6 1.32000 12.4000   1
  -4 -26   6 19.1000 20.2800   1
   4  26  -6 17.3800 15.5200   1
  -8   4   2 263.990 39.2500   1
   8  -4  -2 156.140 23.9900   1
   8   4  -2 151.220 22.6100   1
  -8  -4   2 259.880 35.8700   1
  -1 -30  -4 71.2900 13.9100   1
  -1 -30  -4 76.4000 19.5200   1
   1  30   4 87.5100 20.6500   1
   1 -30   4 75.8800 41.2800   1
   1 -30   4 94.7500 20.1600   1
   1 -30   4 68.1700 25.5300   1
  -1  30  -4 64.7300 15.6600   1
   0  32   4 122.010 26.4100   1
   0 -32  -4 97.2300 17.1600   1
   0 -32  -4 80.3100 14.6400   1
   0 -32   4 126.880 35.0600   1
   0  32  -4 111.920 17.8400   1
   0 -32   4 104.280 21.0800   1
   4  22   3 -20.620 20.7400   1
   4 -22   3 51.1200 21.1900   1
   4  22   3 29.6600 26.6500   1
  -4  22  -3 43.7900 37.5200   1
  -4 -22  -3 -15.260 20.0700   1
   4 -22   3 1.69000 29.4100   1
   2  11   6 344.180 125.220   1
   2 -11   6 327.110 53.9600   1
  -2 -11  -6 322.070 38.6100   1
   2 -11   6 288.500 40.3900   1
   2  11   6 304.030 42.2600   1
   6  16  -7 811.210 56.1900   1
   7  -9  -7 25.6100 16.4800   1
   7   9  -7 19.4000 11.7000   1
   5  11  -8 767.770 55.7700   1
   6   9   2 69.8700 19.6300   1
   6  -9   2 33.2300 29.4500   1
  -6  -9  -2 106.520 23.4600   1
  -6   9  -2 5.66000 21.8600   1
   6  -5  -8 146.850 20.8200   1
   6   5  -8 227.910 28.2100   1
   6 -21  -6 389.400 36.0600   1
   6  21  -6 452.670 34.4200   1
   3 -14   5 87.9400 26.2700   1
  -3 -14  -5 87.5500 21.3200   1
   3 -14   5 84.9500 18.2800   1
   3  14   5 92.4200 26.2200   1
  -3  14  -5 94.1400 20.4500   1
   3  14   5 103.080 38.1800   1
   4  13  -8 529.400 44.2400   1
   4 -13  -8 540.230 45.5500   1
   2 -27   4 6.42000 30.2500   1
   2  27   4 -5.0700 17.8500   1
  -2 -27  -4 15.9800 17.4000   1
   2 -27   4 1.17000 20.9300   1
   0  14   7 774.210 63.5400   1
   0 -14   7 831.990 71.6000   1
   0  14  -7 693.660 52.9400   1
   0 -14  -7 735.200 54.5200   1
   6 -24  -5 75.7300 20.2600   1
   6  24  -5 88.7600 14.1300   1
   6  24  -5 45.2500 26.9400   1
   2  10  -8 59.5300 19.6300   1
  -2 -10   8 23.8400 23.6900   1
   2 -10  -8 57.1600 17.7400   1
   1   0   7 13.2700 28.2200   1
   1   0   7 26.9700 31.2900   1
  -1   0  -7 7.18000 13.7600   1
   5  25   1 104.750 25.5500   1
  -5 -25  -1 169.680 26.2500   1
   5  25   1 160.090 23.8200   1
  -5  25  -1 195.650 40.0600   1
   5 -25   1 159.460 31.0300   1
   1   1   7 27.8600 23.9800   1
   1  -1   7 74.4500 30.3200   1
   1  -1   7 101.340 45.6000   1
  -1  -1  -7 28.9800 15.5300   1
  -1   1  -7 20.3100 16.3400   1
   1 -30  -5 -1.7700 12.1600   1
  -1  30   5 17.8100 18.1300   1
   1 -30  -5 15.4800 13.2100   1
   1  30  -5 28.9100 15.1000   1
  -1 -30   5 -9.0700 13.6100   1
  -1 -30   5 26.6000 26.2500   1
  -8  -5   2 250.430 35.1800   1
   8  -5  -2 279.520 35.9100   1
   8   5  -2 167.090 23.8800   1
  -8   5   2 302.600 42.4000   1
   0 -23  -6 212.680 28.2700   1
   0  23   6 269.720 33.2200   1
   0 -23   6 228.920 35.7900   1
   0  23  -6 213.760 28.9400   1
   1  -2   7 89.9800 31.0400   1
   1   2   7 79.5000 33.1600   1
  -1   2  -7 71.1500 13.8500   1
   1  -2   7 65.9400 38.6100   1
  -1  -2  -7 72.2100 13.5200   1
   3 -27  -6 39.2400 16.8100   1
  -3  27   6 17.5200 16.9600   1
   3  27  -6 33.5300 15.9500   1
  -8  -9   5 465.200 51.9000   1
   8  -9  -5 333.300 39.1300   1
   8   9  -5 439.610 36.9200   1
   8   9  -5 423.560 33.9400   1
   6  22   0 301.290 35.2700   1
  -6 -22   0 296.220 42.0800   1
   6  22   0 349.110 119.490   1
   6 -22   0 391.520 39.2700   1
  -6  22   0 424.970 49.3400   1
   3 -33  -4 720.030 59.9600   1
   3 -33  -4 785.360 60.4400   1
  -3 -33   4 808.150 64.6700   1
   3  33  -4 761.930 58.2600   1
   2 -31   3 17.2200 16.5700   1
   2 -31   3 -55.550 33.1900   1
  -2 -31  -3 8.11000 14.5400   1
   2  31   3 -56.450 22.6400   1
   2 -31   3 -39.680 34.3100   1
  -2  31  -3 14.3400 14.1900   1
  -2 -31  -3 27.4800 19.5100   1
   6  26  -2 38.1400 15.3200   1
   6  26  -2 17.2100 12.9800   1
   6  26  -2 65.2000 18.9400   1
  -6 -26   2 -7.1600 23.8100   1
   6 -26  -2 -4.4200 21.8800   1
   3 -13  -8 319.340 37.8700   1
   3  13  -8 384.630 32.1200   1
   4  33  -1 512.610 44.1000   1
  -4 -33   1 561.040 54.8200   1
  -4 -33   1 482.410 42.2000   1
   4  33  -1 472.710 37.5600   1
   4 -33  -1 278.360 43.8900   1
   4 -33  -1 488.310 42.4100   1
   6  -6  -8 412.120 35.8400   1
   6   6  -8 462.740 36.0600   1
   8   0  -6 90.4500 17.4900   1
   8   0  -6 131.240 18.5600   1
   7  19  -5 941.820 65.0700   1
  -1 -19  -6 17.9300 15.1900   1
   1 -19   6 9.04000 36.6700   1
   1 -19   6 41.1000 27.0900   1
  -1  19  -6 52.6300 20.8500   1
   8   1  -6 166.270 25.3400   1
   8  -1  -6 132.890 47.5300   1
   8   1  -6 135.530 22.6400   1
   8  -1  -6 103.610 21.0200   1
   4  15   4 214.650 32.3000   1
   4  15   4 145.250 30.3500   1
   4 -15   4 161.660 36.2900   1
  -4 -15  -4 229.170 31.5800   1
  -4  15  -4 208.290 33.2800   1
   8 -10  -3 -19.450 20.5300   1
   8  10  -3 26.3600 18.3700   1
  -8  10   3 1.58000 33.2500   1
  -8 -10   3 82.3000 28.5500   1
   0 -38   0 622.250 52.6900   1
  -1  -3  -7 44.9200 19.1600   1
  -1   3  -7 49.0300 15.3600   1
   1  -3   7 109.940 34.7300   1
   1  -3   7 35.1400 30.0100   1
   1   3   7 43.3300 30.5900   1
   2  21  -7 15.7900 17.1900   1
   1 -37   1 -1.1800 15.4500   1
  -1 -37  -1 13.1600 15.1600   1
  -7 -17   1 223.770 31.0300   1
   7  17  -1 135.980 26.9900   1
   7  17  -1 204.250 27.5800   1
   7 -17  -1 239.110 34.1900   1
  -7  17   1 279.440 46.8700   1
   7  12   0 148.560 31.9200   1
  -7  12   0 197.290 35.1800   1
  -7 -12   0 144.870 30.5400   1
   7 -12   0 37.3200 33.2500   1
   7  12   0 191.340 28.5500   1
   7  16  -6 450.430 36.3300   1
   8   2  -6 126.950 21.2700   1
   8  -2  -6 153.020 22.1100   1
   8  -2  -6 154.230 21.3400   1
   8   2  -6 135.230 19.5700   1
   3 -31   2 247.760 38.1600   1
   3 -31   2 241.500 35.6200   1
  -3 -31  -2 244.910 28.9300   1
   3  31   2 318.670 38.0600   1
  -8  11   4 306.610 51.0800   1
  -8 -11   4 337.530 47.9800   1
   8  11  -4 279.190 32.0700   1
   8 -11  -4 237.140 32.0900   1
   8  11  -4 264.560 30.2900   1
  -4 -30  -1 57.7000 15.9600   1
   4  30   1 126.900 25.8500   1
   4  30   1 98.2000 17.6400   1
   4 -30   1 7.32000 31.2700   1
   4 -30   1 32.7000 18.0200   1
   1 -37  -2 131.180 17.8600   1
   1  37  -2 129.680 20.9300   1
  -1 -37   2 163.400 28.1200   1
   1 -37  -2 156.710 22.8400   1
   7 -10  -7 191.820 24.5100   1
   7  10  -7 195.060 24.9100   1
   5  28   0 89.9300 20.9900   1
   5  28   0 126.060 17.8800   1
  -5 -28   0 154.600 28.0100   1
   5 -28   0 112.460 26.1900   1
   5 -28   0 59.5800 18.1900   1
  -8  -6   2 20.6200 27.5600   1
  -8   6   2 63.5900 34.1900   1
   8  -6  -2 -0.7300 21.5400   1
   8   6  -2 15.7100 15.7800   1
   4  32   0 36.0400 17.1900   1
   4  32   0 49.6000 19.0200   1
  -4 -32   0 63.1700 20.3000   1
   4 -32   0 15.6800 24.1300   1
   4 -32   0 16.7300 17.0000   1
  -1   0   8 -1.4900 22.6900   1
   1   0  -8 12.5000 13.3900   1
   1   0  -8 15.6600 13.1700   1
  -6  10  -2 896.710 74.9500   1
   6  10   2 921.190 71.8500   1
   6  10   2 721.610 85.2300   1
   6 -10   2 918.960 76.0600   1
  -6 -10  -2 717.340 61.1100   1
   5  21   2 93.9400 20.6000   1
  -5  21  -2 87.5700 28.3700   1
  -5 -21  -2 152.910 27.0100   1
   5 -21   2 143.020 34.5400   1
   5  21   2 100.500 23.4700   1
   4  33  -3 1086.26 76.1500   1
  -4 -33   3 1081.11 77.9700   1
   4  33  -3 932.320 71.1300   1
   4 -33  -3 1189.49 401.450   1
  -4  27  -2 41.1400 42.5700   1
  -4 -27  -2 47.5900 15.1100   1
   4 -27   2 8.80000 15.7000   1
   4 -27   2 21.3900 25.4000   1
   4  27   2 49.7900 26.5100   1
   4  27   2 45.7700 25.0000   1
   1  -1  -8 670.930 51.6800   1
   1   1  -8 652.520 50.5500   1
   1   1  -8 554.570 47.0100   1
  -1  -1   8 720.210 61.4000   1
   1  -1  -8 594.500 46.7200   1
  -1   1   8 558.450 55.8500   1
   3 -22  -7 61.4400 15.1900   1
   3  22  -7 58.0200 18.2500   1
   5  20  -7 95.8800 16.2700   1
   1  -4   7 187.210 40.2200   1
  -1  -4  -7 177.730 23.8100   1
  -1   4  -7 205.500 26.2200   1
   1   4   7 239.630 36.8600   1
   1  -4   7 307.430 45.4200   1
   8  -3  -6 573.810 47.6400   1
   8   3  -6 575.810 46.7700   1
   8  -3  -6 571.660 45.7600   1
   8   3  -6 601.430 47.2400   1
  -6 -18  -1 867.020 69.2500   1
   6  18   1 892.960 74.0600   1
  -6  18  -1 831.730 74.9900   1
   6  18   1 855.220 64.1500   1
   6 -18   1 917.070 74.0900   1
   2 -37  -1 376.250 36.1200   1
  -2 -37   1 411.610 35.7000   1
   2 -37  -1 291.760 36.8900   1
   2 -12   6 447.900 62.0400   1
   2  12   6 505.600 44.1500   1
   2 -12   6 500.910 54.4300   1
  -2  12  -6 478.640 52.9500   1
  -2 -12  -6 455.660 36.9900   1
   0 -35  -3 245.490 31.0800   1
   0 -35  -3 222.250 31.0700   1
   0  35  -3 258.220 31.1500   1
   0 -35   3 216.050 28.5000   1
   5  12  -8 121.760 16.8200   1
   5 -12  -8 134.110 48.5200   1
   5  14   3 108.170 24.0500   1
   5  14   3 111.170 30.0300   1
   5 -14   3 213.640 37.7800   1
  -5 -14  -3 109.510 27.6600   1
  -5  14  -3 142.800 31.4300   1
   6  26  -4 62.1400 12.6900   1
   6  26  -4 56.1300 16.9600   1
   6 -26  -4 33.3100 23.9900   1
   2 -27  -6 701.310 54.1200   1
   2  27  -6 761.250 57.3000   1
  -2 -27   6 631.660 50.1200   1
  -2  27   6 569.500 48.2600   1
   1   2  -8 141.900 19.0700   1
   1  -2  -8 110.610 19.6200   1
   1   2  -8 130.110 18.5000   1
   1  -2  -8 141.260 18.3300   1
  -1  -2   8 135.200 25.5600   1
   6  -7  -8 146.680 18.7700   1
   6   7  -8 166.550 22.8100   1
  -2 -11   8 -51.510 18.6600   1
   2 -11  -8 -4.4600 14.9100   1
   2  11  -8 34.3100 20.9500   1
  -1  19   7 54.2500 21.7200   1
   1 -19  -7 32.9800 17.4500   1
   1  19  -7 33.4500 16.5800   1
  -1 -19   7 4.66000 22.5200   1
   2 -31  -5 535.890 44.7300   1
   2 -31  -5 549.690 47.6200   1
   2  31  -5 584.190 45.8700   1
  -2 -31   5 566.390 51.3900   1
  -1 -26  -5 167.360 22.9300   1
   1  26   5 185.390 27.1500   1
   1 -26   5 160.310 22.5600   1
  -1  26  -5 147.090 27.1400   1
   1 -26   5 142.460 40.0600   1
   1 -26   5 172.610 41.3500   1
   1  -3  -8 450.270 36.5800   1
   1   3  -8 446.670 37.6100   1
  -1  -3   8 453.130 42.9700   1
   1   3  -8 475.150 37.2000   1
   1  -3  -8 525.650 41.4700   1
   8   4  -6 338.980 36.9700   1
   8   4  -6 326.650 37.7100   1
   8  -4  -6 287.080 34.7700   1
   8 -10  -5 72.8900 16.8600   1
   8  10  -5 108.780 19.4300   1
  -8 -10   5 106.250 38.9200   1
   8  10  -5 127.160 19.7900   1
  -7 -21   3 334.650 44.8500   1
   7  21  -3 293.150 33.0000   1
   7  21  -3 275.590 35.6900   1
   7  21  -3 312.390 34.1300   1
   7 -21  -3 238.270 34.7200   1
   4  14  -8 24.0100 15.1400   1
   4 -14  -8 7.66000 25.9600   1
  -1   5  -7 135.480 23.0300   1
   1  -5   7 135.600 29.3200   1
   1  -5   7 91.7900 42.9400   1
  -1  -5  -7 146.640 22.8000   1
   1   5   7 144.970 32.2200   1
   2 -34   2 876.160 84.2300   1
  -2 -34  -2 930.510 68.9900   1
  -2  34  -2 1082.31 77.6800   1
   2 -34   2 1157.35 391.600   1
   2 -34   2 1074.64 89.6600   1
  -2 -34  -2 1072.74 82.4000   1
   2  34   2 1101.22 82.2200   1
   6  25  -1 53.1600 18.9200   1
   6  25  -1 -4.0900 12.9500   1
  -6 -25   1 31.8000 21.3600   1
  -6 -25   1 35.2100 19.7700   1
   6 -25  -1 6.25000 31.7600   1
  -3 -15  -5 60.6500 14.7900   1
   3  15   5 140.680 29.1300   1
   3  15   5 84.2600 26.2000   1
   3 -15   5 96.6900 26.6900   1
   3 -15   5 92.5800 18.6000   1
  -3  15  -5 76.8800 25.7300   1
  -8   7   2 29.2900 35.8500   1
  -8  -7   2 67.7700 26.6400   1
   8  -7  -2 86.5200 19.7500   1
   8   7  -2 77.7800 17.3800   1
   7  20  -2 153.320 28.1900   1
   7  20  -2 154.810 21.2400   1
  -7  20   2 224.800 53.9800   1
   7 -20  -2 106.710 28.4700   1
  -7 -20   2 205.590 29.4600   1
   0  15  -7 -23.380 17.2700   1
   0 -15  -7 12.0200 12.4400   1
   0 -15   7 10.2900 24.2400   1
   3 -35   0 50.7100 21.6400   1
  -3 -35   0 43.6600 26.7900   1
  -3 -35   0 74.3600 15.2700   1
   3 -35   0 48.9000 26.4600   1
   3  35   0 66.2700 23.7200   1
   3 -35   0 76.8900 34.9500   1
   4 -32  -4 719.380 63.2800   1
   4  32  -4 661.850 50.7900   1
   4 -32  -4 496.230 44.7000   1
  -4 -32   4 688.230 57.7900   1
  -3 -23  -4 14.2700 13.4900   1
   3 -23   4 12.4100 14.8800   1
   3 -23   4 27.8300 32.7100   1
   3  23   4 10.4300 17.5100   1
  -8  11   3 750.040 66.3200   1
  -8 -11   3 897.410 71.2900   1
   8 -11  -3 797.320 60.6600   1
   8  11  -3 786.070 59.8900   1
   2 -22   5 87.7700 17.4600   1
   2 -22   5 80.5900 54.2900   1
   2 -22   5 113.610 36.4300   1
  -2 -22  -5 116.410 21.0100   1
   2  22   5 129.510 21.8800   1
  -1  -4   8 100.990 23.3100   1
   1  -4  -8 123.290 17.9100   1
   1   4  -8 134.490 47.7300   1
   1  -4  -8 105.320 19.1700   1
  -7 -21   4 632.530 54.8000   1
   7  21  -4 592.030 43.5800   1
   7  21  -4 554.470 50.0100   1
   4 -22  -7 46.1000 24.1400   1
   4  22  -7 33.4400 16.0400   1
  -1  26   6 96.0600 22.2600   1
   1 -26  -6 123.170 17.4700   1
  -1 -26   6 185.220 37.4700   1
   1  26  -6 130.400 19.0700   1
  -1 -26   6 123.970 19.8400   1
   3 -31  -5 47.6500 14.9400   1
   3 -31  -5 53.1900 14.7600   1
  -3 -31   5 71.2800 21.7400   1
   3  31  -5 31.6900 15.5100   1
   8   5  -6 573.310 42.6400   1
   8   5  -6 520.770 42.7100   1
   8  -5  -6 526.740 44.5900   1
   5  30  -1 31.6200 18.7100   1
  -5 -30   1 65.7200 22.7800   1
   5  30  -1 19.1500 13.1500   1
   5 -30  -1 14.2300 23.7200   1
   5 -30  -1 -5.8600 22.7200   1
   3 -14  -8 16.5900 16.1600   1
   3  14  -8 -32.760 12.8800   1
   7  11  -7 15.5000 11.2600   1
   7 -11  -7 69.4200 13.0500   1
   5 -25  -6 324.520 39.6900   1
   5  25  -6 293.990 31.9700   1
   0 -38  -1 595.240 45.5200   1
   0 -38   1 592.720 47.7600   1
   0 -38  -1 610.650 51.1300   1
   3 -28   3 149.980 36.4600   1
   3  28   3 69.7300 24.6600   1
   3 -28   3 147.790 22.7600   1
  -3 -28  -3 78.8700 15.3000   1
   0 -37  -2 -31.160 20.9400   1
   0  37  -2 22.1500 16.3000   1
   0 -37   2 0.98000 18.1600   1
   0 -37  -2 28.6300 15.1700   1
   6  -8  -8 447.690 37.3300   1
   6   8  -8 504.050 37.6100   1
   8  12  -4 66.5400 19.4400   1
  -8 -12   4 116.530 28.1200   1
  -8  12   4 160.140 44.2700   1
   8 -12  -4 150.310 25.7100   1
   8  12  -4 148.160 20.7500   1
   4  30  -5 201.420 25.5200   1
   4 -30  -5 169.380 25.9000   1
   4 -30  -5 242.310 30.3300   1
  -4 -30   5 227.080 29.6500   1
   6  11   2 117.550 27.6000   1
  -6  11  -2 126.010 26.0800   1
   6 -11   2 210.480 36.9500   1
  -6 -11  -2 191.130 31.1500   1
  -1 -38   0 309.820 40.4600   1
   1 -38   0 239.250 34.6800   1
   7  13   0 163.380 34.9400   1
   7 -13   0 195.770 32.1900   1
  -7  13   0 117.180 40.9300   1
  -7 -13   0 212.970 29.6100   1
   7  13   0 159.170 23.3100   1
   1  -6   7 381.070 46.6400   1
  -1  -6  -7 460.850 40.1300   1
   1   6   7 392.690 47.7800   1
   1  -6   7 366.820 52.5300   1
   1 -38  -1 45.5100 20.4500   1
   1 -38  -1 104.510 24.8200   1
  -1 -38   1 111.280 24.7000   1
   5 -28  -5 283.680 43.9600   1
   5  28  -5 377.940 29.9900   1
   5  28  -5 292.470 35.4200   1
   2 -34  -4 107.060 16.3000   1
   2 -34  -4 85.9200 16.7200   1
   2  34  -4 86.6800 14.1400   1
  -2 -34   4 88.4800 17.1800   1
  -1 -36  -2 144.960 22.0800   1
   1 -36   2 195.540 28.4400   1
   1 -36   2 148.290 31.0200   1
  -1 -36  -2 145.440 21.9400   1
  -1  36  -2 137.630 21.1100   1
   1  36   2 193.870 35.3900   1
   3  35  -3 82.5600 13.3000   1
   3 -35  -3 74.3700 17.4000   1
  -3 -35   3 77.0800 17.2500   1
   3 -35  -3 34.9700 18.7700   1
   0  29   5 -4.5000 17.3900   1
   0 -29   5 5.80000 23.3600   1
   0 -29   5 -2.0000 13.6000   1
   0  29  -5 4.24000 14.1900   1
   0 -29  -5 -14.390 17.3400   1
   0 -29  -5 -13.650 18.5300   1
  -4  23  -3 323.580 44.6400   1
   4 -23   3 245.400 30.2800   1
  -4 -23  -3 291.900 36.1800   1
   4  23   3 261.980 36.5000   1
   4  23   3 329.200 40.6800   1
   4 -23   3 322.520 48.3300   1
  -1  -5   8 307.270 40.7300   1
   1   5  -8 299.920 37.5600   1
   1  -5  -8 254.780 30.0900   1
   1  -5  -8 297.470 34.8700   1
   6 -22  -6 44.7600 22.6000   1
   6  22  -6 36.3600 13.7200   1
   4  16   4 -27.450 20.0200   1
   4  16   4 3.34000 21.3900   1
   4 -16   4 -18.660 35.6600   1
  -4 -16  -4 -19.390 18.3100   1
  -4  16  -4 -5.8800 19.2200   1
   6  27  -3 91.4900 22.9700   1
   6  27  -3 97.6500 17.1800   1
   6 -27  -3 46.8200 26.5500   1
   2 -37   0 -5.0600 15.5300   1
  -2 -37   0 -7.4000 13.8400   1
  -2 -37   0 -36.140 18.5300   1
   2 -37   0 -2.3400 21.3100   1
  -2 -36  -1 47.7700 22.2400   1
  -2  36  -1 89.6700 15.4000   1
   2 -36   1 88.1200 39.2700   1
   2 -36   1 117.690 32.9200   1
  -2 -36  -1 63.7800 15.6300   1
   2 -36   1 92.9200 22.3700   1
   2  36   1 66.4800 28.2900   1
   8   8  -2 13.6700 15.0900   1
   8  -8  -2 -26.290 25.1700   1
  -8   8   2 56.4300 36.7200   1
  -8  -8   2 49.9600 21.6100   1
  -2 -13  -6 252.800 31.1700   1
   2 -13   6 317.750 64.8900   1
   2 -13   6 281.650 47.8300   1
   2  13   6 296.620 52.0800   1
   1 -36  -3 0.19000 14.5800   1
  -1 -36   3 54.2900 19.4500   1
   1  36  -3 63.3500 15.9900   1
   1 -36  -3 42.3100 15.6500   1
   5 -13  -8 252.410 36.4800   1
   5  13  -8 371.900 30.0800   1
   8  -6  -6 339.060 40.2900   1
   8   6  -6 377.960 32.3700   1
   8   6  -6 361.510 31.1500   1
   2 -12  -8 -11.110 14.9900   1
  -2 -12   8 -9.0900 18.5700   1
   2  12  -8 -6.5400 19.0100   1
   7  17  -6 31.8500 13.5600   1
  -2 -37   2 64.5900 19.4600   1
   2 -37  -2 76.1900 22.6900   1
   2  37  -2 60.3900 13.8600   1
   2 -37  -2 51.7400 15.0700   1
   4 -27  -6 126.640 22.0900   1
   4 -27  -6 86.5100 18.9400   1
  -4 -27   6 90.6200 18.0200   1
   4  27  -6 92.9800 14.2700   1
   8  11  -5 546.760 42.2200   1
   8 -11  -5 478.990 39.6700   1
   8  11  -5 433.020 35.7900   1
  -8 -11   5 496.450 50.6100   1
   7  18  -1 43.8900 24.8800   1
   7  18  -1 88.9000 16.7600   1
  -7 -18   1 65.8700 24.8100   1
   7 -18  -1 26.6100 22.5100   1
  -7  18   1 144.750 44.2800   1
  -5  15  -3 282.980 45.0500   1
   5  15   3 254.640 33.1000   1
   5  15   3 268.190 33.7900   1
   5 -15   3 151.910 38.1500   1
  -5 -15  -3 209.470 28.4800   1
   5 -30  -4 427.530 41.3500   1
   5  30  -4 382.570 31.2000   1
   5  30  -4 356.110 34.6500   1
   7  20  -5 151.410 19.5600   1
  -1 -20  -6 769.950 58.2500   1
   1  20   6 882.990 68.3200   1
  -1  20  -6 812.420 63.5300   1
   1 -20   6 815.350 69.9400   1
   1 -20   6 921.750 87.1500   1
   1 -34   3 631.760 53.5900   1
   1 -34   3 621.890 58.2300   1
  -1 -34  -3 652.160 48.5500   1
   1  34   3 741.600 60.5200   1
  -1  34  -3 649.320 54.4800   1
  -1 -34  -3 685.260 60.5100   1
   5  31  -2 573.440 49.0300   1
  -5 -31   2 712.840 58.7600   1
   5  31  -2 535.240 43.3600   1
   5 -31  -2 528.070 49.3800   1
   6 -25  -5 269.680 32.3400   1
   6  25  -5 222.980 32.5700   1
   6  25  -5 225.100 25.9800   1
  -2 -36   3 51.1400 18.9000   1
   2  36  -3 25.1900 15.2600   1
   2 -36  -3 66.3300 15.9500   1
   2 -36  -3 44.1600 25.5100   1
  -1  -7  -7 76.0900 14.0700   1
  -1  -7  -7 71.2300 14.0200   1
  -1   7  -7 90.7800 17.6800   1
   1  -7   7 130.260 43.3200   1
   1  -7   7 128.180 29.2000   1
   1  -6  -8 637.580 48.4300   1
   1   6  -8 649.890 52.9400   1
  -1  -6   8 624.850 57.5600   1
   1  -6  -8 637.740 49.8500   1
  -6 -23   0 524.770 46.6000   1
   6  23   0 538.460 46.5900   1
   6  23   0 605.040 47.4100   1
  -6  23   0 692.140 68.1000   1
   6 -23   0 565.230 51.4000   1
   0  24   6 541.860 44.6900   1
   0 -24   6 503.770 53.3500   1
   0  24  -6 525.750 44.8300   1
   0 -24  -6 500.330 38.9100   1
  -5 -26  -1 294.420 40.9400   1
   5  26   1 320.900 40.3200   1
   5  26   1 326.170 38.9900   1
  -5  26  -1 423.560 50.9800   1
   5 -26   1 406.440 35.2600   1
   5 -26   1 318.170 42.1200   1
   6  -9  -8 1.73000 14.1900   1
   6   9  -8 28.9900 15.4500   1
   3  36  -1 25.9700 25.5800   1
   3 -36  -1 49.3700 21.5200   1
  -3 -36   1 90.4600 18.5000   1
   4  34  -2 57.9000 18.1700   1
  -4 -34   2 78.4900 18.2200   1
   4  34  -2 66.4300 12.5700   1
   4 -34  -2 13.5600 17.0000   1
   5  31  -3 164.350 22.9800   1
   5  31  -3 163.780 26.7000   1
   5 -31  -3 137.810 28.0000   1
  -8  12   3 20.6900 34.3700   1
   8  12  -3 23.0100 17.9600   1
  -8 -12   3 42.2800 32.9000   1
   8 -12  -3 37.8000 19.9800   1
   2  22  -7 95.6700 17.1900   1
   2 -22  -7 63.1900 14.5000   1
   6  19   1 0.91000 21.0000   1
   6  19   1 -39.420 33.3800   1
  -6 -19  -1 25.8700 26.2400   1
   6 -19   1 57.4600 29.3100   1
  -6  19  -1 -11.760 28.2100   1
   4 -15  -8 1016.49 74.1700   1
   4  15  -8 996.350 72.0000   1
   1  31   4 107.740 25.3300   1
  -1 -31  -4 91.1600 18.7800   1
  -1 -31  -4 90.5400 23.0100   1
  -1  31  -4 126.070 18.7200   1
   1 -31   4 130.820 19.8100   1
   1 -31   4 39.1700 41.5700   1
   1 -31   4 138.030 29.1600   1
  -2 -28  -4 134.140 47.9600   1
   2 -28   4 190.140 51.3700   1
   2 -28   4 143.410 24.4700   1
   2  28   4 230.810 35.9400   1
   1 -34  -4 53.1200 21.4300   1
   1 -34  -4 47.9900 13.3400   1
  -1 -34   4 67.5600 19.3500   1
   1  34  -4 66.6800 14.5900   1
   3  36  -2 87.6900 13.8800   1
  -3 -36   2 70.0100 17.2800   1
   3 -36  -2 57.3300 23.1100   1
   3 -36  -2 80.0600 18.5000   1
   8   7  -6 530.030 42.4700   1
   8  -7  -6 497.120 40.8900   1
   8   7  -6 537.620 41.9100   1
  -3 -16  -5 16.1200 16.7200   1
   3 -16   5 0.21000 16.3200   1
   3 -16   5 -50.160 25.3800   1
   3  16   5 -15.300 18.3900   1
   3  16   5 -20.920 20.8900   1
   5  21  -7 403.110 34.1100   1
   7  12  -7 259.850 30.1800   1
   5 -22   2 212.400 34.6200   1
  -5 -22  -2 218.500 33.9600   1
  -5  22  -2 279.300 41.3500   1
   5  22   2 266.400 32.8300   1
   5  22   2 168.000 29.1300   1
  -8   9   2 4.57000 40.9100   1
  -8  -9   2 38.0900 26.9200   1
   8  -9  -2 -9.9600 17.4700   1
   8   9  -2 41.3300 20.7400   1
   0 -33  -4 -5.9700 16.8800   1
   0  33   4 -39.080 23.1800   1
   0 -33  -4 23.5700 14.9300   1
   0  33  -4 38.0800 15.9900   1
   0 -33   4 -3.6000 17.7600   1
   0 -33   4 20.2100 30.8000   1
  -3 -34  -1 149.010 20.7800   1
   3  34   1 144.060 31.0200   1
   3  34   1 131.180 19.1100   1
   3 -34   1 184.090 39.7800   1
   3 -34   1 152.700 46.7700   1
   3 -34   1 156.980 24.0000   1
  -3 -34  -1 103.250 19.4700   1
  -6  12  -2 944.740 82.3000   1
  -6 -12  -2 894.980 72.5300   1
   6 -12   2 857.130 67.8200   1
   6  12   2 763.630 62.1000   1
   6  12   2 889.210 65.4900   1
   0 -16   7 1000.84 81.5700   1
   0  16   7 804.570 61.2600   1
   0  16  -7 728.460 55.9700   1
   0 -16  -7 872.590 62.6900   1
   6  27  -2 356.830 41.2900   1
   6  27  -2 324.080 35.9200   1
   6  27  -2 384.250 32.6100   1
  -6 -27   2 398.560 38.5800   1
   6 -27  -2 393.560 48.0800   1
   1 -20  -7 404.480 36.6100   1
  -1  20   7 343.450 117.570   1
  -1 -20   7 314.530 44.4900   1
   1  20  -7 294.690 35.6200   1
   3  28  -6 727.010 52.4800   1
  -3  28   6 774.780 66.7300   1
  -3 -28   6 639.360 52.2300   1
   3 -28  -6 690.630 55.2600   1
  -8  13   4 635.310 71.4800   1
   8  13  -4 648.880 57.7300   1
  -8 -13   4 763.390 72.3700   1
   8  13  -4 766.830 55.6200   1
   8 -13  -4 661.840 64.1200   1
   8  13  -4 622.100 49.1800   1
   3 -23  -7 28.8100 17.4200   1
   3  23  -7 18.1700 12.9800   1
   6  18  -7 279.070 31.4000   1
   7   0   1 297.640 37.8700   1
  -7   0  -1 288.240 41.5300   1
   3 -15  -8 34.9400 15.1100   1
   3  15  -8 31.7900 15.1800   1
   1 -31  -5 58.7000 15.1300   1
   1 -31  -5 34.6300 19.2800   1
  -1  31   5 8.73000 22.2100   1
  -1 -31   5 39.0100 21.9900   1
   1  31  -5 69.2600 15.2900   1
  -7 -14   0 -4.8400 20.8200   1
  -7 -14   0 9.03000 22.2500   1
  -7  14   0 12.0900 27.0600   1
   7  14   0 -6.4200 15.3900   1
   7  14   0 -6.3600 28.2500   1
   7 -14   0 -37.960 26.2600   1
   7  -1   1 151.850 26.8700   1
  -7   1  -1 155.680 32.7300   1
  -7  -1  -1 81.3800 31.2500   1
   7   1   1 86.9900 21.4500   1
   1  -7  -8 50.1200 14.4300   1
   1  -7  -8 57.3100 14.7400   1
  -1  -7   8 60.3800 30.1000   1
   1   7  -8 58.0200 18.2700   1
  -1  -8  -7 708.980 54.7300   1
  -1  -8  -7 539.060 48.1700   1
   1  -8   7 558.090 61.2100   1
   1  -8   7 671.510 64.5900   1
  -1   8  -7 553.290 45.8600   1
  -7   2  -1 332.950 47.2500   1
   7   2   1 314.280 38.9800   1
   7  -2   1 218.640 30.5500   1
  -7  -2  -1 352.920 38.7100   1
   7  22  -3 81.8200 19.9400   1
   7  22  -3 109.610 20.7500   1
   7  22  -3 83.0300 15.9000   1
  -7 -22   3 107.660 27.3200   1
   7 -22  -3 60.3000 26.3200   1
   8 -12  -5 147.480 24.6200   1
   8  12  -5 139.050 19.0500   1
  -8 -12   5 158.890 45.4100   1
   8  12  -5 149.310 22.2000   1
   7  21  -2 397.650 32.2900   1
  -7 -21   2 401.200 36.2700   1
   7  21  -2 357.590 27.6200   1
  -7  21   2 400.640 56.5300   1
   7 -21  -2 347.810 36.8700   1
   2  13  -8 77.7300 18.9600   1
  -2 -13   8 126.790 23.8400   1
   2 -13  -8 128.210 19.2200   1
   2  32   3 68.5800 21.1100   1
   2 -32   3 19.5300 30.6500   1
   2 -32   3 72.4000 35.4200   1
  -2 -32  -3 143.460 25.9100   1
  -2 -32  -3 56.7200 13.5300   1
   2 -32   3 116.600 22.6700   1
  -2  32  -3 144.310 23.8800   1
  -2 -14  -6 131.820 20.0300   1
   2  14   6 169.480 37.1900   1
   2 -14   6 199.540 38.4900   1
   2 -14   6 157.720 42.0600   1
   5  14  -8 165.510 20.9100   1
   5 -14  -8 144.930 22.7600   1
   4 -28   2 97.5800 37.6400   1
   4 -28   2 48.0700 20.0100   1
  -4 -28  -2 -25.160 14.3500   1
   4  28   2 33.1800 18.5300   1
   4  28   2 -9.7500 16.9400   1
   5  29   0 406.120 35.0100   1
  -5 -29   0 425.820 39.1800   1
   5  29   0 377.360 25.5600   1
   5 -29   0 415.080 35.6000   1
   5 -29   0 466.680 43.6700   1
   6  27  -4 219.150 23.8300   1
   6  27  -4 187.950 29.2800   1
   6 -27  -4 239.130 29.4600   1
   6  10  -8 388.360 25.9100   1
   6 -10  -8 329.420 25.6800   1
   7   3   1 365.840 29.6300   1
  -7  -3  -1 379.320 42.3700   1
  -7   3  -1 372.890 46.0600   1
   7  -3   1 412.280 33.1300   1
   8  -8  -6 304.320 27.1600   1
   8   8  -6 272.060 27.7100   1
   8   8  -6 265.590 26.8400   1
   3 -34  -4 4.60000 17.4900   1
   3 -34  -4 -13.130 19.6000   1
  -3 -34   4 21.7100 19.5100   1
   3  34  -4 -3.1600 11.4700   1
   4  17   4 158.670 24.2900   1
   4 -17   4 129.510 34.3100   1
  -4 -17  -4 169.210 21.8400   1
  -4  17  -4 198.550 28.6600   1
   4  17   4 117.560 21.9200   1
   2 -28  -6 20.6500 17.0300   1
  -2  28   6 11.2600 20.6600   1
  -2 -28   6 -5.2900 14.7600   1
   2  28  -6 2.77000 17.1400   1
   4 -31   1 -3.2500 30.0000   1
   4  31   1 61.4700 23.3400   1
   4  31   1 38.7700 15.3500   1
   4 -31   1 35.1500 23.1700   1
  -4 -31  -1 11.3600 14.7800   1
   7  22  -4 64.7100 16.7100   1
   7  22  -4 81.2200 21.7100   1
  -1 -27  -5 104.480 26.5000   1
   1  27   5 120.500 25.1300   1
   1 -27   5 70.7200 36.0500   1
  -1  27  -5 89.0400 20.1000   1
   1 -27   5 84.3700 17.3200   1
   1 -27   5 87.8300 45.7900   1
   4  34  -1 201.540 26.1100   1
  -4 -34   1 201.660 31.1500   1
  -4 -34   1 105.870 20.1100   1
   4 -34  -1 82.4900 29.9500   1
   4 -34  -1 179.380 27.8500   1
  -3 -32  -2 37.8100 15.8600   1
   3 -32   2 57.8200 35.6300   1
   3 -32   2 44.3400 17.3900   1
   3 -32   2 -29.340 45.5500   1
   3  32   2 3.69000 25.7800   1
   2  23   5 380.050 30.0000   1
  -2 -23  -5 363.000 28.0800   1
   2 -23   5 349.450 41.0100   1
   2 -23   5 323.230 53.5900   1
   2 -23   5 291.980 27.3600   1
   4 -23  -7 811.710 48.1100   1
   4  23  -7 693.380 43.9800   1
   3 -24   4 553.590 56.0900   1
  -3 -24  -4 500.940 33.0900   1
   3 -24   4 449.810 36.1100   1
   3  24   4 477.910 34.0900   1
   6  26  -1 302.100 31.9300   1
   6  26  -1 475.030 30.3400   1
  -6 -26   1 537.380 40.2400   1
   6 -26  -1 403.510 46.2900   1
   8  10  -2 53.0400 19.9000   1
  -8  10   2 -56.100 41.6400   1
  -8 -10   2 7.85000 25.8300   1
   8 -10  -2 70.5700 27.0100   1
   5  16   3 74.2700 23.3900   1
  -5  16  -3 66.8500 28.0200   1
   5 -16   3 196.760 32.2900   1
  -5 -16  -3 43.4000 25.2200   1
   8 -13  -3 414.010 35.7300   1
   8  13  -3 361.000 25.2800   1
   8  13  -3 429.730 35.2300   1
  -8 -13   3 442.950 36.3700   1
  -8  13   3 418.610 45.5900   1
  -7  -4  -1 50.4600 24.8500   1
   7   4   1 3.97000 19.1400   1
   7  -4   1 24.5800 26.8300   1
  -7   4  -1 38.0500 27.6300   1
   1   8  -8 273.400 30.4700   1
   1  -8  -8 263.450 27.8200   1
  -1  -8   8 307.370 33.5700   1
   7  18  -6 560.680 33.3400   1
   4  33   0 94.6400 21.8300   1
  -4 -33   0 82.8200 18.1600   1
   4 -33   0 76.5500 19.5200   1
   4 -33   0 86.1000 35.0100   1
   4  33   0 94.8600 18.1700   1
   1  -9   7 62.7600 40.9300   1
  -1   9  -7 20.6000 19.1200   1
  -1  -9  -7 8.15000 12.2300   1
  -1  -9  -7 -5.7600 12.4400   1
   1  -9   7 35.9900 24.8400   1
  -4 -34   3 16.1800 17.0300   1
   4  34  -3 35.9200 13.3900   1
   4 -34  -3 16.5800 17.0300   1
   7  13  -7 1.09000 11.4600   1
   7  19  -1 32.9400 19.6000   1
   7  19  -1 92.0500 20.7000   1
   7 -19  -1 53.1500 27.6900   1
  -7 -19   1 58.5800 19.2200   1
  -7  19   1 80.9400 33.7300   1
  -6  13  -2 12.2000 24.1600   1
   6  13   2 -0.6900 17.9400   1
  -6 -13  -2 15.4800 26.5100   1
   6 -13   2 95.8300 26.7700   1
  -2  32   5 -22.010 18.4100   1
   2 -32  -5 -24.160 15.8500   1
   2 -32  -5 13.9800 17.7100   1
   2  32  -5 -5.2100 17.4800   1
  -2 -32   5 -8.6500 17.0700   1
  -1 -27   6 106.890 19.9600   1
  -1  27   6 120.700 24.0800   1
  -1 -27   6 90.6600 24.9200   1
   1  27  -6 79.1000 19.4000   1
   1 -27  -6 121.490 19.2500   1
   6 -23  -6 111.810 20.4300   1
   6  23  -6 132.920 16.5800   1
   4 -16  -8 39.3400 17.7300   1
   4  16  -8 55.7600 18.1800   1
   1 -38   1 114.710 19.8900   1
  -1 -38  -1 115.480 24.2400   1
  -1 -38  -1 177.190 21.6600   1
   5 -26  -6 168.980 24.5700   1
   5  26  -6 225.390 24.0800   1
   4 -24   3 84.5300 21.0500   1
   4 -24   3 191.050 32.0300   1
  -4 -24  -3 174.040 25.2500   1
   4  24   3 185.180 25.8700   1
   4  24   3 180.240 39.0700   1
   0 -39   0 28.0800 19.0400   1
   8  14  -4 86.4600 21.4900   1
   8  14  -4 55.6700 18.8800   1
  -8 -14   4 62.9500 30.7900   1
   8 -14  -4 68.6700 22.9500   1
   7   5   1 841.480 54.3500   1
   7  -5   1 707.880 53.0000   1
  -7  -5  -1 778.080 56.5500   1
  -7   5  -1 824.290 54.2100   1
   1 -38  -2 120.160 20.4400   1
   1 -38  -2 187.630 24.3100   1
  -1 -38   2 147.130 21.6800   1
   7  21  -5 367.530 25.6900   1
   1  21   6 79.0700 25.5200   1
  -1 -21  -6 80.7100 17.3800   1
   1 -21   6 164.680 35.7000   1
   1 -21   6 51.5800 38.7000   1
  -1  21  -6 68.5900 17.1200   1
   8   9  -6 283.440 22.4500   1
   8  -9  -6 230.020 27.4200   1
   8   9  -6 280.380 23.3500   1
   0 -36  -3 117.550 16.5400   1
   0  36  -3 80.4400 18.9300   1
   0 -36  -3 165.560 22.3000   1
   0 -36   3 104.520 30.2000   1
   3  17   5 45.7000 17.8000   1
   3 -17   5 63.4800 26.8400   1
   3 -17   5 70.1100 16.0100   1
   3 -29   3 60.0200 48.1200   1
   3  29   3 105.440 32.9800   1
   3 -29   3 81.4500 27.8100   1
  -3 -29  -3 -4.8600 13.6200   1
   3 -29   3 19.5400 22.9600   1
  -7 -15   0 33.6400 18.3200   1
  -7  15   0 45.5300 28.2700   1
   7 -15   0 53.5600 23.2500   1
   7  15   0 38.1700 21.8800   1
   7  15   0 62.2800 19.4300   1
  -7 -15   0 50.8200 30.7900   1
  -2 -38   1 456.570 35.1300   1
   2 -38  -1 427.550 36.1900   1
   6  11  -8 40.0200 14.9900   1
   0  17   7 25.9900 25.9700   1
   0 -17  -7 9.67000 13.0400   1
   0 -17   7 45.7400 42.2100   1
   0  17  -7 57.2000 21.9000   1
   6  20   1 236.360 26.4400   1
  -6 -20  -1 197.410 26.6300   1
   6  20   1 306.780 28.8100   1
  -6  20  -1 247.440 43.1200   1
   6 -20   1 268.180 35.5300   1
  -8 -13   5 401.540 42.3700   1
   8  13  -5 363.410 25.3900   1
   8 -13  -5 397.650 34.3100   1
   8  13  -5 339.250 25.5800   1
   3 -16  -8 28.5900 13.3900   1
   5 -29  -5 103.630 28.0500   1
   5  29  -5 84.9000 18.8500   1
   5  29  -5 128.010 16.5200   1
  -5 -31   1 388.820 36.7800   1
   5  31  -1 308.370 24.4700   1
   5  31  -1 331.140 33.8600   1
   5  31  -1 298.620 23.0700   1
   5 -31  -1 261.130 42.8900   1
   5 -31  -1 338.040 27.7600   1
   4  33  -4 11.6300 12.0900   1
   4 -33  -4 -10.660 15.2000   1
   4 -33  -4 22.5700 17.0800   1
  -4 -33   4 18.5700 19.8300   1
  -2 -35  -2 37.4700 12.2100   1
   2  35   2 -14.070 23.2000   1
   2 -35   2 37.7300 33.2000   1
   2 -35   2 82.2300 42.9800   1
   2 -35   2 53.7600 20.1200   1
  -2 -35  -2 -25.400 18.9000   1
  -2  35  -2 14.2800 18.4700   1
   6  28  -3 286.530 26.4600   1
   6  28  -3 254.280 26.5700   1
   6 -28  -3 183.240 25.5200   1
   3 -32  -5 425.230 38.6900   1
   3 -32  -5 410.180 29.0300   1
  -3 -32   5 450.150 34.2000   1
   3  32  -5 361.530 25.0600   1
  -1  -9   8 36.6300 20.6000   1
   1   9  -8 -21.080 14.2000   1
   1  -9  -8 8.15000 12.5200   1
   2  14  -8 36.0100 14.5300   1
   2 -14  -8 -9.5700 15.1100   1
  -2 -14   8 7.93000 24.3500   1
   8   0  -1 21.4700 22.7600   1
  -8   0   1 64.3800 28.5700   1
   4 -31  -5 266.290 30.0000   1
  -4 -31   5 273.390 33.3800   1
   4  31  -5 294.570 21.0400   1
   4 -31  -5 180.960 26.7600   1
   0 -30   5 61.1300 25.6000   1
   0  30   5 58.7400 25.9700   1
   0 -30   5 20.7200 20.7500   1
   0 -30  -5 6.64000 12.9100   1
   0  30  -5 24.3400 16.5000   1
   0 -30  -5 2.70000 17.5100   1
   8   1  -1 70.4700 21.8000   1
   8  -1  -1 -1.2300 24.8300   1
  -8  -1   1 -4.9900 21.1000   1
  -8   1   1 17.5000 28.0600   1
   6  24   0 235.480 33.8500   1
   6  24   0 224.690 28.3500   1
  -6 -24   0 178.870 25.9700   1
  -6  24   0 313.850 54.2900   1
   6 -24   0 301.320 38.9700   1
  -2 -15  -6 326.820 25.1300   1
   2 -15   6 323.960 35.5800   1
   2  15   6 324.010 28.6300   1
   2 -15   6 230.920 53.3000   1
   2 -23  -7 -14.200 13.4700   1
   2  23  -7 -6.6200 17.5100   1
  -8 -11   2 307.100 29.3500   1
   8 -11  -2 240.940 30.0800   1
   8  11  -2 210.400 29.4900   1
  -8  11   2 340.710 46.3500   1
   7   6   1 17.6200 19.8200   1
   7  -6   1 20.7200 27.2100   1
  -7   6  -1 -56.400 21.7800   1
   5 -15  -8 43.7600 19.5600   1
   5  15  -8 38.1900 16.2000   1
   6  19  -7 47.6600 14.8100   1
   6 -26  -5 163.660 26.8200   1
   6  26  -5 113.060 15.7800   1
   0 -25  -6 171.790 20.4300   1
   0  25   6 104.630 29.6400   1
   0 -25   6 201.750 39.2000   1
   0  25  -6 133.910 19.8800   1
  -8  -2   1 11.1300 21.3200   1
   8  -2  -1 72.1600 23.4500   1
   8   2  -1 16.4500 17.4300   1
  -8   2   1 21.9200 30.0900   1
   4 -28  -6 201.500 28.8200   1
   4 -28  -6 221.000 30.3500   1
   4  28  -6 156.840 19.7800   1
  -4 -28   6 245.690 35.4500   1
   5  22  -7 4.34000 15.6300   1
  -3 -36   0 87.5200 20.2500   1
  -3 -36   0 51.0900 23.7300   1
   3 -36   0 94.3300 20.2400   1
   3 -36   0 100.550 41.6300   1
   3 -36   0 101.010 37.4200   1
   3  36   0 88.5100 25.1900   1
   1 -10   7 784.290 65.1000   1
   1 -10   7 756.830 59.6800   1
  -1  10  -7 750.580 48.0700   1
  -1 -10  -7 682.040 41.5100   1
   1 -21  -7 614.610 40.9600   1
  -1  21   7 618.490 45.6800   1
  -1 -21   7 665.260 48.8300   1
   1  21  -7 658.430 40.1600   1
  -5 -23  -2 150.540 26.6300   1
   5  23   2 154.080 26.4500   1
   5  23   2 194.930 31.5200   1
   5 -23   2 189.700 39.9300   1
  -5  23  -2 165.410 33.7900   1
   8  14  -3 -1.9400 14.6700   1
  -8 -14   3 -12.680 31.4000   1
  -8  14   3 -0.1700 35.5400   1
  -8   3   1 188.210 52.1200   1
   8   3  -1 25.3400 18.0400   1
  -8  -3   1 -14.030 21.1600   1
   5  27   1 314.870 27.5500   1
  -5  27  -1 319.190 45.0100   1
  -5 -27  -1 274.030 65.2100   1
   5 -27   1 331.410 29.6500   1
   5 -27   1 208.440 36.4300   1
   5  27   1 248.930 27.4700   1
   2 -35  -4 -7.6800 14.5700   1
   2 -35  -4 -2.6600 12.4800   1
  -2 -35   4 6.10000 18.4500   1
   2  35  -4 24.9400 14.4200   1
   8 -10  -6 111.150 18.5400   1
   8  10  -6 176.870 22.5800   1
   8  10  -6 144.590 18.3500   1
   3 -24  -7 -14.710 13.5900   1
   3  24  -7 -24.950 12.7300   1
   4  18   4 215.740 30.5700   1
   4 -18   4 122.180 27.9600   1
   4  18   4 180.750 35.7100   1
  -4 -18  -4 153.860 24.2400   1
  -4  18  -4 196.880 32.8600   1
   5  31  -4 159.530 20.2500   1
   5 -31  -4 163.720 25.9800   1
   5  31  -4 150.120 26.0400   1
   4   0   5 -31.700 20.8800   1
  -4   0  -5 9.40000 21.7100   1
   3 -36  -3 15.2800 16.0500   1
  -3 -36   3 -8.8400 15.5100   1
   3  36  -3 -4.0200 13.5400   1
   3 -36  -3 20.4700 17.0200   1
   7  14  -7 52.5700 12.2800   1
  -4  -1  -5 14.1900 17.9600   1
  -4   1  -5 34.7500 24.6800   1
   4   1   5 -32.950 26.4400   1
   4  -1   5 36.3200 22.3700   1
   0 -38  -2 16.5700 14.3600   1
   0  38  -2 12.8400 12.4600   1
   0 -38  -2 -15.290 15.5600   1
  -1 -37  -2 30.2900 11.8900   1
  -1  37  -2 27.9300 15.1400   1
  -1 -37  -2 23.4200 16.6300   1
   1 -37   2 63.0100 20.8900   1
   1 -37   2 35.8100 20.6900   1
   1  37   2 27.0000 28.2600   1
   6  14   2 399.440 36.0500   1
   6 -14   2 413.000 43.1900   1
  -6 -14  -2 426.940 34.3000   1
   6  14   2 421.350 39.1300   1
  -6  14  -2 446.460 51.5500   1
   5  17   3 580.690 46.7000   1
   5  17   3 596.580 40.3300   1
  -5 -17  -3 547.370 39.2500   1
   5 -17   3 655.880 48.9600   1
  -5  17  -3 530.200 54.5800   1
   5  32  -2 34.1100 20.1700   1
   5  32  -2 5.45000 14.3900   1
   5 -32  -2 -0.5400 20.6600   1
   2  29   4 162.110 24.9300   1
  -2 -29  -4 149.910 19.2300   1
  -2  29  -4 132.740 22.1600   1
   2 -29   4 142.380 21.0700   1
   2 -29   4 224.090 50.3000   1
   2 -29   4 223.170 42.4900   1
   0 -39  -1 52.3700 16.6800   1
   0 -39   1 76.5400 21.2500   1
  -7 -22   2 253.210 35.4700   1
   7  22  -2 263.950 31.0800   1
   7  22  -2 281.270 21.6000   1
   7 -22  -2 253.040 36.9900   1
   7  -7   1 643.830 44.7000   1
  -7  -7  -1 706.250 54.0300   1
  -7   7  -1 566.920 47.7700   1
   7   7   1 651.350 42.6500   1
   8   4  -1 257.580 29.6200   1
   8  -4  -1 297.130 26.5900   1
  -8  -4   1 292.090 32.8700   1
  -8   4   1 246.900 42.0600   1
  -7 -23   3 53.4200 20.4300   1
   7  23  -3 110.770 20.9000   1
   7  23  -3 50.6800 14.0000   1
   7  23  -3 45.1500 13.5500   1
   7 -23  -3 143.410 32.8900   1
  -4  -2  -5 24.4100 19.2700   1
   4  -2   5 67.3100 27.7300   1
  -4   2  -5 37.4300 21.1900   1
   4   2   5 91.7200 32.2300   1
   1 -39   0 307.940 27.3300   1
  -1 -39   0 267.420 29.9100   1
   1 -39  -1 14.6900 21.9100   1
  -1 -39   1 44.3300 16.5000   1
   2  37   1 240.000 35.6300   1
   2 -37   1 398.910 30.0700   1
  -2 -37  -1 258.670 32.4400   1
  -2 -37  -1 278.990 22.2500   1
   2 -37   1 234.820 35.8300   1
   2 -37   1 283.900 46.7300   1
   1 -10  -8 232.330 26.6900   1
   1  10  -8 184.310 22.7300   1
   6  28  -2 73.9900 19.6300   1
   6 -28  -2 90.8800 27.7500   1
   6  28  -2 90.2300 18.1400   1
   6 -28  -2 57.7800 31.5100   1
   6  28  -2 35.3200 16.2200   1
  -6 -28   2 86.0600 23.3600   1
   1 -37  -3 -27.080 21.1400   1
  -1 -37   3 1.98000 19.1100   1
   1  37  -3 25.8500 14.0400   1
   1 -37  -3 -2.1900 12.2500   1
   6  12  -8 91.4300 16.9800   1
   2 -38   0 -25.810 16.1900   1
  -2 -38   0 -53.530 19.3500   1
   2 -38   0 -9.8300 18.3300   1
   5  32  -3 637.890 36.6700   1
   5  32  -3 503.420 35.9900   1
   5 -32  -3 504.600 39.4600   1
   7  19  -6 259.750 26.6100   1
   8  15  -4 1353.45 297.130   1
  -8 -15   4 1205.64 73.0700   1
   8  15  -4 1290.18 288.290   1
   8  15  -4 1182.04 60.1600   1
   8 -15  -4 1194.30 73.8100   1
  -1  35  -3 36.1600 13.7000   1
   1 -35   3 50.9300 19.7900   1
   1 -35   3 75.5000 29.5300   1
   1  35   3 33.8500 20.3000   1
  -1 -35  -3 10.4900 15.3900   1
  -1 -35  -3 28.7900 14.9900   1
   3 -29  -6 53.9800 20.4000   1
  -3  29   6 75.6400 22.4400   1
   3  29  -6 60.9900 15.7400   1
  -3 -29   6 55.6600 15.0000   1
  -1 -32  -4 -23.600 17.6700   1
   1  32   4 11.2300 26.0900   1
  -1 -32  -4 12.0700 12.6600   1
   1 -32   4 -2.9600 23.3600   1
   1 -32   4 9.75000 15.8200   1
  -1  32  -4 -1.3000 14.6100   1
   4   3   5 97.5100 29.5000   1
  -4   3  -5 64.8300 19.7600   1
  -4  -3  -5 83.0000 19.5700   1
   4  -3   5 69.1600 32.8300   1
   4 -17  -8 1041.82 61.8400   1
   4  17  -8 942.500 52.1800   1
   7  23  -4 589.610 36.3900   1
   7  23  -4 632.790 49.2100   1
   2 -38  -2 136.480 25.5600   1
   2 -38  -2 189.370 22.6500   1
  -2 -38   2 222.630 28.2600   1
  -8 -14   5 493.060 51.8800   1
   8  14  -5 378.480 29.3500   1
   8  14  -5 400.110 31.4700   1
   8 -14  -5 383.460 31.4800   1
  -5   0  -4 -14.860 24.4400   1
   5   0   4 34.8400 22.6500   1
  -8   5   1 221.020 37.6800   1
  -8  -5   1 243.860 37.9100   1
   8  -5  -1 169.860 28.6700   1
   8   5  -1 155.410 22.8300   1
   5  -1   4 232.640 32.4800   1
  -5   1  -4 281.660 31.7700   1
  -5   1  -4 208.290 30.1700   1
   5   1   4 291.380 35.8000   1
  -5  -1  -4 141.550 33.2700   1
  -8  12   2 18.1100 33.1200   1
   8 -12  -2 49.4300 23.8300   1
  -8 -12   2 83.5700 31.2800   1
   8  12  -2 45.4600 19.2700   1
  -1 -11  -7 18.6700 13.0700   1
  -1  11  -7 -3.2600 15.4700   1
   1 -11   7 -5.5300 33.7700   1
   1 -11   7 42.5000 31.4800   1
  -4 -35   2 13.6800 16.7100   1
   4  35  -2 10.5300 17.2500   1
   4 -35  -2 -10.720 23.9000   1
   4  35  -2 13.7500 13.2100   1
   2  37  -3 36.2100 14.4500   1
  -2 -37   3 -20.620 17.9700   1
   2 -37  -3 30.4000 20.4000   1
   2 -37  -3 -21.900 11.9300   1
   7  20  -1 37.3700 14.4800   1
   7  20  -1 13.6800 17.8500   1
  -7 -20   1 14.7900 25.2700   1
   7 -20  -1 62.7500 28.7700   1
  -7  20   1 48.4400 47.4300   1
   7   0  -8 11.7800 12.0400   1
   7   0  -8 0.43000 16.8700   1
  -2 -24  -5 54.3500 16.2300   1
   2  24   5 85.1300 23.6500   1
   2 -24   5 56.3000 18.4400   1
   2 -24   5 102.780 45.5100   1
   2 -24   5 91.5900 34.4900   1
   7  16   0 -50.860 18.3800   1
   7  16   0 27.4700 18.0400   1
  -7 -16   0 -40.510 21.3100   1
  -7 -16   0 -15.050 21.6400   1
   7 -16   0 -11.280 26.8400   1
  -7  16   0 46.1700 37.8800   1
   7   1  -8 826.360 44.5500   1
   7  -1  -8 909.380 48.9700   1
   4 -24  -7 211.830 27.4200   1
   4  24  -7 264.920 26.7300   1
   1 -35  -4 21.5000 14.1700   1
   1 -35  -4 17.7200 15.7300   1
   1  35  -4 24.1300 15.3100   1
  -1 -35   4 16.6600 19.1200   1
   5  -2   4 117.660 27.0000   1
   5   2   4 113.220 29.6500   1
  -5   2  -4 79.4100 28.9700   1
  -5   2  -4 101.240 31.1100   1
  -5  -2  -4 85.9900 28.9500   1
  -4  -4  -5 641.650 47.2600   1
   4  -4   5 641.290 51.9200   1
   4   4   5 667.940 54.2100   1
  -4   4  -5 644.940 56.7400   1
  -2 -15   8 121.810 28.0500   1
   2 -15  -8 132.930 20.2500   1
   2  15  -8 133.780 19.1600   1
   3 -18   5 72.5400 21.4000   1
  -3 -18  -5 120.580 17.8300   1
   3  18   5 117.480 21.3100   1
   3 -18   5 126.990 29.7900   1
   0 -34  -4 20.4900 18.5500   1
   0 -34  -4 -4.0200 12.5200   1
   0  34   4 15.3900 27.2000   1
   0 -34   4 4.97000 15.0800   1
   0  34  -4 -23.560 13.6100   1
   0 -34   4 -37.820 30.3100   1
   3  37  -1 -5.0400 21.4900   1
  -3 -37   1 -17.270 15.8900   1
   3  25   4 -16.550 23.1800   1
   3 -25   4 62.0000 32.6900   1
   3 -25   4 62.1500 48.7200   1
   3 -25   4 13.6100 15.6700   1
  -3 -25  -4 55.6600 14.6900   1
   1 -32  -5 48.1300 17.2700   1
   1 -32  -5 52.7600 14.2000   1
  -1  32   5 27.2900 26.2100   1
   1  32  -5 38.0000 17.4200   1
  -1 -32   5 21.3000 15.9600   1
   7   2  -8 27.6500 11.4900   1
   7  -2  -8 23.3000 13.4500   1
   6 -28  -4 284.400 32.0900   1
   6  28  -4 250.230 30.8100   1
   6  28  -4 217.750 26.1900   1
   7   8   1 74.2800 20.0900   1
  -7   8  -1 53.6400 32.4400   1
   7  -8   1 91.3900 25.1900   1
  -7  -8  -1 69.9700 28.1600   1
   3 -17  -8 26.9800 18.1300   1
   3  17  -8 -17.930 15.4300   1
   4  29   2 7.24000 14.7600   1
  -4 -29  -2 7.30000 14.5100   1
   4  29   2 41.4400 26.2800   1
   4 -29   2 -20.170 25.6200   1
   4 -29   2 -28.960 19.1900   1
   3 -35   1 1.46000 17.2000   1
  -3 -35  -1 13.6000 16.0000   1
  -3  35  -1 27.4200 12.8900   1
  -3 -35  -1 -6.6200 16.4800   1
   3 -35   1 31.1900 34.8600   1
   3 -35   1 9.94000 23.4400   1
   3  35   1 8.69000 14.7700   1
   3  35   1 17.3400 26.5100   1
   0 -18  -7 841.680 46.6200   1
   0  18   7 817.540 52.3200   1
   0 -18   7 927.330 61.4700   1
   0  18  -7 822.170 49.2300   1
  -3 -37   2 174.860 25.7000   1
   3 -37  -2 122.370 18.3000   1
   3 -37  -2 197.610 27.2700   1
   8  11  -6 21.2600 19.1800   1
   8  11  -6 5.02000 17.3700   1
   1  28   5 77.1500 23.7900   1
  -1 -28  -5 15.1600 15.5900   1
  -1  28  -5 18.4100 18.7200   1
   1 -28   5 110.860 37.2900   1
   1 -28   5 47.7200 47.5500   1
   1 -28   5 53.7600 15.4100   1
  -2 -16  -6 9.07000 15.5400   1
   2 -16   6 -3.1500 27.0600   1
   2 -16   6 14.3300 47.1200   1
   5  -3   4 437.140 36.4000   1
  -5   3  -4 359.780 34.5500   1
  -5  -3  -4 323.770 34.3800   1
   5   3   4 389.410 42.5900   1
  -5   3  -4 450.560 43.7400   1
   5  30   0 103.480 29.7300   1
  -5 -30   0 46.9200 18.4400   1
   5  30   0 78.0800 18.2900   1
   5 -30   0 86.5300 19.7600   1
   5 -30   0 85.9800 35.9500   1
   5  16  -8 210.720 24.7900   1
   5 -16  -8 174.520 24.3400   1
  -6 -27   1 207.650 28.8200   1
   6  27  -1 194.630 28.5300   1
   6  27  -1 171.050 22.8000   1
   6 -27  -1 170.000 37.0500   1
   2 -29  -6 421.840 28.9900   1
  -2  29   6 484.340 38.4100   1
  -2 -29   6 412.390 29.4800   1
   2  29  -6 508.360 34.8900   1
   7   3  -8 596.550 36.0500   1
   7  -3  -8 694.070 44.5300   1
   7  22  -5 82.8600 18.3100   1
  -1 -22  -6 256.560 26.9500   1
   1  22   6 147.110 25.7000   1
   1 -22   6 252.720 52.6300   1
   1 -22   6 297.600 43.0200   1
  -1  22  -6 243.260 28.7800   1
   6 -24  -6 92.7600 18.2200   1
   6  24  -6 82.1200 15.9500   1
   8   6  -1 458.830 32.0300   1
  -8   6   1 477.250 47.7300   1
  -8  -6   1 493.020 39.3800   1
   8  -6  -1 448.360 35.0400   1
  -4  -5  -5 -20.930 17.2200   1
   4  -5   5 -75.000 31.5300   1
  -4   5  -5 49.9000 19.8500   1
   4   5   5 30.6700 22.7100   1
   6  21   1 -0.3000 18.3500   1
  -6 -21  -1 1.92000 18.6500   1
   6  21   1 16.8700 21.5900   1
   6 -21   1 31.5700 28.3500   1
  -6  21  -1 -10.630 36.0800   1
   2  33   3 -0.1300 21.7700   1
   2 -33   3 7.15000 19.9800   1
  -2 -33  -3 -6.9400 19.7800   1
  -2 -33  -3 23.0300 17.8900   1
  -2  33  -3 13.0400 16.9400   1
   2 -33   3 -18.490 24.1800   1
   2 -33   3 -9.1000 42.9200   1
  -8  15   3 78.8000 49.1300   1
  -8 -15   3 115.610 26.1300   1
   8 -15  -3 72.2200 24.6400   1
   8  15  -3 58.8400 20.3600   1
   8  15  -3 93.4200 20.8600   1
   4  25   3 407.430 30.8400   1
   4 -25   3 364.200 40.5300   1
   4 -25   3 371.270 28.2700   1
  -4 -25  -3 278.200 25.6400   1
   4  25   3 346.650 31.6800   1
  -1 -11   8 -28.280 30.7500   1
   1 -11  -8 -21.940 16.8500   1
   1  11  -8 -2.9400 14.6400   1
  -5   4  -4 274.280 65.4500   1
  -5   4  -4 285.790 33.9300   1
  -5  -4  -4 196.290 32.5500   1
   5   4   4 205.270 33.9400   1
   5  -4   4 261.790 35.7700   1
   4  32   1 -23.980 18.4300   1
  -4 -32  -1 55.5600 21.4000   1
   4  32   1 38.4300 12.9000   1
   4 -32   1 37.4900 17.5800   1
   4 -32   1 25.7600 25.3800   1
   7  -4  -8 51.6300 14.5100   1
   7   4  -8 -16.360 13.9200   1
   6  20  -7 82.6200 17.9200   1
   7  15  -7 234.140 25.8900   1
   5 -27  -6 231.400 29.7400   1
   5  27  -6 198.760 23.4200   1
   1 -28  -6 109.100 16.7400   1
  -1  28   6 129.240 22.3200   1
  -1 -28   6 94.3100 25.7500   1
  -1 -28   6 132.960 21.5000   1
   1  28  -6 129.860 21.7300   1
   6  15   2 22.2000 22.1800   1
  -6 -15  -2 -45.200 26.7200   1
   6 -15   2 81.7700 31.0400   1
  -6  15  -2 30.3500 24.4600   1
   3 -33   2 264.960 37.3200   1
   3 -33   2 282.630 25.2900   1
   3  33   2 345.450 32.8300   1
   3 -33   2 266.240 48.2100   1
  -3 -33  -2 352.380 26.4900   1
   6  13  -8 20.8600 13.5000   1
   8   0  -7 19.7400 16.0700   1
   3 -35  -4 608.950 46.5100   1
   3 -35  -4 602.580 47.8900   1
   3  35  -4 567.200 33.8700   1
  -3 -35   4 639.090 41.4000   1
   8  -1  -7 995.240 55.7100   1
   8   1  -7 780.190 45.8200   1
   8  -1  -7 851.580 48.6000   1
   8   1  -7 947.860 55.0900   1
  -4 -35   1 88.0400 19.7700   1
   4  35  -1 82.6900 19.6800   1
   4 -35  -1 118.560 24.4800   1
  -7  -9  -1 205.630 33.5000   1
   7   9   1 166.130 27.5300   1
  -7   9  -1 271.490 40.7900   1
   1 -22  -7 198.340 23.0700   1
   1  22  -7 173.560 25.8700   1
   1 -12   7 950.720 67.3600   1
  -1  12  -7 909.830 60.3500   1
  -1 -12  -7 901.130 55.7000   1
   1 -12   7 883.720 74.2900   1
  -4   6  -5 1283.11 286.300   1
  -4   6  -5 1271.80 285.250   1
  -4  -6  -5 1102.76 67.4500   1
   4   6   5 1082.60 73.2700   1
   4  -6   5 1141.99 73.8800   1
   4  19   4 487.000 35.7500   1
   4  19   4 439.330 36.8700   1
   4 -19   4 402.380 36.5300   1
  -4  19  -4 550.110 48.4900   1
  -4 -19  -4 514.050 36.2800   1
   4 -19   4 474.950 36.7200   1
   8   7  -1 217.580 47.8000   1
  -8   7   1 289.150 38.4500   1
   8  -7  -1 257.730 31.2700   1
  -8  -7   1 209.610 29.0300   1
   2 -24  -7 341.760 26.6800   1
   2  24  -7 361.980 26.6700   1
   5 -23  -7 26.8600 15.6900   1
   5  23  -7 47.9900 14.3800   1
  -5   5  -4 294.660 33.7900   1
   5  -5   4 277.270 66.9100   1
  -5  -5  -4 213.120 35.9500   1
   5   5   4 273.040 35.1400   1
  -5   5  -4 274.640 65.7600   1
   8  -2  -7 48.9800 16.2300   1
   8   2  -7 51.8400 13.4000   1
   8   2  -7 42.0700 18.6000   1
   5  18   3 78.0600 19.8300   1
   5  18   3 107.950 31.5700   1
  -5  18  -3 130.650 27.3300   1
  -5 -18  -3 84.8500 23.7500   1
   5 -18   3 101.350 39.2300   1
  -4 -34   0 2.56000 19.1200   1
   4  34   0 -14.090 12.7500   1
   4  34   0 -9.4000 21.8700   1
   4 -34   0 -39.330 27.6400   1
   4 -34   0 28.6400 24.3600   1
   8  13  -2 581.250 36.8200   1
   8 -13  -2 667.490 52.4100   1
  -8 -13   2 726.990 50.5500   1
  -8  13   2 570.050 56.8800   1
   8  13  -2 555.690 48.3000   1
  -6 -25   0 891.250 56.9800   1
   6  25   0 858.640 49.0500   1
   6  25   0 765.510 51.8600   1
  -6  25   0 747.540 74.3700   1
   6 -25   0 787.370 56.0000   1
   7  -5  -8 99.0300 17.1900   1
   7   5  -8 126.400 16.3900   1
  -8 -16   4 63.5700 35.4200   1
   8  16  -4 -7.2200 16.8800   1
   8  16  -4 -13.640 13.1700   1
   8 -16  -4 32.0600 25.5700   1
   2 -33  -5 461.650 32.2600   1
  -2  33   5 495.760 39.3000   1
   2 -33  -5 434.420 35.7400   1
  -2 -33   5 464.870 35.9400   1
   2  33  -5 495.800 33.6600   1
   8  15  -5 39.5100 13.2400   1
   8  15  -5 13.5600 13.5900   1
  -8 -15   5 -11.100 41.2600   1
   5  24   2 16.1500 18.7800   1
   5  24   2 31.3900 15.0600   1
  -5 -24  -2 5.96000 17.4100   1
   5 -24   2 6.79000 25.2600   1
  -5  24  -2 49.9200 30.1400   1
   8   3  -7 723.360 41.5400   1
   8  -3  -7 635.320 40.2800   1
   8   3  -7 682.820 40.5500   1
   8  -3  -7 661.970 41.9700   1
   3  30   3 560.530 41.5500   1
   3 -30   3 343.220 41.8100   1
   3 -30   3 268.040 59.7700   1
   3 -30   3 448.500 32.6300   1
  -3 -30  -3 414.310 29.1900   1
  -4 -35   3 740.720 48.1200   1
   4  35  -3 746.930 42.0100   1
   4 -35  -3 661.310 47.2100   1
   4 -35  -3 720.470 52.2500   1
   4  35  -3 753.950 49.9300   1
   0 -26  -6 158.590 21.4900   1
   0  26   6 125.220 24.8100   1
   0 -26   6 205.970 32.4000   1
   0  26  -6 236.200 29.0300   1
   8  12  -6 91.4400 18.2400   1
   8  12  -6 136.670 17.2800   1
   3   0   6 -22.630 49.5700   1
  -3   0  -6 -12.120 16.0700   1
   3   0   6 14.7200 28.7200   1
   6  29  -3 8.68000 11.9600   1
   6  29  -3 -33.280 23.6900   1
   6 -29  -3 -13.700 20.8800   1
   6 -27  -5 264.380 31.5800   1
   6  27  -5 250.630 26.9200   1
   5  30  -5 427.350 30.9600   1
   5 -30  -5 397.200 34.9900   1
   5  30  -5 356.090 32.4900   1
   3  -1   6 52.7600 24.7300   1
   3   1   6 -10.120 29.5500   1
   3   1   6 61.2700 47.7700   1
   3  -1   6 119.100 50.3200   1
  -3  -1  -6 46.5100 16.9200   1
  -3   1  -6 69.1500 21.4800   1
   4 -18  -8 66.4600 16.7000   1
   4  18  -8 50.8400 15.3300   1
   7  20  -6 357.410 26.3400   1
   2 -16  -8 -0.4100 17.9200   1
  -2 -16   8 -46.520 19.9100   1
   2  16  -8 2.28000 17.8000   1
  -7 -17   0 98.3000 33.6100   1
  -7 -17   0 68.4700 19.7100   1
   7  17   0 11.4300 15.9800   1
   7  17   0 58.7300 19.5500   1
  -7  17   0 41.3300 30.9000   1
   7 -17   0 11.2100 27.7200   1
   3   2   6 154.300 30.5600   1
  -3   2  -6 118.480 25.8200   1
   3   2   6 92.3200 54.7700   1
   3  -2   6 194.530 34.3500   1
   3  -2   6 86.9200 93.2600   1
  -3  -2  -6 130.200 24.3200   1
  -5  -6  -4 498.020 45.0700   1
   5  -6   4 419.340 43.2400   1
   5   6   4 498.540 44.2800   1
  -5   6  -4 476.100 46.9400   1
   7  23  -2 538.620 40.4600   1
   7  23  -2 516.540 32.7400   1
  -7 -23   2 731.410 56.2600   1
   7 -23  -2 525.550 44.7200   1
   3 -25  -7 13.9500 19.3000   1
   3  25  -7 33.9800 17.0500   1
   5  32  -1 13.4000 17.5600   1
   5  32  -1 -7.4100 13.3400   1
  -5 -32   1 29.4300 17.4700   1
   5  32  -1 27.9600 14.5100   1
   5 -32  -1 11.8100 24.3100   1
   5 -32  -1 0.52000 24.8300   1
   4 -29  -6 215.420 26.4300   1
   4 -29  -6 193.950 30.8600   1
  -4 -29   6 256.430 30.5300   1
   4  29  -6 261.870 27.5000   1
   8   4  -7 97.8600 18.7500   1
   8  -4  -7 77.9900 17.5900   1
   8   4  -7 25.7900 16.1500   1
   8  -4  -7 68.6600 14.8200   1
   4   7   5 80.8800 27.8900   1
  -4   7  -5 81.9400 25.0600   1
   4  -7   5 84.0000 36.9500   1
  -4   7  -5 73.1600 37.0300   1
  -4  -7  -5 45.9100 22.0800   1
   0 -31  -5 -14.280 13.9600   1
   0 -31  -5 -19.010 16.2400   1
   0  31   5 16.2200 19.6500   1
   0 -31   5 -17.730 16.3600   1
   0 -31   5 -84.200 23.6300   1
   0  31  -5 1.17000 14.9800   1
   7  -6  -8 7.52000 10.9300   1
   7   6  -8 33.2700 14.3700   1
   1 -12  -8 15.6600 14.4900   1
   1  12  -8 43.2300 15.1400   1
  -1 -12   8 58.6300 27.5200   1
   4 -32  -5 -15.140 13.6300   1
  -4 -32   5 -9.7400 21.1000   1
   4 -32  -5 -12.240 14.2100   1
   7  24  -3 5.91000 16.7000   1
   7  24  -3 39.1500 16.2900   1
   7 -24  -3 -27.570 20.1300   1
   7  24  -3 -21.190 13.0100   1
  -7 -24   3 -8.3600 19.3700   1
   8   8  -1 481.940 35.4300   1
   8  -8  -1 510.280 37.6500   1
  -8  -8   1 474.580 40.7600   1
  -8   8   1 481.430 39.2500   1
   3 -33  -5 4.48000 13.8700   1
   3 -33  -5 39.7100 17.0200   1
   3  33  -5 72.1000 17.4800   1
  -3 -33   5 35.3400 18.1900   1
  -5 -28  -1 205.690 25.9400   1
   5  28   1 192.550 21.7200   1
   5  28   1 198.290 29.7800   1
   5 -28   1 155.690 28.5100   1
   5 -28   1 161.940 26.3200   1
   3  -3   6 639.470 71.5000   1
  -3   3  -6 636.290 44.9700   1
   3   3   6 630.050 69.3800   1
   3   3   6 635.820 58.8800   1
   3  -3   6 617.160 56.2800   1
  -3  -3  -6 716.870 50.9400   1
  -4 -34   4 345.870 35.5200   1
   4  34  -4 414.230 27.7200   1
   4 -34  -4 315.070 41.9200   1
   4 -34  -4 263.300 30.0500   1
   4   0  -9 0.28000 15.0600   1
   0 -37  -3 275.850 26.6200   1
   0 -37  -3 359.640 25.2300   1
   0 -37   3 268.430 26.1300   1
   0  37  -3 332.570 28.6300   1
   3 -18  -8 12.7900 17.0300   1
   3  18  -8 34.3200 18.4700   1
   3 -19   5 -102.73 49.3000   1
   3  19   5 85.5200 39.9000   1
   3 -19   5 31.0300 26.1000   1
  -3 -19  -5 69.2200 19.5600   1
   3 -19   5 73.3500 16.9800   1
  -2 -17  -6 554.050 34.8800   1
   2 -17   6 540.510 58.1700   1
   2  17   6 591.680 43.4700   1
   2 -17   6 607.430 47.5200   1
  -1 -39  -1 23.0400 15.1000   1
   1 -39   1 11.8800 16.6000   1
  -1 -39  -1 14.9800 15.4100   1
   4   1  -9 5.90000 13.1400   1
   4   1  -9 20.2400 12.0200   1
   4  -1  -9 19.4000 13.3600   1
   4  -1  -9 28.4700 15.5800   1
   7  10   1 120.980 26.2200   1
  -7  10  -1 121.010 26.2900   1
  -7 -10  -1 109.660 21.4700   1
  -7 -10  -1 66.3100 23.8900   1
   7 -10   1 61.6900 42.5900   1
   5 -17  -8 -38.330 20.2800   1
   5  17  -8 31.3300 16.5100   1
  -7 -21   1 14.5200 18.2400   1
   7  21  -1 58.4700 21.1500   1
   7 -21  -1 45.8400 23.0900   1
  -7  21   1 57.4700 36.5900   1
   0 -19  -7 9.79000 12.6200   1
   0  19   7 41.7500 20.1700   1
   0  19  -7 30.2000 20.1000   1
   0 -19   7 52.7000 29.8600   1
  -8  16   3 6.37000 53.2100   1
  -8 -16   3 44.4600 28.1100   1
   8 -16  -3 44.0100 20.0000   1
   8  16  -3 13.4200 13.7400   1
   8  16  -3 21.7900 22.5400   1
   0 -40   0 74.5300 18.4300   1
   1 -39  -2 163.350 23.9300   1
  -1 -39   2 194.320 25.9200   1
   1 -39  -2 172.150 19.2600   1
   4  -2  -9 41.5300 13.9100   1
   4   2  -9 10.4800 14.3800   1
   4  -2  -9 17.2500 12.6700   1
   4   2  -9 30.2400 11.2900   1
  -2 -36  -2 400.740 30.4200   1
  -2  36  -2 425.080 31.0700   1
  -2 -36  -2 414.010 30.4000   1
   2 -36   2 370.970 40.7400   1
   2  36   2 464.020 36.4600   1
   2 -36   2 433.730 37.0100   1
   2 -36   2 502.070 83.7500   1
   7  24  -4 -2.9400 23.5500   1
   7  24  -4 26.2700 15.2100   1
   8   5  -7 123.340 18.1800   1
   8   5  -7 135.670 21.4300   1
   8  -5  -7 167.110 17.7500   1
   6  14  -8 14.9500 14.0400   1
   3   4   6 564.620 62.8500   1
   3  -4   6 526.730 42.5000   1
   3   4   6 516.320 48.0700   1
   3  -4   6 481.910 60.9300   1
  -3  -4  -6 495.130 43.2800   1
  -3   4  -6 490.120 47.9100   1
   2 -39  -1 340.260 35.1200   1
  -2 -39   1 295.580 26.8200   1
   5   7   4 593.960 45.1100   1
   5  -7   4 519.860 47.1400   1
  -5  -7  -4 518.080 41.6500   1
  -5   7  -4 567.470 53.2300   1
   7  16  -7 30.3300 13.2500   1
   1 -13   7 11.8900 30.5800   1
   1 -13   7 -0.4100 43.9800   1
  -1  13  -7 1.78000 14.6000   1
  -1 -13  -7 11.3700 12.3800   1
   2  30   4 400.640 37.6600   1
  -2  30  -4 391.770 30.7800   1
  -2 -30  -4 322.060 22.5300   1
   2 -30   4 297.150 58.0700   1
   2 -30   4 319.880 26.1000   1
   2 -30   4 295.650 38.6700   1
   4  -3  -9 125.320 15.3100   1
   4  -3  -9 88.7000 13.1400   1
   4   3  -9 100.070 15.8700   1
   6  16   2 -39.370 16.5300   1
  -6 -16  -2 -60.540 17.9100   1
   6 -16   2 -19.680 23.9100   1
   6  16   2 51.5600 26.2900   1
  -6  16  -2 -29.110 24.2200   1
   7   7  -8 21.8000 15.8100   1
   7  -7  -8 -14.910 15.6800   1
   5 -32  -4 82.5300 40.1400   1
   5  32  -4 76.7900 16.9000   1
   5  32  -4 69.2700 21.3900   1
   2  25   5 87.6300 26.0900   1
  -2 -25  -5 71.6700 17.8500   1
   2 -25   5 52.2200 33.1800   1
   2 -25   5 14.6300 45.1300   1
   2 -25   5 70.5700 20.7700   1
   6  29  -2 123.710 18.3700   1
   6  29  -2 116.710 23.8500   1
   6  29  -2 113.000 19.6200   1
   6 -29  -2 135.890 30.1000   1
   6 -29  -2 130.000 24.4700   1
   4 -25  -7 182.720 23.2400   1
   4  25  -7 183.260 17.7300   1
   4  -8   5 914.420 60.4800   1
   4   8   5 851.250 58.5200   1
  -4  -8  -5 809.020 56.1200   1
  -4   8  -5 915.180 61.1200   1
  -4   8  -5 831.140 64.2500   1
   3  37   0 78.8800 27.9200   1
  -3 -37   0 44.3900 14.2000   1
  -3 -37   0 84.1600 40.6200   1
   3 -37   0 16.7700 21.0000   1
   3 -37   0 58.5100 19.6600   1
  -8 -14   2 38.7800 26.0200   1
   8  14  -2 10.3200 17.9900   1
  -8  14   2 -6.6200 34.4500   1
   8 -14  -2 70.8600 21.8000   1
   5  33  -2 566.810 37.1100   1
   5  33  -2 751.950 40.8100   1
   5 -33  -2 697.710 43.5900   1
  -3 -30   6 279.260 25.0700   1
   3 -30  -6 349.800 29.3700   1
  -3  30   6 313.070 35.1600   1
   3  30  -6 291.870 21.0200   1
   7  23  -5 119.060 17.9200   1
  -1 -23  -6 211.610 20.1100   1
  -1  23  -6 220.800 27.8500   1
   1 -23   6 276.320 42.1900   1
   1 -23   6 251.910 40.6100   1
   1  23   6 187.760 27.9100   1
   3 -26   4 1130.17 79.0400   1
   3 -26   4 1261.94 79.3300   1
   3  26   4 1355.63 70.0600   1
  -3 -26  -4 1123.75 66.6900   1
   3 -26   4 1196.48 65.5500   1
   8  13  -6 19.5400 12.9500   1
   8  13  -6 -18.250 15.6800   1
   6  22   1 162.980 22.8400   1
  -6 -22  -1 108.820 25.1600   1
   6  22   1 170.730 20.2200   1
  -6  22  -1 212.230 37.0000   1
   6 -22   1 116.810 27.3900   1
   3  -5   6 366.260 65.6800   1
   3  -5   6 334.630 33.5900   1
   3   5   6 373.550 33.9100   1
  -3   5  -6 313.050 31.4600   1
  -3  -5  -6 366.380 30.0700   1
   3   5   6 307.650 51.8500   1
   8   9  -1 244.060 27.1100   1
   8  -9  -1 230.780 28.6000   1
  -8  -9   1 221.030 29.9900   1
  -8   9   1 268.680 32.7000   1
   2 -36  -4 9.71000 12.4300   1
   2  36  -4 32.7100 15.1500   1
  -2 -36   4 21.8400 22.4700   1
   8  -6  -7 41.6400 16.1900   1
   8   6  -7 55.8200 13.5500   1
   8   6  -7 22.6100 19.6700   1
   4   4  -9 17.6000 12.0900   1
   4  -4  -9 4.75000 12.5700   1
   4  -4  -9 1.42000 12.4400   1
   6  21  -7 381.950 26.4500   1
   8  16  -5 474.480 30.5200   1
   8  16  -5 530.270 32.9900   1
  -8 -16   5 650.300 62.2800   1
  -8 -17   4 1183.25 73.9100   1
   8  17  -4 927.510 47.9800   1
   8 -17  -4 1040.00 64.0000   1
   8  17  -4 879.340 46.9100   1
   8  17  -4 1048.45 73.8300   1
   6 -25  -6 -16.240 19.8200   1
   6  25  -6 -4.0400 15.2100   1
   5  33  -3 43.6000 14.1400   1
   5  33  -3 45.5500 17.4800   1
   5 -33  -3 33.6900 21.7400   1
   5   0  -9 64.6800 17.8700   1
   5   0  -9 126.940 15.1500   1
   3 -37  -3 190.060 23.1300   1
  -3 -37   3 189.170 24.0100   1
   3  37  -3 232.530 20.8200   1
   3 -37  -3 173.410 21.3800   1
  -1 -33  -4 122.640 18.9900   1
  -1 -33  -4 90.0600 19.8900   1
   1  33   4 122.960 21.9900   1
   1 -33   4 162.400 31.8000   1
  -1  33  -4 96.4400 18.5100   1
   1 -33   4 137.410 22.3000   1
   0   0   8 139.290 43.1400   1
   0   0  -8 162.660 16.4900   1
   0   0  -8 106.440 15.2100   1
   5   1  -9 3.48000 15.5000   1
   5  -1  -9 10.3300 11.0600   1
   5  -1  -9 23.9900 12.1700   1
   5   1  -9 18.4200 14.0000   1
   5  19   3 341.940 27.8300   1
   5  19   3 395.960 35.5500   1
  -5  19  -3 426.740 41.0100   1
   5 -19   3 407.940 45.4900   1
  -5 -19  -3 298.140 40.9700   1
   6  29  -4 50.0600 14.8900   1
   6  29  -4 31.8300 19.7900   1
  -7 -11  -1 190.290 29.9800   1
  -7 -11  -1 159.680 26.3400   1
   7  11   1 195.630 24.7800   1
   7 -11   1 210.510 50.8600   1
  -7  11  -1 182.340 33.8100   1
   1 -13  -8 -20.980 12.2800   1
  -1 -13   8 20.0000 21.7100   1
   1  13  -8 -2.3800 20.0300   1
   0  -1  -8 2.55000 13.4100   1
   0  -1  -8 39.7200 11.8400   1
   0   1  -8 6.93000 10.7500   1
   0  -1   8 7.96000 26.5400   1
   0   1  -8 -15.060 12.5100   1
   4  20   4 184.960 26.5600   1
   4  20   4 173.220 23.0500   1
   4 -20   4 251.050 31.3500   1
  -4 -20  -4 196.340 20.7300   1
   4 -20   4 190.170 22.9800   1
  -5  -8  -4 185.390 23.8200   1
   5  -8   4 234.850 32.8700   1
  -5   8  -4 181.850 41.0500   1
   5   8   4 305.250 39.7000   1
  -6 -28   1 361.630 37.0200   1
   6  28  -1 335.630 23.5000   1
   6  28  -1 242.120 23.8400   1
   6 -28  -1 324.060 33.3500   1
   6 -28  -1 281.990 36.6900   1
   1 -38   2 333.410 32.9400   1
   1 -38   2 276.070 40.4700   1
   1  38   2 335.470 28.6500   1
  -1 -38  -2 302.660 22.0100   1
  -1 -38  -2 290.630 28.1000   1
  -1  38  -2 325.560 27.7900   1
   4 -26   3 438.950 45.6100   1
  -4 -26  -3 372.200 28.7100   1
   4 -26   3 397.850 35.2200   1
   4  26   3 343.660 30.8100   1
   5  -2  -9 137.010 15.9800   1
   5   2  -9 169.690 19.9400   1
   5  -2  -9 110.840 17.4300   1
   5   2  -9 94.3900 17.7700   1
  -4 -30  -2 -20.070 16.7400   1
   4  30   2 33.0800 19.3400   1
   4 -30   2 -31.990 31.5500   1
   4 -30   2 8.16000 16.0800   1
   7  -8  -8 20.7700 12.4200   1
   7   8  -8 39.8900 12.2900   1
  -1 -29  -5 57.0900 16.2000   1
   1  29   5 24.1700 24.8300   1
  -1  29  -5 4.03000 14.3300   1
   1 -29   5 17.7300 15.0100   1
   1 -29   5 69.9100 35.9400   1
   1 -29   5 25.8500 34.9900   1
   4  -5  -9 80.7400 15.8500   1
   4   5  -9 58.3700 15.9100   1
   4  -5  -9 72.0900 16.3600   1
   0  -2   8 36.5200 31.3400   1
   0   2  -8 47.8000 14.9400   1
   0  -2  -8 80.5800 17.0800   1
   0  -2  -8 60.4300 13.1500   1
  -6   0  -3 31.5300 24.2500   1
  -6   0  -3 14.7000 21.7500   1
   6   0   3 19.2400 31.5300   1
   0 -39  -2 7.34000 21.2700   1
   0 -39   2 4.98000 15.1800   1
   0 -39  -2 -13.570 13.3400   1
  -6  -1  -3 59.2200 23.1800   1
  -6   1  -3 43.3900 24.9800   1
  -6  -1  -3 41.3000 23.6900   1
   6  -1   3 106.570 32.5600   1
   6   1   3 3.38000 27.7400   1
   3   6   6 635.790 80.5800   1
   3  -6   6 678.110 71.2400   1
   3  -6   6 673.620 54.2200   1
  -3  -6  -6 577.680 37.9000   1
  -3   6  -6 577.960 49.5700   1
   3   6   6 603.790 51.4800   1
   1 -36   3 361.110 29.0200   1
  -1  36  -3 446.220 33.9500   1
  -1 -36  -3 393.450 29.8100   1
   1 -36   3 378.580 46.2400   1
  -1 -36  -3 384.970 27.2800   1
   1  36   3 453.590 32.2400   1
   2 -17  -8 141.790 21.1000   1
   2  17  -8 136.570 23.0700   1
   1  23  -7 228.450 96.6500   1
  -1 -23   7 239.250 28.8600   1
   1 -23  -7 286.660 21.5600   1
  -2  30   6 122.990 20.9600   1
   2 -30  -6 129.550 18.7600   1
  -2 -30   6 88.7200 15.9800   1
   2  30  -6 78.0000 19.1800   1
   2  38   1 306.980 30.1200   1
  -2 -38  -1 277.740 24.1400   1
  -2 -38  -1 249.150 23.1300   1
   2 -38   1 282.020 26.4900   1
   2 -38   1 168.610 30.5100   1
   2 -38   1 296.890 58.2100   1
  -4  -9  -5 -8.1100 17.0200   1
  -4   9  -5 24.4800 18.3000   1
   4   9   5 55.0700 29.3700   1
   1 -38  -3 112.110 19.2200   1
   1 -38  -3 174.770 19.7800   1
   1  38  -3 142.120 17.5700   1
  -1 -38   3 150.960 20.1600   1
   4 -19  -8 773.570 48.7300   1
   4  19  -8 722.820 39.4700   1
  -5 -31   0 306.820 26.9200   1
   5  31   0 271.140 25.4000   1
   5  31   0 338.800 33.8900   1
   5 -31   0 339.940 28.5400   1
   5 -31   0 272.370 35.9900   1
   0 -40   1 655.450 43.8300   1
   0 -40  -1 739.170 48.0700   1
   8  -7  -7 19.5900 14.6600   1
   8   7  -7 -13.500 11.1100   1
   8   7  -7 -10.640 15.1900   1
   5   3  -9 67.8200 15.5300   1
   5  -3  -9 56.9200 16.0500   1
   5  -3  -9 69.6800 14.2200   1
   5   3  -9 64.0600 13.9600   1
   1  33  -5 -51.010 18.9000   1
   1 -33  -5 41.2900 13.6500   1
   1 -33  -5 27.9000 18.8500   1
  -1 -33   5 17.1700 30.9300   1
  -1  33   5 -4.3100 22.6800   1
  -6  -2  -3 136.740 24.2500   1
  -6   2  -3 90.5500 29.8000   1
  -6  -2  -3 89.6000 24.4900   1
   6   2   3 60.9200 27.1700   1
   6  -2   3 101.470 28.1800   1
   7  18   0 -10.170 17.6600   1
   7  18   0 4.83000 20.8200   1
  -7 -18   0 80.4600 23.1600   1
  -7 -18   0 -9.5000 25.4000   1
   7 -18   0 -11.480 28.5500   1
  -7  18   0 67.6800 44.7300   1
   0  -3  -8 336.460 25.4500   1
   0   3  -8 376.880 26.5400   1
   0  -3   8 286.130 37.7800   1
   0  -3  -8 455.330 28.0500   1
  -1 -40   0 140.270 24.0400   1
   1 -40   0 168.680 20.5800   1
   5 -24  -7 -9.2100 15.4500   1
   5  24  -7 47.7300 12.5100   1
  -2 -39   0 5.07000 15.2600   1
  -1 -40   1 27.7700 22.0200   1
   1 -40  -1 -2.6000 18.3700   1
   4  36  -2 38.0900 18.1300   1
  -4 -36   2 -6.0900 16.3400   1
   4 -36  -2 61.5300 18.7600   1
   4 -36  -2 10.7800 14.5300   1
   5 -28  -6 176.580 20.6600   1
   5  28  -6 218.240 20.2100   1
   2  25  -7 8.26000 19.5200   1
   2 -25  -7 9.06000 12.9600   1
   0  35   4 53.1300 27.2100   1
   0 -35  -4 17.5200 20.1700   1
   0 -35  -4 11.2900 14.0800   1
   0 -35   4 27.0400 30.3600   1
   0 -35   4 8.38000 15.4200   1
   0  35  -4 6.93000 16.7200   1
   3   0  -9 155.190 18.2200   1
   3   0  -9 163.630 21.0700   1
   1 -36  -4 179.440 21.1200   1
   1 -36  -4 203.110 25.7600   1
   1  36  -4 196.550 21.3700   1
  -1 -36   4 193.980 24.3800   1
   3   1  -9 11.9400 13.8000   1
   3   1  -9 22.1500 14.1800   1
   3  -1  -9 8.50000 11.0000   1
   3  -1  -9 44.4600 15.3500   1
   6  -3   3 -24.120 28.2000   1
   6   3   3 -46.190 20.6800   1
  -6  -3  -3 -23.050 20.4100   1
  -6  -3  -3 -11.610 23.4100   1
  -6   3  -3 -32.840 28.4100   1
   7  21  -6 390.650 39.0000   1
  -8 -10   1 340.790 29.7300   1
   8 -10  -1 266.140 27.6500   1
   8  10  -1 312.990 26.4500   1
  -8  10   1 292.000 33.9800   1
  -2 -39   2 22.0200 17.1500   1
   2 -39  -2 -17.320 21.4800   1
   2 -39  -2 -22.040 11.4100   1
   6  15  -8 176.180 20.6000   1
   1  14   7 174.920 25.3800   1
   1 -14   7 104.150 32.7200   1
   1 -14   7 328.420 54.2500   1
  -1  14  -7 201.710 25.6600   1
  -1 -14  -7 193.420 20.5400   1
  -1 -29   6 374.060 40.4300   1
   1 -29  -6 438.830 31.0300   1
   1  29  -6 382.230 28.9100   1
  -1 -29   6 387.930 29.2300   1
  -1  29   6 413.790 38.4900   1
   2 -38  -3 44.5000 13.4900   1
   2 -38  -3 34.9700 18.8300   1
   2  38  -3 47.6400 14.0900   1
  -2 -38   3 50.4900 16.3500   1
  -2 -18  -6 65.2800 17.5100   1
   2 -18   6 2.74000 44.9800   1
   2 -18   6 59.1100 27.8700   1
   2  18   6 38.1800 28.1100   1
   4  -6  -9 1.12000 16.0300   1
   4   6  -9 -2.5600 13.8500   1
   6  26   0 39.9700 17.3400   1
   6  26   0 61.4500 21.1000   1
  -6 -26   0 89.7900 24.8900   1
   6 -26   0 35.5500 24.2100   1
  -6  26   0 40.9700 36.3700   1
   5 -18  -8 215.600 27.1600   1
   5  18  -8 277.890 22.3600   1
   5   4  -9 190.980 19.7900   1
   5  -4  -9 198.060 18.7200   1
   5  -4  -9 166.940 20.8100   1
   8  17  -3 44.4500 17.3400   1
   8 -17  -3 27.8300 19.2800   1
  -8 -17   3 36.9400 26.8900   1
   8  17  -3 -12.920 23.4700   1
  -8  17   3 -32.610 48.4900   1
  -3 -36  -1 -9.6900 15.4600   1
  -3  36  -1 17.3000 13.1800   1
   3 -36   1 11.3700 40.8600   1
  -3 -36  -1 7.80000 16.2000   1
   3  36   1 -32.850 26.2200   1
   3 -36   1 -27.090 31.9200   1
   3  -2  -9 121.710 15.2600   1
   3   2  -9 77.9100 17.0900   1
   3  -2  -9 122.280 15.8200   1
   0  -4   8 4.69000 21.8800   1
   0   4  -8 49.3800 18.1800   1
   0  -4  -8 -4.6300 13.9700   1
   0  -4  -8 9.53000 11.9700   1
  -5 -25  -2 38.4100 17.5100   1
   5 -25   2 28.1300 30.3400   1
  -5  25  -2 68.6100 38.4700   1
   5 -25   2 51.3600 16.9400   1
   5  25   2 76.5400 20.4400   1
   5  25   2 23.4100 17.7600   1
   3 -19  -8 146.170 17.3000   1
   3  19  -8 150.880 19.1300   1
   3  38  -1 154.170 22.2000   1
  -3 -38   1 136.430 20.5900   1
   3 -38  -1 162.140 27.3900   1
   2  34   3 42.1200 23.4400   1
   2 -34   3 -6.1400 24.5400   1
   2 -34   3 43.9300 44.1300   1
   2 -34   3 31.3500 22.7700   1
  -2  34  -3 14.3000 14.0300   1
  -2 -34  -3 18.7500 12.7500   1
  -2 -34  -3 14.1400 16.2400   1
  -3  -7  -6 146.060 21.3700   1
   3   7   6 177.230 40.1500   1
   3  -7   6 153.250 44.7200   1
   3  -7   6 152.680 39.3200   1
   3   7   6 157.230 25.9800   1
   3 -20   5 -16.690 26.6300   1
   3  20   5 46.5700 17.6800   1
   3 -20   5 55.1600 40.9700   1
  -3 -20  -5 -1.6700 16.6600   1
  -5  -9  -4 171.330 26.2400   1
  -5   9  -4 226.190 31.2600   1
   5  -9   4 193.790 29.1000   1
   5   9   4 221.340 27.5100   1
  -4 -33  -1 33.2500 18.3900   1
   4  33   1 23.9700 12.1900   1
   4  33   1 -5.5700 18.4000   1
   4 -33   1 33.5500 17.4300   1
   4 -33   1 14.4700 36.7900   1
   7  17  -7 218.410 19.0500   1
  -8 -15   2 1634.48 681.490   1
   8  15  -2 1360.48 62.0900   1
   8  15  -2 1487.43 620.070   1
  -8  15   2 1512.13 632.970   1
   8 -15  -2 1420.91 78.7500   1
  -6  -4  -3 209.040 32.1600   1
  -6   4  -3 156.480 29.7000   1
  -6  -4  -3 193.190 26.1300   1
   6  -4   3 150.350 31.6000   1
   6   4   3 208.530 27.4300   1
   7   9  -8 221.480 21.1300   1
   7  -9  -8 192.170 21.4900   1
  -3 -38   2 155.890 25.0700   1
   3 -38  -2 120.900 18.8600   1
   3 -38  -2 115.050 21.7200   1
  -7 -24   2 300.360 31.7000   1
   7  24  -2 255.650 21.8000   1
   7  24  -2 260.850 27.9200   1
   7 -24  -2 202.390 32.1800   1
   3  -3  -9 50.6900 13.6300   1
   3   3  -9 23.4800 14.8800   1
   3  -3  -9 23.3000 13.9200   1
   0 -20  -7 287.790 21.5600   1
   0  20   7 207.760 28.6200   1
   0 -20   7 396.400 42.5700   1
   0  20  -7 276.540 23.1700   1
   8  14  -6 68.2500 17.4100   1
   6 -17   2 63.7300 30.3700   1
   6  17   2 39.5300 20.7700   1
   6  17   2 -23.720 29.2700   1
  -6 -17  -2 -65.550 26.0800   1
  -6  17  -2 -34.980 35.4900   1
   0 -27  -6 55.3800 16.7100   1
   0  27   6 75.1900 23.1500   1
   0  27  -6 41.0300 20.8600   1
   0 -27   6 83.7900 43.1700   1
   8   8  -7 2.16000 17.4000   1
   8   8  -7 21.9700 17.8800   1
   7  22  -1 10.6800 22.1700   1
  -7 -22   1 58.7800 19.9100   1
  -7  22   1 16.1900 45.5400   1
   7 -22  -1 153.830 30.5500   1
  -7 -12  -1 29.0600 31.1900   1
   7 -12   1 126.160 32.6700   1
   7  12   1 11.2400 16.6200   1
   7  12   1 9.94000 26.4400   1
  -7  12  -1 65.1600 31.8200   1
  -7 -12  -1 71.7700 20.9800   1
   5   5  -9 168.210 18.8400   1
   5  -5  -9 110.320 15.9600   1
   5  -5  -9 88.9900 16.7300   1
   3 -34   2 -36.890 43.2400   1
  -3 -34  -2 52.5300 14.7800   1
   3  34   2 35.6600 19.8000   1
   3 -34   2 -2.9600 34.4200   1
   3 -34   2 -6.7300 19.5400   1
   6  28  -5 41.4500 16.1400   1
   6 -28  -5 42.6600 22.3700   1
   0  -5  -8 322.910 27.9600   1
   0  -5   8 327.300 36.4400   1
   0   5  -8 347.770 25.7900   1
   0  -5  -8 365.500 28.6500   1
   3 -26  -7 105.690 16.0700   1
   3  26  -7 79.6800 15.9300   1
   7  25  -3 18.5500 15.7900   1
   7  25  -3 33.9000 17.7000   1
   7  25  -3 35.2800 18.3800   1
  -4  10  -5 380.330 53.6500   1
  -4 -10  -5 440.690 41.5000   1
   4 -10   5 414.000 35.2600   1
   4  10   5 511.740 89.0500   1
   3   4  -9 86.5300 18.2300   1
   3  -4  -9 101.290 16.2700   1
   3  -4  -9 141.720 16.3900   1
   4  -7  -9 288.500 27.8900   1
   4   7  -9 291.430 22.2900   1
   1 -14  -8 6.71000 12.1300   1
  -1 -14   8 -40.760 30.4200   1
   1  14  -8 -33.450 17.3100   1
   6  30  -3 155.060 21.4200   1
   6 -30  -3 117.960 20.0600   1
   6  30  -3 130.820 15.2300   1
   3 -31   3 -44.320 36.1900   1
   3  31   3 -18.400 18.1500   1
  -3 -31  -3 -15.480 17.9200   1
   3 -31   3 0.08000 16.1900   1
   3 -31   3 6.44000 47.1100   1
  -6  -5  -3 32.8700 27.8600   1
  -6   5  -3 16.9700 20.0400   1
  -6  -5  -3 3.01000 20.5700   1
   6  -5   3 -40.870 28.0200   1
   6   5   3 70.5900 23.4700   1
   3 -36  -4 77.2400 22.6300   1
   3 -36  -4 41.0800 17.1600   1
  -3 -36   4 77.8700 17.7600   1
   3  36  -4 48.3600 14.3500   1
   8  17  -5 18.0500 12.9100   1
   8  17  -5 54.0300 18.5800   1
   5 -31  -5 44.5500 21.7700   1
   5  31  -5 57.1900 13.0100   1
   5  31  -5 42.1200 20.1400   1
   4  36  -1 198.250 23.8000   1
  -4 -36   1 134.170 21.2300   1
   4 -36  -1 175.210 22.5000   1
   7  25  -4 421.660 28.0700   1
   7  25  -4 430.000 39.2600   1
   4  35   0 28.9900 12.4400   1
   4  35   0 -2.0100 24.6600   1
  -4 -35   0 85.8700 20.6300   1
   4 -35   0 -5.6700 16.9100   1
   4 -35   0 -19.250 22.5300   1
   8  18  -4 62.9700 27.2800   1
   8  18  -4 99.4400 16.4100   1
   8 -18  -4 80.3400 25.9500   1
   8  18  -4 107.370 17.7300   1
  -8 -18   4 53.8000 26.6300   1
   2 -34  -5 50.1900 14.2100   1
  -2  34   5 68.4900 21.2000   1
   2 -34  -5 48.5900 18.2800   1
   2  34  -5 34.3600 12.7800   1
  -2 -34   5 55.7400 19.2100   1
   3  -8   6 540.730 55.9300   1
  -3  -8  -6 436.890 35.2100   1
   3   8   6 503.650 44.3400   1
   3  -8   6 444.590 40.6600   1
   4 -30  -6 526.070 38.5200   1
   4  30  -6 560.570 30.1700   1
  -4 -30   6 572.240 42.4500   1
  -8  11   1 298.360 43.1000   1
   8  11  -1 303.460 23.4100   1
   8 -11  -1 173.020 33.1100   1
  -8 -11   1 246.040 29.2400   1
   5  29   1 123.430 21.5200   1
   5  29   1 135.080 21.6000   1
  -5 -29  -1 103.830 23.1400   1
   5 -29   1 95.9700 22.6400   1
   5 -29   1 138.270 36.3400   1
   5  -6  -9 220.590 24.5000   1
   5   6  -9 256.310 19.2400   1
   0  -6   8 65.6900 39.2400   1
   0   6  -8 6.79000 14.0000   1
   0  -6  -8 32.0300 14.3500   1
   0  -6  -8 20.7200 14.1600   1
   3  -5  -9 -3.1400 12.6700   1
   3   5  -9 29.2800 12.9600   1
   5 -10   4 31.5000 24.5400   1
  -5 -10  -4 -17.350 22.6100   1
  -5  10  -4 63.6000 27.9500   1
   5  10   4 13.8500 20.6400   1
   0  32   5 39.5200 19.2400   1
   0 -32  -5 9.93000 14.0100   1
   0 -32  -5 21.0400 13.0400   1
   0  32  -5 19.5200 14.6100   1
   0 -32   5 -8.2200 14.3300   1
   0 -32   5 29.8700 23.5400   1
   5  20   3 216.660 26.0600   1
  -5  20  -3 227.350 99.1200   1
  -5 -20  -3 208.220 26.7700   1
   5 -20   3 251.270 35.6300   1
   5  20   3 224.620 24.4300   1
   4  36  -3 73.5500 21.7900   1
   4 -36  -3 45.3600 23.9400   1
  -4 -36   3 106.620 18.8600   1
   4  36  -3 81.5400 18.0800   1
   4 -36  -3 83.6800 39.2200   1
  -6 -23  -1 38.8000 26.1300   1
   6  23   1 54.7700 18.8200   1
   6  23   1 12.4500 21.2600   1
  -6  23  -1 98.6000 31.9800   1
   6 -23   1 5.53000 29.5600   1
  -5 -33   1 48.5000 18.6400   1
   5  33  -1 15.9500 13.0300   1
   5  33  -1 37.8900 18.5000   1
   5 -33  -1 6.11000 24.0900   1
   5 -33  -1 39.4300 18.2700   1
   7 -10  -8 122.010 17.3300   1
   7  10  -8 78.7800 15.0200   1
   6  22  -7 129.410 17.0300   1
   8   9  -7 41.2500 12.5400   1
   2  26   5 376.520 34.6800   1
   2 -26   5 342.600 36.5200   1
   2 -26   5 338.050 40.0700   1
   2 -26   5 415.930 59.7600   1
  -2 -26  -5 326.460 23.2500   1
  -6   6  -3 163.610 24.3600   1
   6   6   3 201.880 30.7100   1
  -6  -6  -3 121.090 27.8600   1
   6  -6   3 196.990 36.3700   1
   7  24  -5 130.610 18.4000   1
   4 -26  -7 146.760 19.9400   1
   4  26  -7 139.100 18.9700   1
  -1 -24  -6 30.7900 12.7500   1
  -1  24  -6 8.93000 14.9700   1
   1 -24   6 -24.120 41.8000   1
   1 -24   6 -7.7800 31.4200   1
   1  24   6 16.3800 26.1600   1
   2 -18  -8 37.8100 15.7400   1
   2  18  -8 32.9600 17.4000   1
   4 -33  -5 364.770 29.2500   1
   4 -33  -5 381.190 33.7100   1
   4  33  -5 357.110 22.4000   1
  -4 -33   5 297.010 27.9400   1
  -4 -21  -4 228.060 96.8700   1
   4 -21   4 310.600 27.2200   1
   4 -21   4 291.640 32.5800   1
   4  21   4 291.390 25.1500   1
  -1  15  -7 92.8200 19.8200   1
  -1 -15  -7 66.0300 17.3700   1
   1 -15   7 48.1200 42.3600   1
   1 -15   7 58.7200 26.0400   1
   1  15   7 84.2400 39.5100   1
   4  -8  -9 9.59000 21.3400   1
   4   8  -9 1.89000 16.5700   1
   3 -34  -5 590.180 45.7600   1
   3 -34  -5 664.170 40.4900   1
  -3 -34   5 683.120 46.2500   1
   3  34  -5 624.840 35.7500   1
   6  16  -8 15.4000 16.0000   1
  -7 -19   0 118.440 21.3900   1
   7  19   0 132.170 21.2900   1
   7  19   0 133.440 19.0100   1
  -7 -19   0 160.600 25.0100   1
  -7  19   0 162.820 35.4400   1
   7 -19   0 155.800 33.3300   1
   4 -20  -8 10.4500 14.4300   1
   4  20  -8 67.3800 14.8500   1
   3 -27   4 -35.370 26.1700   1
  -3 -27  -4 -14.180 15.7200   1
   3 -27   4 81.5800 40.6500   1
   3 -27   4 0.88000 21.9400   1
   3  27   4 26.6700 23.3800   1
  -4  11  -5 75.9300 25.5300   1
  -4 -11  -5 47.2900 20.0100   1
   4 -11   5 78.6900 27.5100   1
   4  11   5 43.2100 24.9900   1
   4 -35  -4 49.8400 21.3600   1
   4 -35  -4 44.8600 19.7900   1
  -4 -35   4 46.7200 22.3500   1
   4  35  -4 56.4800 13.2100   1
   3  -6  -9 83.3400 38.2500   1
   3   6  -9 135.700 18.3200   1
   5   7  -9 103.260 16.3000   1
   5  -7  -9 60.3600 16.1500   1
   6  30  -2 515.390 32.5700   1
   6  30  -2 547.000 40.6700   1
   6  30  -2 487.240 33.1200   1
   6 -30  -2 504.440 35.7200   1
  -2  31  -4 -0.6000 19.5000   1
   2 -31   4 -36.950 52.0700   1
   2  31   4 -28.550 17.9600   1
  -2 -31  -4 34.4100 17.7100   1
   2 -31   4 -42.800 15.1900   1
   2 -31   4 12.6300 25.3700   1
   7  13   1 70.4600 22.1100   1
  -7 -13  -1 134.420 25.0500   1
   7  13   1 139.450 26.0600   1
  -7 -13  -1 10.0300 21.6600   1
  -7  13  -1 19.1200 25.0500   1
   6  26  -6 29.5400 15.3000   1
   6 -26  -6 13.8000 14.5600   1
   0  -7   8 429.150 43.9600   1
   0   7  -8 399.870 28.8200   1
   0  -7  -8 353.490 26.2400   1
   8  15  -6 68.8500 17.8200   1
   8  15  -6 89.7400 13.6900   1
  -3  -9  -6 114.460 17.6700   1
   3  -9   6 208.870 53.6300   1
   3   9   6 169.620 26.3500   1
   3  -9   6 195.650 31.0000   1
  -3   9  -6 117.210 22.7400   1
  -8  18   3 28.2800 40.1900   1
  -8 -18   3 69.8500 22.9500   1
   8 -18  -3 37.8900 20.9000   1
   8  18  -3 29.9400 17.0700   1
   8  18  -3 51.0500 21.9200   1
  -8 -16   2 -53.540 28.9800   1
   8  16  -2 5.90000 14.2500   1
  -8  16   2 -51.810 49.3700   1
   8 -16  -2 -6.5900 26.3500   1
   2  19   6 244.640 24.3500   1
  -2 -19  -6 244.570 20.0800   1
   2 -19   6 330.500 44.6900   1
   2 -19   6 286.870 38.3700   1
   5 -19  -8 107.080 23.1400   1
   5  19  -8 88.2100 17.6800   1
   1 -24  -7 59.1900 19.0500   1
   1  24  -7 88.0400 19.1000   1
  -1 -24   7 100.290 25.5600   1
   6  -7   3 41.5600 34.1100   1
  -6   7  -3 43.8900 28.7600   1
   6   7   3 109.260 30.4500   1
  -6  -7  -3 93.0700 30.0200   1
   5 -33  -4 126.670 22.6200   1
   5  33  -4 118.370 14.7400   1
   5  33  -4 130.150 19.7800   1
   0  38   3 418.160 32.9000   1
   0 -38  -3 444.620 36.6300   1
   0 -38  -3 434.120 27.2200   1
   0 -38   3 402.000 29.8700   1
   0  38  -3 383.530 30.1700   1
  -3  31   6 198.020 26.8200   1
   3 -31  -6 234.010 21.8800   1
  -3 -31   6 229.540 97.6300   1
   3  31  -6 259.030 20.4400   1
   7  18  -7 3.27000 11.3900   1
   3 -20  -8 20.1400 18.1700   1
   3  20  -8 18.2500 13.4100   1
  -6  18  -2 155.220 29.3500   1
   6 -18   2 191.040 33.6900   1
   6  18   2 222.650 31.3600   1
   6  18   2 183.540 26.4200   1
  -6 -18  -2 172.080 23.2900   1
   4  27   3 250.010 24.9700   1
  -4 -27  -3 227.820 96.9200   1
   4 -27   3 203.920 25.0300   1
   4 -27   3 183.140 38.8100   1
   2 -37   2 1.50000 22.3700   1
  -2 -37  -2 16.8300 15.3600   1
  -2  37  -2 6.92000 14.9300   1
   2 -37   2 -11.600 22.5400   1
  -2 -37  -2 15.3600 12.3600   1
   2 -37   2 -34.390 31.2200   1
   2  37   2 -6.0100 23.0000   1
   7 -22  -6 128.410 21.8800   1
   7  22  -6 140.310 18.7100   1
   1 -15  -8 13.7300 12.6400   1
  -1 -15   8 21.2200 22.6900   1
   1  15  -8 16.4000 14.7400   1
  -8 -12   1 83.9300 42.5900   1
   8 -12  -1 187.790 26.3900   1
  -8  12   1 62.9900 44.3700   1
   8  12  -1 114.500 18.3900   1
   5 -25  -7 8.78000 15.2200   1
   5  25  -7 -9.5400 11.0900   1
  -5  11  -4 76.5500 22.2300   1
   5 -11   4 88.8600 25.1700   1
  -5 -11  -4 68.4900 20.0400   1
   5  11   4 81.2900 30.1900   1
   1 -40   1 -42.470 15.4100   1
  -1 -40  -1 -33.910 20.6200   1
   8  10  -7 100.800 17.3600   1
   8  10  -7 76.1400 18.0000   1
   6  29  -1 227.610 96.0600   1
  -6 -29   1 257.190 31.4300   1
   6 -29  -1 194.540 36.2600   1
   6 -29  -1 260.040 24.1900   1
   3 -21   5 202.750 55.4200   1
   3 -21   5 90.5900 28.4400   1
  -3 -21  -5 128.710 19.6300   1
   3  21   5 124.740 19.9800   1
   6 -30  -4 474.180 41.7500   1
   6  30  -4 442.660 25.8400   1
   6  30  -4 311.670 30.0100   1
   4   9  -9 610.410 38.0500   1
   4  -9  -9 584.810 42.7200   1
   7  11  -8 252.960 21.1000   1
   5  34  -2 89.6200 17.6000   1
   5  34  -2 111.930 20.3000   1
   5 -34  -2 55.4400 25.8700   1
   3   7  -9 36.5900 17.8800   1
   3  -7  -9 14.6400 14.0800   1
   1 -40  -2 136.330 25.0200   1
  -1 -40   2 104.070 21.0700   1
   1 -40  -2 105.540 18.0200   1
   0 -21  -7 -6.3500 13.3800   1
   0  21   7 7.20000 20.2700   1
   0  21  -7 -25.480 20.6000   1
   0 -21   7 29.5900 25.4600   1
  -1 -30  -5 31.2200 13.8400   1
   1  30   5 34.0400 23.1800   1
  -1  30  -5 63.4200 19.9700   1
   1 -30   5 62.4400 21.7400   1
   1 -30   5 78.1000 39.1700   1
   2 -26  -7 346.410 25.0500   1
   2  26  -7 430.190 25.9300   1
   5  -8  -9 168.030 26.6900   1
   5   8  -9 186.340 22.6600   1
   9   0  -4 0.85000 18.7700   1
  -9   0   4 22.1600 29.9300   1
   0 -41   0 -34.400 19.6500   1
   0  -8  -8 174.980 22.6700   1
   0   8  -8 140.180 20.3000   1
   0  -8   8 138.100 28.6200   1
  -9  -1   4 342.700 46.8800   1
   9   1  -4 316.970 25.3800   1
   9  -1  -4 294.950 21.9300   1
  -9   1   4 382.020 38.9200   1
   4  31   2 31.3900 23.4800   1
   4 -31   2 60.1600 33.7900   1
   4 -31   2 40.0300 24.1100   1
  -4 -31  -2 6.50000 17.9000   1
   5  34  -3 1010.81 49.4200   1
   5  34  -3 914.310 32.0900   1
   5 -34  -3 1211.18 59.1700   1
   2 -40  -1 193.520 27.1200   1
  -2 -40   1 86.7900 24.1400   1
   8  18  -5 416.690 24.4300   1
   8  18  -5 330.230 23.0200   1
   3 -38   0 168.750 48.7500   1
   3  38   0 191.700 32.4300   1
  -3 -38   0 173.920 24.2000   1
   3 -38   0 143.010 26.5900   1
   1  34   4 48.8700 21.6100   1
  -1 -34  -4 14.5500 16.1100   1
  -1 -34  -4 46.1200 15.6000   1
   1 -34   4 47.2400 20.8000   1
  -1  34  -4 30.4200 19.1900   1
   1 -34   4 -14.910 28.5000   1
   5  26   2 28.2300 26.3500   1
  -5 -26  -2 21.8100 16.5900   1
   5  26   2 23.6600 18.2400   1
  -5  26  -2 70.2000 41.6200   1
   5 -26   2 42.0100 24.3300   1
   5 -26   2 13.0200 25.0300   1
  -9   2   4 32.1600 40.1500   1
   9   2  -4 28.0100 19.0400   1
   9  -2  -4 8.00000 20.4600   1
  -9  -2   4 -36.310 36.8900   1
   2 -37  -4 104.520 21.2000   1
   2 -37  -4 107.640 16.9000   1
  -2 -37   4 119.270 19.2600   1
   2  37  -4 128.100 19.8200   1
   2 -31  -6 42.6400 17.8000   1
  -2  31   6 72.1400 26.1400   1
   2  31  -6 53.1000 20.2600   1
  -2 -31   6 29.9200 14.8000   1
   5 -29  -6 5.99000 17.4500   1
   5 -29  -6 7.77000 16.5000   1
   5  29  -6 16.5500 12.8200   1
   2   0   7 -12.040 28.9600   1
   2   0   7 -21.390 41.8300   1
  -2   0  -7 26.5800 17.5500   1
   6  27   0 412.640 31.1200   1
   6  27   0 425.410 27.9500   1
  -6 -27   0 469.790 35.5900   1
   6 -27   0 521.540 44.2500   1
   6   8   3 42.2700 25.7100   1
  -6  -8  -3 -7.8200 20.5800   1
  -6   8  -3 -16.350 21.1000   1
   6  -8   3 -3.5700 34.3300   1
  -7 -23   1 37.4500 23.5800   1
   7  23  -1 109.180 19.8800   1
   7  23  -1 92.7500 26.5400   1
  -7  23   1 107.800 40.3300   1
   2   1   7 137.780 33.0200   1
  -2   1  -7 105.790 23.0700   1
  -2  -1  -7 94.1000 17.2000   1
   2  -1   7 150.640 39.7400   1
   2   1   7 210.750 52.4700   1
   2  -1   7 132.340 32.9200   1
   3 -10   6 76.8900 61.3300   1
   3 -10   6 148.810 29.3100   1
  -3 -10  -6 135.550 22.5500   1
  -3  10  -6 175.720 25.6500   1
   8  19  -4 340.330 22.4600   1
   8  19  -4 336.830 29.3400   1
   8  19  -4 390.200 22.0500   1
  -8 -19   4 440.680 40.2300   1
  -7 -25   2 137.650 26.2400   1
   7  25  -2 178.680 27.9800   1
   7  25  -2 133.930 18.7700   1
   7 -25  -2 158.710 31.8200   1
   4  12   5 25.6500 24.6300   1
   4  12   5 60.3900 22.3600   1
  -4  12  -5 64.5900 23.2500   1
  -4 -12  -5 46.8700 19.0800   1
   4 -12   5 47.1500 27.3600   1
  -5 -32   0 33.6400 22.0400   1
   5  32   0 22.1400 22.1100   1
   5  32   0 -16.700 16.1300   1
   5 -32   0 5.01000 25.2900   1
   5 -32   0 -22.070 16.7700   1
  -9   0   5 362.720 44.5200   1
   9   0  -5 367.250 27.2300   1
   2   2   7 134.180 37.8000   1
  -2  -2  -7 185.710 23.4600   1
   2   2   7 210.190 34.0800   1
   2  -2   7 166.440 40.7400   1
  -2   2  -7 219.680 26.4300   1
   2  -2   7 163.310 32.8800   1
  -9   3   4 262.740 47.2600   1
   9   3  -4 213.280 22.2900   1
   9  -3  -4 177.470 26.1100   1
  -9  -3   4 210.570 36.2600   1
   6   0  -9 -3.5800 14.8400   1
   9   1  -5 102.720 21.0900   1
   9  -1  -5 46.1700 21.1000   1
  -9  -1   5 33.0100 41.2900   1
  -1  30   6 172.910 28.7100   1
   1 -30  -6 110.640 17.1000   1
  -1 -30   6 127.900 30.6700   1
   1  30  -6 146.540 20.7100   1
   6   1  -9 452.960 25.6800   1
   6  -1  -9 348.300 23.6300   1
   1  16   7 36.3400 24.3100   1
   1 -16   7 -80.670 34.7300   1
  -1  16  -7 -53.590 18.6500   1
  -1 -16  -7 -10.870 18.2800   1
   3 -38  -3 70.1200 21.6000   1
   3 -38  -3 47.5300 20.8300   1
  -3 -38   3 42.7900 23.1400   1
   1 -34  -5 15.1000 17.7400   1
   1 -34  -5 23.9400 18.0700   1
  -1  34   5 13.4100 23.3800   1
   1  34  -5 16.2500 20.0300   1
  -1 -34   5 6.74000 16.3200   1
   9   2  -5 228.680 19.9400   1
   9  -2  -5 190.760 24.2900   1
  -9   2   5 248.720 38.0600   1
  -9  -2   5 215.110 41.0600   1
   3   8  -9 67.8900 20.9800   1
   3  -8  -9 51.6700 16.3200   1
   7  14   1 24.4400 20.8100   1
   7  14   1 -3.6700 21.3200   1
  -7  14  -1 59.7900 38.6000   1
  -7 -14  -1 10.3700 29.8300   1
   7 -14   1 15.2100 28.5900   1
  -7 -14  -1 10.6400 23.3200   1
   0  28   6 151.780 24.6500   1
   0 -28  -6 114.800 17.3200   1
   0 -28   6 113.630 27.0500   1
   0  28  -6 146.800 23.4200   1
   6  -2  -9 0.78000 14.1100   1
   6   2  -9 19.4000 15.9100   1
  -2   3  -7 100.550 21.4800   1
  -2  -3  -7 81.5500 22.1000   1
   2   3   7 129.860 41.6500   1
   2  -3   7 73.4500 46.4600   1
   2  -3   7 43.8100 31.3600   1
   2   3   7 128.950 32.0300   1
   7  26  -3 -10.080 16.7300   1
   7  26  -3 -11.900 20.4200   1
   6  17  -8 282.000 20.1600   1
   2 -19  -8 16.5800 14.3900   1
   3 -27  -7 240.620 19.7500   1
   3  27  -7 196.380 25.6900   1
   1 -37   3 65.5100 21.2100   1
   1 -37   3 61.4100 31.0900   1
   1  37   3 66.6300 25.3300   1
  -1 -37  -3 69.8600 19.5400   1
  -1  37  -3 36.7800 19.5600   1
  -1 -37  -3 70.1700 21.6900   1
   4  10  -9 -3.9200 13.6300   1
   4 -10  -9 10.0400 18.5400   1
  -9  -4   4 48.3100 40.3600   1
  -9   4   4 -44.630 38.5200   1
   9  -4  -4 40.5500 18.2000   1
   9   4  -4 -33.140 15.8500   1
   1  39   2 150.980 25.6000   1
   1 -39   2 67.5600 26.9200   1
  -1 -39  -2 116.740 19.3000   1
  -1 -39  -2 98.7500 17.3700   1
   8  11  -7 213.460 14.9300   1
   8  11  -7 194.120 22.7900   1
   5   9  -9 16.2800 13.3500   1
   5  -9  -9 70.7400 24.9700   1
   5  21   3 298.970 25.5800   1
   5  21   3 320.070 29.7500   1
   5 -21   3 315.220 31.7800   1
  -5 -21  -3 342.520 27.6400   1
  -5  21  -3 256.940 30.0100   1
   9  -3  -5 228.300 23.7300   1
  -9  -3   5 189.260 38.6000   1
  -9   3   5 199.530 42.0900   1
   8  16  -6 3.99000 13.5900   1
   8  16  -6 9.90000 16.7700   1
   0  -9   8 438.790 41.8700   1
   0   9  -8 444.690 24.1900   1
   0  -9  -8 434.730 22.0800   1
   6   3  -9 319.500 19.9900   1
   6  -3  -9 295.330 20.9900   1
   5  12   4 44.6600 21.9700   1
   5 -12   4 52.3900 27.5700   1
  -5  12  -4 8.58000 27.9400   1
   5  12   4 -45.880 18.7100   1
  -5 -12  -4 36.9800 26.4200   1
   6 -29  -5 117.640 20.3600   1
   6  29  -5 73.7300 19.1700   1
   8  13  -1 103.260 28.4700   1
   8  13  -1 30.1000 23.1700   1
   8 -13  -1 143.490 29.6700   1
  -8  13   1 -23.020 45.5200   1
  -8 -13   1 103.470 25.9200   1
  -8   0   0 1228.08 59.9300   1
   8   0   0 1035.88 45.3700   1
   0 -36  -4 53.6900 20.6000   1
   0 -36  -4 104.080 20.8900   1
   0  36   4 79.0200 29.2600   1
   0 -36   4 78.5800 34.9600   1
   0 -36   4 67.1700 23.8000   1
   0  36  -4 27.5800 17.0300   1
   4 -37  -2 201.690 29.4600   1
   4  37  -2 227.460 22.4900   1
  -4 -37   2 173.350 25.8300   1
   4 -37  -2 248.800 23.1800   1
   7  12  -8 243.830 18.2700   1
   7  26  -4 109.380 18.3200   1
   7  26  -4 60.1300 24.3800   1
   0 -40   2 69.7000 24.1300   1
   0 -40  -2 5.54000 16.3200   1
   0 -40  -2 31.8800 15.5000   1
   2  39   1 196.890 27.9300   1
  -2 -39  -1 198.450 25.0600   1
  -2 -39  -1 230.940 20.3000   1
   2 -39   1 230.480 21.7100   1
   2 -39   1 207.570 38.3400   1
   8 -17  -2 1437.48 56.8400   1
   8  17  -2 1364.41 43.8700   1
   8  17  -2 1446.18 68.8200   1
  -8  17   2 1527.17 95.2700   1
  -8 -17   2 1492.66 58.5200   1
   2   4   7 75.9900 42.0000   1
   2  -4   7 13.2700 44.7900   1
   2   4   7 48.0800 28.1700   1
  -2  -4  -7 70.3500 20.4500   1
   2  -4   7 34.6300 26.1600   1
   8  -1   0 62.7200 24.0600   1
   8   1   0 18.4100 20.4400   1
  -8   1   0 61.9800 25.9800   1
  -7 -20   0 7.42000 24.2900   1
  -7 -20   0 -30.700 29.6300   1
   7  20   0 7.81000 21.3300   1
   7  20   0 5.30000 19.0300   1
  -7  20   0 110.780 47.9300   1
   7 -20   0 33.5700 29.0900   1
   1 -39  -3 17.8000 13.8400   1
   1  39  -3 21.7400 10.7900   1
  -1 -39   3 60.7700 25.3000   1
   6  23  -7 528.560 23.8100   1
   1 -37  -4 -6.9600 15.8700   1
   1 -37  -4 36.6800 16.8200   1
  -1 -37   4 12.2100 16.1800   1
   1  37  -4 -12.560 13.6200   1
  -4 -22  -4 121.900 19.3300   1
   4 -22   4 131.840 20.4600   1
   4 -22   4 93.8600 33.6400   1
   4  22   4 140.440 25.8700   1
   6  -9   3 91.0400 35.2900   1
   6   9   3 63.7500 24.5400   1
  -6   9  -3 69.1900 25.8100   1
  -6  -9  -3 84.7600 27.1200   1
   4 -34   1 16.4100 24.5800   1
   4 -34   1 26.8700 25.4700   1
  -4 -34  -1 17.3100 15.4900   1
   4  34   1 15.4800 26.4100   1
   4  34   1 14.3200 13.6100   1
   6  24   1 3.79000 24.7200   1
  -6 -24  -1 22.8200 22.6300   1
   6  24   1 10.7200 16.0900   1
   6 -24   1 21.4000 29.3300   1
  -6  24  -1 -11.080 37.9800   1
   8  -2   0 554.480 36.8200   1
  -8  -2   0 475.580 43.3400   1
  -8   2   0 505.520 37.6500   1
   8   2   0 587.730 33.4800   1
   2  35   3 21.2800 26.9900   1
  -2  35  -3 27.3500 17.0600   1
  -2 -35  -3 40.0000 19.1900   1
  -2 -35  -3 -4.7600 16.8400   1
   2 -35   3 -83.060 49.0100   1
   2 -35   3 26.1700 34.2800   1
   2 -35   3 79.0000 28.8200   1
   8  19  -3 11.4400 18.1200   1
   8  19  -3 58.3600 20.8900   1
   8 -19  -3 35.2000 22.2100   1
  -8 -19   3 62.3100 33.1800   1
   4 -21  -8 303.570 26.7700   1
   4  21  -8 232.110 16.9100   1
   9   4  -5 98.9300 21.0300   1
  -9   4   5 216.970 46.6900   1
  -9  -4   5 158.120 48.8900   1
   9  -4  -5 145.790 21.4300   1
   1  16  -8 30.8300 15.5800   1
  -1 -16   8 -18.150 27.6300   1
   1 -16  -8 14.3500 14.2100   1
   9   5  -4 58.2100 19.9700   1
  -9   5   4 -19.760 31.2500   1
  -9  -5   4 -33.540 28.3400   1
   9  -5  -4 53.4100 22.3300   1
   6   4  -9 -35.400 14.6000   1
   6  -4  -9 -11.120 16.6800   1
  -2 -40   0 86.4600 26.2600   1
   2 -40   0 143.880 21.8900   1
   0 -41  -1 223.870 22.8900   1
   0 -41   1 233.300 21.2500   1
   3  37   1 12.1700 26.1600   1
  -3 -37  -1 25.1100 16.9100   1
  -3 -37  -1 26.1900 16.9500   1
   3 -37   1 48.9300 25.9800   1
   3 -37   1 -19.970 22.7200   1
   3 -37   1 -10.840 32.7200   1
   6  31  -3 80.6300 26.9800   1
   6 -31  -3 9.59000 21.4400   1
   6  31  -3 72.7500 21.4400   1
   7 -25  -5 -50.560 22.7200   1
   7  25  -5 9.81000 16.2800   1
  -1  25  -6 340.390 22.0700   1
  -1 -25  -6 264.280 18.4300   1
   1 -25   6 272.390 37.0600   1
   1  25   6 358.550 28.9100   1
  -1 -41   0 115.480 19.2700   1
   1 -41   0 143.020 21.7400   1
  -3 -11  -6 66.3600 21.9100   1
   3 -11   6 67.0700 33.8800   1
   3 -11   6 129.380 43.4400   1
   2  20   6 249.360 22.8200   1
  -2 -20  -6 273.630 19.7600   1
   2 -20   6 258.900 36.8900   1
   2 -20   6 251.760 56.2900   1
  -1 -41   1 29.7000 16.5900   1
   1 -41  -1 17.7300 17.0400   1
   5 -20  -8 338.610 25.3600   1
   5  20  -8 317.080 21.3800   1
   2 -39  -3 31.4700 16.0600   1
   2 -39  -3 22.2700 15.5300   1
   2  39  -3 25.4100 13.6300   1
  -2 -39   3 4.97000 22.0600   1
   7  19  -7 68.1500 18.5600   1
  -8  -3   0 35.3100 30.4200   1
   8  -3   0 77.0400 30.3400   1
   8   3   0 106.510 21.8200   1
  -8   3   0 47.7900 24.8700   1
   3 -32   3 767.140 40.5200   1
   3 -32   3 900.700 88.1600   1
   3 -32   3 660.640 48.3500   1
   3  32   3 853.890 48.9400   1
  -3 -32  -3 757.930 32.6200   1
   2 -40  -2 262.910 23.9100   1
  -2 -40   2 227.220 27.7200   1
   2  -5   7 88.1200 36.3500   1
  -2  -5  -7 153.830 22.5700   1
   2  -5   7 200.300 51.4000   1
   3  -9  -9 4.67000 13.2900   1
   3   9  -9 11.7300 13.9600   1
   2  27   5 166.160 25.1600   1
  -2 -27  -5 148.830 19.6800   1
   2 -27   5 197.430 43.2800   1
   2 -27   5 232.980 30.0500   1
   2 -27   5 167.460 23.2200   1
  -2  27  -5 138.200 25.4600   1
  -6 -19  -2 1.59000 18.7400   1
   6  19   2 22.2000 20.0800   1
   6 -19   2 34.5100 25.4100   1
  -6  19  -2 12.8000 26.2800   1
   5  30   1 53.8500 19.9900   1
   5  30   1 68.0700 29.1300   1
  -5 -30  -1 77.0300 26.2500   1
   5 -30   1 82.9200 31.6300   1
   5 -30   1 25.4200 21.0600   1
   3 -35   2 90.4800 27.6200   1
  -3  35  -2 95.1600 16.8600   1
   3 -35   2 64.4800 25.0000   1
  -3 -35  -2 96.8900 21.2400   1
   3 -35   2 11.8600 49.7000   1
   3  35   2 161.700 25.7200   1
   4 -27  -7 116.630 18.9600   1
   4  27  -7 113.290 15.8700   1
   5 -32  -5 507.740 34.1200   1
   5  32  -5 508.260 37.9300   1
   5  32  -5 532.670 30.1200   1
   4 -31  -6 -1.4400 18.2100   1
   4  31  -6 -27.270 14.8700   1
  -4 -31   6 -22.060 21.1900   1
   3  39  -1 -1.6400 18.2200   1
  -3 -39   1 -4.8600 22.4600   1
   3 -39  -1 20.5200 21.6500   1
   4 -13   5 -26.950 25.1900   1
  -4 -13  -5 8.95000 20.5300   1
   4  13   5 -0.1800 20.6100   1
   4  13   5 22.9100 18.4300   1
  -4  13  -5 -7.4800 18.8700   1
   3 -21  -8 149.670 29.4900   1
   3  21  -8 205.610 24.2200   1
  -9   5   5 295.690 50.7700   1
  -9  -5   5 326.300 39.6000   1
   9  -5  -5 266.640 25.2400   1
   9   5  -5 197.390 27.5200   1
   6  -5  -9 110.930 17.1400   1
   6   5  -9 103.300 17.7700   1
  -3 -39   2 6.23000 19.8100   1
   3 -39  -2 19.6100 17.4900   1
   2   0  -9 5.21000 15.0700   1
   8   4   0 194.970 27.0400   1
  -8   4   0 283.470 28.8000   1
  -8  -4   0 285.380 25.6400   1
   8  -4   0 314.420 32.3700   1
   2  -1  -9 40.5000 15.7800   1
   2  -1  -9 51.6600 15.8400   1
   5  10  -9 194.390 23.5100   1
   5 -10  -9 157.060 24.6600   1
   9   6  -4 75.5200 22.8100   1
  -9   6   4 65.8300 35.9000   1
  -9  -6   4 108.090 36.2900   1
   9  -6  -4 46.9000 19.2700   1
   4 -11  -9 385.120 26.2500   1
   4  11  -9 351.230 21.7300   1
   0  10  -8 169.330 24.4800   1
   0 -10   8 211.240 32.7000   1
   0 -10  -8 182.290 23.1300   1
   7 -23  -6 274.890 25.5300   1
   7  23  -6 244.160 18.6300   1
   3  28   4 511.710 35.7100   1
   3 -28   4 499.380 53.2400   1
   3 -28   4 559.600 31.5900   1
   3 -28   4 547.440 51.8300   1
  -3 -28  -4 479.950 27.9000   1
   6 -27  -6 -8.2100 17.9500   1
   6  27  -6 35.4600 15.1900   1
   2  -2  -9 31.3300 12.7600   1
   2  -2  -9 25.8600 10.8500   1
   2   2  -9 45.3500 16.3400   1
   1 -25  -7 433.340 24.3300   1
   1  25  -7 398.710 28.6300   1
  -1 -25   7 415.310 41.0200   1
   2  35  -5 306.030 19.7400   1
  -2  35   5 316.530 29.0400   1
  -2 -35   5 300.310 27.4000   1
   2 -35  -5 332.630 27.6800   1
   2 -35  -5 315.000 20.6600   1
   3 -22   5 101.420 50.0600   1
  -3 -22  -5 82.3100 25.8600   1
   3 -22   5 169.640 33.0200   1
   3  22   5 89.4700 31.0300   1
   8  19  -5 156.580 20.0600   1
   8  19  -5 197.520 23.1400   1
   8  12  -7 92.9300 18.5700   1
   3 -37  -4 263.960 19.7000   1
   3  37  -4 301.430 23.4600   1
  -3 -37   4 267.950 23.4800   1
   3 -37  -4 293.800 29.5900   1
   0  33   5 21.0200 23.4100   1
   0 -33   5 0.29000 24.6200   1
   0 -33   5 6.58000 18.1300   1
   0  33  -5 -26.370 17.6300   1
   0 -33  -5 29.3500 16.2900   1
  -4 -36   0 31.7400 17.3500   1
   4  36   0 49.5000 16.3600   1
   4 -36   0 34.6800 19.1600   1
   4 -36   0 37.1800 24.9100   1
   2  -6   7 201.920 51.8400   1
   2  -6   7 99.7600 28.1600   1
   6  10   3 332.510 34.2700   1
  -6 -10  -3 339.010 37.0100   1
   6 -10   3 247.380 34.1500   1
  -6  10  -3 351.830 40.7400   1
   4 -37  -1 26.6700 21.3300   1
   4  37  -1 56.0700 21.1300   1
  -4 -37   1 -17.720 17.1300   1
   0  22   7 69.1900 24.8700   1
   0 -22  -7 99.1200 16.3500   1
   0 -22   7 50.0200 26.3600   1
   0  22  -7 124.690 19.3300   1
   7  15   1 157.930 25.4800   1
  -7 -15  -1 148.730 24.3600   1
  -7 -15  -1 134.950 26.0700   1
   7 -15   1 134.400 28.5300   1
  -7  15  -1 163.790 33.6200   1
   7  15   1 169.530 23.9000   1
  -9   0   3 169.720 39.6200   1
   9   0  -3 150.550 27.5000   1
  -9   1   3 -9.8600 28.1300   1
  -9  -1   3 23.8000 31.5400   1
   9  -1  -3 -16.640 22.8600   1
   9   1  -3 63.7000 23.9100   1
  -5 -34   1 -15.210 21.9600   1
   5  34  -1 41.7500 22.8200   1
   5  34  -1 9.76000 13.8900   1
   5 -34  -1 31.5100 18.8600   1
   5  13   4 155.520 29.8000   1
   5 -13   4 111.340 28.2900   1
   5  13   4 140.170 25.0500   1
  -5  13  -4 45.8300 31.2500   1
  -5 -13  -4 105.670 21.5500   1
  -1 -17  -7 84.6600 23.9000   1
   1  17   7 127.810 21.7300   1
   1 -17   7 84.4200 40.2400   1
  -1  17  -7 80.8300 25.4800   1
   2  -3  -9 -10.110 13.1800   1
   2  -3  -9 11.0100 13.9000   1
   2   3  -9 -5.7300 16.8000   1
   9  -6  -5 110.120 19.4300   1
  -9  -6   5 196.110 49.4600   1
  -9   6   5 77.7700 42.1000   1
   9   6  -5 86.4000 27.2100   1
   8   5   0 136.090 26.2500   1
  -8   5   0 154.830 29.8500   1
  -8  -5   0 220.860 25.3300   1
   8  -5   0 208.750 32.9600   1
   6  -6  -9 56.5800 16.2300   1
   6   6  -9 47.0700 15.4900   1
   7  13  -8 62.9000 17.7100   1
   8  20  -4 18.7600 17.6400   1
   8  20  -4 50.3800 22.3300   1
   8  20  -4 57.2400 17.7800   1
   4 -34  -5 10.3200 16.2800   1
   4 -34  -5 -3.8400 17.5000   1
   4  34  -5 53.9400 17.4700   1
  -4 -34   5 44.3100 20.9300   1
   6  31  -2 87.4100 24.8500   1
   6  31  -2 84.5700 25.2900   1
   6  31  -2 63.6000 18.6800   1
   6 -31  -2 122.370 25.1400   1
  -9   2   3 45.7500 29.9800   1
  -9  -2   3 -5.2400 26.4000   1
   9  -2  -3 11.2100 17.5100   1
   9   2  -3 35.6800 17.7800   1
   8  14  -1 -17.700 19.6200   1
  -8 -14   1 32.9300 23.9600   1
  -8  14   1 -16.760 30.4900   1
   8  14  -1 19.2800 27.1100   1
   8 -14  -1 74.7100 31.0900   1
   5 -26  -7 -12.200 18.7900   1
   5  26  -7 11.1400 14.3800   1
  -4 -28  -3 344.880 27.9400   1
   4  28   3 615.690 40.7700   1
   4 -28   3 435.550 42.7100   1
   4 -28   3 501.060 33.2500   1
  -2 -32  -4 760.330 29.1500   1
   2  32   4 666.880 38.5100   1
  -2  32  -4 758.580 40.3700   1
   2 -32   4 744.830 50.4000   1
   2 -32   4 784.720 40.8600   1
   2 -32   4 719.580 76.0300   1
   3 -10  -9 59.8800 17.5800   1
   3  10  -9 38.7200 15.4300   1
   9  -7  -4 51.1600 22.4300   1
  -9  -7   4 -2.7200 33.9900   1
  -9   7   4 194.040 46.3200   1
   9   7  -4 32.2200 16.2600   1
   4  37  -3 524.450 26.4700   1
  -4 -37   3 591.840 32.1100   1
   4  37  -3 470.440 29.5100   1
   4 -37  -3 419.870 27.4800   1
   4 -37  -3 493.420 31.4100   1
   6  18  -8 -11.240 12.5600   1
   3 -12   6 31.0900 41.4000   1
   3 -12   6 -41.640 29.9100   1
  -3 -12  -6 28.6100 15.2100   1
   3 -35  -5 70.3600 20.1100   1
   3 -35  -5 78.3700 27.1600   1
   3  35  -5 83.1400 21.0500   1
  -3 -35   5 67.9500 23.6200   1
   8  17  -6 175.720 23.1400   1
   2   4  -9 115.230 19.9500   1
   9   3  -3 130.880 20.9800   1
  -9   3   3 5.55000 29.4400   1
  -9  -3   3 104.010 28.1100   1
   9  -3  -3 110.230 20.8000   1
  -7  24   1 11.4700 47.8400   1
   7  24  -1 -19.030 22.0900   1
   7 -24  -1 28.8700 30.0100   1
  -7 -24   1 43.6200 23.7500   1
   7  24  -1 -9.3000 17.8300   1
  -7 -24   1 63.5300 28.5500   1
   2 -27  -7 80.8200 21.8300   1
   2  27  -7 67.0500 22.6700   1
  -2  -7  -7 155.060 21.8800   1
   2  -7   7 154.630 35.5800   1
   2  -7   7 154.860 52.6900   1
   2 -20  -8 53.6500 17.2700   1
  -3  32   6 15.9400 22.5600   1
   3 -32  -6 -1.6900 14.0700   1
  -6 -30   1 50.2600 27.2800   1
   6  30  -1 114.290 18.6600   1
   6 -30  -1 39.3300 25.5700   1
   6 -30  -1 70.5400 30.2600   1
  -8 -18   2 2.70000 24.4500   1
  -8  18   2 -17.450 36.7200   1
   8 -18  -2 -24.300 28.7400   1
   8  18  -2 33.3500 15.6400   1
   4 -36  -4 538.390 36.1700   1
   4 -36  -4 507.850 29.4700   1
   4  36  -4 527.210 26.2600   1
  -4 -36   4 532.960 40.8700   1
  -8   6   0 221.970 28.5500   1
  -8  -6   0 170.680 30.6900   1
   8   6   0 229.580 27.3900   1
   8  -6   0 172.350 31.7400   1
   5 -11  -9 18.9400 16.8000   1
   5  11  -9 22.1200 14.9600   1
  -5 -27  -2 129.310 21.6500   1
   5  27   2 100.890 18.4200   1
   5 -27   2 127.060 21.1400   1
   5 -27   2 175.260 31.1800   1
   5  27   2 68.4900 23.6500   1
   6  31  -4 -22.110 19.7700   1
   6 -31  -4 -2.5600 17.4500   1
   6  31  -4 20.1200 13.9000   1
   5 -34  -4 -7.4600 16.8500   1
   5  34  -4 -9.1700 15.9500   1
  -9  -7   5 210.710 39.3200   1
  -9   7   5 249.500 42.5400   1
   9  -7  -5 278.690 23.4000   1
   9   7  -5 265.940 23.6500   1
  -7 -26   2 283.670 30.7400   1
   7  26  -2 279.710 28.3800   1
   7 -26  -2 285.560 33.2700   1
   1 -17  -8 2.87000 13.8600   1
   1  17  -8 22.2200 20.5200   1
  -1 -17   8 -21.980 27.4000   1
   0 -11   8 120.550 31.9100   1
   0  11  -8 127.330 21.6900   1
   0 -11  -8 112.460 18.6400   1
   9  -4  -3 43.9900 22.6600   1
  -9   4   3 22.9100 35.8300   1
  -9  -4   3 48.4700 37.7100   1
   9   4  -3 56.7400 19.8400   1
   6   7  -9 -3.8100 17.2800   1
  -4 -14  -5 68.1600 21.6400   1
  -4  14  -5 45.4600 21.1400   1
   4 -14   5 -3.5600 31.2000   1
   4  14   5 101.040 26.6900   1
   4  14   5 79.1300 24.8300   1
   4 -12  -9 7.07000 14.1100   1
   4  12  -9 26.8700 16.1600   1
   6  28   0 1.65000 17.8200   1
   6  28   0 21.0900 18.0700   1
  -6 -28   0 48.4700 24.9400   1
   6 -28   0 4.83000 25.0600   1
   6 -28   0 27.8700 21.3800   1
   2   5  -9 36.6300 15.8000   1
   5  22   3 388.770 27.8300   1
   5  22   3 349.590 27.6500   1
   5 -22   3 308.990 38.9300   1
  -5 -22  -3 498.990 37.1800   1
   1 -31   5 -7.2800 17.4900   1
  -1  31  -5 20.0400 16.0800   1
   1  31   5 27.2700 32.1800   1
   1 -31   5 17.3600 35.7300   1
  -1 -31  -5 -7.6700 15.2700   1
  -6 -11  -3 122.560 27.4300   1
   6 -11   3 183.080 36.2100   1
   6  11   3 117.220 36.5700   1
  -6  11  -3 127.930 26.6800   1
  -7 -21   0 45.2900 23.0000   1
   7  21   0 38.6700 19.7100   1
   7  21   0 31.6200 16.3700   1
  -7 -21   0 106.430 26.8600   1
   7 -21   0 34.4100 24.3600   1
  -7  21   0 42.6900 35.0100   1
   7   0   2 17.0900 22.4400   1
  -7   0  -2 39.3500 29.7200   1
   8  20  -3 110.020 19.9600   1
   8 -20  -3 106.720 23.8300   1
  -8 -20   3 107.270 28.8500   1
   8  20  -3 91.2200 28.6100   1
   5 -30  -6 48.3000 18.9400   1
   5 -30  -6 67.0000 24.2900   1
   5  30  -6 83.5900 22.5400   1
  -7  -1  -2 685.290 54.3100   1
   7   1   2 717.050 50.2300   1
  -7   1  -2 580.150 46.8600   1
   7  -1   2 697.320 38.3900   1
   9   8  -4 29.8600 20.4900   1
   9  -8  -4 64.9700 21.8300   1
  -9   8   4 93.5300 50.6800   1
  -9  -8   4 73.9600 33.0100   1
  -4 -32  -2 190.870 25.6000   1
   4 -32   2 191.070 26.2200   1
   4 -32   2 150.800 31.1900   1
   8  13  -7 97.7000 14.8200   1
   5  35  -2 891.900 38.5900   1
   5 -35  -2 962.600 46.0500   1
   7  27  -3 53.4300 24.3000   1
   7  27  -3 107.620 16.9700   1
   7   2   2 82.8100 31.6600   1
  -7   2  -2 33.5600 30.6700   1
   7  -2   2 101.550 25.7200   1
  -7  -2  -2 22.6200 29.3300   1
  -9   5   3 63.4800 46.3500   1
  -9  -5   3 152.960 30.5400   1
   9  -5  -3 127.190 24.8400   1
   9   5  -3 145.090 21.6200   1
   4 -23   4 72.6700 26.2700   1
   4 -23   4 67.7800 38.8100   1
   4  23   4 9.18000 25.4400   1
   4 -22  -8 93.7700 17.6000   1
   2 -32  -6 172.000 21.0500   1
  -2  32   6 140.470 29.2500   1
  -2 -32   6 136.520 21.9500   1
   0 -39  -3 517.300 30.7200   1
   0  39   3 480.380 34.2200   1
   0 -39   3 597.110 31.1400   1
   2  38   2 250.810 27.6700   1
  -2 -38  -2 316.790 25.1900   1
   2 -38   2 284.230 23.2400   1
   2 -38   2 272.060 41.5000   1
   2 -38   2 221.950 42.4000   1
   2  21   6 91.1700 20.1200   1
   2 -21   6 216.460 40.4200   1
   2 -21   6 225.980 39.6100   1
   9   1  -6 867.450 37.9000   1
   9  -1  -6 1011.05 39.4200   1
   2  -8   7 -47.980 31.1400   1
   2  -8   7 25.3400 45.5600   1
   8   7   0 285.400 27.9600   1
  -8  -7   0 289.420 33.6000   1
  -8   7   0 340.550 31.7100   1
   8  -7   0 275.810 25.8900   1
   6  20   2 302.750 28.4800   1
   6  20   2 320.500 25.9100   1
  -6  20  -2 287.340 76.1200   1
   5 -21  -8 328.490 26.1500   1
   3 -11  -9 173.080 21.7800   1
   0  29   6 15.2100 24.7100   1
   0 -29   6 54.8900 34.1700   1
   5  14   4 111.640 27.0900   1
   5 -14   4 143.350 30.4300   1
  -5  14  -4 60.1000 25.3800   1
   5  14   4 124.580 25.2000   1
  -1  31   6 419.940 30.2200   1
  -1 -31   6 367.340 32.6500   1
   5 -35  -3 103.130 20.9300   1
   5  35  -3 136.820 24.2700   1
   7  -3   2 577.900 39.2500   1
  -7   3  -2 589.020 48.0100   1
   7   3   2 640.500 53.3200   1
  -7  -3  -2 616.520 51.5000   1
   6  25   1 -17.120 18.1300   1
   6  25   1 2.93000 22.1200   1
   6 -25   1 -18.540 30.0900   1
  -6  25  -1 103.880 49.2200   1
  -9  -8   5 -20.550 42.6100   1
   9  -8  -5 52.7300 22.0300   1
   5 -33   0 498.870 53.6900   1
   5  33   0 486.780 31.5100   1
   5 -33   0 582.130 38.1800   1
   1 -35   4 237.500 22.2900   1
   1 -35   4 99.0300 35.1200   1
  -1 -35  -4 203.970 28.2000   1
  -7  16  -1 -25.260 33.1100   1
   7  16   1 0.65000 20.7100   1
   7 -16   1 47.0500 31.4100   1
  -7 -16  -1 -3.9500 23.0500   1
   7 -27  -4 112.330 26.4200   1
   3 -13   6 92.6800 58.5400   1
  -8 -15   1 -28.000 23.1800   1
  -8  15   1 79.7900 37.8100   1
;
_shelx_hkl_checksum              78623
_olex2_date_sample_completion    2014-07-04
_olex2_date_sample_data_collection 2014-07-03
_olex2_date_sample_submission    2014-07-03
_olex2_submission_original_sample_id '2014lhb060, lhb4_070_06'
_olex2_submission_special_instructions 'No special instructions were received'
loop_
_space_group_symop_operation_xyz
'x, y, z'
'-x+1/2, y+1/2, -z+1/2'
'-x, -y, -z'
'x-1/2, -y-1/2, z-1/2'
loop_
_atom_site_label
_atom_site_type_symbol
_atom_site_fract_x
_atom_site_fract_y
_atom_site_fract_z
_atom_site_U_iso_or_equiv
_atom_site_adp_type
_atom_site_occupancy
_atom_site_site_symmetry_order
_atom_site_calc_flag
_atom_site_refinement_flags_posn
_atom_site_refinement_flags_adp
_atom_site_refinement_flags_occupancy
_atom_site_disorder_assembly
_atom_site_disorder_group
Ba1A Ba 1.12461(6) 0.51454(2) 0.84034(5) 0.01442(10) Uani 0.5 1 d . . P A 1
Ba1B Ba 1.26841(6) 0.54567(2) 0.73767(5) 0.01415(10) Uani 0.5 1 d . . P A 2
O1 O 0.8243(4) 0.53583(7) 0.4724(3) 0.0199(5) Uani 1 1 d . . . . .
F4 F 0.1628(4) 0.66512(7) 0.2658(4) 0.0355(5) Uani 1 1 d . . . . .
F1 F 0.9773(3) 0.61656(6) 0.4960(4) 0.0340(5) Uani 1 1 d . . . . .
F3 F 0.4829(4) 0.72107(7) 0.4115(4) 0.0488(7) Uani 1 1 d . . . . .
F2 F 0.8896(4) 0.69664(7) 0.5260(5) 0.0599(9) Uani 1 1 d . . . . .
C2 C 0.6121(5) 0.59746(10) 0.3624(5) 0.0175(6) Uani 1 1 d . . . . .
O3 O 0.0984(4) 0.58519(8) 0.0029(4) 0.0321(6) Uani 1 1 d . . . . .
C8 C 0.2115(6) 0.58091(10) 0.1983(6) 0.0261(8) Uani 1 1 d . . . . .
C7 C 0.4009(5) 0.61062(10) 0.2996(5) 0.0182(6) Uani 1 1 d . . . . .
N101 N 1.4832(7) 0.63578(10) 0.8637(5) 0.0394(9) Uani 1 1 d . . . . .
O4 O 0.1828(5) 0.55568(8) 0.3114(5) 0.0370(7) Uani 1 1 d . . . . .
C5 C 0.5238(7) 0.68070(10) 0.3975(6) 0.0319(9) Uani 1 1 d . . . . .
C105 C 1.3419(7) 0.66328(11) 0.8628(5) 0.0300(8) Uani 1 1 d . . . . .
H105 H 1.2078 0.6533 0.8439 0.036 Uiso 1 1 calc R . . . .
C4 C 0.7302(6) 0.66841(11) 0.4557(6) 0.0339(9) Uani 1 1 d . . . . .
C6 C 0.3627(6) 0.65170(11) 0.3222(5) 0.0251(7) Uani 1 1 d . . . . .
C103 C 1.5768(7) 0.72024(12) 0.9174(6) 0.0338(9) Uani 1 1 d . . . . .
H103 H 1.6077 0.7491 0.9335 0.041 Uiso 1 1 calc R . . . .
C104 C 1.3806(7) 0.70549(11) 0.8881(6) 0.0313(8) Uani 1 1 d . . . . .
H104 H 1.2751 0.7240 0.8854 0.038 Uiso 1 1 calc R . . . .
C3 C 0.7729(5) 0.62699(10) 0.4409(5) 0.0246(7) Uani 1 1 d . . . . .
C101 C 1.6727(9) 0.65043(15) 0.8941(8) 0.0530(14) Uani 1 1 d . . . . .
H101 H 1.7755 0.6313 0.8962 0.064 Uiso 1 1 calc R . . . .
O2 O 0.5361(5) 0.53657(9) 0.1658(5) 0.0609(12) Uani 1 1 d . . . . .
C102 C 1.7261(8) 0.69212(15) 0.9226(7) 0.0452(11) Uani 1 1 d . . . . .
H102 H 1.8628 0.7012 0.9453 0.054 Uiso 1 1 calc R . . . .
C1 C 0.6604(5) 0.55325(10) 0.3315(5) 0.0188(6) Uani 1 1 d . . . . .
O1WA O 1.2818(8) 0.45887(15) 1.1852(8) 0.0219(10) Uiso 0.5 1 d . . P A 1
O1WB O 1.1680(8) 0.48572(14) 0.9750(7) 0.0228(10) Uiso 0.5 1 d . . P A 2
H1WC H 1.2882 0.4757 1.0805 0.034 Uiso 0.5 1 d GR . P A 2
H1WD H 1.0940 0.4645 0.8934 0.034 Uiso 0.5 1 d GR . P A 2
O2WA O 1.4093(8) 0.55571(14) 0.7343(7) 0.0221(10) Uiso 0.5 1 d . . P A 1
H2WA H 1.3375 0.5691 0.6177 0.033 Uiso 0.5 1 d GR . P A 1
H2WB H 1.4924 0.5376 0.7193 0.033 Uiso 0.5 1 d GR . P A 1
H1WA H 1.12(2) 0.441(4) 1.12(2) 0.25(6) Uiso 1 1 d . . . B 1
H1WB H 1.273(14) 0.471(3) 1.275(14) 0.15(3) Uiso 1 1 d . . . C 1
loop_
_atom_site_aniso_label
_atom_site_aniso_U_11
_atom_site_aniso_U_22
_atom_site_aniso_U_33
_atom_site_aniso_U_23
_atom_site_aniso_U_13
_atom_site_aniso_U_12
Ba1A 0.00974(17) 0.01664(18) 0.01380(17) -0.00048(13) 0.00297(13) 0.00010(13)
Ba1B 0.00874(17) 0.01658(18) 0.01381(17) -0.00037(13) 0.00254(13) 0.00070(13)
O1 0.0151(11) 0.0203(11) 0.0198(11) 0.0003(9) 0.0045(9) 0.0021(9)
F4 0.0324(12) 0.0354(12) 0.0409(13) 0.0077(10) 0.0190(11) 0.0201(10)
F1 0.0142(10) 0.0264(11) 0.0447(13) -0.0003(9) -0.0001(9) -0.0030(8)
F3 0.0572(17) 0.0206(11) 0.0412(14) -0.0066(10) 0.0003(12) 0.0138(11)
F2 0.0368(15) 0.0193(11) 0.0731(19) -0.0032(12) -0.0162(13) -0.0085(10)
C2 0.0157(16) 0.0197(15) 0.0141(14) 0.0006(11) 0.0046(12) 0.0031(12)
O3 0.0123(12) 0.0252(13) 0.0483(16) 0.0088(11) 0.0056(12) 0.0033(10)
C8 0.0193(17) 0.0204(17) 0.046(2) 0.0086(15) 0.0218(17) 0.0083(13)
C7 0.0188(16) 0.0187(15) 0.0173(14) 0.0024(12) 0.0088(13) 0.0040(13)
N101 0.064(3) 0.0315(17) 0.0287(17) 0.0078(14) 0.0266(18) 0.0148(17)
O4 0.0391(17) 0.0306(14) 0.0590(19) 0.0102(13) 0.0378(16) 0.0040(12)
C5 0.040(2) 0.0154(16) 0.0248(18) -0.0031(13) 0.0023(16) 0.0093(15)
C105 0.033(2) 0.0281(19) 0.0219(18) 0.0011(14) 0.0074(16) 0.0033(16)
C4 0.028(2) 0.0195(17) 0.033(2) -0.0051(15) -0.0040(16) -0.0033(15)
C6 0.0256(19) 0.0267(18) 0.0211(16) 0.0017(14) 0.0094(15) 0.0093(14)
C103 0.034(2) 0.031(2) 0.0305(19) 0.0031(15) 0.0106(17) 0.0001(17)
C104 0.032(2) 0.0260(18) 0.0310(19) -0.0024(15) 0.0103(17) 0.0029(15)
C3 0.0151(16) 0.0237(17) 0.0241(17) 0.0014(13) 0.0002(14) 0.0008(13)
C101 0.071(4) 0.048(3) 0.062(3) 0.034(2) 0.049(3) 0.038(3)
O2 0.0328(17) 0.0359(16) 0.056(2) -0.0298(14) -0.0273(15) 0.0209(13)
C102 0.037(2) 0.054(3) 0.049(3) 0.027(2) 0.024(2) 0.019(2)
C1 0.0100(14) 0.0216(16) 0.0237(16) -0.0022(12) 0.0069(13) -0.0003(12)
loop_
_atom_type_symbol
_atom_type_description
_atom_type_scat_dispersion_real
_atom_type_scat_dispersion_imag
_atom_type_scat_source
C C 0.0033 0.0016 'International Tables Vol C Tables 4.2.6.8 and 6.1.1.4'
H H 0.0000 0.0000 'International Tables Vol C Tables 4.2.6.8 and 6.1.1.4'
Ba Ba -0.3244 2.2819 'International Tables Vol C Tables 4.2.6.8 and 6.1.1.4'
F F 0.0171 0.0103 'International Tables Vol C Tables 4.2.6.8 and 6.1.1.4'
N N 0.0061 0.0033 'International Tables Vol C Tables 4.2.6.8 and 6.1.1.4'
O O 0.0106 0.0060 'International Tables Vol C Tables 4.2.6.8 and 6.1.1.4'
loop_
_geom_angle_atom_site_label_1
_geom_angle_atom_site_label_2
_geom_angle_atom_site_label_3
_geom_angle
_geom_angle_site_symmetry_1
_geom_angle_site_symmetry_3
O1 Ba1A Ba1A 108.34(5) . 3_767
O1 Ba1A Ba1A 128.40(5) 3_766 3_767
O1 Ba1A O1 72.05(7) . 3_766
O1 Ba1A O3 92.12(7) . 1_656
O1 Ba1A C8 161.57(8) 3_766 1_656
O1 Ba1A C8 114.23(8) . 1_656
O1 Ba1A O4 73.57(8) . 3_666
O1 Ba1A O4 68.18(7) 3_766 3_666
O1 Ba1A O2 144.02(10) . 1_656
O1 Ba1A O2 114.37(8) . 3_766
O1 Ba1A C1 95.04(8) . 3_766
O1 Ba1A C1 23.01(7) 3_766 3_766
O1 Ba1A O1WA 149.41(12) . .
O1 Ba1A O1WA 63.43(11) . 3_767
O1 Ba1A O2WA 86.56(11) . .
O3 Ba1A Ba1A 77.16(6) 1_656 3_767
O3 Ba1A O1 152.72(8) 1_656 3_766
O3 Ba1A C8 22.46(8) 1_656 1_656
O3 Ba1A O4 129.56(8) 1_656 3_666
O3 Ba1A O2 136.87(8) 1_656 3_766
O3 Ba1A O2 70.72(8) 1_656 1_656
O3 Ba1A C1 155.64(8) 1_656 3_766
O3 Ba1A O1WA 59.76(11) 1_656 3_767
O3 Ba1A O1WA 103.49(12) 1_656 .
O3 Ba1A O2WA 85.67(11) 1_656 .
C8 Ba1A Ba1A 67.63(6) 1_656 3_767
C8 Ba1A C1 145.23(8) 1_656 3_766
O4 Ba1A Ba1A 63.22(6) 3_666 3_767
O4 Ba1A C8 129.76(8) 3_666 1_656
O4 Ba1A C1 74.78(8) 3_666 3_766
O2 Ba1A Ba1A 98.58(9) 1_656 3_767
O2 Ba1A Ba1A 120.78(8) 3_766 3_767
O2 Ba1A O1 44.02(7) 3_766 3_766
O2 Ba1A O1 109.17(8) 1_656 3_766
O2 Ba1A C8 55.05(9) 1_656 1_656
O2 Ba1A C8 122.86(8) 3_766 1_656
O2 Ba1A O4 141.61(9) 1_656 3_666
O2 Ba1A O4 91.68(8) 3_766 3_666
O2 Ba1A O2 68.03(9) 1_656 3_766
O2 Ba1A C1 90.27(9) 1_656 3_766
O2 Ba1A C1 22.39(7) 3_766 3_766
O2 Ba1A O1WA 124.95(12) 1_656 3_767
C1 Ba1A Ba1A 122.00(6) 3_766 3_767
O1WA Ba1A Ba1A 50.05(9) 3_767 3_767
O1WA Ba1A Ba1A 51.90(10) . 3_767
O1WA Ba1A O1 125.84(11) 3_767 3_766
O1WA Ba1A O1 101.04(11) . 3_766
O1WA Ba1A C8 81.95(12) . 1_656
O1WA Ba1A C8 70.32(12) 3_767 1_656
O1WA Ba1A O4 76.23(12) . 3_666
O1WA Ba1A O4 70.84(11) 3_767 3_666
O1WA Ba1A O2 71.00(13) . 3_766
O1WA Ba1A O2 66.57(13) . 1_656
O1WA Ba1A O2 162.41(12) 3_767 3_766
O1WA Ba1A C1 81.54(12) . 3_766
O1WA Ba1A C1 143.34(12) 3_767 3_766
O1WA Ba1A O1WA 101.96(12) . 3_767
O2WA Ba1A Ba1A 157.44(9) . 3_767
O2WA Ba1A O1 71.66(10) . 3_766
O2WA Ba1A C8 91.03(11) . 1_656
O2WA Ba1A O4 138.96(11) . 3_666
O2WA Ba1A O2 61.49(13) . 1_656
O2WA Ba1A O2 64.02(13) . 3_766
O2WA Ba1A C1 71.59(11) . 3_766
O2WA Ba1A O1WA 120.30(14) . .
O2WA Ba1A O1WA 131.03(13) . 3_767
Ba1B Ba1B Ba1B 102.446(14) 3_867 3_766
O1 Ba1B Ba1B 127.55(5) . 3_867
O1 Ba1B Ba1B 35.35(4) . 3_766
O1 Ba1B Ba1B 33.70(4) 3_766 3_766
O1 Ba1B Ba1B 76.31(4) 3_766 3_867
O1 Ba1B O1 69.05(7) . 3_766
O1 Ba1B F1 56.84(6) . .
O1 Ba1B F1 116.53(6) 3_766 .
O1 Ba1B O3 80.30(7) . 1_656
O1 Ba1B O3 130.70(7) 3_766 1_656
O1 Ba1B N101 121.49(8) . .
O1 Ba1B N101 156.06(8) 3_766 .
O1 Ba1B O4 71.03(7) . 1_655
O1 Ba1B O2 108.17(8) . 3_766
O1 Ba1B C1 22.40(7) 3_766 3_766
O1 Ba1B C1 89.35(7) . 3_766
O1 Ba1B O1WB 79.94(11) . .
F1 Ba1B Ba1B 165.20(5) . 3_867
F1 Ba1B Ba1B 87.23(4) . 3_766
F1 Ba1B N101 65.43(8) . .
F1 Ba1B C1 138.76(7) . 3_766
O3 Ba1B Ba1B 94.78(5) 1_656 3_867
O3 Ba1B Ba1B 107.69(5) 1_656 3_766
O3 Ba1B F1 71.42(7) 1_656 .
O3 Ba1B N101 73.21(8) 1_656 .
O3 Ba1B C1 130.16(8) 1_656 3_766
N101 Ba1B Ba1B 151.23(6) . 3_766
N101 Ba1B Ba1B 106.15(6) . 3_867
N101 Ba1B C1 146.30(9) . 3_766
O4 Ba1B Ba1B 130.88(6) 1_655 3_867
O4 Ba1B Ba1B 66.23(6) 1_655 3_766
O4 Ba1B O1 70.18(7) 1_655 3_766
O4 Ba1B F1 63.23(7) 1_655 .
O4 Ba1B O3 134.32(7) 1_655 1_656
O4 Ba1B N101 92.15(8) 1_655 .
O4 Ba1B O2 101.35(9) 1_655 3_766
O4 Ba1B C1 85.12(8) 1_655 3_766
O4 Ba1B O1WB 136.81(11) 1_655 .
O2 Ba1B Ba1B 35.30(5) 1_656 3_867
O2 Ba1B Ba1B 74.94(5) 3_766 3_766
O2 Ba1B Ba1B 129.40(8) 1_656 3_766
O2 Ba1B Ba1B 33.59(6) 3_766 3_867
O2 Ba1B O1 134.59(10) 1_656 .
O2 Ba1B O1 110.57(7) 1_656 3_766
O2 Ba1B O1 44.08(7) 3_766 3_766
O2 Ba1B F1 160.42(7) 3_766 .
O2 Ba1B F1 130.25(7) 1_656 .
O2 Ba1B O3 121.37(10) 3_766 1_656
O2 Ba1B O3 66.22(8) 1_656 1_656
O2 Ba1B N101 130.24(9) 3_766 .
O2 Ba1B N101 78.13(9) 1_656 .
O2 Ba1B O4 153.90(10) 1_656 1_655
O2 Ba1B O2 68.90(9) 1_656 3_766
O2 Ba1B C1 21.72(8) 3_766 3_766
O2 Ba1B C1 89.74(8) 1_656 3_766
O2 Ba1B O1WB 59.67(13) 1_656 .
C1 Ba1B Ba1B 54.68(6) 3_766 3_867
C1 Ba1B Ba1B 54.58(6) 3_766 3_766
O1WB Ba1B Ba1B 71.53(10) . 3_766
O1WB Ba1B Ba1B 51.19(10) . 3_867
O1WB Ba1B O1 69.89(10) . 3_766
O1WB Ba1B F1 123.99(11) . .
O1WB Ba1B O3 67.36(10) . 1_656
O1WB Ba1B N101 130.67(11) . .
O1WB Ba1B O2 58.10(13) . 3_766
O1WB Ba1B C1 62.83(11) . 3_766
Ba1A O1 Ba1A 107.95(7) . 3_766
Ba1B O1 Ba1B 110.95(7) . 3_766
C1 O1 Ba1A 160.9(2) . .
C1 O1 Ba1A 91.12(18) . 3_766
C1 O1 Ba1B 94.60(18) . 3_766
C1 O1 Ba1B 143.8(2) . .
C3 F1 Ba1B 134.7(2) . .
C7 C2 C1 121.1(3) . .
C3 C2 C7 118.0(3) . .
C3 C2 C1 120.7(3) . .
C8 O3 Ba1A 105.6(2) . 1_454
C8 O3 Ba1B 116.1(2) . 1_454
O3 C8 Ba1A 51.92(18) . 1_454
O3 C8 C7 114.9(3) . .
C7 C8 Ba1A 127.0(2) . 1_454
O4 C8 Ba1A 94.1(2) . 1_454
O4 C8 O3 126.9(4) . .
O4 C8 C7 118.2(3) . .
C2 C7 C8 121.8(3) . .
C6 C7 C2 119.3(3) . .
C6 C7 C8 118.9(3) . .
C105 N101 Ba1B 110.2(3) . .
C105 N101 C101 117.2(4) . .
C101 N101 Ba1B 132.1(3) . .
C8 O4 Ba1A 125.0(3) . 3_666
C8 O4 Ba1B 140.3(3) . 1_455
F3 C5 C4 119.3(4) . .
F3 C5 C6 121.3(4) . .
C6 C5 C4 119.4(3) . .
N101 C105 H105 118.3 . .
N101 C105 C104 123.4(4) . .
C104 C105 H105 118.3 . .
F2 C4 C5 120.1(3) . .
F2 C4 C3 120.4(4) . .
C5 C4 C3 119.5(3) . .
F4 C6 C7 120.7(3) . .
F4 C6 C5 117.4(3) . .
C5 C6 C7 121.9(3) . .
C104 C103 H103 120.7 . .
C102 C103 H103 120.7 . .
C102 C103 C104 118.6(4) . .
C105 C104 C103 118.6(4) . .
C105 C104 H104 120.7 . .
C103 C104 H104 120.7 . .
F1 C3 C2 120.7(3) . .
F1 C3 C4 117.4(3) . .
C4 C3 C2 121.8(3) . .
N101 C101 H101 118.4 . .
N101 C101 C102 123.3(4) . .
C102 C101 H101 118.4 . .
Ba1A O2 Ba1A 111.97(9) 1_454 3_766
Ba1B O2 Ba1B 111.10(9) 1_454 3_766
C1 O2 Ba1A 92.6(2) . 3_766
C1 O2 Ba1A 154.5(3) . 1_454
C1 O2 Ba1B 147.3(3) . 1_454
C1 O2 Ba1B 97.0(2) . 3_766
C103 C102 C101 118.8(4) . .
C103 C102 H102 120.6 . .
C101 C102 H102 120.6 . .
O1 C1 Ba1A 65.88(17) . 3_766
O1 C1 Ba1B 63.00(16) . 3_766
O1 C1 C2 119.1(3) . .
C2 C1 Ba1A 151.5(2) . 3_766
C2 C1 Ba1B 175.7(2) . 3_766
O2 C1 Ba1A 65.0(2) . 3_766
O2 C1 Ba1B 61.32(18) . 3_766
O2 C1 O1 124.1(3) . .
O2 C1 C2 116.8(3) . .
Ba1A O1WA Ba1A 78.04(12) . 3_767
Ba1A O1WA H1WA 94(7) . .
Ba1A O1WA H1WA 50(6) 3_767 .
Ba1A O1WA H1WB 57(7) 3_767 .
Ba1A O1WA H1WB 105(6) . .
H1WA O1WA H1WB 97(8) . .
Ba1B O1WB H1WC 110.5 . .
Ba1B O1WB H1WD 110.3 . .
H1WC O1WB H1WD 108.4 . .
Ba1A O2WA H2WA 109.6 . .
Ba1A O2WA H2WB 109.4 . .
H2WA O2WA H2WB 109.3 . .
loop_
_geom_bond_atom_site_label_1
_geom_bond_atom_site_label_2
_geom_bond_distance
_geom_bond_site_symmetry_2
Ba1A Ba1A 3.6392(7) 3_767
Ba1A O1 2.611(2) .
Ba1A O1 2.952(2) 3_766
Ba1A O3 2.615(3) 1_656
Ba1A C8 3.199(4) 1_656
Ba1A O4 2.974(3) 3_666
Ba1A O2 2.852(3) 1_656
Ba1A O2 2.934(3) 3_766
Ba1A C1 3.234(3) 3_766
Ba1A O1WA 2.852(5) .
Ba1A O1WA 2.927(5) 3_767
Ba1A O2WA 2.810(5) .
Ba1B Ba1B 4.7180(7) 3_867
Ba1B Ba1B 4.7714(7) 3_766
Ba1B O1 2.835(2) .
Ba1B O1 2.956(2) 3_766
Ba1B F1 3.029(2) .
Ba1B O3 2.997(3) 1_656
Ba1B N101 3.210(4) .
Ba1B O4 2.882(3) 1_655
Ba1B O2 2.798(3) 1_656
Ba1B O2 2.923(3) 3_766
Ba1B C1 3.307(3) 3_766
Ba1B O1WB 2.895(5) .
O1 Ba1A 2.952(2) 3_766
O1 Ba1B 2.956(2) 3_766
O1 C1 1.264(4) .
F4 C6 1.349(4) .
F1 C3 1.352(4) .
F3 C5 1.349(4) .
F2 C4 1.351(4) .
C2 C7 1.410(4) .
C2 C3 1.387(5) .
C2 C1 1.509(4) .
O3 Ba1A 2.615(3) 1_454
O3 Ba1B 2.997(3) 1_454
O3 C8 1.269(5) .
C8 Ba1A 3.199(4) 1_454
C8 C7 1.529(5) .
C8 O4 1.240(4) .
C7 C6 1.378(4) .
N101 C105 1.336(5) .
N101 C101 1.341(7) .
O4 Ba1A 2.974(3) 3_666
O4 Ba1B 2.882(3) 1_455
C5 C4 1.377(6) .
C5 C6 1.376(5) .
C105 H105 0.9500 .
C105 C104 1.385(5) .
C4 C3 1.386(5) .
C103 H103 0.9500 .
C103 C104 1.389(6) .
C103 C102 1.381(6) .
C104 H104 0.9500 .
C101 H101 0.9500 .
C101 C102 1.386(7) .
O2 Ba1A 2.852(3) 1_454
O2 Ba1A 2.934(3) 3_766
O2 Ba1B 2.923(3) 3_766
O2 Ba1B 2.798(3) 1_454
O2 C1 1.233(4) .
C102 H102 0.9500 .
C1 Ba1A 3.234(3) 3_766
C1 Ba1B 3.307(3) 3_766
O1WA Ba1A 2.927(5) 3_767
O1WA H1WA 1.17(14) .
O1WA H1WB 0.79(9) .
O1WB H1WC 0.8973 .
O1WB H1WD 0.8968 .
O2WA H2WA 0.8719 .
O2WA H2WB 0.8725 .
loop_
_geom_hbond_atom_site_label_D
_geom_hbond_atom_site_label_H
_geom_hbond_atom_site_label_A
_geom_hbond_distance_DH
_geom_hbond_distance_HA
_geom_hbond_distance_DA
_geom_hbond_angle_DHA
_geom_hbond_site_symmetry_A
O2WA H2WA O4 0.87 2.01 2.720(6) 137.3 1_655
O2WA H2WB O1WA 0.87 1.42 2.039(7) 123.9 3_867
O1WA H1WA O3 1.17(14) 1.62(14) 2.774(6) 168(11) 3_666
loop_
_geom_torsion_atom_site_label_1
_geom_torsion_atom_site_label_2
_geom_torsion_atom_site_label_3
_geom_torsion_atom_site_label_4
_geom_torsion
_geom_torsion_site_symmetry_1
_geom_torsion_site_symmetry_2
_geom_torsion_site_symmetry_3
_geom_torsion_site_symmetry_4
Ba1A O1 C1 Ba1A -175.1(7) . . . 3_766
Ba1A O1 C1 Ba1B 35.81(3) 3_766 . . 3_766
Ba1A O1 C1 Ba1B -139.3(7) . . . 3_766
Ba1A O1 C1 C2 36.5(8) . . . .
Ba1A O1 C1 C2 -148.5(3) 3_766 . . .
Ba1A O1 C1 O2 -144.7(5) . . . .
Ba1A O1 C1 O2 30.4(4) 3_766 . . .
Ba1A O3 C8 C7 118.6(2) 1_454 . . .
Ba1A O3 C8 O4 -61.7(4) 1_454 . . .
Ba1A C8 C7 C2 -44.4(4) 1_454 . . .
Ba1A C8 C7 C6 133.0(3) 1_454 . . .
Ba1A C8 O4 Ba1A -33.6(2) 1_454 . . 3_666
Ba1A C8 O4 Ba1B 162.5(3) 1_454 . . 1_455
Ba1A O2 C1 Ba1A 164.8(7) 1_454 . . 3_766
Ba1A O2 C1 Ba1B -36.13(5) 3_766 . . 3_766
Ba1A O2 C1 Ba1B 128.7(7) 1_454 . . 3_766
Ba1A O2 C1 O1 134.2(5) 1_454 . . .
Ba1A O2 C1 O1 -30.6(4) 3_766 . . .
Ba1A O2 C1 C2 148.3(3) 3_766 . . .
Ba1A O2 C1 C2 -46.9(8) 1_454 . . .
Ba1B O1 C1 Ba1A -35.81(3) 3_766 . . 3_766
Ba1B O1 C1 Ba1A 100.0(3) . . . 3_766
Ba1B O1 C1 Ba1B 135.8(3) . . . 3_766
Ba1B O1 C1 C2 175.7(3) 3_766 . . .
Ba1B O1 C1 C2 -48.5(5) . . . .
Ba1B O1 C1 O2 -5.4(4) 3_766 . . .
Ba1B O1 C1 O2 130.4(4) . . . .
Ba1B F1 C3 C2 -44.7(5) . . . .
Ba1B F1 C3 C4 138.7(3) . . . .
Ba1B O3 C8 Ba1A -38.26(9) 1_454 . . 1_454
Ba1B O3 C8 C7 80.3(3) 1_454 . . .
Ba1B O3 C8 O4 -99.9(4) 1_454 . . .
Ba1B N101 C105 C104 -172.6(3) . . . .
Ba1B N101 C101 C102 171.5(3) . . . .
Ba1B O2 C1 Ba1A -113.3(6) 1_454 . . 3_766
Ba1B O2 C1 Ba1A 36.13(5) 3_766 . . 3_766
Ba1B O2 C1 Ba1B -149.4(6) 1_454 . . 3_766
Ba1B O2 C1 O1 -143.9(4) 1_454 . . .
Ba1B O2 C1 O1 5.5(4) 3_766 . . .
Ba1B O2 C1 C2 35.0(7) 1_454 . . .
Ba1B O2 C1 C2 -175.6(2) 3_766 . . .
F3 C5 C4 F2 0.0(6) . . . .
F3 C5 C4 C3 -179.8(4) . . . .
F3 C5 C6 F4 -1.0(5) . . . .
F3 C5 C6 C7 177.5(3) . . . .
F2 C4 C3 F1 -1.1(6) . . . .
F2 C4 C3 C2 -177.6(3) . . . .
C2 C7 C6 F4 -179.2(3) . . . .
C2 C7 C6 C5 2.4(5) . . . .
O3 C8 C7 C2 -104.3(4) . . . .
O3 C8 C7 C6 73.1(4) . . . .
O3 C8 O4 Ba1A 10.4(5) . . . 3_666
O3 C8 O4 Ba1B -153.5(3) . . . 1_455
C8 C7 C6 F4 3.4(5) . . . .
C8 C7 C6 C5 -175.1(3) . . . .
C7 C2 C3 F1 -177.4(3) . . . .
C7 C2 C3 C4 -0.9(5) . . . .
C7 C2 C1 Ba1A 126.9(4) . . . 3_766
C7 C2 C1 O1 -140.5(3) . . . .
C7 C2 C1 O2 40.5(5) . . . .
C7 C8 O4 Ba1A -169.9(2) . . . 3_666
C7 C8 O4 Ba1B 26.2(5) . . . 1_455
N101 C105 C104 C103 -0.5(6) . . . .
N101 C101 C102 C103 -0.7(7) . . . .
O4 C8 C7 C2 76.0(4) . . . .
O4 C8 C7 C6 -106.7(4) . . . .
C5 C4 C3 F1 178.7(3) . . . .
C5 C4 C3 C2 2.2(6) . . . .
C105 N101 C101 C102 -0.5(7) . . . .
C4 C5 C6 F4 -179.6(3) . . . .
C4 C5 C6 C7 -1.1(6) . . . .
C6 C5 C4 F2 178.7(4) . . . .
C6 C5 C4 C3 -1.2(6) . . . .
C104 C103 C102 C101 1.3(6) . . . .
C3 C2 C7 C8 176.0(3) . . . .
C3 C2 C7 C6 -1.3(5) . . . .
C3 C2 C1 Ba1A -48.8(6) . . . 3_766
C3 C2 C1 O1 43.8(5) . . . .
C3 C2 C1 O2 -135.2(4) . . . .
C101 N101 C105 C104 1.1(6) . . . .
C102 C103 C104 C105 -0.8(6) . . . .
C1 C2 C7 C8 0.2(5) . . . .
C1 C2 C7 C6 -177.1(3) . . . .
C1 C2 C3 F1 -1.6(5) . . . .
C1 C2 C3 C4 174.9(3) . . . .
