#------------------------------------------------------------------------------
#$Date: 2016-02-13 21:28:24 +0200 (Sat, 13 Feb 2016) $
#$Revision: 176429 $
#$URL: svn://www.crystallography.net/cod/cif/7/11/71/7117189.cif $
#------------------------------------------------------------------------------
#
# This file is available in the Crystallography Open Database (COD),
# http://www.crystallography.net/
#
# All data on this site have been placed in the public domain by the
# contributors.
#
data_7117189
loop_
_publ_author_name
'Xiao-Qin Wu'
'Jian-Gong Ma'
'Han Li'
'Di-Ming Chen'
'Wen Gu'
'Guang-Ming Yang'
'Peng Cheng'
_publ_section_title
;
 Metal-organic framework biosensor with high stability and selectivity in
 a bio-mimic environment
;
_journal_name_full               Chem.Commun.
_journal_page_first              9161
_journal_paper_doi               10.1039/C5cc02113H
_journal_volume                  51
_journal_year                    2015
_chemical_formula_moiety         'C16 Cu2 O19.5 S2'
_chemical_formula_sum            'C16 H17.13 Cu2 O19.5 S2'
_chemical_formula_weight         712.62
_chemical_name_systematic
;
 ?
;
_space_group_crystal_system      triclinic
_space_group_IT_number           2
_space_group_name_Hall           '-P 1'
_space_group_name_H-M_alt        'P -1'
_symmetry_space_group_name_Hall  '-P 1'
_symmetry_space_group_name_H-M   'P -1'
_atom_sites_solution_hydrogens   .
_atom_sites_solution_primary     iterative
_audit_creation_date             2014-12-22
_audit_creation_method
;
Olex2 1.2
(compiled 2014.11.28 svn.r3106 for OlexSys, GUI svn.r4959)
;
_audit_update_record
;
2014-12-22 deposited with the CCDC.
2015-04-22 downloaded from the CCDC.
;
_cell_angle_alpha                89.772(7)
_cell_angle_beta                 88.902(7)
_cell_angle_gamma                76.322(7)
_cell_formula_units_Z            2
_cell_length_a                   7.6226(6)
_cell_length_b                   8.0332(7)
_cell_length_c                   19.2709(16)
_cell_measurement_reflns_used    2024
_cell_measurement_temperature    127.85(10)
_cell_measurement_theta_max      27.1770
_cell_measurement_theta_min      3.4410
_cell_volume                     1146.36(17)
_computing_cell_refinement
;
CrysAlisPro, Agilent Technologies,
Version 1.171.36.28 (release 01-02-2013 CrysAlis171 .NET)
(compiled Feb  1 2013,16:14:44)
;
_computing_data_collection
;
CrysAlisPro, Agilent Technologies,
Version 1.171.36.28 (release 01-02-2013 CrysAlis171 .NET)
(compiled Feb  1 2013,16:14:44)
;
_computing_data_reduction
;
CrysAlisPro, Agilent Technologies,
Version 1.171.36.28 (release 01-02-2013 CrysAlis171 .NET)
(compiled Feb  1 2013,16:14:44)
;
_computing_molecular_graphics    'Olex2 (Dolomanov et al., 2009)'
_computing_publication_material  'Olex2 (Dolomanov et al., 2009)'
_computing_structure_refinement  'ShelXL (Sheldrick, 2008)'
_computing_structure_solution
;
Superflip (Palatinus & Chapuis, 2007;Palatinus & van der Lee, 2008;
Palatinus et al., 2012)
;
_diffrn_ambient_temperature      127.85(10)
_diffrn_detector_area_resol_mean 16.2116
_diffrn_measured_fraction_theta_full 0.973
_diffrn_measured_fraction_theta_max 0.999
_diffrn_measurement_details
;
  1 omega  -39.00  -12.00   1.0000    2.0000
omega____ theta____ kappa____ phi______ frames
    -       18.0372  -57.0000 -120.0000 27

  2 omega   33.00   72.00   1.0000    2.0000
omega____ theta____ kappa____ phi______ frames
    -       18.0372 -120.0000  -64.0000 39

  3 omega   -2.00   76.00   1.0000    2.0000
omega____ theta____ kappa____ phi______ frames
    -       18.0372   77.0000  150.0000 78

  4 omega    6.00   60.00   1.0000    2.0000
omega____ theta____ kappa____ phi______ frames
    -       18.0372  -99.0000   60.0000 54

  5 omega  -33.00   50.00   1.0000    2.0000
omega____ theta____ kappa____ phi______ frames
    -      -18.8185   57.0000    0.0000 83

  6 omega  -92.00   24.00   1.0000    2.0000
omega____ theta____ kappa____ phi______ frames
    -      -18.8185  -19.0000 -180.0000 116
;
_diffrn_measurement_device_type  'SuperNova, Single source at offset, Eos'
_diffrn_measurement_method       '\w scans'
_diffrn_orient_matrix_UB_11      0.0025986000
_diffrn_orient_matrix_UB_12      0.0350573000
_diffrn_orient_matrix_UB_13      -0.0337380000
_diffrn_orient_matrix_UB_21      -0.0281827000
_diffrn_orient_matrix_UB_22      0.0838062000
_diffrn_orient_matrix_UB_23      0.0140099000
_diffrn_orient_matrix_UB_31      0.0915088000
_diffrn_orient_matrix_UB_32      0.0023254000
_diffrn_orient_matrix_UB_33      0.0045498000
_diffrn_radiation_monochromator  mirror
_diffrn_radiation_type           MoK\a
_diffrn_radiation_wavelength     0.71073
_diffrn_reflns_av_R_equivalents  0.0552
_diffrn_reflns_av_unetI/netI     0.1081
_diffrn_reflns_Laue_measured_fraction_full 0.973
_diffrn_reflns_Laue_measured_fraction_max 0.999
_diffrn_reflns_limit_h_max       9
_diffrn_reflns_limit_h_min       -9
_diffrn_reflns_limit_k_max       9
_diffrn_reflns_limit_k_min       -9
_diffrn_reflns_limit_l_max       19
_diffrn_reflns_limit_l_min       -22
_diffrn_reflns_number            7937
_diffrn_reflns_point_group_measured_fraction_full 0.973
_diffrn_reflns_point_group_measured_fraction_max 0.999
_diffrn_reflns_theta_full        25.242
_diffrn_reflns_theta_max         25.010
_diffrn_reflns_theta_min         2.928
_diffrn_source                   'SuperNova (Mo) X-ray Source'
_exptl_absorpt_coefficient_mu    2.138
_exptl_absorpt_correction_T_max  1.00000
_exptl_absorpt_correction_T_min  0.72057
_exptl_absorpt_correction_type   multi-scan
_exptl_absorpt_process_details
;
CrysAlisPro, Agilent Technologies,
Version 1.171.36.28 (release 01-02-2013 CrysAlis171 .NET)
(compiled Feb  1 2013,16:14:44)
Empirical absorption correction using spherical harmonics,
 implemented in SCALE3 ABSPACK scaling algorithm.
;
_exptl_crystal_density_diffrn    2.065
_exptl_crystal_F_000             718
_refine_diff_density_max         1.238
_refine_diff_density_min         -1.299
_refine_diff_density_rms         0.160
_refine_ls_extinction_coef       .
_refine_ls_extinction_method     none
_refine_ls_goodness_of_fit_ref   1.096
_refine_ls_hydrogen_treatment    undef
_refine_ls_matrix_type           full
_refine_ls_number_parameters     380
_refine_ls_number_reflns         4037
_refine_ls_number_restraints     30
_refine_ls_restrained_S_all      1.118
_refine_ls_R_factor_all          0.1000
_refine_ls_R_factor_gt           0.0686
_refine_ls_shift/su_max          0.000
_refine_ls_shift/su_mean         0.000
_refine_ls_structure_factor_coef Fsqd
_refine_ls_weighting_details
;
 w=1/[\s^2^(Fo^2^)+(0.0817P)^2^]
 where P=(Fo^2^+2Fc^2^)/3
;
_refine_ls_weighting_scheme      calc
_refine_ls_wR_factor_gt          0.1642
_refine_ls_wR_factor_ref         0.1929
_reflns_Friedel_coverage         0.000
_reflns_Friedel_fraction_full    .
_reflns_Friedel_fraction_max     .
_reflns_number_gt                2751
_reflns_number_total             4037
_reflns_threshold_expression     'I > 2\s(I)'
_cod_data_source_file            c5cc02113h2.cif
_cod_data_source_block           p140421c
_cod_original_cell_volume        1146.35(17)
_cod_original_formula_sum        'C16 H17.13 Cu2 O19.50 S2'
_cod_database_code               7117189
#BEGIN Tags that were not found in dictionaries:
_shelxl_version_number           2013-2
_chemical_oxdiff_formula         C1H1O1N1CU1
_chemical_oxdiff_usercomment     4
_shelx_space_group_comment
;
The symmetry employed for this shelxl refinement is uniquely defined
by the following loop, which should always be used as a source of
symmetry information in preference to the above space-group names.
They are only intended as comments.
;
_reflns_odcompleteness_completeness 99.85
_reflns_odcompleteness_iscentric 1
_reflns_odcompleteness_theta     26.32
_olex2_refinement_description
;
1. Uiso/Uaniso restraints and constraints
Uanis(C0AA) \\sim Ueq, Uanis(C1) \\sim Ueq, Uanis(O6) \\sim Ueq: with sigma of
0.005 and sigma for terminal atoms of 0.01
Uanis(O17) \\sim Ueq: with sigma of 0.005 and sigma for terminal atoms of 0.02
Uanis(Cu1') \\sim Ueq: with sigma of 0.001 and sigma for terminal atoms of 0.002
2. Others
 Sof(Cu1')=1-FVAR(1)
 Sof(Cu1)=FVAR(1)
 Fixed Sof: Cu2(0.5) Cu3(0.5) O0AA(0.5)
;
_shelx_res_file
;
TITL CF solution in P-1
CELL 0.71073 7.622561 8.033222 19.270935 89.7724 88.9016 76.322
ZERR 2 0.000592 0.000682 0.001596 0.0068 0.0065 0.007
LATT 1
SFAC C H Cu O S
UNIT 32 34.25776 4 39 4
ISOR 0.005 0.01 C0AA C1 O6
ISOR 0.005 0.02 O17
ISOR 0.001 0.002 Cu1'

L.S. 20
PLAN  25
BOND
fmap 2
acta
OMIT -3 50.02
REM <olex2.extras>
REM <HklSrc
REM  "%..\\..\\..\\%e6%196%e4=%13%e6%150%e6%0d.\\%e572%e5%25=%e6%150%e6%0d.\\c
REM omplex%204%20%e6%150%e6%0d.\\struct\\%e5.%0c%e6%154%e6%150%e6%0d.%20%e5%0b
REM ?%e5%0a(\\P140421C.hkl">
REM </olex2.extras>

WGHT    0.081700
FVAR       3.82662   0.92840
PART 1
CU1   3    1.216892    0.683530    0.473092    21.00000    0.01490    0.01062 =
         0.01341    0.00071    0.00125   -0.00215
PART 0
CU2   3    0.556156    0.314179    0.973266    10.50000    0.01516    0.00970 =
         0.01332    0.00224    0.00024   -0.00103
CU3   3    1.061063    0.319200    0.973221    10.50000    0.01551    0.01134 =
         0.01406    0.00280   -0.00038   -0.00269
S1    5    0.614504    0.524500    0.752777    11.00000    0.01998    0.01054 =
         0.01816    0.00534   -0.00137   -0.00266
S2    5    1.120365    0.535251    0.747078    11.00000    0.02012    0.01058 =
         0.01991    0.00411   -0.00239   -0.00249
O17   4    1.073920    1.000145    0.682813    11.00000    0.02422    0.00709 =
         0.02162    0.00734   -0.00026   -0.00418
O10   4    0.732915    0.446902    0.612382    11.00000    0.02210    0.01357 =
         0.02009   -0.00301    0.00013   -0.00129
O14   4    1.034351    0.463246    0.890162    11.00000    0.03858    0.03387 =
         0.02559    0.02310   -0.01436   -0.02378
O3    4    0.958762    0.692343    0.467741    11.00000    0.01477    0.01872 =
         0.02141   -0.00143   -0.00060   -0.00716
O19   4    1.242761    0.484891    0.603029    11.00000    0.01953    0.01406 =
         0.02218   -0.00371    0.00084   -0.00056
O2    4    1.473367    0.685047    0.476941    11.00000    0.01086    0.01991 =
         0.02776   -0.00462   -0.00053    0.00002
O8    4    0.574503    0.977261    0.676575    11.00000    0.03751    0.00932 =
         0.02118    0.00456    0.00305   -0.00519
O7    4    0.427753    0.989512    0.817086    11.00000    0.02891    0.01676 =
         0.02520   -0.00651    0.00249   -0.00577
O16   4    0.934696    0.989913    0.823534    11.00000    0.02908    0.02078 =
         0.02129   -0.00514    0.00465   -0.00223
O13   4    1.309910    0.307532    0.972686    11.00000    0.01975    0.01915 =
         0.03317    0.01277    0.00159   -0.00251
O18   4    1.181232    0.762459    0.570097    11.00000    0.02261    0.02099 =
         0.01342    0.00060    0.00184   -0.00979
O5    4    0.524774    0.469004    0.894209    11.00000    0.02500    0.04663 =
         0.03471    0.03124   -0.00669   -0.01578
O11   4    0.809707    0.314323    0.971780    11.00000    0.01566    0.01569 =
         0.03608    0.01197   -0.00038   -0.00220
O1    4    1.157501    0.958304    0.437963    11.00000    0.02618    0.01174 =
         0.02497    0.01004    0.00049   -0.00155
O9    4    0.753181    0.711185    0.579836    11.00000    0.05442    0.02295 =
         0.02005   -0.00380    0.02085   -0.01723
O15   4    0.918641    0.731039    0.924518    11.00000    0.06942    0.06232 =
         0.03028    0.03180    0.03008    0.04659
C10   1    1.027336    0.682348    0.809931    11.00000    0.01742    0.01687 =
         0.01047    0.00157    0.00589   -0.00386
C0AA  1    1.134550    0.692053    0.687715    11.00000    0.01461    0.01234 =
         0.01347    0.00861   -0.00148   -0.00551
C2    1    0.519662    0.681484    0.812010    11.00000    0.01068    0.01660 =
         0.01475    0.00503    0.00379    0.00002
C7    1    0.636303    0.671296    0.690058    11.00000    0.02044    0.00765 =
         0.01230   -0.00062    0.00128   -0.00112
C8    1    0.714066    0.606658    0.621892    11.00000    0.01461    0.02101 =
         0.01565    0.00149    0.00285   -0.00148
C4    1    0.477869    1.137611    0.784314    11.00000    0.03484    0.01334 =
         0.03347    0.00397   -0.00344   -0.00812
C14   1    1.072819    0.852449    0.715922    11.00000    0.00581    0.00699 =
         0.02221    0.00376   -0.00237   -0.00231
C3    1    0.502225    0.841111    0.783779    11.00000    0.01423    0.01322 =
         0.01595   -0.00013   -0.00116   -0.00311
C2AA  1    0.950513    1.149188    0.715579    11.00000    0.02066    0.01329 =
         0.03240   -0.00382    0.00016    0.00292
C6    1    0.573390    0.836931    0.713736    11.00000    0.00739    0.01377 =
         0.03273    0.00070    0.00005   -0.00090
C5    1    0.455825    1.133282    0.705943    11.00000    0.02418    0.00952 =
         0.03764    0.00095   -0.00516    0.00124
C12   1    0.976361    1.144630    0.793148    11.00000    0.02703    0.01882 =
         0.03009   -0.00081   -0.00545   -0.00554
C1AA  1    1.007365    0.846493    0.786471    11.00000    0.01242    0.01500 =
         0.01609   -0.00220    0.00014   -0.00226
C16   1    1.191709    0.642247    0.615601    11.00000    0.00614    0.02418 =
         0.02741   -0.01048    0.00360   -0.00472
C1    1    0.481120    0.626834    0.882567    11.00000    0.01721    0.03981 =
         0.01748    0.01109   -0.00313   -0.00190
C9    1    0.989145    0.622160    0.879880    11.00000    0.00921    0.03329 =
         0.02927    0.00511   -0.00427   -0.00190
O6    4    0.416246    0.744536    0.926121    11.00000    0.06264    0.06605 =
         0.03278    0.02074    0.02157    0.03268
O4    4    0.622903    0.038527    0.939558    11.00000    0.12271    0.06025 =
         0.12962   -0.02494   -0.07758    0.00921
O12   4    1.122877    0.035379    0.945176    11.00000    0.12400    0.05217 =
         0.14185   -0.02634   -0.07929    0.01795

O0AA  4    0.423158    1.016807    0.537370    10.50000    0.08317    0.02821 =
         0.04857    0.02155   -0.04181   -0.02744
PART 2
CU1'  3    1.716449    0.679633    0.473610   -21.00000    0.03397    0.03430 =
         0.03368   -0.00026   -0.00059   -0.00823
HKLF 4

REM  CF solution in P-1
REM R1 =  0.0686 for    2751 Fo > 4sig(Fo)  and  0.1000 for all    4037 data
REM    380 parameters refined using     30 restraints

END

WGHT      0.0845      0.6771

REM Highest difference peak  1.238,  deepest hole -1.299,  1-sigma level  0.160
Q1    1   0.3614  0.6891  0.9188  11.00000  0.05    1.24
Q2    1   0.4454  0.7954  0.9246  11.00000  0.05    0.97
Q3    1   1.1063  1.1482  0.7988  11.00000  0.05    0.82
Q4    1   0.6105  1.1259  0.7975  11.00000  0.05    0.80
Q5    1   0.8127  1.1547  0.7057  11.00000  0.05    0.80
Q6    1   0.5414 -0.0143  0.9689  11.00000  0.05    0.70
Q7    1   0.3247  1.1217  0.6954  11.00000  0.05    0.70
Q8    1   0.9361  0.6029  0.4398  11.00000  0.05    0.70
Q9    1   1.0238  1.0038  0.4292  11.00000  0.05    0.68
Q10   1   0.7088  0.3346  0.9971  11.00000  0.05    0.66
Q11   1   0.9315  0.7982  0.9239  11.00000  0.05    0.66
Q12   1   0.3853  1.2281  0.7993  11.00000  0.05    0.64
Q13   1   1.5716  0.6290  0.4543  11.00000  0.05    0.63
Q14   1   0.9397  0.3395  0.9990  11.00000  0.05    0.63
Q15   1   1.0629  0.7001  0.4820  11.00000  0.05    0.62
Q16   1   1.0285 -0.0081  0.9741  11.00000  0.05    0.62
Q17   1   0.7103  0.3543  0.9362  11.00000  0.05    0.62
Q18   1   1.5591  0.7376  0.4968  11.00000  0.05    0.61
Q19   1   1.4127  0.3245  0.9771  11.00000  0.05    0.61
Q20   1   0.8814  1.2072  0.8290  11.00000  0.05    0.61
Q21   1   1.1913  0.3381  0.9321  11.00000  0.05    0.60
Q22   1   0.8455  0.6876  0.9166  11.00000  0.05    0.60
Q23   1   0.5196  1.2234  0.6960  11.00000  0.05    0.60
Q24   1   1.2581  1.0409  0.4240  11.00000  0.05    0.59
Q25   1   1.3922  0.6744  0.4777  11.00000  0.05    0.59
;
_shelx_res_checksum              48527
_shelx_hkl_file
;
   0   0  -3-116.666 116.124   5
   0   0   3 53.8800 95.0536   3
   0   0  -4 220513. 5628.82   3
   0   0   4 207586. 5531.84   3
   0   0   4 232393. 6676.76   5
   0   0  -4 222778. 6708.55   5
   0   0  -5 213.892 288.430   3
   0   0  -5 93.3448 202.356   5
   0   0   5 194.599 218.866   3
   0   0   5 222.558 260.113   5
   0   0  -6 4341.48 828.573   3
   0   0   6 3405.70 720.519   3
   0   0  -6 3561.07 903.710   5
   0   0  -7 99.4333 299.339   5
   0   0   7 20.9558 147.893   3
   0   0  -7 32.5104 177.145   3
   0   0   7-4.83648 106.087   6
   0   0  -8 10372.3 1474.79   3
   0   0  -8 10628.0 1768.42   5
   0   0  -9 210.562 277.199   5
   0   0  -9 102.869 237.019   3
   0   0 -10 12116.3 2114.02   5
   0   0 -10 11772.5 1749.81   3
   0   0 -11 271.693 335.666   3
   0   0 -11 218.101 428.860   5
   0   0 -12 19074.0 2455.93   3
   0   0 -12 16444.7 2697.28   5
   0   0 -13 454.526 606.086   5
   0   0 -13 436.692 472.036   3
   0   0 -14 140183. 7368.14   3
   0   0 -14 129332. 8289.29   5
   0   0 -15 1278.97 725.952   3
   0   0 -15 907.135 690.452   5
   0   0 -16 3610.50 1219.14   3
   0   0 -16 3875.81 1483.87   5
   0   0 -17 178.513 213.068   3
   0   0 -17-444.916 491.653   5
   0   0 -18 84547.9 6437.93   3
   0   0 -18 60907.8 6360.52   5
   0   0 -19 462.131 503.174   3
   0   0 -19 12.1052 293.936   5
   0   0 -20 34858.9 5004.43   5
   0   0 -20 41295.8 4790.79   3
   0   0 -21 660.476 656.851   3
   0   0 -21-764.550 796.462   5
   0   0 -22 68544.5 6499.71   3
   0   0 -22 62585.2 7013.74   5
   0   0 -23 159.927 424.645   3
   0   0 -23 853.462 903.258   5
   0   0 -24 2866.34 1369.21   3
   0   0 -24 3321.13 1693.75   5
   0   0 -25 428.745 710.434   5
   0   1 -25 2645.00 1654.91   5
   0   1 -24-2.47220 513.393   5
   0   1 -23 5029.48 2160.61   5
   0   1 -22 27296.1 4135.81   3
   0   1 -22 26366.6 4906.62   5
   0   1 -21 664.651 717.644   3
   0   1 -21-1213.21 1060.62   5
   0   1 -20 1735.30 1215.26   5
   0   1 -20 324.660 424.113   3
   0   1 -19 1877.52 1110.42   3
   0   1 -19 3893.53 1734.61   5
   0   1 -18 24804.3 3457.16   3
   0   1 -18 23902.7 4168.73   5
   0   1 -17 669.593 736.762   5
   0   1 -17 2641.27 1088.90   3
   0   1 -16 25.5889 375.943   3
   0   1 -16 6539.36 2242.46   5
   0   1 -15 24643.8 3173.41   3
   0   1 -15 30061.0 4355.50   5
   0   1 -14 79372.6 5461.34   3
   0   1 -14 81065.0 7041.44   5
   0   1 -13 52931.3 5432.54   5
   0   1 -13 56967.1 4414.58   3
   0   1 -12 1799.06 1118.72   5
   0   1 -12 895.922 485.204   3
   0   1 -11 158230. 8951.73   5
   0   1 -11 169034. 7274.45   3
   0   1 -10 1680.99 671.165   3
   0   1 -10 2029.95 980.679   5
   0   1  -9 292154. 11517.9   5
   0   1  -9 308762. 9492.55   3
   0   1  -8 301488. 11254.3   5
   0   1  -8 329562. 9498.22   3
   0   1  -8 334621. 11883.8   6
   0  -1   7 210116. 7015.32   3
   0  -1   7 218714. 8837.33   6
   0   1  -7 236582. 9211.44   6
   0   1  -7 233917. 7253.93   3
   0   1  -6 60832.6 4225.03   6
   0  -1   6 64177.3 4272.82   6
   0   1  -6 65174.9 3305.44   3
   0  -1   6 63608.6 3303.11   3
   0   1  -5 110721. 5345.63   6
   0   1  -5 99383.7 3920.74   3
   0  -1   5 101396. 4014.57   3
   0  -1   5 111930. 5284.69   6
   0  -1   4 203.575 229.271   3
   0   1  -4 372.410 345.596   6
   0   1  -4 182.117 184.950   3
   0  -1   4 157.948 194.326   6
   0  -1   3 27429.6 1545.21   3
   0   1  -3 29105.0 2200.57   6
   0  -1   3 28249.0 2091.92   6
   0   1  -3 29046.0 1583.44   3
   0  -1   2 66666.5 2987.46   6
   0  -1  -2 65940.6 2156.52   5
   0  -1  -3 24909.1 1419.82   5
   0   1   3 26203.1 1479.93   5
   0   1   3 27610.4 1396.74   3
   0  -1  -3 27627.4 1426.29   3
   0   1   3 24894.7 1042.72   4
   0  -1  -3 26792.3 996.972   4
   0   1   4 431.863 255.923   5
   0  -1  -4 251.278 116.322   4
   0   1   4 149.224 139.022   3
   0  -1  -4 541.082 225.271   5
   0  -1  -4 343.097 235.952   3
   0   1   5 106981. 4138.99   5
   0   1   5 94932.9 3540.10   3
   0  -1  -5 107716. 3871.27   3
   0  -1  -5 107125. 3898.57   5
   0   1   6 55587.9 2851.58   3
   0   1   6 59395.3 3327.48   5
   0  -1  -6 59067.5 3101.98   5
   0  -1  -6 58372.6 3007.47   3
   0  -1  -7 218028. 7047.39   5
   0   1   7 218818. 7530.92   5
   0  -1  -7 213755. 6872.08   3
   0   1   7 211103. 6565.60   3
   0  -1  -8 322043. 9462.90   5
   0  -1  -8 297390. 8836.58   3
   0   1   8 309416. 9974.07   5
   0  -1  -9 287595. 9034.65   3
   0   1   9 276275. 9945.33   5
   0  -1  -9 287261. 9413.07   5
   0  -1 -10 2253.51 779.076   3
   0  -1 -10 1946.14 909.265   5
   0  -1 -11 154373. 7315.58   5
   0  -1 -11 157935. 6957.12   3
   0  -1 -12 1478.20 842.297   5
   0  -1 -12 434.918 297.046   3
   0  -1 -13 53315.9 4337.02   3
   0  -1 -13 51929.7 4519.84   5
   0  -1 -14 75986.4 5739.43   5
   0  -1 -14 80311.8 5589.18   3
   0  -1 -15 20639.3 3053.78   5
   0  -1 -15 23188.9 3064.51   3
   0  -1 -16 681.452 603.703   5
   0  -1 -16-15.1587 440.588   3
   0  -1 -17 1876.15 970.406   3
   0  -1 -17 3150.24 1245.26   5
   0  -1 -18 27071.0 3618.29   3
   0  -1 -18 21981.8 3482.78   5
   0  -1 -19 835.163 598.293   3
   0  -1 -19 1967.08 986.428   5
   0  -1 -20 805.464 731.673   5
   0  -1 -20 562.947 591.028   3
   0  -1 -21 2114.66 957.950   3
   0  -1 -21 1874.44 1437.59   5
   0  -1 -22 20617.4 3524.72   3
   0  -1 -22 18096.3 3566.18   5
   0  -1 -23 870.125 852.661   5
   0  -1 -23 4550.92 1698.97   3
   0  -1 -24-845.903 810.663   3
   0   2 -24 5373.05 2345.08   5
   0   2 -23 1076.93 1118.13   5
   0   2 -22 410.821 749.290   5
   0   2 -21 6440.32 2565.08   5
   0   2 -20 40053.0 6169.37   5
   0   2 -19 2217.62 1408.89   5
   0   2 -18 23941.5 4501.33   5
   0   2 -17 3299.43 1602.45   5
   0   2 -16 75086.5 5765.26   3
   0   2 -16 68018.6 7187.88   5
   0   2 -15 43397.1 4221.58   3
   0   2 -15 41174.1 5345.42   5
   0   2 -14 19936.9 2716.70   3
   0   2 -14 18808.5 3671.64   5
   0   2 -13 33274.9 3384.07   3
   0   2 -13 32083.4 4434.67   5
   0   2 -12 39596.7 4873.57   6
   0   2 -12 42372.3 3676.96   3
   0   2 -12 32468.4 4449.62   5
   0   2 -11 63617.9 5978.31   6
   0   2 -11 68803.5 6175.11   5
   0   2 -11 75162.2 4761.07   3
   0   2 -10 7916.84 2006.60   6
   0   2 -10 7122.06 1380.36   3
   0   2  -9 123671. 5691.07   3
   0   2  -9 115690. 7452.05   6
   0   2  -8 22674.2 3078.06   6
   0   2  -7 98948.6 6253.44   6
   0   2  -6 59207.1 4473.74   6
   0  -2   6 54749.8 3149.49   3
   0  -2   5 58390.5 4089.61   6
   0  -2   5 54187.1 2894.42   3
   0   2  -5 61600.9 4311.54   6
   0  -2   4 96427.9 4945.36   6
   0  -2   4 88795.3 3497.80   3
   0   2  -4 91564.9 5042.44   6
   0  -2   3 62219.4 3719.55   6
   0   2  -3 59368.1 3832.83   6
   0   2  -2 284833. 8732.90   6
   0  -2   2 304741. 8554.61   6
   0  -2   1 35329.7 2402.62   6
   0   2  -1 37377.4 2579.57   6
   0  -2   0 7878.16 1040.82   6
   0   2   0 7064.51 1008.75   6
   0  -2  -1 30683.1 1803.54   1
   0  -2  -1 30649.2 1986.12   6
   0   2   1 31037.1 2098.35   6
   0  -2  -2 275396. 6903.18   6
   0   2   2 263005. 6967.84   6
   0  -2  -2 261670. 6255.22   1
   0   2   3 47805.2 2659.83   6
   0  -2  -3 58548.9 2230.47   3
   0   2   3 54608.0 2400.20   1
   0   2   3 51952.8 1764.52   4
   0  -2  -3 49772.5 2195.21   1
   0   2   3 56715.8 2606.03   5
   0   2   4 86006.3 3142.65   1
   0   2   4 85138.1 2460.77   4
   0   2   4 92980.1 3656.92   5
   0   2   4 89287.8 3818.13   6
   0  -2  -4 93545.1 3259.43   3
   0  -2  -5 57606.8 2718.00   3
   0   2   5 60948.1 2685.97   3
   0   2   5 57427.9 2497.96   1
   0  -2  -5 60161.3 2877.74   5
   0  -2  -5 55137.6 1855.61   4
   0   2   5 53689.0 2031.01   4
   0   2   5 61560.2 3063.40   5
   0  -2  -6 55553.7 2937.58   5
   0  -2  -6 52150.3 2821.38   3
   0   2   6 56689.0 2787.79   3
   0   2   6 54824.3 3098.28   5
   0  -2  -6 53241.8 1940.83   4
   0  -2  -7 92836.5 4172.71   3
   0   2   7 96843.0 4042.65   3
   0  -2  -7 99627.2 3012.27   4
   0  -2  -7 98371.0 4279.77   5
   0   2   7 97829.4 4590.14   5
   0  -2  -8 19143.2 1310.30   4
   0   2   8 16380.5 1961.19   5
   0  -2  -8 18654.5 1917.02   3
   0  -2  -8 19893.6 1928.60   5
   0  -2  -9 102898. 5019.76   3
   0   2   9 95343.5 5264.79   5
   0  -2  -9 107427. 4964.19   5
   0  -2  -9 113559. 3728.32   4
   0  -2 -10 6779.09 1265.38   5
   0  -2 -10 8133.04 1425.41   3
   0  -2 -10 6974.72 918.246   4
   0  -2 -11 68818.9 4327.45   5
   0  -2 -11 69972.0 4520.59   3
   0  -2 -11 64979.9 3135.72   4
   0  -2 -12 36597.2 2479.28   4
   0  -2 -12 36237.4 3286.16   5
   0  -2 -12 36649.3 3357.62   3
   0  -2 -13 29615.7 3177.51   3
   0  -2 -13 28568.1 2288.67   4
   0  -2 -13 28845.1 3040.86   5
   0  -2 -14 17232.3 2508.31   3
   0  -2 -14 18688.1 2564.04   5
   0  -2 -15 40124.8 4030.99   3
   0  -2 -15 37852.3 3817.96   5
   0  -2 -16 71214.0 5596.89   3
   0  -2 -16 63065.7 5167.40   5
   0  -2 -17 2870.45 1138.02   5
   0  -2 -17 5333.03 1652.59   3
   0  -2 -18 26472.6 3651.19   3
   0  -2 -18 23410.8 3346.00   5
   0  -2 -19 1256.09 696.275   3
   0  -2 -19 1154.52 922.117   5
   0  -2 -20 38937.7 4626.64   5
   0  -2 -20 37852.8 4643.55   3
   0  -2 -21 6805.56 1982.38   5
   0  -2 -21 7436.94 2162.52   3
   0  -2 -22 3597.01 1492.31   5
   0  -2 -22 2572.04 1291.37   3
   0  -2 -23 1536.62 773.036   3
   0  -2 -24 5766.07 2011.22   3
   0   3 -23 3647.83 2066.25   5
   0   3 -22-565.788 861.481   5
   0   3 -21 1229.28 1704.09   5
   0   3 -20 77448.1 8955.86   5
   0   3 -19 3419.56 1849.24   5
   0   3 -18 44322.6 6452.40   5
   0   3 -17-630.478 820.773   5
   0   3 -16 9881.81 2950.72   5
   0   3 -15 674.088 740.123   6
   0   3 -15 2375.77 1289.27   5
   0   3 -14 45289.9 5912.13   5
   0   3 -14 52521.9 6403.60   6
   0   3 -13 28525.4 4503.63   6
   0   3 -13 27197.2 4429.64   5
   0   3 -12 12431.6 2853.78   6
   0   3 -11 12158.6 2719.89   6
   0   3 -10 495.809 548.612   6
   0   3  -9 120379. 8167.02   6
   0   3  -8 59074.9 5391.46   6
   0   3  -7 8026.80 1899.43   6
   0   3  -6 332845. 12507.5   6
   0   3  -5 610.338 339.677   6
   0  -3   5 337.079 248.410   3
   0   3  -4 19572.2 2637.74   6
   0   3  -3 46955.2 3876.22   6
   0  -3   2 542346. 13818.8   6
   0   3  -2 535722. 14664.5   6
   0  -3   1 893.458 429.458   6
   0   3  -1 425.257 299.718   6
   0  -3   0 287324. 8663.71   6
   0   3   0 275791. 8879.52   6
   0  -3  -1 246.856 133.202   6
   0   3   1 356.009 275.292   6
   0  -3  -1 575.140 307.400   1
   0  -3  -2 494705. 11027.4   1
   0  -3  -2 488109. 11756.0   6
   0   3   2 477039. 12201.4   6
   0  -3  -3 44866.5 2870.51   6
   0  -3  -3 40264.6 2400.58   1
   0   3   3 40047.7 2896.87   6
   0  -3  -4 17853.8 1405.22   3
   0   3   4 17158.3 1158.04   4
   0   3   4 15687.3 1812.60   6
   0  -3  -4 17375.5 1523.81   1
   0   3   4 18532.2 1762.45   5
   0   3   5 1003.38 422.569   5
   0  -3  -5 590.938 280.760   3
   0   3   5 1019.44 285.601   4
   0   3   5 795.085 336.327   1
   0   3   5 848.530 410.629   6
   0   3   6 294124. 7823.51   1
   0   3   6 289536. 8665.70   5
   0   3   6 273629. 9002.83   6
   0   3   6 284790. 6379.32   4
   0  -3  -6 297591. 7815.18   3
   0   3   7 6140.85 1148.38   5
   0  -3  -7 6336.14 1065.25   3
   0   3   7 6357.23 768.814   4
   0   3   7 6880.64 1284.71   6
   0   3   7 6233.62 965.114   1
   0  -3  -8 54770.7 3466.62   5
   0  -3  -8 55003.4 3408.42   3
   0   3   8 56486.9 3751.27   5
   0  -3  -8 55877.7 2202.33   4
   0   3   8 59001.3 3142.58   1
   0  -3  -9 107570. 5067.51   5
   0  -3  -9 105366. 5094.47   3
   0  -3  -9 111007. 3392.72   4
   0  -3 -10-5.01712 46.9682   4
   0  -3 -10-54.9467 223.713   5
   0  -3 -10 228.924 277.484   3
   0  -3 -11 10869.4 1655.34   5
   0  -3 -11 8676.41 1581.73   3
   0  -3 -11 9606.09 982.635   4
   0  -3 -12 13486.5 1937.13   5
   0  -3 -12 9822.98 1737.19   3
   0  -3 -12 11015.4 1125.39   4
   0  -3 -13 23767.3 2875.64   3
   0  -3 -13 22837.0 2613.94   5
   0  -3 -13 23603.7 1741.34   4
   0  -3 -14 50168.3 4072.97   5
   0  -3 -14 49828.9 4312.96   3
   0  -3 -15 866.627 601.289   3
   0  -3 -15 933.332 623.650   5
   0  -3 -16 12573.5 2166.42   5
   0  -3 -16 11348.0 2256.23   3
   0  -3 -17 367.594 468.307   3
   0  -3 -17 280.707 392.364   5
   0  -3 -18 38180.4 4424.53   3
   0  -3 -18 33320.8 3817.69   5
   0  -3 -19 3475.23 1275.81   5
   0  -3 -19 3121.65 1334.92   3
   0  -3 -20 63533.9 5660.83   5
   0  -3 -20 80936.9 6823.43   3
   0  -3 -21 1434.16 1027.65   3
   0  -3 -22 1.60312 778.967   3
   0  -3 -23 2658.36 1327.75   3
   0  -3 -24 24003.3 4045.40   3
   0   4 -22-1843.84 1598.60   5
   0   4 -21 1549.53 1422.26   5
   0   4 -20 1492.62 1347.61   5
   0   4 -19 1737.04 1424.47   5
   0   4 -18 5412.96 2800.16   5
   0   4 -17 8516.05 3043.62   5
   0   4 -17 7009.95 2538.30   6
   0   4 -16 11270.1 3347.97   6
   0   4 -16 9623.56 3131.25   5
   0   4 -15 13582.5 3420.06   5
   0   4 -15 19259.9 4157.09   6
   0   4 -14 21139.0 4267.90   6
   0   4 -13 25661.0 4594.24   6
   0   4 -12 54568.9 6499.36   6
   0   4 -11 20699.1 3843.47   6
   0   4 -10 16339.7 3316.79   6
   0   4  -9 265076. 13260.9   6
   0   4  -8 12323.2 2666.85   6
   0   4  -7 80477.7 6631.28   6
   0   4  -6 14534.7 2701.03   6
   0   4  -5 306446. 12747.3   6
   0   4  -4 1612.64 824.280   6
   0   4  -3 5263.41 1466.57   6
   0   4  -2 2353.34 862.361   6
   0   4  -1 1002.15 557.822   6
   0   4   0 51598.7 4113.51   6
   0  -4  -1 1287.92 507.745   1
   0   4   1 1370.82 645.693   6
   0   4   2 3335.79 959.028   6
   0  -4  -2 3084.53 796.953   1
   0  -4  -3 4533.10 920.702   1
   0   4   3 4820.65 1184.25   6
   0   4   4 818.865 278.790   4
   0  -4  -4 511.567 279.221   1
   0   4   4 854.188 452.863   6
   0   4   5 257024. 6421.94   4
   0  -4  -5 278204. 7403.80   3
   0   4   5 251785. 9294.91   6
   0  -4  -5 270835. 7856.52   1
   0   4   6 14737.5 1229.62   4
   0   4   6 15005.7 2094.02   6
   0  -4  -6 15234.1 1582.65   3
   0   4   7 82100.7 3113.31   4
   0  -4  -7 79554.8 3962.97   3
   0   4   7 72618.3 4839.26   6
   0   4   8 10380.8 1071.50   4
   0   4   8 9110.68 1681.04   6
   0  -4  -8 8664.12 1343.38   3
   0   4   9 218905. 9172.76   6
   0  -4  -9 234138. 8055.63   3
   0  -4 -10 9677.66 1583.91   3
   0   4  10 16016.6 2342.10   6
   0  -4 -11 24117.2 2636.07   3
   0   4  11 20642.7 2745.33   6
   0  -4 -12 54672.3 4226.39   3
   0  -4 -13 25355.5 3003.52   3
   0  -4 -13 26794.4 2868.73   5
   0  -4 -14 17467.2 2566.93   3
   0  -4 -14 17352.2 2401.66   5
   0  -4 -15 13985.2 2217.24   5
   0  -4 -15 14570.2 2387.93   3
   0  -4 -16 12659.3 2363.01   3
   0  -4 -16 11786.1 2056.51   5
   0  -4 -17 3952.53 1145.48   5
   0  -4 -17 3352.64 1224.78   3
   0  -4 -18 4704.50 1512.29   3
   0  -4 -18 3869.23 1265.18   5
   0  -4 -19 1295.51 919.301   3
   0  -4 -20 3099.10 1306.60   3
   0  -4 -21 365.428 527.428   3
   0  -4 -22-572.684 669.847   3
   0  -4 -23 16322.5 3333.64   3
   0  -4 -24 413.750 642.553   3
   0   5 -20 1141.76 1335.12   5
   0   5 -19 1840.95 1788.95   5
   0   5 -18 56324.9 8243.61   6
   0   5 -18 58182.5 8645.42   5
   0   5 -17 16720.1 4354.99   6
   0   5 -17 14301.7 4328.96   5
   0   5 -16 30919.5 5826.77   6
   0   5 -16 27953.7 5603.83   5
   0   5 -15 4965.11 2288.69   6
   0   5 -14 25284.1 4994.92   6
   0   5 -13 33465.4 5584.65   6
   0   5 -12-169.344 439.624   6
   0   5 -11 5776.80 2150.36   6
   0   5 -10 525.855 669.943   6
   0   5  -9 33618.1 4907.47   6
   0   5  -8 18059.6 3486.48   6
   0   5  -7 12859.3 2854.39   6
   0   5  -6 554.580 601.660   6
   0   5  -5 60179.8 5889.29   6
   0   5  -4 103573. 7538.32   6
   0   5  -3 9563.21 2195.92   6
   0   5  -2 68342.3 5756.62   6
   0   5  -1 1269.79 772.609   6
   0   5   0 121690. 7300.24   6
   0  -5   0 117629. 5835.43   1
   0  -5  -1 2080.71 734.775   1
   0   5   1 3095.18 1061.20   6
   0  -5  -2 54578.2 3804.32   1
   0   5   2 61736.2 4910.95   6
   0  -5  -3 9657.11 1531.22   1
   0   5   3 6731.83 1592.22   6
   0   5   4 93998.1 3792.88   4
   0  -5  -4 94465.2 4872.41   1
   0   5   4 89859.7 5958.56   6
   0  -5  -5 50412.6 3441.01   1
   0   5   5 53077.0 2724.68   4
   0   5   5 50737.5 4417.21   6
   0  -5  -5 49771.5 2999.19   3
   0   5   6 348.444 255.252   4
   0   5   6-204.165 306.294   6
   0  -5  -6 359.636 248.188   3
   0   5   7 12484.7 1257.61   4
   0  -5  -7 12950.8 1601.59   3
   0   5   7 15767.8 2429.85   6
   0  -5  -8 14766.5 1811.46   3
   0   5   8 14419.0 2384.16   6
   0   5   8 15921.6 1426.11   4
   0   5   9 30297.4 3536.00   6
   0   5   9 34142.6 2172.23   4
   0  -5  -9 30587.4 2786.67   3
   0  -5 -10 1495.91 723.050   3
   0   5  10 948.333 533.339   6
   0  -5 -11 3721.57 1039.77   3
   0   5  11 3428.88 1208.66   6
   0  -5 -12 368.219 445.160   3
   0   5  12 342.422 420.733   6
   0   5  13 26007.6 3532.75   6
   0  -5 -13 30300.7 3355.61   3
   0   5  14 26234.6 3564.49   6
   0  -5 -14 20655.1 2863.63   3
   0   5  15 5795.23 1680.01   6
   0  -5 -15 4492.03 1348.27   3
   0   5  16 26731.6 3767.55   6
   0  -5 -16 21512.5 3084.78   3
   0  -5 -17 14335.7 2615.37   3
   0   5  17 15202.1 2942.26   6
   0   5  18 53866.5 5731.10   6
   0  -5 -18 55380.1 5318.23   3
   0  -5 -19 2634.66 1332.11   3
   0   5  19 5087.60 1781.39   6
   0  -5 -20-72.4081 366.362   3
   0   5  20 2184.71 1203.87   6
   0   5  21 831.527 776.688   6
   0  -5 -21-1196.81 896.439   3
   0   6 -19 8120.99 3490.75   5
   0   6 -18 24875.4 5704.15   6
   0   6 -18 17031.6 4800.43   5
   0   6 -17 6717.10 3034.18   5
   0   6 -17 3377.11 2012.30   6
   0   6 -16 15655.6 4353.26   6
   0   6 -15 8618.62 3054.88   6
   0   6 -14 51069.7 7518.26   6
   0   6 -13 2650.31 1641.97   6
   0   6 -12 1489.14 1317.97   6
   0   6 -11 85509.5 8992.70   6
   0   6 -10 3697.69 1742.56   6
   0   6  -9 10187.2 2903.68   6
   0   6  -8-134.299 236.971   6
   0   6  -7 30213.0 4793.77   6
   0   6  -6 28204.0 4505.03   6
   0   6  -5 2212.69 1206.77   6
   0   6  -4 77410.1 7143.89   6
   0   6  -3 47906.6 5402.51   6
   0   6  -2 1319.89 919.909   6
   0   6  -1 358.102 290.804   6
   0  -6   1 161.183 266.483   1
   0   6   0 225527. 11310.9   6
   0  -6   0 219656. 8976.37   1
   0   6   1 681.672 637.945   6
   0  -6  -1-126.148 356.969   1
   0   6   2 1214.48 820.146   6
   0  -6  -2 1322.66 581.487   1
   0  -6  -3 36852.5 3349.89   1
   0   6   3 35690.7 4141.78   6
   0   6   4 67316.0 3506.62   4
   0   6   4 63695.4 5649.44   6
   0  -6  -4 70124.9 4608.60   1
   0  -6  -5 2384.86 682.499   3
   0  -6  -5 2290.82 801.660   1
   0   6   5 2912.56 1106.68   6
   0   6   5 2657.16 640.425   4
   0   6   6 21156.5 3184.23   6
   0   6   6 22620.2 1914.20   4
   0  -6  -6 19678.3 2035.33   3
   0  -6  -6 21183.9 2437.78   1
   0   6   7 32880.1 3980.51   6
   0   6   7 30822.8 2211.22   4
   0  -6  -7 25011.9 2407.76   3
   0  -6  -8 242.784 300.551   3
   0   6   8 44.9422 265.644   6
   0   6   8-67.3283 123.471   4
   0  -6  -9 7229.51 1364.22   3
   0   6   9 10617.5 2264.26   6
   0  -6 -10 1759.90 714.893   3
   0   6  10 3657.44 1354.44   6
   0   6  11 83920.3 6742.93   6
   0  -6 -11 75156.3 4971.43   3
   0   6  12 3334.08 1274.68   6
   0  -6 -12 2733.67 1035.56   3
   0   6  13 2128.88 972.178   6
   0  -6 -13 1500.87 753.276   3
   0  -6 -14 32118.1 3563.47   3
   0   6  14 29898.6 4133.07   6
   0   6  15 7706.79 2148.35   6
   0  -6 -15 2973.67 1129.53   3
   0  -6 -16 10174.0 2088.86   3
   0   6  16 11461.0 2645.59   6
   0   6  17 8250.66 2307.52   6
   0   6  18 15020.8 3115.59   6
   0   6  19 5483.37 1939.71   6
   0   6  20 4597.49 1767.82   6
   0   7 -16 9269.08 3429.99   6
   0   7 -15 19421.8 4931.18   6
   0   7 -14 188.340 573.513   6
   0   7 -13 2104.85 1445.26   6
   0   7 -12 7990.46 2974.71   6
   0   7 -11 70313.8 8676.85   6
   0   7 -10 2351.94 1547.29   6
   0   7  -9 35758.4 5836.21   6
   0   7  -8 8219.70 2749.87   6
   0   7  -7 50168.7 6584.94   6
   0   7  -6 8094.59 2624.64   6
   0   7  -5 15169.9 3463.02   6
   0   7  -4 6275.48 2163.00   6
   0   7  -3 135346. 10070.3   6
   0   7  -2 783.367 496.184   6
   0  -7   2 1383.92 758.637   1
   0  -7   1 6253.74 1525.97   1
   0   7  -1 7051.35 2113.26   6
   0  -7   0 33108.4 3540.14   1
   0   7   0 35289.4 4778.13   6
   0   7   1 6416.54 1943.99   6
   0  -7  -1 6108.25 1474.22   1
   0  -7  -2 1502.73 728.629   1
   0   7   2 1130.57 727.685   6
   0   7   3 115224. 8555.73   6
   0  -7  -3 123443. 6794.02   1
   0   7   4 5370.93 1810.28   6
   0   7   4 6215.89 1154.67   4
   0  -7  -4 6958.43 1550.80   1
   0  -7  -5 13778.0 1788.07   3
   0   7   5 16717.1 3166.34   6
   0   7   5 17367.9 1892.92   4
   0  -7  -5 16221.3 2321.69   1
   0  -7  -6 5907.67 1157.96   3
   0   7   6 10472.9 2505.65   6
   0   7   6 8534.65 1295.30   4
   0  -7  -6 7945.46 1626.29   1
   0   7   7 33266.9 4475.84   6
   0  -7  -7 33824.9 2944.33   3
   0   7   8 4468.38 1568.56   6
   0  -7  -8 5387.05 1170.00   3
   0   7   9 32111.9 4499.67   6
   0   7  10 3345.95 1423.24   6
   0   7  11 64813.2 6512.24   6
   0   7  12 4397.24 1682.71   6
   0   7  13 1262.98 943.129   6
   0   7  14-172.516 399.053   6
   0   7  15 19097.6 3643.67   6
   0   7  16 5803.90 2033.44   6
   0   7  17 938.951 855.498   6
   0   7  18 639.645 736.072   6
   0   8 -13-449.793 840.000   6
   0   8 -12 6128.56 2590.33   6
   0   8 -11 15645.4 4262.21   6
   0   8 -10-147.909 512.965   6
   0   8  -9 4304.79 2153.18   6
   0   8  -8 1432.29 1254.02   6
   0   8  -7 7762.65 2831.88   6
   0   8  -6 8905.26 2900.84   6
   0   8  -5 9750.39 3040.27   6
   0   8  -4 23783.1 4650.57   6
   0  -8   4 18626.5 2960.12   1
   0   8  -3 9319.51 2818.42   6
   0  -8   3 7323.66 1819.60   1
   0   8  -2 54872.4 6830.38   6
   0  -8   2 56618.8 5079.73   1
   0   8  -1 1473.92 1005.44   6
   0  -8   1 2308.35 965.106   1
   0   8   0 20490.7 4041.05   6
   0  -8   0 18402.3 2833.55   1
   0   8   1 2496.46 1201.72   6
   0  -8  -1 761.586 528.292   1
   0   8   2 47570.4 6008.94   6
   0  -8  -2 50965.1 4666.69   1
   0   8   3 5950.53 2081.17   6
   0  -8  -3 7906.26 1767.51   1
   0   8   4 24951.4 4280.90   6
   0  -8  -4 23647.7 3072.34   1
   0  -8  -5 7869.86 1764.12   1
   0   8   5 3597.99 1647.90   6
   0   8   6 9960.61 2731.14   6
   0   8   7 3442.28 1576.15   6
   0   8   8 1943.02 1181.95   6
   0   8   9 3339.24 1559.19   6
   0   8  10-773.595 792.759   6
   0   8  11 15285.2 3451.38   6
   0   8  12 3495.95 1534.85   6
   0   8  13-775.442 824.788   6
   0   8  14 14904.2 3444.28   6
   0   8  15 12702.8 3159.19   6
   0   9  -9 50631.9 7928.06   6
   0   9  -8 1940.72 1563.89   6
   0  -9   7 2068.96 1094.17   1
   0   9  -7 3712.87 2073.53   6
   0  -9   6 10181.2 2398.45   1
   0   9  -6 11660.4 3602.61   6
   0  -9   5 23907.0 3623.96   1
   0   9  -5 34343.4 6149.54   6
   0  -9   4 2994.87 1312.75   1
   0   9  -4 6581.66 2591.27   6
   0  -9   3-475.291 513.817   1
   0   9  -3-443.957 736.096   6
   0  -9   2 5361.30 1633.24   1
   0   9  -2 1551.62 1315.67   6
   0  -9   1 6968.28 1894.86   1
   0   9  -1 8933.05 2902.70   6
   0  -9   0 13060.1 2542.59   1
   0   9   0 14535.3 3656.55   6
   0  -9  -1 5836.84 1704.76   1
   0   9   1 2289.09 1443.29   6
   0   9   2 3737.61 1833.76   6
   0  -9  -2 5093.38 1546.66   1
   0   9   3 34.7389 334.088   6
   0  -9  -3 302.680 404.762   1
   0  -9  -4 4311.58 1476.84   1
   0   9   4 5178.66 2153.91   6
   0   9   5 24597.3 4643.37   6
   0  -9  -5 22765.5 3250.40   1
   0   9   6 14142.9 3525.60   6
   0   9   7 1427.60 1152.53   6
   0   9   8 211.635 514.973   6
   0   9   9 46328.6 6480.07   6
   0   9  10-415.582 675.473   6
   0   9  11 1131.67 1054.86   6
   0  10  -1 6947.68 2746.73   6
   0 -10   1 6742.16 1948.68   1
   0  10   0 1812.25 1452.28   6
   0 -10   0 1206.40 829.310   1
   0 -10  -1 6306.79 1829.37   1
   0  10   1 1220.62 1219.89   6
   0 -10  -2 13315.9 2633.14   1
   0  10   2 13065.7 3820.32   6
   0  10   3-1632.91 1367.02   6
   0 -10  -3 767.874 661.879   1
   0 -10  -4 654.872 602.763   1
  -1   9   8-1532.75 1216.82   6
  -1   9   7 881.018 945.580   6
  -1   9   6 962.940 1005.16   6
  -1   9   5 2702.90 1479.22   6
  -1   9   4 5342.44 2305.21   6
  -1   9   3-1187.66 1090.97   6
   1  -9  -3-673.367 601.557   1
   1  -9  -2 1466.64 865.835   1
  -1   9   2 631.853 843.016   6
  -1   9   1-296.185 637.466   6
   1  -9  -1 1541.64 884.775   1
   1  -9   0 3894.05 1578.55   1
  -1   9   0 3230.32 1871.90   6
   1  -9   1-306.988 433.582   1
  -1   9  -1 1161.19 1135.10   6
   1  -9   2 2110.44 1051.18   1
  -1   9  -2 1436.76 1251.46   6
  -1   9  -3 5.49461 371.992   6
   1  -9   3 2757.64 1213.99   1
  -1   9  -4 4129.05 2128.91   6
   1  -9   4 3233.99 1476.81   1
   1  -9   5 1138.46 806.430   1
  -1   9  -5 158.564 522.982   6
  -1   9  -6-166.513 557.718   6
   1  -9   6 2176.95 1145.42   1
   1  -9   7 8056.78 2122.86   1
  -1   9  -7 1887.64 1546.81   6
  -1   8  13 1930.44 1314.92   6
  -1   8  12 4395.93 1941.55   6
  -1   8  11 5813.93 2103.90   6
  -1   8  10 2785.01 1523.87   6
  -1   8   9 6990.66 2367.97   6
  -1   8   8 3722.55 1740.60   6
  -1   8   7 2773.24 1486.20   6
  -1   8   6 4392.07 1854.91   6
  -1   8   5 1433.38 1160.32   6
   1  -8  -4-298.191 389.551   1
  -1   8   4 362.471 1227.40   6
   1  -8  -3 5718.65 1633.86   1
  -1   8   3 4517.24 2004.91   6
   1  -8  -2 2986.59 1134.66   1
  -1   8   2 3452.13 1594.71   6
   1  -8  -1 552.700 510.512   1
  -1   8   1 1945.66 1365.14   6
   1  -8   0 286.068 333.152   1
  -1   8   0-937.559 921.110   6
   1  -8   1 93.0919 631.245   1
  -1   8  -1-884.204 904.427   6
  -1   8  -2 404.732 649.024   6
   1  -8   2 865.826 643.836   1
   1  -8   3 10087.5 2239.63   1
  -1   8  -3 13046.0 3561.04   6
  -1   8  -4 4126.19 2074.61   6
   1  -8   4 6038.82 1771.72   1
  -1   8  -5 3435.32 1739.31   6
   1  -8   5 4351.87 1488.80   1
   1  -8   6-569.632 560.709   1
  -1   8  -6-419.892 705.480   6
  -1   8  -7 5072.75 2247.60   6
   1  -8   7 4678.34 1540.45   1
  -1   8  -8 1928.89 1861.40   6
   1  -8   8 1725.46 954.693   1
  -1   8  -9 1081.53 1459.79   6
  -1   8 -10 1160.09 1198.96   6
  -1   8 -11 8495.05 3356.90   6
  -1   8 -12 5496.67 2767.58   6
  -1   7  16-980.923 905.438   6
  -1   7  15-131.895 426.932   6
  -1   7  14 419.824 594.133   6
  -1   7  13 82.7214 370.934   6
  -1   7  12 212.483 476.198   6
  -1   7  11 137.114 390.337   6
  -1   7  10-1066.94 872.393   6
  -1   7   9-24.1726 288.211   6
  -1   7   8 2451.92 1289.37   6
  -1   7   7 2496.23 1425.85   6
  -1   7   6 3277.54 1423.36   6
  -1   7   5 761.079 346.876   6
  -1   7   4 8722.56 2410.96   6
   1  -7  -4 8332.62 1791.06   1
   1  -7  -3 19725.7 2796.70   1
  -1   7   3 23924.9 3997.31   6
   1  -7  -2 32244.2 3588.96   1
  -1   7   2 30367.7 4565.55   6
  -1   7   1 15809.5 3293.15   6
   1  -7  -1 13519.9 2336.81   1
  -1   7   0 3855.77 1618.00   6
   1  -7   0 3860.45 1280.32   1
  -1   7  -1 277.835 511.474   6
   1  -7   1 1438.08 754.033   1
   1  -7   2 3123.43 1122.06   1
  -1   7  -2 2894.32 1616.18   6
  -1   7  -3-95.8296 357.326   6
   1  -7   3-186.030 311.093   1
   1  -7   4 147.885 247.533   1
  -1   7  -4-830.064 827.181   6
  -1   7  -5 622.079 750.473   6
   1  -7   5-172.613 298.397   1
  -1   7  -6 483.255 688.874   6
   1  -7   6 468.941 470.415   1
  -1   7  -7 1560.25 1203.35   6
  -1   7  -8 1003.24 996.235   6
  -1   7  -9 2489.16 1563.38   6
  -1   7 -10 762.415 919.526   6
  -1   7 -11 7115.29 2808.64   6
  -1   7 -12 7753.34 3018.83   6
  -1   7 -13 1053.55 1150.21   6
  -1   7 -14 3951.22 2318.33   6
  -1   7 -15 6665.15 2955.48   6
  -1   6  18 4933.03 1882.03   6
  -1   6  17-156.451 414.278   6
  -1   6  16 5756.46 1992.82   6
  -1   6  15 10639.3 2544.47   6
  -1   6  14 5577.01 1855.41   6
  -1   6  13 5351.74 1820.67   6
  -1   6  12 7734.10 2121.58   6
  -1   6  11 3039.66 1311.15   6
  -1   6  10 238.166 395.153   6
   1  -6  -9 372.598 298.267   3
  -1   6   9-1036.35 763.620   6
   1  -6  -8-36.1737 135.133   3
  -1   6   8 805.313 676.676   6
   1  -6  -7 2182.44 690.477   3
  -1   6   7 1755.50 1086.82   6
   1  -6  -6-36.6373 156.012   3
  -1   6   6 29.2059 83.2463   4
  -1   6   6 232.235 304.779   6
   1  -6  -5 322.001 255.581   3
  -1   6   5 356.607 536.313   6
  -1   6   5 530.352 259.896   4
   1  -6  -4 2074.01 586.048   3
  -1   6   4 2369.17 1111.53   6
   1  -6  -4 2655.48 947.488   1
  -1   6   3 560.681 561.456   6
   1  -6  -3 48.0466 328.805   1
  -1   6   2 714.174 628.513   6
   1  -6  -2 603.201 526.060   1
  -1   6   1-162.771 347.317   6
   1  -6  -1 473.749 506.266   1
   1  -6   0 3336.06 1150.15   1
  -1   6   0 3537.14 1435.28   6
  -1   6  -1 10430.4 2494.79   6
   1  -6   1 9074.34 1802.21   1
   1  -6   2 1375.15 715.643   1
  -1   6  -2 2804.15 1369.81   6
  -1   6  -3-494.141 684.204   6
   1  -6   3-592.543 468.875   1
   1  -6   4 2358.30 921.752   1
  -1   6  -4 3277.02 1651.96   6
  -1   6  -5 26410.2 4347.43   6
  -1   6  -6 32333.6 5033.75   6
  -1   6  -7 20131.0 3983.62   6
  -1   6  -8 8229.88 2693.08   6
  -1   6  -9 10213.9 2967.03   6
  -1   6 -10 536.642 328.299   6
  -1   6 -11 254.615 485.352   6
  -1   6 -12 2707.04 1645.61   6
  -1   6 -13 1151.83 1115.23   6
  -1   6 -14 2428.99 1882.84   6
  -1   6 -15 1070.56 1167.85   6
  -1   6 -16 1770.01 1505.49   6
  -1   6 -17 1039.99 1181.00   6
  -1   6 -18-1462.60 1425.12   6
  -1   5  20 3101.57 1526.25   6
  -1   5  19-3.40705 557.229   6
  -1   5  18-272.077 462.094   6
  -1   5  17 490.102 478.289   6
   1  -5 -16 205.792 362.321   3
  -1   5  16 180.550 248.953   6
   1  -5 -15 4551.28 1293.83   3
  -1   5  15 4778.71 1652.80   6
   1  -5 -14 1521.74 665.863   3
  -1   5  14 2041.51 993.653   6
   1  -5 -13 1759.80 736.253   3
  -1   5  13 2727.86 1123.87   6
  -1   5  12 893.860 689.173   6
   1  -5 -12 1297.20 619.041   3
   1  -5 -11 5749.90 1233.31   3
  -1   5  11 5755.07 1712.71   6
   1  -5 -10 5369.95 1142.06   3
  -1   5  10 7066.39 1842.90   6
  -1   5   9 8442.45 1994.90   6
   1  -5  -9 7186.44 1249.71   3
  -1   5   8 12073.5 2349.48   6
  -1   5   8 10478.8 861.664   4
   1  -5  -8 13301.0 1629.83   3
  -1   5   7 13062.8 1039.44   4
   1  -5  -7 13821.8 1561.69   3
  -1   5   7 14160.8 2508.14   6
  -1   5   6 17643.5 1293.10   4
   1  -5  -6 17780.9 1685.62   3
  -1   5   6 20341.1 3030.16   6
  -1   5   5 25202.6 1676.39   4
   1  -5  -5 22029.3 1770.18   3
  -1   5   5 22227.1 3184.40   6
   1  -5  -4 15270.5 2050.45   1
  -1   5   4 16304.0 2650.85   6
   1  -5  -4 13956.4 1345.70   3
  -1   5   3 2896.06 1093.09   6
   1  -5  -3 2608.95 840.816   1
   1  -5  -2 393.839 396.588   1
  -1   5   2 933.262 636.355   6
  -1   5   1-13.0391 240.957   6
   1  -5  -1 91.0145 319.197   1
  -1   5   0 153.139 467.638   6
   1  -5   0 415.942 353.541   1
  -1   5  -1 871.377 765.137   6
   1  -5   1-56.9503 246.831   1
   1  -5   2 223.510 298.959   1
   1  -5   2 37.0809 106.708   3
  -1   5  -2-269.813 394.616   6
  -1   5  -3 1037.68 693.206   6
   1  -5   3 224.760 298.149   1
  -1   5  -4 2456.78 1179.46   6
  -1   5  -5 10853.9 2571.52   6
  -1   5  -6 1861.14 1082.77   6
  -1   5  -7 3712.10 1585.41   6
  -1   5  -8 1302.87 980.162   6
  -1   5  -9 9322.31 2644.28   6
  -1   5 -10 5961.75 2204.88   6
  -1   5 -11 118.507 518.274   6
  -1   5 -12-350.216 583.708   6
  -1   5 -13 10988.8 3362.70   6
  -1   5 -14 10651.0 3385.63   6
  -1   5 -15 376.850 703.869   6
  -1   5 -16 5321.14 2549.21   6
  -1   5 -17 7096.69 2986.94   6
  -1   5 -18 1598.85 1526.07   6
  -1   5 -19 1831.38 1568.60   5
  -1   5 -19 644.950 934.007   6
  -1   5 -20 431.500 882.831   5
  -1   5 -20-114.518 528.274   6
   1  -4 -21 4753.51 1530.43   3
   1  -4 -20 2868.27 1183.29   3
   1  -4 -19 61.6916 621.602   3
   1  -4 -19 551.429 457.990   5
   1  -4 -18 1163.22 769.655   5
   1  -4 -18 2529.83 1031.98   3
   1  -4 -17 3966.84 1352.73   5
   1  -4 -17 4623.61 1374.40   3
   1  -4 -16 4547.80 1461.20   5
   1  -4 -16 6488.23 1697.30   3
   1  -4 -15 9771.85 1996.66   3
   1  -4 -15 7814.21 1757.83   5
   1  -4 -14 4934.34 1448.40   5
   1  -4 -14 4479.02 1286.99   3
   1  -4 -13 1516.78 637.036   3
   1  -4 -13 1479.37 751.828   5
   1  -4 -12 3981.76 1090.13   3
  -1   4  12 6345.52 1704.94   6
  -1   4  11 7124.43 1759.83   6
   1  -4 -11 7474.37 1437.85   3
   1  -4 -10 1542.74 655.498   3
  -1   4  10 357.767 315.480   6
  -1   4   9 487.840 433.085   6
   1  -4  -9 331.640 320.469   3
  -1   4   8 5473.42 1417.29   6
   1  -4  -8 5844.79 1037.83   3
  -1   4   7 13262.7 2190.93   6
  -1   4   7 10273.5 748.037   4
   1  -4  -7 11240.7 1348.37   3
   1  -4  -6 12443.2 1304.42   3
  -1   4   6 11280.5 838.727   4
  -1   4   6 11252.9 2012.96   6
  -1   4   5 7542.88 749.942   4
   1  -4  -5 8743.03 1010.39   3
  -1   4   5 9775.44 1828.80   6
   1  -4  -4 18673.6 1388.35   3
  -1   4   4 21008.9 2712.58   6
  -1   4   3 15132.1 2291.63   6
   1  -4  -3 15962.4 1887.69   1
   1  -4  -2 16217.8 1954.80   1
  -1   4   2 17748.3 2533.66   6
   1  -4  -1 6554.21 1233.85   1
  -1   4   1 5297.05 1399.29   6
  -1   4   0 10734.2 1978.67   6
   1  -4   0 9661.33 1515.12   1
  -1   4  -1 9367.15 1885.34   6
   1  -4   1 8895.54 1478.97   1
   1  -4   2 13412.6 1340.77   3
   1  -4   2 12594.0 1777.43   1
  -1   4  -2 13574.6 2342.29   6
  -1   4  -3 20563.8 3090.50   6
   1  -4   3 23986.2 1948.50   3
  -1   4  -4 10729.7 2300.60   6
   1  -4   4 10699.2 1395.81   3
  -1   4  -5 4863.61 1606.37   6
  -1   4  -6 2570.99 1111.24   6
  -1   4  -7 5265.50 1917.69   6
  -1   4  -8 1156.79 715.211   6
  -1   4  -9 1868.21 1054.29   6
  -1   4 -10 49.9897 252.492   6
  -1   4 -11 1030.08 874.590   6
  -1   4 -12 1881.22 1253.30   6
  -1   4 -13 4751.01 1986.24   6
  -1   4 -14 4824.81 2158.71   6
  -1   4 -15 2340.53 1479.11   6
  -1   4 -16 7477.30 2721.57   6
  -1   4 -17 4480.47 2258.97   6
  -1   4 -18 4133.80 2297.26   5
  -1   4 -18 5738.97 2465.47   6
  -1   4 -19-1324.94 1288.18   5
  -1   4 -20 374.865 928.451   5
  -1   4 -21 6692.20 3359.69   5
  -1   4 -22-2775.95 1945.31   5
   1  -3 -24 2534.17 1290.52   3
   1  -3 -23 909.717 789.642   3
   1  -3 -22 1183.02 851.721   3
   1  -3 -21 1364.86 925.012   5
   1  -3 -21 66.7762 657.600   3
   1  -3 -20-229.594 409.435   3
   1  -3 -20 303.238 492.109   5
   1  -3 -19 2370.07 1072.66   3
   1  -3 -19 813.081 684.506   5
   1  -3 -18 3760.34 1417.97   5
   1  -3 -18 4980.05 1531.76   3
   1  -3 -17 9412.22 2021.35   3
   1  -3 -17 6305.59 1722.91   5
   1  -3 -16 5955.83 1521.85   3
   1  -3 -16 6583.50 1700.72   5
   1  -3 -15 1066.00 616.996   3
   1  -3 -15 1225.98 724.138   5
   1  -3 -14 8941.38 1883.55   5
   1  -3 -14 11820.6 2039.61   3
   1  -3 -13 26172.3 3139.73   5
   1  -3 -13 30056.7 3122.59   3
   1  -3 -12 5689.48 1279.48   3
   1  -3 -12 5300.09 1363.78   5
   1  -3 -12 4334.79 484.578   4
   1  -3 -11 1330.70 614.271   5
   1  -3 -11 350.385 335.906   3
   1  -3 -10 2455.13 840.917   5
   1  -3 -10 2555.44 781.990   3
   1  -3  -9 6659.60 1420.35   5
   1  -3  -9 6342.34 1164.43   3
   1  -3  -8 6845.74 1142.72   3
   1  -3  -8 8682.27 1538.09   5
  -1   3   8 10013.2 1226.35   3
  -1   3   8 7006.78 1470.69   6
  -1   3   7 8364.29 1558.23   6
   1  -3  -7 8296.39 1135.96   3
   1  -3  -6 5073.27 806.977   3
  -1   3   6 6496.01 1328.01   6
   1  -3  -5 3313.48 583.866   3
  -1   3   5 2011.17 288.210   4
  -1   3   5 3207.10 948.831   6
  -1   3   4 6971.18 1317.27   6
   1  -3  -4 6715.20 740.972   3
   1  -3  -3 14376.3 1587.93   1
  -1   3   3 16143.8 2086.08   6
   1  -3  -3 17062.7 1064.31   3
  -1   3   2 2538.54 805.145   6
   1  -3  -2 2185.34 635.673   1
  -1   3   1 314.478 299.239   6
   1  -3  -1 174.743 212.435   1
   1  -3   0 5322.85 1007.65   1
  -1   3   0 5736.97 1222.58   6
  -1   3  -1 6756.21 1386.91   6
   1  -3   1 7811.71 816.884   3
   1  -3   1 8803.65 1341.16   1
   1  -3   2 29803.2 1828.65   3
  -1   3  -2 25600.6 2921.88   6
  -1   3  -3 44744.5 3951.29   6
   1  -3   3 44903.2 2506.56   3
   1  -3   4 31503.2 2277.42   3
  -1   3  -4 31200.6 3502.47   6
   1  -3   5 32792.1 2498.18   3
  -1   3  -5 32770.4 3755.83   6
  -1   3  -6 30490.6 3752.27   6
  -1   3  -7 22754.3 3370.94   6
  -1   3  -8 2629.38 1296.43   6
  -1   3  -9-654.975 606.237   6
  -1   3 -10-127.643 330.853   6
  -1   3 -11 4747.75 1772.49   6
  -1   3 -12 442.411 791.773   6
  -1   3 -13 1057.58 899.046   6
  -1   3 -14 1949.41 1235.28   6
  -1   3 -15 9515.38 2854.37   6
  -1   3 -16-508.899 705.021   6
  -1   3 -16 891.505 913.300   5
  -1   3 -17 243.742 861.288   5
  -1   3 -18 204.623 839.818   5
  -1   3 -19-1076.73 1128.68   5
  -1   3 -20 3134.87 2013.21   5
  -1   3 -21 1894.29 1496.41   5
  -1   3 -22-535.323 881.214   5
  -1   3 -23 1772.06 1504.21   5
   1  -2 -24 4842.92 1800.67   3
   1  -2 -23 9187.08 2411.19   3
   1  -2 -23 2967.44 1468.57   5
   1  -2 -22 2224.35 1247.42   5
   1  -2 -22 3638.27 1348.20   3
   1  -2 -21 781.796 727.955   3
   1  -2 -21 2289.51 1162.10   5
   1  -2 -20 10301.0 2315.16   3
   1  -2 -20 5699.96 1840.05   5
   1  -2 -19 9590.06 2168.00   3
   1  -2 -19 9286.20 2308.80   5
   1  -2 -18 2082.52 969.038   3
   1  -2 -18 1736.66 979.260   5
   1  -2 -17 1892.70 982.009   5
   1  -2 -17 977.688 742.805   3
   1  -2 -16 158.880 573.903   5
   1  -2 -16-519.233 481.126   3
   1  -2 -15-396.264 414.878   3
   1  -2 -15 408.368 319.102   5
   1  -2 -14 817.920 470.319   3
   1  -2 -14 758.824 329.844   4
   1  -2 -14-18.3077 487.196   5
   1  -2 -13 2602.49 909.562   3
   1  -2 -13 2554.15 1149.76   5
   1  -2 -13 3524.25 665.146   4
   1  -2 -12 4749.00 715.580   4
   1  -2 -12 4851.78 1342.49   5
   1  -2 -12 4171.66 1130.64   3
   1  -2 -11 15621.6 2220.61   5
   1  -2 -11 16038.8 1221.39   4
   1  -2 -11 15855.8 2096.50   3
   1  -2 -10 10087.6 1727.74   5
   1  -2 -10 9427.16 1516.15   3
   1  -2 -10 11407.2 914.783   4
   1  -2  -9 23817.0 2579.98   5
   1  -2  -9 22963.4 2218.64   3
   1  -2  -9 22818.6 1155.62   4
   1  -2  -8 21574.1 1997.19   3
  -1   2   8 23014.2 1922.27   3
   1  -2  -8 17647.2 2126.23   5
   1  -2  -8 17480.5 844.446   4
   1  -2  -7 13813.6 1832.32   5
  -1   2   7 16655.0 1502.05   3
   1  -2  -7 15380.2 1553.94   3
   1  -2  -6 38752.5 2945.56   5
  -1   2   6 35694.8 2043.48   3
  -1   2   6 32985.4 2900.65   5
   1  -2  -6 37215.3 2250.58   3
  -1   2   5 24883.3 1509.73   3
   1  -2  -5 27018.4 2328.40   5
   1  -2  -5 24061.0 1601.21   3
  -1   2   5 22718.6 2279.45   5
   1  -2  -4 13282.3 1019.31   3
  -1   2   4 14759.5 1669.53   6
  -1   2   4 12636.8 1595.05   5
  -1   2   4 15148.5 1008.71   3
  -1   2   4 16149.0 1503.41   1
  -1   2   3 4685.35 797.113   1
  -1   2   3 4836.47 957.957   5
  -1   2   3 4838.44 917.218   6
   1  -2  -3 4309.41 477.280   3
  -1   2   2 5281.06 980.002   6
  -1   2   2 4438.99 771.667   1
   1  -2  -2 4528.27 831.855   6
  -1   2   2 4298.09 864.545   5
   1  -2  -2 4032.70 364.455   3
   1  -2  -2 4160.34 731.360   1
   1  -2  -1 1356.33 439.243   1
  -1   2   1 1624.14 479.781   1
   1  -2  -1 1339.74 447.595   6
  -1   2   1 1965.70 595.758   6
   1  -2   0 2828.71 671.621   6
  -1   2   0 1658.67 573.137   6
   1  -2   0 1666.75 268.450   3
   1  -2   0 2642.19 604.087   1
  -1   2  -1 1920.23 685.829   6
   1  -2   1 2978.56 640.493   1
   1  -2   1 3168.07 452.785   3
   1  -2   1 3162.52 786.445   6
  -1   2  -2 3720.85 912.915   6
   1  -2   2 2414.94 475.298   3
   1  -2   2 1827.52 588.725   6
   1  -2   3 247.307 286.642   6
  -1   2  -3 635.837 409.766   6
   1  -2   3 821.361 335.479   3
  -1   2  -4 447.301 253.852   3
  -1   2  -4 836.991 565.174   6
   1  -2   4 407.792 447.242   6
   1  -2   4 465.229 265.077   3
  -1   2  -5 19.8666 135.805   3
   1  -2   5 657.984 323.065   3
  -1   2  -5 598.139 478.719   6
  -1   2  -6 494.516 521.512   6
   1  -2   6 445.853 297.103   3
  -1   2  -6 345.714 310.519   3
  -1   2  -7 3919.09 916.203   3
  -1   2  -7 4508.82 1314.85   6
  -1   2  -8 698.145 642.806   6
  -1   2  -8 629.152 389.379   3
  -1   2  -9 1257.57 831.141   6
  -1   2  -9 1258.89 579.476   3
  -1   2 -10 9349.34 2260.60   6
  -1   2 -10 12552.4 1857.79   3
  -1   2 -11 21470.1 2565.29   3
  -1   2 -11 19842.0 3437.53   6
  -1   2 -12 21946.4 2708.79   3
  -1   2 -12 16233.9 3194.87   6
  -1   2 -13 14905.6 2322.54   3
  -1   2 -13 15030.3 3177.91   6
  -1   2 -14 25155.1 4279.51   6
  -1   2 -14 25397.0 3174.37   3
  -1   2 -15 9885.32 2846.43   5
  -1   2 -15 14491.3 2499.72   3
   1  -2  15 13959.0 1198.07   2
  -1   2 -16 7386.68 1848.72   3
  -1   2 -16 8038.79 2501.82   5
  -1   2 -17 31.5298 400.523   3
  -1   2 -17 1225.44 1030.79   5
  -1   2 -18 1280.33 1066.87   5
  -1   2 -18 294.672 432.965   3
  -1   2 -19-329.757 470.624   3
  -1   2 -19-421.348 690.482   5
  -1   2 -20 884.588 1072.72   5
  -1   2 -20 476.456 532.657   3
  -1   2 -21 4666.75 2015.04   5
  -1   2 -21 1260.85 765.882   3
  -1   2 -22-281.414 702.315   5
  -1   2 -22 716.063 728.618   3
  -1   2 -23 1454.79 1297.85   5
  -1   2 -24-432.282 807.131   5
  -1   2 -25 2975.02 1886.71   5
   1  -1 -25 1691.14 1231.24   5
   1  -1 -24 509.299 701.729   5
   1  -1 -23 2614.18 1293.90   3
   1  -1 -23 2092.57 1307.61   5
   1  -1 -22-380.897 601.475   5
   1  -1 -22 16.5171 574.377   3
   1  -1 -21 392.394 706.832   5
   1  -1 -21 2087.47 1068.30   3
   1  -1 -20 8247.57 2417.79   5
   1  -1 -20 11266.4 2412.26   3
   1  -1 -19 6837.00 1853.29   3
   1  -1 -19 4257.24 1673.42   5
   1  -1 -18 6987.75 1787.19   3
   1  -1 -18 7236.72 2116.84   5
   1  -1 -17 7087.23 1714.33   3
   1  -1 -17 6912.88 1990.47   5
   1  -1 -16 15284.6 2484.28   3
   1  -1 -16 9623.64 2213.17   5
   1  -1 -15 22073.9 3213.02   5
   1  -1 -15 23170.5 2964.79   3
   1  -1 -14 5633.32 1650.96   5
   1  -1 -14 7477.27 1642.66   3
   1  -1 -13 7460.97 1547.19   3
   1  -1 -13 6160.08 1614.41   5
   1  -1 -13 5506.49 524.358   2
   1  -1 -12 16754.5 2187.20   3
   1  -1 -12 17984.9 2617.12   5
   1  -1 -12 17769.3 1078.08   2
   1  -1 -11 10366.4 1907.14   5
   1  -1 -11 11209.7 1719.48   3
   1  -1 -10 3525.89 917.523   3
   1  -1 -10 2222.07 882.797   5
   1  -1  -9 688.947 472.839   5
   1  -1  -9 1086.55 484.732   3
   1  -1  -8 392.239 315.662   5
   1  -1  -8 20.2046 238.054   3
  -1   1   8 192.059 193.826   3
   1  -1  -7 3802.53 963.696   5
   1  -1  -7 2749.81 716.318   3
  -1   1   7 2808.81 920.622   5
  -1   1   7 2302.65 607.593   3
   1  -1  -6 10164.3 1184.80   3
  -1   1   6 9918.98 1505.08   5
  -1   1   6 9041.51 1087.20   3
   1  -1  -6 10459.3 1447.73   5
  -1   1   5 13072.2 1608.21   5
   1  -1  -5 14760.7 1271.84   3
   1  -1  -5 13084.6 1513.70   5
  -1   1   5 13041.1 1185.06   3
  -1   1   4 14373.9 1590.04   5
   1  -1  -4 15372.4 1144.36   3
   1  -1  -4 15261.1 1539.40   5
  -1   1   4 14124.8 1076.88   3
   1  -1  -3 16210.0 1562.06   5
   1  -1  -3 17653.1 1006.14   3
  -1   1   3 15755.1 1572.98   5
  -1   1   3 17821.0 1015.48   3
  -1   1   2 14310.8 1403.39   5
   1  -1  -2 15736.2 1433.30   5
  -1   1   2 16221.1 1316.15   6
   1  -1  -1 25339.9 1588.50   6
  -1   1   1 22232.2 1498.40   6
  -1   1   1 25220.1 1493.02   1
  -1   1   1 25056.9 1721.35   5
   1  -1   0 30097.7 1583.43   1
  -1   1   0 30488.9 1671.15   1
  -1   1   0 27345.7 1754.24   6
   1  -1   0 25602.8 1699.33   6
   1  -1   1 31939.6 2002.20   6
   1  -1   1 32619.2 1733.35   1
  -1   1  -1 40819.2 1456.45   3
   1  -1   1 40041.0 1408.90   3
  -1   1  -1 30104.2 1979.67   6
   1  -1   2 38089.9 1700.19   3
  -1   1  -2 30011.8 2223.78   6
  -1   1  -2 40350.7 1765.20   3
   1  -1   2 30088.6 2080.11   6
  -1   1  -3 24373.3 1555.30   3
   1  -1   3 19702.3 1801.89   6
  -1   1  -3 17648.8 1796.83   6
   1  -1   3 21692.8 1476.68   3
  -1   1  -4 15267.7 1822.51   6
  -1   1  -4 17386.0 1468.46   3
   1  -1   4 15352.7 1388.72   3
   1  -1   4 16468.7 1800.54   6
   1  -1   5 15633.4 1560.65   3
  -1   1  -5 17235.9 1613.88   3
   1  -1   5 17228.4 1987.83   6
  -1   1  -5 13211.1 1840.74   6
  -1   1  -6 2188.61 822.719   6
   1  -1   6 3655.44 971.615   6
   1  -1   6 2569.98 710.032   3
  -1   1  -6 3443.26 788.910   3
   1  -1   7 7646.06 1513.83   6
  -1   1  -7 8238.82 1304.68   3
  -1   1  -7 7952.49 1630.51   6
  -1   1  -8 5774.84 1495.41   6
  -1   1  -8 6779.86 1267.87   3
  -1   1  -9 3841.86 1025.87   3
  -1   1  -9 2041.12 924.500   6
  -1   1 -10-318.622 389.870   6
  -1   1 -10 330.492 433.617   3
   1  -1  11-36.5308 59.4303   2
  -1   1 -11-36.3199 206.397   3
  -1   1 -12 170.705 240.607   3
   1  -1  12 2.38973 28.0743   2
  -1   1 -12 379.236 710.075   5
   1  -1  13 744.494 195.566   2
  -1   1 -13 744.866 541.510   3
  -1   1 -13 1204.95 1022.08   5
  -1   1 -14 6360.09 1623.71   3
  -1   1 -14 5545.14 1932.58   5
  -1   1 -15 10117.5 2640.01   5
  -1   1 -15 12642.3 2345.67   3
  -1   1 -16 986.278 481.491   3
  -1   1 -16 861.855 1214.98   5
  -1   1 -17-161.958 359.374   3
  -1   1 -17 248.268 510.659   5
  -1   1 -18 1601.85 929.765   3
  -1   1 -18 3256.12 1659.43   5
  -1   1 -19 5026.19 2010.58   5
  -1   1 -19 4984.29 1635.77   3
  -1   1 -20 2094.54 1768.36   5
  -1   1 -20 3269.13 1358.18   3
  -1   1 -21 2801.22 1317.47   3
  -1   1 -21 3908.97 1822.79   5
  -1   1 -22 4465.80 2192.06   5
  -1   1 -22 11618.9 2812.80   3
  -1   1 -23 6785.11 2476.39   5
  -1   1 -23 6325.95 2055.65   3
  -1   1 -24 459.749 790.361   5
  -1   1 -25-123.947 580.666   5
   1   0 -25-486.139 755.116   5
   1   0 -24-1312.38 1123.84   5
   1   0 -23 493.696 698.793   5
   1   0 -22 2693.69 1496.39   5
   1   0 -21 1069.88 976.993   5
   1   0 -20-191.822 522.076   3
   1   0 -20 733.779 780.276   5
   1   0 -19 4160.32 1426.20   3
   1   0 -19 2970.40 1452.71   5
   1   0 -18 451.516 490.398   3
   1   0 -18 348.391 547.240   5
   1   0 -17 180.374 257.815   3
   1   0 -17 256.949 672.859   5
   1   0 -16 6449.57 1592.47   3
   1   0 -16 5180.56 1751.36   5
   1   0 -15 7986.63 2031.32   5
   1   0 -15 8841.06 1853.26   3
   1   0 -14 2310.12 870.954   3
   1   0 -14 1118.43 724.504   5
   1   0 -13 2741.68 944.544   3
   1   0 -13 1406.48 932.672   5
   1   0 -12 15481.6 2137.01   3
   1   0 -12 14803.3 2583.01   5
   1   0 -11 19969.9 2339.81   3
   1   0 -11 18503.8 2785.59   5
   1   0 -10 20601.2 2256.94   3
   1   0 -10 22250.0 2934.41   5
   1   0  -9 13994.0 1759.57   3
   1   0  -9 18417.8 2528.72   5
   1   0  -8 33550.3 1381.79   2
   1   0  -8 36674.6 2667.23   3
   1   0  -8 33457.9 3216.29   5
   1   0  -7 44306.3 3529.05   5
   1   0  -7 45926.2 1640.68   2
  -1   0   7 44380.9 2824.03   3
   1   0  -7 45450.9 2803.82   3
  -1   0   7 42736.2 3576.82   5
   1   0  -6 19571.4 1663.24   3
  -1   0   6 19155.0 2176.96   5
   1   0  -6 18637.8 2098.62   5
  -1   0   6 18871.4 1665.71   3
   1   0  -6 19021.3 1006.50   2
  -1   0   5 14009.3 1751.82   5
   1   0  -5 14254.1 1679.37   5
   1   0  -5 14757.5 887.840   2
  -1   0   5 14070.4 1319.27   3
   1   0  -5 13027.6 1246.40   3
  -1   0   4 14713.1 1198.53   3
   1   0  -4 14236.6 1576.87   5
   1   0  -4 16484.7 959.960   2
  -1   0   4 15391.7 1688.60   5
   1   0  -3 5280.21 851.922   5
   1   0  -3 6426.44 592.361   2
  -1   0   3 4812.09 844.902   5
  -1   0   3 4812.38 574.555   3
   1   0  -2 2208.34 351.531   2
   1   0  -2 1526.60 417.772   5
  -1   0   2 1968.74 467.925   5
  -1   0   1 290.234 101.560   4
  -1   0  -1 7433.28 641.377   6
  -1   0  -1 8756.59 568.331   1
  -1   0  -2 15899.2 1150.75   6
  -1   0  -2 20920.4 1201.58   3
   1   0   3 22591.9 1422.67   3
  -1   0  -3 24354.8 1503.04   3
   1   0   3 22413.8 1631.91   6
  -1   0  -3 22306.3 1664.09   6
   1   0   3 23244.5 1192.94   2
  -1   0  -4 15514.0 1364.42   3
  -1   0  -4 16434.7 1621.04   6
   1   0   4 14567.0 1308.26   3
   1   0   4 18424.1 1706.68   6
   1   0   4 15165.7 946.978   2
  -1   0  -5 10026.2 1390.43   6
   1   0   5 9690.02 731.415   2
   1   0   5 9559.61 1384.31   6
   1   0   5 7551.48 1030.06   3
  -1   0  -5 10978.5 1270.64   3
   1   0   6 8199.45 668.376   2
   1   0   6 11062.8 1675.89   6
  -1   0  -6 8908.83 1243.78   3
   1   0   6 8181.05 1152.68   3
   1   0   7 1118.93 592.394   6
   1   0   7 607.206 343.135   3
  -1   0  -7 488.912 379.501   3
   1   0   7 641.792 191.407   2
   1   0   8 11719.0 1974.09   6
   1   0   8 11298.9 799.948   2
  -1   0  -8 11393.6 1621.70   3
  -1   0  -9 23242.8 2424.26   3
  -1   0  -9 15453.4 2280.47   5
  -1   0 -10 7794.65 1485.79   3
  -1   0 -10 8909.07 1822.51   5
  -1   0 -11 2273.17 907.182   5
  -1   0 -11 2219.91 843.512   3
  -1   0 -12 6211.74 1675.58   5
  -1   0 -12 7324.47 1583.56   3
  -1   0 -13 7821.57 1696.96   3
  -1   0 -13 9512.25 2152.98   5
  -1   0 -14 2188.18 1188.12   5
  -1   0 -14 909.276 595.093   3
  -1   0 -15 994.894 782.651   3
  -1   0 -15 1364.66 867.995   5
  -1   0 -16 3296.32 1415.22   5
  -1   0 -16 4963.79 1548.23   3
  -1   0 -17 1807.57 1066.92   5
  -1   0 -17 204.048 513.791   3
  -1   0 -18-714.149 639.682   3
  -1   0 -18 1178.56 899.207   5
  -1   0 -19 1876.56 1145.75   5
  -1   0 -19 242.215 447.822   3
  -1   0 -20 457.277 579.574   3
  -1   0 -20 197.528 456.118   5
  -1   0 -21 24.9352 418.144   3
  -1   0 -21 954.338 869.421   5
  -1   0 -22 5681.59 1891.16   3
  -1   0 -22 5647.70 2077.59   5
  -1   0 -23 6624.18 2313.31   5
  -1   0 -23 6582.43 2100.31   3
  -1   0 -24 1446.20 1047.77   3
   1   1 -25 8484.94 2936.08   5
   1   1 -24 5020.62 2629.08   5
   1   1 -23 8412.14 2809.11   5
   1   1 -22 18360.6 4128.81   5
   1   1 -21 11040.1 3064.60   5
   1   1 -20 2212.19 1380.84   5
   1   1 -19 1611.36 1160.05   5
   1   1 -18 2196.21 1120.40   5
   1   1 -17 1040.44 893.020   5
   1   1 -16 536.232 561.180   5
   1   1 -15 11.1417 278.069   5
   1   1 -14 1374.94 788.841   5
   1   1 -14 1872.33 859.292   3
   1   1 -13 1435.72 1019.91   5
   1   1 -13 301.630 189.401   3
   1   1 -12 2747.78 1197.01   5
   1   1 -12 3025.44 941.362   3
   1   1 -11 3368.99 1375.42   5
   1   1 -11 5431.68 1233.84   3
  -1  -1  10 6677.30 599.787   2
   1   1 -10 5338.33 1741.23   5
   1   1  -9 14077.5 2452.34   5
  -1  -1   9 13133.7 879.761   2
   1   1  -8 16543.0 2494.99   5
  -1  -1   8 14648.5 968.990   2
  -1  -1   7 14668.3 1015.00   2
  -1  -1   7 14628.3 1632.39   3
   1   1  -7 14538.7 2235.16   5
   1   1  -6 6466.54 1426.69   5
  -1  -1   6 5752.13 1311.98   6
  -1  -1   6 4531.81 1200.13   5
  -1  -1   6 6668.22 988.647   3
  -1  -1   6 6678.06 704.024   2
  -1  -1   5 8562.34 814.110   2
  -1  -1   5 8307.59 1459.98   6
   1   1  -5 11123.4 1732.50   5
  -1  -1   5 8165.22 1033.87   3
  -1  -1   5 9930.42 1620.99   5
  -1  -1   4 18098.0 2059.11   5
  -1  -1   4 16209.9 1831.47   6
   1   1  -4 15715.3 1920.64   5
   1   1  -4 17717.8 1957.10   6
   1   1  -3 24089.1 2161.23   5
   1   1  -3 19628.6 1850.13   6
  -1  -1   3 25590.8 2267.81   5
  -1  -1   3 19119.5 1803.04   6
   1   1  -2 24030.2 1943.74   5
   1   1  -2 20246.5 1635.46   6
  -1  -1   2 22827.3 1910.33   5
  -1  -1   2 19424.4 1540.27   6
  -1  -1   1 36023.8 2144.09   5
  -1  -1   1 25793.5 1517.65   6
  -1  -1   0 39499.2 1869.20   5
   1   1   0 26463.2 1292.80   4
   1   1   1 17594.3 1046.19   4
  -1  -1  -2 12974.3 940.398   4
   1   1   2 13913.3 1020.93   4
   1   1   3 17135.8 1227.86   4
  -1  -1  -3 15990.5 1239.19   3
  -1  -1  -3 17498.6 1185.14   4
   1   1   4 5106.88 777.301   3
  -1  -1  -4 6892.09 701.116   5
  -1  -1  -4 6831.97 891.023   3
  -1  -1  -4 7220.14 825.218   4
  -1  -1  -5 364.824 224.671   4
  -1  -1  -5 575.543 281.790   5
   1   1   5 425.795 230.381   3
  -1  -1  -5 673.851 329.206   3
  -1  -1  -6 156.937 273.629   3
   1   1   6 164.386 158.341   3
  -1  -1  -6 337.305 263.196   4
  -1  -1  -6 12.8540 112.590   5
  -1  -1  -6 183.270 143.217   2
  -1  -1  -7 6726.06 1076.90   5
  -1  -1  -7 5939.06 1078.09   3
   1   1   7 6288.37 1057.51   3
  -1  -1  -7 6357.09 676.257   2
  -1  -1  -8 9786.24 1486.63   3
  -1  -1  -8 9247.88 787.560   2
  -1  -1  -8 11890.5 1572.53   5
  -1  -1  -9 7778.09 1388.16   3
  -1  -1  -9 6765.56 1275.23   5
  -1  -1  -9 7807.39 689.106   2
  -1  -1 -10 15961.4 2105.86   3
  -1  -1 -10 15777.9 2098.27   5
  -1  -1 -10 16965.5 994.563   2
  -1  -1 -11 22278.5 2643.06   5
  -1  -1 -11 22214.4 2629.59   3
  -1  -1 -11 21382.9 1081.83   2
  -1  -1 -12 14365.9 2181.93   3
  -1  -1 -12 10442.7 1865.68   5
  -1  -1 -13 9419.35 1844.14   3
  -1  -1 -13 9137.98 1883.14   5
  -1  -1 -14 2226.97 932.557   3
  -1  -1 -14 3317.40 1319.61   5
  -1  -1 -15 426.970 516.407   3
  -1  -1 -15 364.762 352.552   5
  -1  -1 -16 5678.86 1586.75   3
  -1  -1 -16 4403.27 1379.66   5
  -1  -1 -17 3842.59 1450.26   3
  -1  -1 -17 4822.62 1680.69   5
  -1  -1 -18 54.8469 955.085   3
  -1  -1 -18-645.685 624.804   5
  -1  -1 -19-129.882 366.999   5
  -1  -1 -19 1634.28 1000.02   3
  -1  -1 -20 904.627 774.713   5
  -1  -1 -20 1106.85 811.557   3
  -1  -1 -21 588.942 654.196   5
  -1  -1 -21 1545.87 1051.72   3
  -1  -1 -22 606.265 533.918   3
  -1  -1 -22 248.912 470.793   5
  -1  -1 -23 955.261 801.075   3
  -1  -1 -24 153.249 816.481   3
   1   2 -24 1076.88 1133.69   5
   1   2 -23 3256.39 1854.58   5
   1   2 -22 3463.60 1866.37   5
   1   2 -21 3044.90 1387.53   5
   1   2 -20-117.640 501.892   5
   1   2 -19 2116.85 1515.62   5
   1   2 -18 8649.47 2713.46   5
   1   2 -17 2989.05 1545.40   5
   1   2 -16 4882.93 1874.17   5
   1   2 -15 26769.4 4342.41   5
  -1  -2  14 46841.3 1856.02   2
   1   2 -14 46487.1 5627.29   5
  -1  -2  13 31766.8 1661.93   2
   1   2 -13 35404.0 4770.98   5
  -1  -2  12 12117.2 1082.85   2
   1   2 -12 14421.3 2978.84   5
   1   2 -11 13673.5 2774.46   5
   1   2 -10 11924.3 2464.33   5
   1   2  -9 2994.41 1289.98   6
   1   2  -9 2224.02 1095.50   5
   1   2  -8 693.627 523.336   6
   1   2  -8 888.272 606.120   5
   1   2  -7 6646.53 1607.21   6
   1   2  -7 4873.79 1432.12   5
  -1  -2   6-25.8257 122.565   6
   1   2  -6 143.957 385.419   6
   1   2  -6 628.572 538.999   5
  -1  -2   5 1463.03 652.997   6
   1   2  -5 1480.02 653.787   6
   1   2  -4 5582.42 1187.73   6
  -1  -2   4 5649.54 1204.80   6
   1   2  -3 10253.7 1480.25   6
  -1  -2   3 12107.3 1596.07   6
   1   2  -2 6256.88 1093.45   6
  -1  -2   2 6160.57 1069.21   6
   1   2  -1 15984.8 1622.76   6
  -1  -2   1 16638.9 1566.91   6
   1   2   0 17764.0 1538.60   6
  -1  -2   0 19475.4 1498.51   6
   1   2   1 22520.9 1428.32   4
  -1  -2  -1 23175.7 1507.97   6
   1   2   1 22022.3 1586.42   6
  -1  -2  -2 12211.1 1055.44   6
   1   2   2 10691.1 1051.06   6
   1   2   2 12807.6 1060.34   4
   1   2   3 10624.1 764.497   5
  -1  -2  -3 12291.7 901.654   1
   1   2   3 13206.6 1167.37   6
   1   2   3 12373.3 1070.64   4
  -1  -2  -3 13099.4 1072.22   4
  -1  -2  -4 14299.8 1140.06   4
   1   2   4 12427.4 899.574   5
   1   2   4 15220.1 1275.00   4
  -1  -2  -4 14081.5 888.512   1
  -1  -2  -4 15463.1 1417.16   3
  -1  -2  -5 16867.3 1598.41   3
  -1  -2  -5 13634.8 1039.60   5
  -1  -2  -5 16690.8 1293.54   4
   1   2   5 15588.6 1368.32   4
   1   2   5 15515.7 1167.69   5
  -1  -2  -6 18326.0 1431.48   4
   1   2   6 17280.5 1453.79   5
   1   2   6 18134.8 1578.09   4
  -1  -2  -6 16238.2 1267.52   5
   1   2   6 19834.6 1149.74   1
  -1  -2  -6 20512.8 1859.09   3
  -1  -2  -7 25983.6 1821.11   4
  -1  -2  -7 24367.5 1696.22   5
   1   2   7 22552.5 1892.17   5
   1   2   7 26846.2 1385.86   1
  -1  -2  -7 23998.1 2203.91   3
   1   2   8 4789.17 975.639   5
  -1  -2  -8 6115.36 917.054   5
  -1  -2  -8 6249.02 927.490   4
  -1  -2  -8 6025.12 1141.03   3
  -1  -2  -9 3588.59 756.251   4
  -1  -2  -9 4381.05 1056.42   3
   1   2   9 3172.32 904.474   5
  -1  -2  -9 3745.65 780.911   5
  -1  -2 -10 6849.49 1065.80   4
   1   2  10 3900.31 1034.91   5
  -1  -2 -10 6188.79 1076.65   5
  -1  -2 -10 6835.60 1402.22   3
  -1  -2 -11 1639.35 601.502   5
  -1  -2 -11 1593.58 688.637   3
  -1  -2 -12-146.654 223.383   5
  -1  -2 -12 39.7359 73.1328   2
  -1  -2 -12 42.1819 186.529   3
  -1  -2 -13-140.158 114.420   2
  -1  -2 -13-56.3906 423.026   3
  -1  -2 -14 202.044 104.728   2
  -1  -2 -14 170.732 410.935   3
  -1  -2 -14 753.877 553.426   5
  -1  -2 -15 2445.28 1038.11   5
  -1  -2 -15 4318.72 1437.49   3
  -1  -2 -16 5898.26 1435.79   5
  -1  -2 -16 5010.77 1598.46   3
  -1  -2 -17 2837.32 1034.64   5
  -1  -2 -17 2878.52 1257.65   3
  -1  -2 -18 2917.47 1079.04   5
  -1  -2 -18 2740.49 1279.82   3
  -1  -2 -19 3668.75 1299.00   5
  -1  -2 -19 8968.03 2241.90   3
  -1  -2 -20 5588.67 1865.34   3
  -1  -2 -20 3730.40 1357.96   5
  -1  -2 -21 10430.0 2544.67   3
  -1  -2 -22 2115.98 1209.41   3
  -1  -2 -23-252.087 524.168   3
  -1  -2 -24 1491.19 1120.90   3
   1   3 -23 401.743 846.919   5
   1   3 -22 890.850 1067.50   5
   1   3 -21 806.920 969.934   5
   1   3 -20 8911.91 3105.82   5
   1   3 -19 2316.72 1522.67   5
   1   3 -18 366.742 665.056   5
   1   3 -17 789.672 905.067   5
   1   3 -16-470.094 703.119   5
   1   3 -15 2076.52 1264.10   5
   1   3 -14 8656.52 2527.50   5
   1   3 -13 12998.1 3086.72   5
   1   3 -13 16529.2 3427.71   6
   1   3 -12 4402.04 1735.51   6
   1   3 -12 3403.30 1418.56   5
   1   3 -11 4388.41 1651.01   5
   1   3 -11 3632.92 1455.46   6
   1   3 -10 21968.1 3527.37   5
   1   3 -10 22393.2 3592.04   6
   1   3  -9 7710.81 2087.76   6
   1   3  -9 10269.9 2355.38   5
   1   3  -8 8517.58 2052.89   6
   1   3  -7 11633.4 2263.61   6
   1   3  -6 53764.2 4629.21   6
   1   3  -5 38374.8 3697.17   6
   1   3  -4 21446.0 2682.06   6
  -1  -3   3 17159.1 2104.12   6
   1   3  -3 16627.7 2241.27   6
   1   3  -2 6571.68 1393.47   6
  -1  -3   2 8497.80 1377.91   6
  -1  -3   1 2712.82 724.263   6
   1   3  -1 2895.54 891.483   6
  -1  -3   0 871.873 423.465   6
   1   3   0 727.544 410.988   6
  -1  -3  -1 1175.00 409.416   6
   1   3   1 1080.86 512.808   6
   1   3   2 3963.84 668.541   4
  -1  -3  -2 3662.39 775.410   6
   1   3   2 3585.17 816.096   6
  -1  -3  -3 5171.76 789.969   1
   1   3   3 5635.91 788.036   4
   1   3   3 4416.64 886.587   6
  -1  -3  -3 5870.00 943.549   6
  -1  -3  -4 9669.78 1027.21   1
   1   3   4 9659.63 1037.83   5
   1   3   4 11041.5 1128.16   4
   1   3   4 10951.1 1413.95   6
   1   3   5 6783.49 909.936   5
   1   3   5 7339.41 999.035   4
  -1  -3  -5 8490.09 1170.64   3
   1   3   5 8625.49 1259.47   6
  -1  -3  -5 7467.34 867.790   1
   1   3   6 5715.44 1066.81   6
   1   3   6 4631.83 795.166   4
   1   3   6 4674.74 789.172   5
  -1  -3  -6 5441.21 1010.89   3
  -1  -3  -6 4565.21 733.009   4
  -1  -3  -7 2936.42 594.934   4
  -1  -3  -7 3404.56 860.137   3
   1   3   7 3337.48 725.881   4
   1   3   7 2671.67 661.125   5
  -1  -3  -8 7383.57 1354.29   3
   1   3   8 9309.59 1039.41   1
   1   3   8 8339.53 1226.43   5
  -1  -3  -8 7688.34 994.569   4
  -1  -3  -9 9191.79 1199.66   5
  -1  -3  -9 8483.68 1469.51   3
   1   3   9 9923.38 1081.91   1
   1   3   9 8358.89 1349.27   5
  -1  -3  -9 9089.92 1124.80   4
   1   3  10 12544.2 1796.25   5
   1   3  10 16605.3 1427.53   1
  -1  -3 -10 13025.0 1406.97   4
  -1  -3 -10 13626.3 1951.22   3
  -1  -3 -10 13149.2 1553.86   5
  -1  -3 -11 8609.02 1310.80   5
   1   3  11 8494.97 1597.29   5
   1   3  11 9608.93 1100.18   1
  -1  -3 -11 8753.39 1677.88   3
  -1  -3 -12 12039.2 2030.68   3
  -1  -3 -12 8666.36 1391.54   5
   1   3  12 11175.9 1226.32   1
  -1  -3 -13 1236.86 527.477   5
  -1  -3 -13 855.531 491.930   3
   1   3  13 1216.66 422.364   1
  -1  -3 -14 7272.07 1417.72   5
  -1  -3 -14 6989.17 1727.75   3
  -1  -3 -15 10502.8 1724.16   5
  -1  -3 -15 15211.7 2599.77   3
  -1  -3 -16 1731.81 914.850   3
  -1  -3 -16 2021.44 836.577   5
  -1  -3 -17 195.620 306.812   5
  -1  -3 -17-252.798 400.476   3
  -1  -3 -18-106.427 547.776   3
  -1  -3 -18 394.440 432.790   5
  -1  -3 -19 593.277 437.248   3
  -1  -3 -20-146.747 416.130   3
  -1  -3 -21 1479.79 1053.22   3
  -1  -3 -22 690.615 738.575   3
  -1  -3 -23 2285.13 1300.81   3
  -1  -3 -24 1636.86 494.647   3
   1   4 -22 3927.10 2183.25   5
   1   4 -21 2008.15 1558.00   5
   1   4 -20 14140.8 4068.88   5
   1   4 -19 7095.84 2706.03   5
   1   4 -18-334.429 737.386   5
   1   4 -17 4839.33 2174.02   5
   1   4 -16 2098.80 1428.96   5
   1   4 -15 1718.61 1290.64   6
   1   4 -15 3055.10 1688.83   5
   1   4 -14-1687.46 1217.66   5
   1   4 -14 482.975 649.064   6
   1   4 -13 1789.40 1114.64   5
   1   4 -13 1186.37 900.225   6
   1   4 -12 1764.38 1221.39   5
   1   4 -12 2071.28 1368.11   6
   1   4 -11 166.716 388.275   6
   1   4 -10 2421.12 1232.27   6
   1   4  -9 806.433 967.678   6
   1   4  -8 123.273 367.572   6
   1   4  -7 6221.28 1780.27   6
   1   4  -6 23814.2 3341.38   6
   1   4  -5 23380.8 3257.05   6
   1   4  -4 14366.4 2431.49   6
   1   4  -3 32724.5 3635.22   6
   1   4  -2 55285.5 4463.27   6
   1   4  -1 31967.5 3290.20   6
   1   4   0 8498.75 1599.51   6
   1   4   1 13990.9 1982.57   6
   1   4   2 2490.00 836.735   6
   1   4   3 6558.75 1309.78   6
  -1  -4  -3 4770.29 913.446   1
   1   4   3 5622.87 890.631   4
  -1  -4  -4 2572.00 649.223   1
   1   4   4 1703.04 494.378   4
   1   4   4 2507.64 798.833   6
   1   4   5 5671.25 1029.54   5
   1   4   5 4788.51 1120.83   6
  -1  -4  -5 6198.01 956.400   1
   1   4   5 5893.71 929.444   4
  -1  -4  -6 1832.65 583.710   3
   1   4   6 1448.79 488.689   4
   1   4   6 700.804 394.627   5
  -1  -4  -6 1040.01 388.774   1
   1   4   6 981.145 565.740   6
  -1  -4  -7 915.416 462.699   3
   1   4   7 553.609 391.407   6
   1   4   7 354.739 266.081   5
   1   4   7 955.867 423.238   4
  -1  -4  -8 716.007 400.968   3
   1   4   8 801.849 401.980   5
   1   4   8 971.133 435.461   4
   1   4   8 358.349 348.490   6
   1   4   9 715.832 462.994   6
   1   4   9 1162.15 467.553   4
   1   4   9 1224.04 544.446   5
  -1  -4  -9 892.192 389.394   4
  -1  -4  -9 1225.17 613.591   3
  -1  -4 -10 1249.65 606.767   3
   1   4  10 637.196 422.697   6
   1   4  10 764.302 453.075   5
   1   4  11 2071.59 599.803   1
   1   4  11 331.331 424.455   5
  -1  -4 -11 1317.86 641.655   3
  -1  -4 -12 4983.73 1318.35   3
  -1  -4 -13 10537.4 2043.14   3
  -1  -4 -13 9006.29 1523.77   5
  -1  -4 -14 4907.00 1386.24   3
  -1  -4 -14 3481.44 1039.50   5
  -1  -4 -15-62.3841 566.932   3
  -1  -4 -15-270.221 300.518   5
  -1  -4 -16 534.182 425.398   5
  -1  -4 -16 1512.75 940.526   3
  -1  -4 -17 7960.77 2012.57   3
  -1  -4 -18 3016.49 1414.78   3
  -1  -4 -19 1510.70 995.843   3
  -1  -4 -20 1808.00 1100.10   3
  -1  -4 -21 1499.18 1164.16   3
  -1  -4 -22 1335.98 994.983   3
  -1  -4 -23 2916.08 1357.67   3
   1   5 -20 4323.98 2346.35   5
   1   5 -19 1009.53 984.719   5
   1   5 -18-876.496 1073.48   5
   1   5 -17 8360.45 3056.92   5
   1   5 -17 9973.78 3391.39   6
   1   5 -16 21893.5 4756.27   6
   1   5 -16 22272.8 5138.45   5
   1   5 -15 14198.2 3911.25   5
   1   5 -15 21123.9 4563.06   6
   1   5 -14 6778.55 2479.14   6
   1   5 -14 8724.84 2842.65   5
   1   5 -13 6292.63 2417.09   5
   1   5 -13 7591.37 2639.61   6
   1   5 -12 17788.0 3926.55   6
   1   5 -11 2892.94 1533.20   6
   1   5 -10-526.556 644.087   6
   1   5  -9 2155.23 1215.21   6
   1   5  -8 11875.0 2863.35   6
   1   5  -7 1043.61 715.099   6
   1   5  -6 168.001 345.296   6
   1   5  -5 785.876 727.176   6
   1   5  -4 1080.81 762.425   6
   1   5  -3 958.329 527.760   6
   1   5  -2 2463.30 1051.98   6
   1   5  -1 2975.40 1113.82   6
   1   5   0 1194.61 654.381   6
   1   5   1 4012.83 1253.12   6
   1   5   2 9487.70 1867.10   6
   1   5   3 12212.2 2057.17   6
  -1  -5  -3 12844.2 1709.28   1
   1   5   3 11348.2 1405.00   4
   1   5   4 15797.8 2338.16   6
   1   5   4 13223.7 1506.23   4
  -1  -5  -4 15211.9 1816.07   1
   1   5   5 20679.2 2686.90   6
  -1  -5  -5 22617.6 2187.09   1
   1   5   5 22044.4 1944.10   4
   1   5   6 27205.3 2221.02   4
  -1  -5  -6 31006.2 2490.31   1
  -1  -5  -6 32079.1 2707.59   3
   1   5   6 27697.1 3151.85   6
   1   5   7 25089.3 2134.60   4
  -1  -5  -7 26859.0 2581.99   3
   1   5   7 24992.3 2974.40   6
   1   5   8 19987.0 2676.90   6
  -1  -5  -8 16112.0 2095.38   3
   1   5   8 19325.7 1893.45   4
   1   5   9 5163.73 1378.50   6
   1   5   9 5016.06 964.649   4
  -1  -5  -9 3846.78 1099.53   3
   1   5  10 953.129 695.560   6
  -1  -5 -10 1114.58 610.173   3
   1   5  10 461.410 314.270   4
  -1  -5 -11 192.338 194.196   3
   1   5  11-167.673 376.448   6
  -1  -5 -12 332.984 389.164   3
   1   5  12-110.447 254.028   6
  -1  -5 -13-13.7069 433.078   3
   1   5  13 1098.27 783.426   6
  -1  -5 -14 1254.38 861.037   3
   1   5  14 46.4817 206.071   6
  -1  -5 -15 2965.30 1195.97   3
   1   5  15 3194.40 1209.66   6
   1   5  16 401.602 271.853   6
  -1  -5 -16 1644.34 853.721   3
  -1  -5 -17 1136.20 519.659   3
   1   5  17 1369.27 856.897   6
  -1  -5 -18 1832.04 1209.18   3
  -1  -5 -19 1565.15 1020.04   3
  -1  -5 -20 1431.28 973.853   3
  -1  -5 -21 1854.70 1212.12   3
  -1  -5 -22 2166.73 1166.52   3
  -1  -5 -23 2250.90 1312.30   3
   1   6 -19 3021.50 2096.47   5
   1   6 -18 4909.25 2485.99   6
   1   6 -18 1501.16 1456.71   5
   1   6 -17 456.518 784.307   6
   1   6 -17 797.429 1101.04   5
   1   6 -16 2444.48 1713.20   6
   1   6 -16 4770.37 2393.43   5
   1   6 -15-472.719 867.890   5
   1   6 -15 656.716 886.139   6
   1   6 -14 928.364 1030.85   6
   1   6 -14-798.706 1003.07   5
   1   6 -13 86.1118 706.727   6
   1   6 -12 1077.58 1014.23   6
   1   6 -11 149.118 437.702   6
   1   6 -10 2902.76 1606.10   6
   1   6  -9 15246.6 3525.68   6
   1   6  -8 29321.0 4777.69   6
   1   6  -7 15892.8 3503.39   6
   1   6  -6 28134.3 4407.45   6
   1   6  -5 29305.4 4396.50   6
   1   6  -4 23885.4 3906.88   6
   1   6  -3 3400.21 1395.00   6
   1   6  -2 898.455 824.199   6
   1   6  -1 237.026 389.788   6
   1   6   0 3356.65 1300.59   6
   1   6   1 3429.28 1308.04   6
  -1  -6  -2 537.149 407.030   1
   1   6   2 180.503 337.701   6
   1   6   3-50.6156 269.238   6
  -1  -6  -3-45.9422 113.759   1
   1   6   3 374.276 333.146   4
   1   6   4 1322.08 753.996   6
  -1  -6  -4 533.908 406.194   1
   1   6   4 1175.34 462.562   4
   1   6   5 670.814 398.747   4
  -1  -6  -5 427.352 326.954   1
   1   6   5 456.415 362.297   6
   1   6   6 4739.53 993.204   4
  -1  -6  -6 5092.41 1161.45   3
   1   6   6 5584.07 1610.70   6
  -1  -6  -6 6094.58 1224.06   1
  -1  -6  -7 876.892 518.259   3
   1   6   7 1022.05 487.001   4
   1   6   7 242.642 409.773   6
  -1  -6  -7 279.787 391.708   1
   1   6   8 3496.25 1185.29   6
   1   6   8 3203.54 810.492   4
  -1  -6  -8 2932.33 968.221   3
   1   6   9 7077.19 1230.84   4
   1   6   9 6743.35 1781.58   6
  -1  -6  -9 7383.16 1547.15   3
   1   6  10 8397.39 1359.51   4
  -1  -6 -10 4765.16 1285.86   3
   1   6  10 6935.50 1788.73   6
   1   6  11 1683.07 578.736   4
  -1  -6 -11 1416.88 751.634   3
   1   6  11 1635.47 943.399   6
  -1  -6 -12 5758.31 1521.61   3
   1   6  12 3769.11 1390.75   6
  -1  -6 -13 5975.27 1561.40   3
   1   6  13 6730.67 1863.15   6
   1   6  14 10336.2 2308.66   6
  -1  -6 -14 7165.66 1789.64   3
   1   6  15 6018.80 1755.63   6
  -1  -6 -15 5818.31 1692.32   3
  -1  -6 -16 3897.10 1450.72   3
   1   6  16 7116.97 2040.34   6
  -1  -6 -17 1321.62 844.367   3
   1   6  17 2641.12 1337.96   6
   1   6  18-56.6756 280.470   6
  -1  -6 -18-742.270 704.844   3
  -1  -6 -19 1407.35 1172.09   3
   1   6  19-44.4608 290.766   6
  -1  -6 -20 812.574 764.010   3
   1   6  20 57.0635 289.423   6
   1   6  21-1895.32 1169.84   6
   1   7 -17-500.735 916.299   6
   1   7 -17 1407.13 1501.14   5
   1   7 -16 1907.01 1605.57   6
   1   7 -16 512.566 965.878   5
   1   7 -15 9610.64 3643.60   5
   1   7 -15 8993.50 3328.47   6
   1   7 -14 8675.20 3197.75   6
   1   7 -13 6026.54 2595.00   6
   1   7 -12-166.912 521.532   6
   1   7 -11 5350.81 2375.57   6
   1   7 -10 5702.75 2328.57   6
   1   7  -9 146.740 455.844   6
   1   7  -8 3875.81 1915.61   6
   1   7  -7 10572.8 3042.77   6
   1   7  -6 4889.75 1947.96   6
   1   7  -5 13427.8 3239.62   6
   1   7  -4 2227.36 1286.65   6
   1   7  -3 85.9454 423.998   6
   1   7  -2-1489.12 1010.88   6
   1   7  -1 15835.5 3262.14   6
   1   7   0 16024.3 3261.10   6
   1   7   1 3245.29 1478.76   6
  -1  -7  -1 2545.15 973.053   1
  -1  -7  -2 5844.03 1403.51   1
   1   7   2 4775.91 1704.95   6
   1   7   3 21522.8 3491.04   6
  -1  -7  -3 20861.9 2676.96   1
   1   7   3 17653.3 2097.72   4
  -1  -7  -4 16128.2 2334.11   1
   1   7   4 17244.7 3101.21   6
   1   7   4 15274.0 1931.01   4
  -1  -7  -5 4136.78 1161.19   1
   1   7   5 4705.80 1067.89   4
   1   7   5 4889.24 1678.64   6
   1   7   6-112.201 327.067   6
   1   7   6 715.949 425.753   4
  -1  -7  -6 426.497 396.841   1
  -1  -7  -6 303.301 397.959   3
  -1  -7  -7-550.224 421.987   3
  -1  -7  -7-16.8034 267.422   1
   1   7   7 106.568 282.749   6
   1   7   7 217.240 238.605   4
   1   7   8-175.518 216.423   4
  -1  -7  -8 21.9197 163.155   3
  -1  -7  -9 1343.66 647.196   3
   1   7   9 1157.57 598.992   6
   1   7  10-447.248 542.313   6
  -1  -7 -10 520.146 635.012   3
  -1  -7 -11 304.817 390.379   3
   1   7  11 1904.65 1033.50   6
   1   7  12-233.128 434.110   6
  -1  -7 -12 1413.13 762.715   3
  -1  -7 -13 1236.03 796.566   3
   1   7  13 2291.82 1134.55   6
   1   7  14 215.328 420.995   6
  -1  -7 -14 162.809 614.889   3
  -1  -7 -15 3660.81 1329.35   3
   1   7  15 3404.15 1472.81   6
   1   7  16 1600.87 1023.50   6
   1   7  17 943.042 838.698   6
   1   7  18 2027.17 1073.98   6
   1   7  19 4316.42 1777.80   6
   1   8 -14 14388.1 4301.40   6
   1   8 -13-815.315 1045.48   6
   1   8 -12 2764.44 1846.64   6
   1   8 -11 8002.96 3021.51   6
   1   8 -10 10940.0 3393.62   6
   1   8  -9-618.811 852.381   6
   1   8  -8 48.8800 675.861   6
   1   8  -7 2698.18 1612.65   6
   1   8  -6 6512.54 2491.67   6
   1   8  -5 709.026 612.537   6
   1   8  -4 2176.52 1428.07   6
   1   8  -3 3950.44 1832.37   6
   1   8  -2 4902.88 2034.64   6
   1   8  -1 1294.52 1018.79   6
  -1  -8   1-494.373 473.020   1
  -1  -8   0 3903.49 1323.31   1
   1   8   0 4450.25 1749.97   6
  -1  -8  -1 8726.02 1889.08   1
   1   8   1 7062.94 2330.88   6
  -1  -8  -2 14515.0 2448.04   1
   1   8   2 10103.0 2743.52   6
  -1  -8  -3 11524.4 2118.62   1
   1   8   3 12643.7 2979.68   6
   1   8   3 11480.3 1825.99   4
  -1  -8  -4 12042.0 2172.82   1
   1   8   4 11829.5 2855.31   6
   1   8   4 12476.1 1863.60   4
   1   8   5 1471.75 1012.65   6
   1   8   5 2539.55 827.276   4
  -1  -8  -5 2880.82 1062.68   1
   1   8   6 3905.85 1758.92   6
  -1  -8  -6 2121.85 883.272   3
  -1  -8  -6 3744.62 1142.44   1
  -1  -8  -7 6701.32 1490.01   3
   1   8   7 6328.68 2062.64   6
   1   8   8 5204.16 1931.57   6
  -1  -8  -8 3417.55 1094.44   3
   1   8   9-1063.49 886.754   6
   1   8  10 1309.61 707.763   6
   1   8  11 1927.96 1160.22   6
   1   8  12 2468.37 1340.53   6
   1   8  13-1417.72 1048.66   6
   1   8  14 468.078 656.161   6
   1   8  15 1.97823 384.177   6
   1   8  16-631.334 758.483   6
   1   8  17-2358.29 1386.64   6
   1   9 -11 7797.98 3189.01   6
   1   9 -10 13344.5 4171.69   6
   1   9  -9 1943.83 1555.19   6
   1   9  -8 1352.78 1260.52   6
   1   9  -7 6848.18 2913.99   6
   1   9  -6 11014.3 3660.80   6
   1   9  -5 2640.01 1576.97   6
   1   9  -4 4976.93 2322.14   6
   1   9  -3 5988.70 2417.96   6
  -1  -9   3 3941.59 1440.76   1
   1   9  -2 3045.72 1700.11   6
  -1  -9   2 3724.87 1320.59   1
   1   9  -1-1048.28 1012.51   6
  -1  -9   1 108.379 269.625   1
   1   9   0 1046.53 1006.25   6
  -1  -9   0 284.166 396.306   1
  -1  -9  -1 4446.28 1472.91   1
   1   9   1 4214.45 1937.55   6
   1   9   2 1436.27 657.654   4
   1   9   2 1582.88 1205.88   6
  -1  -9  -2 1689.05 874.252   1
   1   9   3 897.932 909.212   6
  -1  -9  -3 692.282 675.071   1
   1   9   4-323.175 584.007   6
  -1  -9  -4-95.8124 561.490   1
   1   9   5 2545.94 1461.48   6
  -1  -9  -5 1325.55 844.234   1
   1   9   6-276.017 533.449   6
  -1  -9  -6 56.1167 200.508   1
   1   9   7-319.814 563.331   6
   1   9   8 3854.61 1776.82   6
   1   9   9 2619.05 1447.15   6
   1   9  10 4169.96 1815.75   6
   1   9  11 3184.28 1659.18   6
   1   9  12 10481.0 3040.89   6
   1   9  13 1531.90 1203.50   6
   1   9  14 2885.32 1607.09   6
   1  10  -6 679.832 1004.07   6
   1  10  -5 517.101 865.224   6
   1  10  -4 2283.28 1662.35   6
  -1 -10   4 37.7729 286.876   1
  -1 -10   3 2237.06 1137.86   1
   1  10  -3 4854.72 2375.89   6
   1  10  -2 3641.63 2033.23   6
  -1 -10   2 4907.18 1608.94   1
  -1 -10   1 2887.50 1254.82   1
   1  10  -1 5545.41 2377.11   6
   1  10   0 1881.55 1456.72   6
  -1 -10   0 3430.27 1348.01   1
   1  10   1 13912.3 3834.73   6
  -1 -10  -1 12558.6 2593.80   1
  -1 -10  -2 4900.86 1638.96   1
   1  10   2 2899.05 1759.63   6
   1  10   3 2044.70 1487.93   6
  -1 -10  -3 342.406 442.871   1
   1  10   4 2662.92 1675.84   6
  -1 -10  -4 2921.78 1199.38   1
  -1 -10  -5 6805.48 1851.80   1
   1  10   5 7201.52 2679.94   6
   1  10   6 4293.03 2069.97   6
   1  10   7 308.046 671.528   6
   1  10   8 1668.96 1333.01   6
  -2   9   3 124.554 486.723   6
  -2   9   2 2984.11 1804.41   6
   2  -9  -1 248.592 410.169   1
  -2   9   1-245.866 649.578   6
   2  -9   0 7760.52 2045.56   1
  -2   9   0 5676.16 2502.09   6
   2  -9   1 2394.23 1147.20   1
  -2   9  -1 2036.57 1534.10   6
  -2   9  -2 1608.22 1400.02   6
   2  -9   2 6749.67 1907.13   1
   2  -9   3-254.541 410.172   1
  -2   8  11 850.023 918.390   6
  -2   8  10 6209.24 2339.80   6
  -2   8   9-367.471 628.082   6
  -2   8   8 9122.76 2777.00   6
  -2   8   7 1875.56 1316.43   6
  -2   8   6 509.317 697.962   6
  -2   8   5 3068.02 1631.97   6
  -2   8   4 6844.49 2461.67   6
  -2   8   3 10369.5 3003.21   6
  -2   8   2 3649.17 1703.40   6
   2  -8  -2 1674.65 884.966   1
   2  -8  -1 3752.36 1315.98   1
  -2   8   1 2706.17 1569.14   6
  -2   8   0 13388.1 3454.05   6
   2  -8   0 13803.2 2600.32   1
  -2   8  -1 10270.9 3156.90   6
   2  -8   1 6517.99 1764.75   1
  -2   8  -2 6498.50 2525.27   6
   2  -8   2 7195.50 1895.53   1
   2  -8   3 8225.27 1996.23   1
  -2   8  -3 8082.20 2837.04   6
  -2   8  -4 58.8619 382.936   6
   2  -8   4 2716.94 1180.92   1
   2  -8   5 8480.58 2033.54   1
  -2   8  -5 3228.67 1937.60   6
   2  -8   6 10790.8 2362.32   1
  -2   8  -6 14854.8 4050.86   6
   2  -8   7 5288.01 1706.28   1
  -2   8  -7 6783.14 2623.44   6
   2  -8   8 54.9429 257.907   1
  -2   8  -8 2014.46 1524.04   6
  -2   8  -9 912.439 1043.39   6
   2  -8   9 386.018 494.978   1
   2  -8  10 1314.61 879.651   1
  -2   8 -10 2843.06 1418.70   6
   2  -8  11-725.443 670.563   1
  -2   7  14 15457.2 3457.07   6
  -2   7  13 975.952 910.133   6
  -2   7  12 1140.23 1033.10   6
  -2   7  11 2676.07 1360.78   6
  -2   7  10 22308.3 4075.30   6
  -2   7   9-167.214 418.033   6
  -2   7   8-78.9687 345.352   6
  -2   7   7 1388.24 1172.58   6
  -2   7   6 20578.5 3817.06   6
  -2   7   5 12118.1 2967.22   6
  -2   7   4 1352.04 999.071   6
  -2   7   3 3376.52 1576.67   6
   2  -7  -2 24049.3 3205.17   1
  -2   7   2 26312.7 4413.05   6
   2  -7  -1 5015.96 1479.85   1
  -2   7   1 4020.15 1607.30   6
  -2   7   0 873.300 749.699   6
   2  -7   0-335.188 397.402   1
  -2   7  -1 19684.9 3904.86   6
   2  -7   1 17111.5 2745.29   1
   2  -7   2 3547.00 1297.20   1
  -2   7  -2 1623.93 1320.69   6
   2  -7   3 855.850 633.109   1
  -2   7  -3 155.993 435.670   6
   2  -7   4 15112.3 2586.15   1
  -2   7  -4 15393.9 3658.89   6
  -2   7  -5 8840.38 2790.46   6
   2  -7   5 5779.64 1584.38   1
   2  -7   6 460.718 481.389   1
  -2   7  -6 3321.57 1688.04   6
   2  -7   7 2501.29 1028.62   1
  -2   7  -7 2592.24 1799.25   6
  -2   7  -8 26033.1 5115.69   6
   2  -7   8 20648.2 3132.53   1
  -2   7  -9 4906.63 2208.18   6
   2  -7   9 1854.66 942.546   1
   2  -7  10 213.078 247.470   1
  -2   7 -10 1938.14 1442.82   6
   2  -7  11 1083.28 753.785   1
  -2   7 -11 43.1409 406.277   6
   2  -7  12 30072.7 4010.70   1
  -2   7 -12 37232.1 6670.57   6
  -2   7 -13 1081.11 1184.53   6
  -2   7 -14 948.583 767.621   6
  -2   6  17 3278.99 1486.66   6
  -2   6  16 1286.74 979.035   6
  -2   6  15 2367.04 1257.44   6
  -2   6  14 6525.32 2086.22   6
  -2   6  13 6806.28 2156.35   6
  -2   6  12 2451.86 1329.85   6
  -2   6  11 484.037 433.145   6
  -2   6  10 40127.1 5007.10   6
  -2   6   9-296.741 483.378   6
  -2   6   8 10786.7 2604.52   6
  -2   6   7-51.6837 484.534   6
  -2   6   6 2638.12 1161.46   6
  -2   6   5 943.435 760.078   6
  -2   6   4 1235.55 950.943   6
  -2   6   3 5787.16 1830.26   6
  -2   6   2 79065.4 6930.05   6
   2  -6  -2 85675.6 5704.52   1
  -2   6   1-571.938 616.430   6
   2  -6  -1 475.525 476.628   1
  -2   6   0 34480.2 4666.29   6
   2  -6   0 32450.4 3478.89   1
  -2   6  -1 39028.5 5016.77   6
   2  -6   1 34391.6 3624.05   1
   2  -6   2 23520.8 2978.97   1
  -2   6  -2 22210.2 3838.19   6
  -2   6  -3-1655.29 1083.99   6
   2  -6   3 89.8025 272.962   1
  -2   6  -4 107575. 8917.83   6
   2  -6   4 103446. 6487.97   1
   2  -6   5 8205.59 1802.93   1
  -2   6  -5 7171.52 2317.21   6
  -2   6  -6 1327.99 1029.68   6
   2  -6   6 732.595 456.891   1
   2  -6   7 151.590 267.612   1
  -2   6  -7 177.205 441.650   6
  -2   6  -8 12522.2 3269.11   6
   2  -6   8 9727.55 2022.43   1
  -2   6  -9 1975.06 1236.58   6
   2  -6   9 1689.58 843.619   1
  -2   6 -10 27547.0 5115.55   6
  -2   6 -11 157.114 476.491   6
  -2   6 -12 8550.47 3014.10   6
  -2   6 -13-124.291 458.146   6
  -2   6 -14 1291.42 1235.73   6
  -2   6 -15 7903.08 3095.50   6
  -2   6 -16 9457.40 3395.95   6
  -2   6 -17 1633.23 1519.65   6
  -2   5  19 2398.45 1323.89   6
  -2   5  18 9503.26 2604.25   6
  -2   5  17 36862.9 4970.16   6
  -2   5  16 12473.4 2770.32   6
  -2   5  15 9694.88 2403.36   6
  -2   5  14 490.455 521.956   6
  -2   5  13 21454.3 3494.93   6
  -2   5  12-60.7024 366.586   6
  -2   5  11 1120.39 775.220   6
  -2   5  10 19950.2 3191.54   6
  -2   5   9 555.970 472.701   6
  -2   5   8 23541.5 3422.74   6
   2  -5  -8 15455.1 1403.74   3
   2  -5  -7 1942.67 422.092   3
  -2   5   7 2996.31 1202.02   6
   2  -5  -6 47.3254 74.3866   3
  -2   5   6 675.739 491.922   6
  -2   5   6 497.715 168.785   4
   2  -5  -5 3299.68 412.607   3
  -2   5   5 9100.72 2076.89   6
  -2   5   4 37953.2 4282.90   6
  -2   5   3 22958.4 3349.20   6
  -2   5   2 23027.2 3324.43   6
   2  -5  -2 19449.4 958.761   3
   2  -5  -2 23257.2 2691.24   1
  -2   5   1 5141.13 1554.57   6
   2  -5  -1 4256.31 1166.09   1
   2  -5  -1 3056.27 495.115   3
  -2   5   0 1258.44 795.337   6
   2  -5   0 1814.89 418.123   3
   2  -5   1 27371.8 2990.35   1
  -2   5  -1 28177.5 3866.70   6
   2  -5   1 33102.4 2070.02   3
   2  -5   2 1942.62 853.320   1
   2  -5   2 3744.28 731.091   3
  -2   5  -2 3606.77 1417.73   6
  -2   5  -3 267.402 319.886   6
   2  -5   3 601.612 336.750   3
   2  -5   3 277.901 336.689   1
  -2   5  -4 1142.07 654.198   6
   2  -5   4 543.976 420.600   3
   2  -5   4 794.334 585.802   1
   2  -5   5 41463.4 3774.85   1
  -2   5  -5 42012.9 5161.51   6
   2  -5   6 23711.3 2875.76   1
  -2   5  -6 27048.2 4227.25   6
   2  -5   7 1011.40 591.233   1
  -2   5  -7 269.866 479.638   6
  -2   5  -8 8394.25 2496.10   6
  -2   5  -9 25609.8 4484.91   6
  -2   5 -10 8638.12 2740.25   6
  -2   5 -11 128.875 404.704   6
  -2   5 -12 27503.9 5096.10   6
  -2   5 -13 2120.30 1451.14   6
  -2   5 -14 7453.79 2920.57   6
  -2   5 -15 32891.0 6167.75   6
  -2   5 -16 1696.54 1422.53   6
  -2   5 -17 15138.1 4646.68   6
  -2   5 -18 3044.16 1968.67   6
  -2   5 -19 12388.2 4055.35   6
   2  -4 -21 3935.87 1568.16   5
   2  -4 -20 1134.87 859.763   5
   2  -4 -19 1006.03 801.127   5
   2  -4 -18 1037.00 774.403   5
   2  -4 -17 7014.64 1890.85   5
   2  -4 -16 10757.6 1922.59   3
   2  -4 -16 11250.7 2473.71   5
   2  -4 -15 1836.29 760.079   3
  -2   4  15 2227.09 1093.65   6
   2  -4 -15 1576.36 914.474   5
   2  -4 -14 788.825 628.618   5
   2  -4 -14 578.373 425.724   3
  -2   4  14 638.039 645.412   6
   2  -4 -13 6030.83 1240.10   3
  -2   4  13 4647.31 1463.16   6
   2  -4 -12 42195.9 3229.54   3
  -2   4  12 40259.2 4354.93   6
  -2   4  11 17215.4 2773.91   6
   2  -4 -11 14538.4 1768.81   3
   2  -4 -10 7338.58 1180.58   3
  -2   4  10 7347.83 1764.83   6
   2  -4  -9 23689.2 1981.39   3
  -2   4   9 21617.0 2986.81   6
   2  -4  -8 53076.6 2783.17   3
  -2   4   8 55138.2 4761.59   6
   2  -4  -7 2155.64 447.153   3
  -2   4   7 2088.51 869.697   6
   2  -4  -6 21625.1 1363.58   3
  -2   4   6 26345.6 3170.26   6
  -2   4   5 4690.79 1319.35   6
   2  -4  -5 2748.79 379.753   3
  -2   4   4 11435.4 2085.87   6
  -2   4   3 28106.3 3268.32   6
  -2   4   2-285.202 347.830   6
   2  -4  -2 293.827 321.396   1
  -2   4   1 6760.55 1611.93   6
   2  -4  -1 7921.44 1413.68   1
   2  -4   0 4587.32 574.298   3
  -2   4   0 6263.76 1554.36   6
   2  -4   0 6735.48 1324.02   1
   2  -4   1 75724.0 2896.38   3
  -2   4  -1 70864.9 5525.48   6
   2  -4   1 68048.4 4354.59   1
  -2   4  -2 160.143 268.483   6
   2  -4   2 303.648 201.100   3
   2  -4   2 157.704 243.846   1
  -2   4  -3 441.260 455.282   6
   2  -4   3 301.831 369.674   1
   2  -4   3 88.4148 151.548   3
  -2   4  -4 4766.80 1534.93   6
   2  -4   4 3684.24 988.997   1
   2  -4   4 3652.37 799.116   3
   2  -4   5 409.217 257.387   1
  -2   4  -5 1332.88 793.229   6
  -2   4  -6 60362.8 5873.29   6
   2  -4   6 49903.8 3852.52   1
  -2   4  -7 8116.24 2192.15   6
  -2   4  -8 16330.7 3275.95   6
  -2   4  -9 766.838 743.633   6
  -2   4 -10 30203.8 4714.20   6
  -2   4 -11 395.046 584.279   6
  -2   4 -12 3304.07 1642.02   6
  -2   4 -13 8682.51 2831.72   6
  -2   4 -14 51022.1 7126.80   6
  -2   4 -15 21260.8 4650.90   6
  -2   4 -16 530.707 795.370   6
  -2   4 -17 1112.31 1080.21   6
  -2   4 -18 10291.1 3516.94   6
  -2   4 -19 12586.0 3942.53   6
  -2   4 -20 5296.57 2556.15   5
  -2   4 -21 2206.29 1731.04   5
  -2   4 -22 2640.88 1981.58   5
   2  -3 -23 6473.07 2261.44   5
   2  -3 -22 14740.6 3232.06   5
   2  -3 -21 1617.35 1161.52   5
   2  -3 -20 1088.00 602.207   3
   2  -3 -20 3322.80 1454.91   5
   2  -3 -19 23539.3 3729.29   5
   2  -3 -19 27500.8 3516.99   3
   2  -3 -18 2934.62 1148.78   3
   2  -3 -18 2186.25 1156.94   5
   2  -3 -17 86.1037 320.302   3
   2  -3 -17 1095.35 947.268   5
   2  -3 -16 968.275 888.955   5
   2  -3 -16-10.9965 494.025   3
   2  -3 -15 7382.89 1916.80   5
   2  -3 -15 6440.35 1417.47   3
   2  -3 -14 27119.5 3548.18   5
   2  -3 -14 23361.3 2713.06   3
   2  -3 -13 5447.07 1232.08   3
   2  -3 -13 4428.54 1334.74   5
   2  -3 -12 666.297 470.387   3
   2  -3 -12-220.140 506.463   5
   2  -3 -11 20930.5 2851.69   5
   2  -3 -11 16899.3 1956.11   3
   2  -3 -10 34488.0 3565.96   5
   2  -3 -10 33469.4 2631.98   3
  -2   3   9 2447.82 948.196   6
  -2   3   9 2557.55 606.181   3
   2  -3  -9 2870.46 686.648   3
   2  -3  -9 2118.37 751.494   5
  -2   3   8 68081.3 3083.08   3
   2  -3  -8 76351.9 5121.92   5
  -2   3   8 76963.2 5116.95   6
   2  -3  -8 69210.1 3303.84   3
   2  -3  -7 6820.54 881.278   3
  -2   3   7 5431.37 1299.58   6
  -2   3   6 12018.7 1920.80   6
   2  -3  -6 12238.0 1036.30   3
   2  -3  -5 58053.7 2014.70   3
  -2   3   5 75557.9 4781.54   6
  -2   3   4 114353. 5945.99   6
  -2   3   3 3354.85 974.582   6
  -2   3   2 56506.1 4108.04   6
  -2   3   1 37984.9 3385.76   6
   2  -3  -1 39008.4 2879.38   1
   2  -3   0 19402.2 873.418   3
   2  -3   0 16267.9 1858.17   1
  -2   3   0 15593.2 2179.35   6
   2  -3   1 2996.57 453.207   3
  -2   3  -1 3090.85 993.450   6
   2  -3   1 3511.05 855.892   1
   2  -3   2 1195.73 526.684   1
   2  -3   2 1551.65 390.745   3
  -2   3  -2 1352.57 657.075   6
   2  -3   3 24735.0 2379.69   1
  -2   3  -3 26652.1 3181.75   6
   2  -3   3 28440.0 1932.86   3
   2  -3   4 1816.65 532.143   3
  -2   3  -4 806.666 567.553   6
   2  -3   4 1068.07 531.760   1
   2  -3   5 1901.07 707.483   1
   2  -3   5 1585.40 576.603   3
  -2   3  -5 1247.32 767.774   6
  -2   3  -6 117612. 7614.77   6
  -2   3  -6 107230. 4803.33   3
  -2   3  -7 72086.6 4104.64   3
  -2   3  -7 62479.3 5722.21   6
  -2   3  -8 4080.55 1497.36   6
  -2   3  -8 5722.61 1175.91   3
  -2   3  -9 18382.4 3270.11   6
  -2   3  -9 16220.2 2076.75   3
  -2   3 -10 94858.0 5446.58   3
  -2   3 -10 77739.5 7197.57   6
  -2   3 -11 1033.18 843.197   6
  -2   3 -11 1421.63 747.723   3
  -2   3 -12 563.474 657.758   6
  -2   3 -12 250.382 174.270   3
  -2   3 -13 24058.6 4418.74   6
  -2   3 -13 30132.7 3375.82   3
  -2   3 -14 381.511 447.600   3
  -2   3 -14 143.826 321.414   6
  -2   3 -15 1254.32 1064.12   6
  -2   3 -15 649.244 824.733   3
  -2   3 -16 15817.0 3874.54   6
  -2   3 -16 17966.0 2921.52   3
  -2   3 -17 3929.27 1459.49   3
  -2   3 -17 3968.74 1966.48   6
  -2   3 -18-756.290 675.443   3
  -2   3 -19 1097.20 759.113   3
  -2   3 -19 887.960 938.060   5
  -2   3 -20 1177.33 1187.11   5
  -2   3 -20 828.907 745.470   3
  -2   3 -21 18277.2 4793.46   5
  -2   3 -22 1529.89 1421.49   5
  -2   3 -23-1111.69 1239.07   5
   2  -2 -24 2874.74 1544.80   5
   2  -2 -23 11242.5 2881.12   5
   2  -2 -22-1.90185 290.592   5
   2  -2 -21 3576.56 1583.30   5
   2  -2 -20 1121.44 1108.63   5
   2  -2 -19 50962.7 5676.49   5
   2  -2 -18 1141.17 804.347   5
   2  -2 -18 1150.60 690.176   3
   2  -2 -17 9577.08 1946.24   3
   2  -2 -17 11913.6 2580.05   5
   2  -2 -16 2168.10 1070.13   5
   2  -2 -16 1513.20 804.829   3
   2  -2 -15 9222.81 1774.88   3
   2  -2 -15 9594.40 2166.75   5
   2  -2 -15 12124.6 1348.19   2
   2  -2 -14 36757.5 3427.12   3
   2  -2 -14 30434.5 3752.09   5
   2  -2 -13 578.618 524.453   3
   2  -2 -13 2182.73 1052.58   5
   2  -2 -12 36376.9 3108.08   3
   2  -2 -12 30762.5 3537.53   5
   2  -2 -12 30577.6 1349.88   4
   2  -2 -11 28339.7 3296.69   5
   2  -2 -11 31695.4 2770.36   3
   2  -2 -10 21220.6 2112.85   3
   2  -2 -10 17551.5 2467.94   5
   2  -2  -9 968.130 444.522   3
   2  -2  -9 1044.29 620.296   5
  -2   2   9 549.108 311.890   3
   2  -2  -8 547.615 287.205   3
  -2   2   8 373.565 220.296   3
   2  -2  -7 27844.2 2866.93   5
   2  -2  -7 31006.1 2011.34   3
  -2   2   7 27409.9 1863.22   3
  -2   2   6 2949.63 527.437   3
   2  -2  -6 3343.80 969.933   5
   2  -2  -5 78239.4 4602.02   5
  -2   2   5 81505.6 2643.07   3
  -2   2   5 83708.0 4515.85   6
  -2   2   4 96386.3 2422.33   3
  -2   2   4 87907.5 2079.76   4
  -2   2   4 100383. 4850.99   6
  -2   2   3 15057.5 935.828   4
  -2   2   3 13640.9 1697.21   6
  -2   2   2 2530.31 725.825   6
   2  -2  -1 57634.9 3343.77   6
  -2   2   1 55809.1 3504.71   6
  -2   2   0 1561.83 600.595   6
   2  -2   0 1706.29 555.813   6
   2  -2   0 1356.29 438.585   1
   2  -2   1 442.492 160.664   3
  -2   2  -1 751.670 226.679   3
  -2   2  -1 977.731 472.588   6
   2  -2   1 647.635 385.223   1
   2  -2   1 946.287 451.146   6
   2  -2   2 506.307 301.935   1
  -2   2  -2-93.6944 274.309   6
   2  -2   2 15.0534 56.1566   3
  -2   2  -2 251.234 153.224   3
   2  -2   2 70.5969 143.877   6
   2  -2   3 42558.6 2204.62   3
  -2   2  -3 43995.9 2323.29   3
  -2   2  -3 44180.7 3593.78   6
   2  -2   3 38671.9 2629.44   1
   2  -2   4 94832.1 3796.88   3
  -2   2  -4 94427.6 3892.93   3
   2  -2   4 87033.6 4121.08   1
  -2   2  -4 92476.9 5542.41   6
  -2   2  -5 869.578 554.282   6
  -2   2  -5 840.533 364.104   3
   2  -2   5 878.959 410.108   3
   2  -2   5 573.352 342.332   1
  -2   2  -6 27329.9 3255.38   6
  -2   2  -6 27120.2 2319.28   3
   2  -2   6 25173.0 2206.61   3
  -2   2  -7 77045.6 5838.82   6
  -2   2  -7 78416.2 4282.21   3
  -2   2  -8-143.003 281.335   6
  -2   2  -8 506.480 420.846   3
  -2   2  -9 25383.8 2646.25   3
  -2   2  -9 29162.5 3825.20   6
  -2   2 -10 611.502 612.637   6
  -2   2 -10 1556.15 763.217   3
  -2   2 -11 28627.2 3089.35   3
  -2   2 -11 26379.3 3992.51   6
  -2   2 -12 3902.00 1566.25   6
  -2   2 -12 4642.65 1270.99   3
  -2   2 -13 17715.7 3555.39   6
  -2   2 -13 20530.4 2845.72   3
  -2   2 -14 6688.18 2191.59   6
  -2   2 -14 8459.95 1839.78   3
  -2   2 -15 646.822 730.031   6
   2  -2  15 70.4634 123.428   2
  -2   2 -16 28098.3 3637.02   3
  -2   2 -17 26582.2 4696.23   5
  -2   2 -17 28477.0 3783.81   3
  -2   2 -18 10571.0 2363.90   3
  -2   2 -18 13555.7 3675.16   5
  -2   2 -19 31609.8 4242.90   3
  -2   2 -19 23079.6 4936.51   5
  -2   2 -20 1567.98 1165.72   5
  -2   2 -20 3436.83 1389.60   3
  -2   2 -21 22738.1 4979.20   5
  -2   2 -21 18012.0 3392.23   3
  -2   2 -22 277.441 541.906   3
  -2   2 -22-1010.07 1125.45   5
  -2   2 -23 5705.29 2494.12   5
  -2   2 -24 2446.42 1696.42   5
   2  -1 -24 504.877 702.873   5
   2  -1 -23 2918.90 1573.34   5
   2  -1 -22 2643.18 1309.86   5
   2  -1 -21 1553.83 710.005   5
   2  -1 -20 10831.8 2791.33   5
   2  -1 -19 12222.4 2910.03   5
   2  -1 -18 1232.44 925.158   5
   2  -1 -17 1288.24 902.659   5
   2  -1 -16 5211.41 1756.70   5
   2  -1 -15 1324.64 977.852   5
   2  -1 -15 1028.56 300.155   2
   2  -1 -14 30232.7 3170.91   3
   2  -1 -14 27005.2 3694.76   5
   2  -1 -14 30775.9 1846.66   2
   2  -1 -13 46174.9 2354.37   2
   2  -1 -13 38041.9 4198.38   5
   2  -1 -13 43036.2 3645.44   3
   2  -1 -12 52677.0 3866.07   3
   2  -1 -12 59497.1 2789.82   2
   2  -1 -12 49504.3 4643.68   5
   2  -1 -11 10706.5 2052.41   5
   2  -1 -11 12759.0 1278.39   2
   2  -1 -11 14543.2 1904.21   3
   2  -1 -10 43163.7 3950.01   5
   2  -1  -9 2010.78 863.777   5
  -2   1   8 37568.3 2638.04   3
   2  -1  -8 32750.1 3156.55   5
   2  -1  -7 106606. 5656.84   5
  -2   1   7 121900. 4615.52   3
  -2   1   6 15658.5 1436.26   3
   2  -1  -6 15635.1 2001.54   5
   2  -1  -6 17048.9 835.724   4
   2  -1  -5 103413. 5083.14   5
  -2   1   5 105909. 3649.93   3
   2  -1  -5 100109. 2453.40   4
   2  -1  -4 33989.2 1333.70   4
  -2   1   4 32295.1 2753.74   5
   2  -1  -4 32720.7 2662.96   5
  -2   1   4 34482.4 1728.14   3
  -2   1   3 879.883 217.515   3
  -2   1   3 671.864 167.492   4
  -2   1   3 554.941 264.342   6
  -2   1   3 1590.70 607.122   5
   2  -1  -3 844.768 437.958   5
  -2   1   2 3229.30 673.715   6
   2  -1  -2 3160.20 784.440   5
  -2   1   2 3257.51 817.879   5
  -2   1   2 2658.00 394.145   4
   2  -1  -1 46799.5 2472.30   6
  -2   1   1 45193.7 2910.89   5
  -2   1   1 41875.4 2457.96   6
  -2   1   1 42686.7 2372.73   1
  -2   1   1 42696.6 1957.19   4
  -2   1   0 5789.27 906.179   6
  -2   1   0 7323.62 863.162   4
  -2   1   0 6535.83 540.987   3
   2  -1   0 7025.26 929.582   6
  -2   1   0 7151.18 1100.06   5
  -2   1   0 5836.41 828.070   1
   2  -1   1 35116.3 2257.83   6
  -2   1  -1 40376.8 2240.52   1
  -2   1  -1 36840.6 2435.80   6
  -2   1  -1 39535.8 1670.52   3
   2  -1   2 42921.3 2638.58   6
  -2   1  -2 43456.6 2368.08   1
   2  -1   2 43855.5 2312.95   1
   2  -1   2 43917.1 1932.44   3
  -2   1  -2 45130.3 2056.32   3
  -2   1  -2 43426.5 2869.63   6
  -2   1  -3 38685.4 2117.24   3
   2  -1   3 32499.8 1852.43   3
   2  -1   3 35318.0 2079.80   1
  -2   1  -3 31885.8 2633.51   6
   2  -1   3 36455.4 2548.01   6
   2  -1   4 13814.0 1666.46   6
   2  -1   4 14114.1 1325.28   1
  -2   1  -4 15761.3 1473.62   3
   2  -1   4 14983.2 1366.87   3
  -2   1  -4 16826.5 2014.11   6
   2  -1   5 2167.64 555.057   3
  -2   1  -5 3903.95 1018.60   6
  -2   1  -5 4013.09 804.465   3
   2  -1   5 4144.16 958.583   6
   2  -1   5 4146.18 736.945   1
  -2   1  -6 600.813 476.316   6
  -2   1  -6 1572.90 535.008   3
   2  -1   6 1032.42 502.488   6
   2  -1   6 1022.25 423.709   3
  -2   1  -7 858.931 516.385   6
  -2   1  -7 458.230 287.449   3
  -2   1  -8 91660.5 4833.91   3
  -2   1  -8 81059.3 5764.63   6
  -2   1  -9 61538.6 5212.58   6
  -2   1  -9 67383.2 4323.79   3
  -2   1 -10 18605.3 3037.68   6
  -2   1 -10 20505.0 2472.42   3
   2  -1  10 22018.5 1790.49   2
  -2   1 -11 2934.37 1254.14   6
   2  -1  11 3832.78 730.567   2
  -2   1 -11 2957.87 971.529   3
  -2   1 -12 53117.6 4397.25   3
  -2   1 -12 52646.0 5493.97   6
   2  -1  12 64335.5 3015.18   2
   2  -1  13 210.885 219.131   2
  -2   1 -13 506.001 621.958   3
  -2   1 -14 32174.4 3722.64   3
   2  -1  14 31201.6 1938.27   2
   2  -1  15 28497.1 1784.49   2
  -2   1 -15 33926.6 3943.47   3
  -2   1 -16 8709.83 2036.17   3
  -2   1 -16 4714.60 1883.49   5
  -2   1 -17 20747.8 3283.49   3
  -2   1 -17 20179.5 3847.60   5
  -2   1 -18 1014.74 922.679   5
  -2   1 -18 2034.19 1072.79   3
  -2   1 -19 54.5238 394.007   5
  -2   1 -19 1161.78 890.085   3
  -2   1 -20 2012.58 1318.02   5
  -2   1 -20 662.783 332.478   3
  -2   1 -21 18089.4 4062.35   5
  -2   1 -21 13742.0 2975.87   3
  -2   1 -22 7644.07 2605.06   5
  -2   1 -22 3684.90 1569.14   3
  -2   1 -23 5481.91 2039.13   3
  -2   1 -23 4139.07 2102.01   5
   2   0 -24 3214.44 1748.18   5
   2   0 -23 212.798 538.196   5
   2   0 -22-847.273 905.608   5
   2   0 -21 38703.0 5589.42   5
   2   0 -20 1590.48 1136.79   5
   2   0 -19 2092.80 951.624   5
   2   0 -18 6179.29 2083.88   5
   2   0 -17 19032.4 3488.06   5
   2   0 -16 1454.47 976.862   5
   2   0 -15 1564.27 906.647   5
   2   0 -14 3926.44 1504.04   5
   2   0 -13 71203.3 6067.18   5
   2   0 -12 6321.42 797.991   2
   2   0 -12 5947.06 1666.14   5
   2   0 -11 2025.91 968.929   5
   2   0 -11 2233.67 484.957   2
   2   0 -10 10365.9 1038.82   2
   2   0 -10 10305.8 2017.02   5
   2   0  -9 772.775 712.270   5
   2   0  -9 380.083 203.817   2
   2   0  -8 62720.0 4583.03   5
   2   0  -8 62682.5 2688.58   2
  -2   0   7 4486.66 878.671   3
   2   0  -7 4291.68 1242.87   5
   2   0  -7 4296.84 667.471   2
  -2   0   6 4614.10 801.201   3
   2   0  -6 4761.65 1110.83   5
   2   0  -6 6274.65 810.996   2
  -2   0   5 58588.4 3932.51   5
   2   0  -5 58873.3 3762.30   5
   2   0  -5 62814.1 2721.08   2
  -2   0   5 60660.8 2781.31   3
   2   0  -4 15956.9 1818.54   5
   2   0  -4 16571.4 1353.12   2
  -2   0   4 16478.8 1925.27   5
   2   0  -4 16123.8 1058.14   4
   2   0  -3 10661.4 1082.36   2
  -2   0   3 10912.7 1439.27   5
   2   0  -3 8195.48 1209.66   5
   2   0  -3 8654.73 757.113   4
   2   0  -2 39484.1 2151.75   2
   2   0  -2 39378.8 1740.97   4
   2   0  -2 38313.1 2511.48   5
  -2   0   2 40202.1 2680.24   5
  -2   0   2 41891.9 1762.78   4
  -2   0   1 51692.6 2094.95   4
  -2   0   1 59597.6 3034.08   5
   2   0  -1 57411.5 2928.48   5
   2   0  -1 53239.6 2562.02   2
   2   0  -1 53270.1 2208.44   4
  -2   0   1 56241.9 2222.74   6
   2   0   0 148253. 4331.54   4
   2   0   0 154490. 4892.86   5
  -2   0   0 153441. 3965.62   6
   2   0   0 150037. 4665.18   2
  -2   0   0 154615. 4239.45   4
  -2   0   0 166990. 5142.66   5
  -2   0  -1 680055. 13293.5   5
   2   0   1 669996. 13055.1   2
  -2   0  -1 686165. 12218.7   6
   2   0   1 674947. 11812.1   6
  -2   0  -1 654652. 12735.0   4
   2   0   1 648179. 12910.7   4
  -2   0  -2 271882. 6941.02   4
  -2   0  -2 276194. 5987.11   1
   2   0   2 272416. 6852.66   2
   2   0   2 278337. 6293.89   6
  -2   0  -2 283910. 6749.33   6
  -2   0  -2 280242. 6462.18   3
  -2   0  -3 79255.1 2656.63   1
   2   0   3 79826.4 3228.98   2
  -2   0  -3 85513.4 3546.75   6
  -2   0  -3 78190.5 3475.16   4
  -2   0  -3 82522.2 3217.46   3
   2   0   3 82609.5 3249.70   6
   2   0   4 153805. 3911.06   1
  -2   0  -4 160149. 5142.66   3
   2   0   4 157892. 5229.87   6
   2   0   4 157919. 4755.91   2
   2   0   4 152288. 4915.42   3
  -2   0  -4 162188. 5641.98   6
  -2   0  -5 977.638 419.980   3
   2   0   5 545.148 244.706   2
   2   0   5 38.5463 83.6607   6
  -2   0  -5 875.550 466.208   6
   2   0   5 323.560 255.339   3
   2   0   5 574.382 194.403   1
  -2   0  -6 28222.4 2308.51   3
   2   0   6 24001.3 2065.71   3
   2   0   6 25381.4 1714.22   2
  -2   0  -6 26948.5 2558.51   6
   2   0   6 28228.3 2504.13   6
  -2   0  -7 27431.7 2424.44   3
   2   0   7 26121.4 1737.53   2
  -2   0  -7 27623.8 2770.97   6
   2   0   7 28971.8 2734.54   6
  -2   0  -8 1873.74 749.187   6
   2   0   8 877.024 322.005   2
   2   0   8 1203.41 581.560   6
  -2   0  -8 977.759 535.459   3
  -2   0  -9 84348.4 4897.51   3
   2   0   9 86709.0 3314.82   2
  -2   0 -10 81849.2 5118.65   3
   2   0  10 97875.3 3555.85   2
   2   0  11 135.833 124.642   2
  -2   0 -11-125.435 277.257   3
  -2   0 -12 1817.43 785.933   5
  -2   0 -12 3382.71 1073.71   3
  -2   0 -13 1012.90 672.247   5
  -2   0 -13 1451.33 743.121   3
  -2   0 -14 556.677 639.876   5
  -2   0 -14 3802.13 1264.86   3
  -2   0 -15 49737.5 5384.71   5
  -2   0 -15 62499.0 5316.53   3
  -2   0 -16 379.110 516.579   5
  -2   0 -16 1488.26 834.135   3
  -2   0 -17 883.897 769.176   5
  -2   0 -17 569.306 501.702   3
  -2   0 -18 1835.74 1036.57   5
  -2   0 -18 1172.58 843.767   3
  -2   0 -19 26301.7 4254.56   5
  -2   0 -19 32636.1 4387.26   3
  -2   0 -20 491.913 669.494   5
  -2   0 -20-421.585 561.296   3
  -2   0 -21 3595.53 1579.64   3
  -2   0 -21 2357.67 1360.46   5
  -2   0 -22-1316.05 1050.00   5
  -2   0 -22-545.826 690.604   3
  -2   0 -23 26261.0 4337.07   3
   2   1 -24 3260.74 1836.83   5
   2   1 -23-252.290 592.517   5
   2   1 -22-54.3681 1189.77   5
   2   1 -21 37682.6 5851.81   5
   2   1 -20 247.192 588.330   5
   2   1 -19 2331.64 1380.42   5
   2   1 -18 4973.65 1915.01   5
   2   1 -17 16757.1 3544.57   5
   2   1 -16 872.885 602.629   5
   2   1 -15 1923.43 1049.18   5
   2   1 -14 5122.53 1899.39   5
   2   1 -13 90022.1 7260.80   5
   2   1 -12 7277.96 1964.94   5
   2   1 -11 4147.39 1496.68   5
   2   1 -10 10947.2 2254.83   5
   2   1  -9 407.282 452.447   5
  -2  -1   9 554.694 279.412   2
   2   1  -8 65482.3 5073.76   5
  -2  -1   8 67907.2 2864.48   2
   2   1  -7 5581.35 1399.65   5
  -2  -1   7 5207.84 740.680   2
  -2  -1   6 5873.05 1287.34   6
   2   1  -6 6252.80 1394.98   5
  -2  -1   6 5985.06 808.139   2
   2   1  -5 57622.9 4055.46   5
   2   1  -5 59996.8 2805.55   2
  -2  -1   5 64507.1 2766.27   2
  -2  -1   5 58414.9 3823.83   6
   2   1  -4 13750.2 1782.92   5
  -2  -1   4 17089.1 2051.05   5
   2   1  -4 14826.2 1341.34   2
  -2  -1   4 17894.4 1405.25   2
  -2  -1   4 16654.6 1844.65   6
  -2  -1   3 11389.3 1568.28   5
   2   1  -3 9301.01 1364.42   5
   2   1  -3 10924.2 1145.97   2
  -2  -1   3 9987.77 1072.80   2
  -2  -1   2 42081.6 2760.33   5
   2   1  -2 41083.6 2619.32   5
   2   1  -2 40615.2 2248.46   2
  -2  -1   2 39997.7 2196.34   2
   2   1  -2 37485.3 1927.49   4
  -2  -1   1 59521.5 3000.74   5
  -2  -1   1 57649.5 2385.42   4
   2   1  -1 53620.8 2333.44   4
   2   1  -1 53738.7 2630.92   2
  -2  -1   1 55886.0 2659.44   2
   2   1  -1 54391.8 2751.29   5
  -2  -1   1 57915.3 2329.43   6
   2   1   0 150769. 4505.47   5
   2   1   0 150847. 4767.25   2
  -2  -1   0 154144. 4741.81   2
  -2  -1   0 152806. 4325.94   4
   2   1   0 157463. 4479.79   4
  -2  -1   0 161075. 4794.14   5
   2   1   1 679290. 12278.8   5
  -2  -1  -1 688967. 12493.4   5
   2   1   1 671841. 13271.9   2
  -2  -1  -1 676902. 13215.5   2
   2   1   1 672001. 12925.7   4
  -2  -1  -1 670300. 12779.7   4
  -2  -1  -2 284480. 5938.08   5
   2   1   2 268851. 6947.26   2
  -2  -1  -2 277075. 6771.51   4
  -2  -1  -2 272711. 6847.12   2
   2   1   2 270891. 6908.53   4
   2   1   3 78827.7 3410.66   4
  -2  -1  -3 77073.0 2391.40   5
   2   1   3 78254.1 3282.46   2
   2   1   3 76888.9 2602.50   6
  -2  -1  -3 79574.2 3180.59   2
  -2  -1  -3 78658.1 3258.80   4
  -2  -1  -4 153144. 5193.40   3
   2   1   4 150626. 4805.47   2
  -2  -1  -4 158372. 4722.01   2
   2   1   4 149464. 4771.56   6
   2   1   4 148950. 5221.99   4
  -2  -1  -4 153685. 5053.01   4
  -2  -1  -5 606.669 278.608   2
   2   1   5 1071.79 426.327   6
   2   1   5 1049.28 363.388   2
  -2  -1  -5 581.831 364.029   3
  -2  -1  -5 476.232 281.106   4
  -2  -1  -6 28692.9 2322.06   3
  -2  -1  -6 24557.9 1663.65   2
   2   1   6 26923.4 2381.11   6
  -2  -1  -6 28937.3 2217.49   4
  -2  -1  -7 25336.5 2353.31   3
  -2  -1  -7 25793.4 1693.83   2
   2   1   7 25370.2 2542.07   6
  -2  -1  -8 338.028 339.462   3
   2   1   8 837.540 491.405   6
  -2  -1  -8 637.479 273.031   2
  -2  -1  -9 77942.0 4529.49   5
  -2  -1  -9 84781.7 4849.77   3
  -2  -1  -9 86701.2 3278.41   2
  -2  -1 -10 87675.5 5075.71   5
  -2  -1 -10 89599.3 5314.81   3
  -2  -1 -10 97617.8 3488.62   2
  -2  -1 -11 82.5225 180.194   5
  -2  -1 -11-12.8620 218.255   3
  -2  -1 -12 3927.22 1123.82   5
  -2  -1 -12 2567.24 968.826   3
  -2  -1 -13 1484.10 714.254   3
  -2  -1 -13 2137.48 914.294   5
  -2  -1 -14 3057.88 1086.82   5
  -2  -1 -14 2203.33 959.399   3
  -2  -1 -15 53350.9 4885.23   3
  -2  -1 -15 45501.2 4517.31   5
  -2  -1 -16-162.334 351.191   5
  -2  -1 -16 1168.18 662.958   3
  -2  -1 -17 1087.30 750.082   5
  -2  -1 -17 2234.46 1099.93   3
  -2  -1 -18 1205.54 751.603   5
  -2  -1 -18 611.836 372.479   3
  -2  -1 -19 28759.2 4030.48   5
  -2  -1 -19 25765.6 3886.90   3
  -2  -1 -20-331.153 500.333   5
  -2  -1 -20 494.428 570.793   3
  -2  -1 -21 6195.34 2085.69   3
  -2  -1 -22 844.075 809.206   3
  -2  -1 -23 22635.7 4040.50   3
   2   2 -23-308.913 679.522   5
   2   2 -22 529.680 824.941   5
   2   2 -21 2159.94 1455.87   5
   2   2 -20 10442.8 3212.18   5
   2   2 -19 15598.6 3714.48   5
   2   2 -18 236.230 550.709   5
   2   2 -17 1239.64 974.957   5
   2   2 -16 6546.77 2334.01   5
   2   2 -15-39.6034 375.372   5
   2   2 -14 27658.0 4275.64   5
   2   2 -13 45211.4 5343.44   5
  -2  -2  13 47270.9 2393.05   2
   2   2 -12 55701.3 5804.72   5
  -2  -2  12 57540.3 2702.60   2
   2   2 -11 10719.8 2411.88   5
  -2  -2  11 12968.3 1271.42   2
   2   2 -10 46501.1 4913.30   5
  -2  -2  10 52943.6 2726.61   2
   2   2  -9 1961.56 977.694   5
  -2  -2   9 1707.68 481.951   2
   2   2  -8 35931.5 4017.27   5
  -2  -2   8 35972.9 2319.78   2
   2   2  -7 129445. 7402.23   5
  -2  -2   7 127394. 4732.99   2
  -2  -2   6 18944.8 1696.41   2
   2   2  -6 14754.4 2335.99   5
  -2  -2   6 16573.6 2266.16   6
  -2  -2   5 101364. 5388.95   6
   2   2  -5 105488. 6064.21   5
   2   2  -5 105943. 5717.30   6
  -2  -2   4 35236.9 3319.40   5
   2   2  -4 42883.6 3557.77   5
  -2  -2   4 37821.4 2940.02   6
   2   2  -4 42059.3 3218.91   6
   2   2  -3 1397.57 687.027   5
  -2  -2   3 755.977 384.516   6
   2   2  -3 710.788 363.028   6
  -2  -2   3 1222.66 523.199   5
  -2  -2   2 2645.98 654.897   6
  -2  -2   2 2424.31 816.119   5
   2   2  -2 2760.94 686.398   6
   2   2  -2 3467.72 902.394   5
   2   2  -1 43601.4 2411.76   6
   2   2  -1 39880.5 2744.58   5
   2   2  -1 41769.7 2297.42   4
  -2  -2   1 46883.2 2417.42   6
  -2  -2   0 7210.41 772.501   6
   2   2   0 6924.90 963.922   5
   2   2   0 6081.74 764.677   6
   2   2   0 7625.51 938.595   4
   2   2   1 35980.3 1928.19   5
  -2  -2  -1 38446.0 1534.56   6
   2   2   1 36477.3 2119.34   4
   2   2   1 38352.7 1798.84   6
  -2  -2  -1 39108.1 2163.77   4
   2   2   2 40549.4 1569.31   5
  -2  -2  -2 40983.8 2240.57   4
   2   2   2 41455.7 2327.81   4
   2   2   2 40190.3 1708.22   6
   2   2   3 33820.0 1550.00   6
   2   2   3 35263.6 2198.82   4
  -2  -2  -3 31785.4 1998.95   4
  -2  -2  -4 16191.1 1452.48   4
   2   2   4 14227.4 1438.28   4
  -2  -2  -5 3073.07 750.664   3
  -2  -2  -5 3410.27 689.253   4
   2   2   5 3223.33 707.713   4
  -2  -2  -6 1301.50 422.580   4
  -2  -2  -6 1574.59 555.470   3
  -2  -2  -6 1012.84 383.868   2
   2   2   6 1109.69 433.810   4
  -2  -2  -7 356.581 289.960   3
  -2  -2  -7 759.153 264.181   5
  -2  -2  -7 654.217 324.198   2
  -2  -2  -8 74318.5 2862.42   5
  -2  -2  -8 82622.6 4545.27   3
  -2  -2  -8 89002.1 3766.37   2
  -2  -2  -9 59989.7 4044.03   3
  -2  -2  -9 62651.3 3093.68   2
  -2  -2  -9 59088.2 2827.03   5
   2   2  10 17488.1 841.064   1
  -2  -2 -10 19523.8 1745.16   5
  -2  -2 -10 20864.1 1699.39   2
  -2  -2 -10 20378.5 2459.76   3
  -2  -2 -11 1952.99 815.615   3
  -2  -2 -11 3513.29 788.062   5
  -2  -2 -11 3403.77 656.573   2
  -2  -2 -12 48841.6 3314.59   5
  -2  -2 -12 48403.9 4155.23   3
  -2  -2 -12 51761.8 2605.31   2
  -2  -2 -13-58.7026 96.0584   2
  -2  -2 -13 254.599 288.874   5
  -2  -2 -13 335.135 597.706   3
  -2  -2 -14 24976.5 3284.89   3
  -2  -2 -14 27223.4 1783.18   2
  -2  -2 -14 25581.0 2668.17   5
  -2  -2 -15 25161.0 2798.56   5
  -2  -2 -15 31170.5 3737.69   3
  -2  -2 -16 8737.53 1710.61   5
  -2  -2 -16 8517.34 2036.78   3
  -2  -2 -17 18354.1 2615.81   5
  -2  -2 -17 15959.1 2883.74   3
  -2  -2 -18 1475.62 778.496   5
  -2  -2 -18 203.578 483.376   3
  -2  -2 -19 143.461 385.274   3
  -2  -2 -20 1715.91 1230.51   3
  -2  -2 -21 13321.5 2934.35   3
  -2  -2 -22 4029.77 1808.20   3
  -2  -2 -23 4210.52 1827.49   3
   2   3 -22 2718.03 1759.34   5
   2   3 -21 170.267 570.047   5
   2   3 -20-1046.72 1089.20   5
   2   3 -19 53035.7 7095.13   5
   2   3 -18-481.297 758.777   5
   2   3 -17 10032.9 2889.00   5
   2   3 -16 548.163 1192.86   5
   2   3 -15 10692.6 2813.51   5
   2   3 -14 33272.0 4987.24   5
  -2  -3  13 1071.03 385.670   2
   2   3 -13 1114.97 1042.81   5
   2   3 -12 40017.6 5107.23   5
  -2  -3  12 35198.2 2516.15   2
   2   3 -11 25460.0 3970.57   5
   2   3 -10 14409.7 2800.26   6
   2   3 -10 14358.3 2868.90   5
   2   3  -9-58.4090 257.927   6
   2   3  -9 233.770 286.993   5
   2   3  -8 65.9159 334.599   6
   2   3  -8-173.204 499.300   5
   2   3  -7 24203.3 3209.35   6
   2   3  -7 31302.6 3784.75   5
   2   3  -6 2051.11 921.912   6
   2   3  -6 2881.47 1168.62   5
   2   3  -5 83631.2 5378.88   6
   2   3  -5 87406.7 5869.42   5
   2   3  -4 99457.7 6041.92   5
   2   3  -4 106119. 5733.58   6
  -2  -3   4 117020. 5832.14   6
   2   3  -3 14606.5 2165.04   5
  -2  -3   3 20557.8 2221.79   6
   2   3  -3 15372.3 2010.51   6
  -2  -3   2 4020.75 918.190   6
   2   3  -2 4690.50 1103.57   5
   2   3  -2 3416.55 868.952   6
   2   3  -1 54696.2 3708.05   5
   2   3  -1 58008.6 3529.71   6
  -2  -3   1 62112.9 3364.59   6
   2   3   0 1735.49 552.353   6
  -2  -3   0 1134.15 400.049   6
   2   3   0 1887.49 524.462   4
   2   3   1 309.312 209.418   4
  -2  -3  -1 524.407 278.673   6
   2   3   1 291.431 187.060   6
   2   3   2 190.431 173.047   4
  -2  -3  -2-234.585 160.758   6
   2   3   2 28.3732 134.209   6
   2   3   3 37026.8 2293.76   6
   2   3   3 38299.1 2425.48   4
   2   3   4 83182.7 3748.46   4
   2   3   4 81548.3 3500.91   6
   2   3   5 365.717 244.040   6
   2   3   5 52.7660 196.341   4
  -2  -3  -5 545.144 198.153   1
   2   3   6 23229.0 2048.12   4
  -2  -3  -6 24005.6 2232.45   3
   2   3   6 24404.7 1978.36   6
  -2  -3  -7 72188.3 4131.07   3
   2   3   7 67970.7 3739.32   4
  -2  -3  -8 418.029 321.287   3
   2   3   8 21.9912 223.665   4
  -2  -3  -9 22178.2 1395.32   5
  -2  -3  -9 22049.2 2428.29   3
  -2  -3 -10 952.941 574.467   3
  -2  -3 -10 552.656 283.688   5
  -2  -3 -11 25833.9 2905.29   3
  -2  -3 -11 23763.9 1792.04   5
  -2  -3 -12 4025.00 1214.55   3
  -2  -3 -12 2967.66 657.831   5
   2   3  13 14854.6 1108.59   1
  -2  -3 -13 14973.5 1645.57   5
  -2  -3 -13 13798.1 2308.46   3
  -2  -3 -14 6791.28 1174.71   5
  -2  -3 -14 6672.62 1691.51   3
  -2  -3 -15 311.896 506.252   3
  -2  -3 -15 323.809 296.513   5
  -2  -3 -16 22962.7 3389.73   3
  -2  -3 -16 20434.2 2312.93   5
  -2  -3 -17 26367.9 3733.96   3
  -2  -3 -18 7770.69 2077.99   3
  -2  -3 -19 24163.8 3846.58   3
  -2  -3 -20 1921.70 1075.58   3
  -2  -3 -21 17913.7 3437.53   3
  -2  -3 -22-79.3880 845.421   3
  -2  -3 -23 824.910 972.220   3
   2   4 -21 1030.29 1145.45   5
   2   4 -20 1168.25 1187.25   5
   2   4 -19 24124.4 5007.69   5
   2   4 -18 3176.11 1805.74   5
   2   4 -17 969.340 1190.13   5
   2   4 -16 683.862 866.435   5
   2   4 -15 5076.53 2089.57   5
   2   4 -14 28927.8 4970.20   5
   2   4 -13 4030.93 1766.12   5
   2   4 -13 1929.30 1193.08   6
   2   4 -12 519.965 619.405   6
   2   4 -12 18.3690 758.332   5
   2   4 -11 18148.1 3569.83   5
   2   4 -11 20582.8 3641.30   6
   2   4 -10 30406.9 4526.34   5
   2   4 -10 37482.8 4827.05   6
   2   4  -9 2183.70 1196.89   5
   2   4  -9 3323.51 1381.18   6
   2   4  -8 71912.8 6410.74   5
   2   4  -8 80705.9 6577.64   6
   2   4  -7 7223.81 1864.70   6
   2   4  -7 5588.94 1726.69   5
   2   4  -6 13492.8 2555.97   5
   2   4  -6 15132.4 2570.62   6
   2   4  -5 81499.2 5847.01   6
   2   4  -4 138880. 7403.08   6
   2   4  -3 2915.40 1032.04   6
   2   4  -2 71657.9 4887.49   6
  -2  -4   1 41747.4 3146.73   6
   2   4  -1 41014.5 3543.87   6
  -2  -4   0 22057.6 2161.80   6
   2   4   0 19551.9 2337.28   6
   2   4   1 3861.17 823.978   4
  -2  -4  -1 3535.80 805.626   6
   2   4   1 2863.76 836.670   6
   2   4   2 834.568 471.750   6
   2   4   2 1377.14 479.008   4
  -2  -4  -2 793.553 365.534   6
  -2  -4  -3 28292.6 2209.10   6
   2   4   3 26942.8 2420.75   6
   2   4   3 25950.7 2130.26   4
   2   4   4 882.197 432.443   4
   2   4   4 682.478 413.501   6
   2   4   5 1602.02 563.638   6
   2   4   5 1567.21 527.402   4
  -2  -4  -5 1580.52 456.535   1
   2   4   5 1215.85 368.024   5
   2   4   6 95467.5 3201.44   5
   2   4   6 92168.4 4651.64   6
   2   4   6 92098.2 4368.34   4
  -2  -4  -6 95648.3 3471.86   1
   2   4   7 47401.1 2267.82   5
  -2  -4  -7 61601.0 3917.80   3
   2   4   7 56616.4 3654.38   6
   2   4   7 56250.8 3411.73   4
  -2  -4  -8 4070.79 1076.94   3
   2   4   8 4251.70 1006.03   6
   2   4   8 3753.04 885.352   4
   2   4   8 3271.42 621.410   5
   2   4   9 14996.5 1975.88   6
   2   4   9 10696.7 1253.22   5
  -2  -4  -9 15136.4 2084.79   3
   2   4   9 15736.6 1899.83   4
  -2  -4 -10 75945.2 4886.59   3
   2   4  10 78643.3 4750.59   6
  -2  -4 -11 973.922 610.746   3
  -2  -4 -12-129.208 359.376   3
  -2  -4 -13 21374.6 2942.58   3
  -2  -4 -14 191.315 379.029   3
  -2  -4 -15 387.177 307.345   3
  -2  -4 -16 12089.8 2469.84   3
  -2  -4 -17 2300.84 1122.51   3
  -2  -4 -18 159.173 536.822   3
  -2  -4 -19 1045.07 867.231   3
  -2  -4 -20-1321.47 960.021   3
  -2  -4 -21 9106.32 2544.19   3
  -2  -4 -22-769.381 793.060   3
  -2  -4 -23-539.760 724.823   3
   2   5 -20 766.324 1086.50   5
   2   5 -19 3075.89 1902.36   5
   2   5 -18 2007.34 1511.80   5
   2   5 -17 6675.08 2842.86   5
   2   5 -16 15322.5 4106.23   5
   2   5 -15 688.145 825.518   6
   2   5 -15 3802.22 1924.28   5
   2   5 -14-1205.32 1038.75   6
   2   5 -14 1221.77 1096.45   5
   2   5 -13 8441.32 2871.72   5
   2   5 -13 5557.18 2110.05   6
   2   5 -12 33794.9 5201.98   6
   2   5 -12 38717.4 5699.73   5
   2   5 -11 15635.2 3404.67   5
   2   5 -11 17436.6 3659.39   6
   2   5 -10 8464.22 2596.97   5
   2   5 -10 7911.83 2356.23   6
   2   5  -9 23028.9 3896.47   5
   2   5  -9 27435.2 4246.97   6
   2   5  -8 56082.8 5881.50   6
   2   5  -7 1197.90 821.486   6
   2   5  -6 31776.2 4095.30   6
   2   5  -5 3601.91 1293.73   6
   2   5  -4 14358.5 2583.84   6
   2   5  -3 32063.1 3792.91   6
   2   5  -2-183.424 298.804   6
   2   5  -1 8297.36 1750.53   6
   2   5   0 5657.13 1449.21   6
   2   5   1 75559.3 5221.58   6
   2   5   2 424.211 309.930   4
   2   5   2 178.583 303.584   6
   2   5   3 415.785 366.183   6
   2   5   3 116.802 181.037   4
   2   5   4 4090.81 1098.31   6
   2   5   4 3580.63 849.783   4
  -2  -5  -5 1795.02 579.904   1
   2   5   5 1764.12 606.871   4
   2   5   5 977.908 481.670   6
   2   5   6 55648.6 3506.96   4
   2   5   6 59095.5 3063.44   5
  -2  -5  -6 60137.3 3203.20   1
   2   5   6 54034.8 4089.41   6
   2   5   7 4333.48 956.257   4
  -2  -5  -7 4931.57 1128.01   3
  -2  -5  -7 5438.86 902.816   1
   2   5   7 5193.26 848.375   5
   2   5   7 4423.25 1146.92   6
   2   5   8 15989.2 1537.97   5
   2   5   8 14621.9 1831.69   4
  -2  -5  -8 13461.0 1988.79   3
   2   5   8 15527.9 2192.54   6
   2   5   9 589.331 363.970   4
   2   5   9-97.4028 172.749   5
  -2  -5  -9 455.736 389.888   3
   2   5   9 319.915 387.858   6
  -2  -5 -10 21026.7 2662.86   3
   2   5  10 28085.5 3064.14   6
   2   5  10 27327.0 2666.15   4
   2   5  11 259.597 318.820   6
  -2  -5 -11-249.982 331.151   3
   2   5  12 1970.35 845.155   6
  -2  -5 -12 1651.88 730.327   3
  -2  -5 -13 10527.0 2042.23   3
   2   5  13 8096.69 1796.64   6
  -2  -5 -14 42866.7 4415.78   3
   2   5  14 45377.3 4363.99   6
  -2  -5 -15 14567.4 2620.80   3
   2   5  15 13891.3 2492.23   6
   2   5  16 2085.50 978.071   6
  -2  -5 -16 1881.40 1036.21   3
  -2  -5 -17 396.012 659.027   3
  -2  -5 -18 9928.55 2495.28   3
  -2  -5 -19 9974.49 2517.55   3
  -2  -5 -20 927.164 853.563   3
  -2  -5 -21-8.89313 324.556   3
  -2  -5 -22 2030.66 903.492   3
   2   6 -19 1033.15 1266.19   5
   2   6 -18 7837.60 3028.10   5
   2   6 -17 47345.5 7613.74   5
   2   6 -17 42763.5 7074.61   6
   2   6 -16 11239.6 3523.34   6
   2   6 -16 20825.5 4850.26   5
   2   6 -15 5651.78 2437.64   5
   2   6 -15 8766.07 2875.74   6
   2   6 -14 576.874 800.050   6
   2   6 -14 5.30568 415.054   5
   2   6 -13 29804.6 5346.41   6
   2   6 -13 28838.7 5400.13   5
   2   6 -12-489.636 701.134   6
   2   6 -12-476.616 767.871   5
   2   6 -11 947.661 805.488   6
   2   6 -11 74.3520 439.753   5
   2   6 -10 28004.0 4786.96   6
   2   6 -10 18332.3 3887.24   5
   2   6  -9 926.009 862.353   6
   2   6  -8 21013.1 3925.61   6
   2   6  -7 3251.98 1474.59   6
   2   6  -6 313.331 250.802   6
   2   6  -5 8814.02 2291.34   6
   2   6  -4 36667.7 4616.78   6
   2   6  -3 26828.6 3876.55   6
   2   6  -2 24891.3 3609.29   6
   2   6  -1 4453.05 1470.77   6
   2   6   0 1804.16 926.974   6
   2   6   1 32192.6 3820.76   6
   2   6   2 3818.82 1231.96   6
   2   6   2 3017.63 842.807   4
   2   6   3 271.313 227.912   4
   2   6   3 695.868 666.917   6
   2   6   4 610.263 668.350   6
  -2  -6  -4 669.759 444.361   1
   2   6   4 609.705 399.235   4
  -2  -6  -5 41921.0 3166.27   1
   2   6   5 40981.8 4028.81   6
   2   6   5 43531.3 3233.40   4
   2   6   6 24527.3 2426.73   4
   2   6   6 21469.4 2902.57   6
  -2  -6  -6 23978.7 2295.11   1
   2   6   7 694.578 448.446   4
  -2  -6  -7 1716.29 759.759   3
  -2  -6  -7 1026.62 469.534   1
   2   6   7 1086.33 519.237   6
   2   6   8 8797.80 1492.47   4
  -2  -6  -8 6937.49 1504.82   3
   2   6   8 4104.10 1284.59   6
   2   6   9 24877.2 3219.83   6
  -2  -6  -9 19373.3 2579.07   3
   2   6   9 24191.5 2523.62   4
  -2  -6 -10 4734.77 1298.80   3
   2   6  10 5678.68 1251.49   4
   2   6  10 6040.79 1565.07   6
   2   6  11-107.807 259.240   6
  -2  -6 -11-563.112 482.880   3
   2   6  11 254.780 197.299   4
  -2  -6 -12 20642.5 2898.71   3
   2   6  12 26305.0 3397.99   6
  -2  -6 -13 694.755 547.190   3
   2   6  13 1282.58 824.254   6
  -2  -6 -14 5940.03 1691.16   3
   2   6  14 8222.63 2013.50   6
   2   6  15 33342.3 4073.26   6
  -2  -6 -15 22111.4 3319.88   3
  -2  -6 -16 605.953 453.941   3
   2   6  16-42.8521 320.613   6
  -2  -6 -17 12350.5 2677.43   3
   2   6  17 10838.4 2406.65   6
   2   6  18 2043.80 1087.20   6
  -2  -6 -18 1545.74 995.634   3
  -2  -6 -19 11859.3 2766.50   3
   2   6  19 15988.3 3103.66   6
  -2  -6 -20 10308.7 2670.10   3
   2   6  20 10955.9 2642.79   6
  -2  -6 -21 968.595 898.941   3
   2   6  21 199.555 421.873   6
   2   6  22 9285.39 2740.37   6
   2   7 -17 2301.83 1751.51   6
   2   7 -17 2783.64 2093.87   5
   2   7 -16 1053.46 1008.60   6
   2   7 -16 1670.17 1563.94   5
   2   7 -15 2362.83 1707.05   6
   2   7 -15-863.089 1137.83   5
   2   7 -14 7960.93 2995.96   6
   2   7 -14 7611.92 3058.77   5
   2   7 -13 7973.57 3019.95   6
   2   7 -13 3750.10 2100.37   5
   2   7 -12 2883.63 1724.46   6
   2   7 -12 2298.48 1609.41   5
   2   7 -11 22.6885 327.202   6
   2   7 -11 524.693 828.858   5
   2   7 -10 52773.9 7056.21   6
   2   7  -9 837.452 620.776   6
   2   7  -8 11085.7 3049.37   6
   2   7  -7 921.957 867.947   6
   2   7  -6 3498.59 1605.57   6
   2   7  -5-20.3789 221.584   6
   2   7  -4 2381.14 1232.51   6
   2   7  -3 4613.81 1712.68   6
   2   7  -2 88648.1 7641.69   6
   2   7  -1-796.748 732.191   6
   2   7   0 36764.8 4683.56   6
   2   7   1 43676.6 5016.68   6
   2   7   2 27825.6 3921.19   6
   2   7   2 22197.2 2458.31   4
  -2  -7  -3 416.807 350.429   1
   2   7   3 1.34927 264.163   4
   2   7   3 124.316 448.682   6
  -2  -7  -4 107164. 5829.83   1
   2   7   4 103898. 7499.72   6
   2   7   4 105113. 5479.27   4
   2   7   5 7914.32 1438.98   4
  -2  -7  -5 8123.72 1497.41   1
   2   7   5 8176.88 2010.76   6
   2   7   6 887.841 770.801   6
  -2  -7  -6 1270.74 588.837   1
   2   7   6 656.198 430.466   4
   2   7   7 85.6954 275.784   6
   2   7   7 550.879 392.862   4
  -2  -7  -7-422.107 398.121   3
  -2  -7  -7-32.9572 173.791   1
   2   7   8 9882.15 1660.19   4
   2   7   8 9372.80 2176.02   6
  -2  -7  -8 8995.76 1822.83   3
   2   7   9 689.087 486.961   6
   2   7   9 1407.75 627.763   4
  -2  -7  -9 803.432 487.206   3
  -2  -7 -10 19236.6 2757.04   3
   2   7  10 27125.7 3784.34   6
   2   7  10 30008.7 3051.43   4
  -2  -7 -11 288.617 388.686   3
   2   7  11 68.4575 271.554   6
  -2  -7 -12 12311.0 2367.71   3
   2   7  12 12973.2 2648.10   6
  -2  -7 -13 1632.72 884.704   3
   2   7  13 1410.12 793.723   6
  -2  -7 -14-89.1091 577.158   3
   2   7  14 646.168 634.487   6
  -2  -7 -15 3429.08 1315.76   3
   2   7  15 5166.98 1649.51   6
  -2  -7 -16 3889.72 1571.13   3
   2   7  16 5283.98 1817.93   6
  -2  -7 -17-1109.66 845.463   3
   2   7  17 218.812 400.330   6
  -2  -7 -18-192.431 479.493   3
   2   7  18-228.945 459.756   6
  -2  -7 -19-367.385 576.563   3
   2   7  19 1729.63 1090.10   6
   2   7  20 4831.19 1845.21   6
   2   8 -15 4216.58 2397.01   6
   2   8 -15 2342.16 1907.23   5
   2   8 -14 18754.0 4957.04   6
   2   8 -14 11179.7 3859.70   5
   2   8 -13 2813.46 1877.51   6
   2   8 -13 603.378 1030.62   5
   2   8 -12 1060.98 1176.32   6
   2   8 -12 1225.75 1344.75   5
   2   8 -11 4420.04 2233.04   6
   2   8 -10 25647.7 5232.62   6
   2   8  -9-96.6394 447.135   6
   2   8  -8 773.505 906.811   6
   2   8  -7 939.419 957.000   6
   2   8  -6 20924.2 4394.62   6
   2   8  -5 19449.5 4135.74   6
   2   8  -4 688.988 768.334   6
   2   8  -3 2937.37 1542.76   6
   2   8  -2 21535.8 4054.68   6
   2   8  -1 5065.38 1856.20   6
   2   8   0-484.028 637.965   6
   2   8   1 19928.6 3810.69   6
   2   8   1 17079.7 2362.36   4
  -2  -8  -2 2196.64 912.324   1
   2   8   2 2690.67 897.914   4
   2   8   2 3135.00 1398.28   6
   2   8   3 731.897 456.768   4
  -2  -8  -3 1291.86 714.660   1
   2   8   3-499.119 613.108   6
  -2  -8  -4 13722.6 2226.14   1
   2   8   4 12364.5 2903.85   6
   2   8   4 16107.6 2222.67   4
   2   8   5 7090.46 1482.49   4
   2   8   5 9544.43 2462.86   6
  -2  -8  -5 8520.28 1713.02   1
   2   8   6-340.021 333.378   4
  -2  -8  -6 1654.08 719.244   1
   2   8   6 1137.29 773.424   6
   2   8   7 4423.47 1719.11   6
  -2  -8  -7 3419.59 1136.29   3
  -2  -8  -7 3883.57 1107.29   1
   2   8   7 2764.86 927.360   4
  -2  -8  -8 19407.4 2770.49   3
   2   8   8 21901.3 3715.30   6
   2   8   8 23910.4 2769.34   4
   2   8   9 2489.63 1258.27   6
  -2  -8  -9 8361.97 1806.47   3
  -2  -8 -10 26.7146 228.646   3
   2   8  10-226.805 438.717   6
  -2  -8 -11 643.467 532.348   3
   2   8  11 294.692 486.446   6
  -2  -8 -12 24435.0 3385.18   3
   2   8  12 31787.4 4621.75   6
   2   8  13 1658.75 1086.01   6
  -2  -8 -13 2980.57 1196.92   3
  -2  -8 -14-355.184 482.143   3
   2   8  14 673.899 700.813   6
   2   8  15 1237.15 980.173   6
   2   8  16 8297.53 2471.20   6
   2   8  17 3571.66 1650.66   6
   2   9 -12 10994.7 3825.98   6
   2   9 -12 5390.49 2779.34   5
   2   9 -11 3322.50 2086.22   6
   2   9 -10 4491.65 2361.41   6
   2   9  -9 1213.42 1218.54   6
   2   9  -8 6932.89 2699.57   6
   2   9  -7 2643.15 1698.01   6
   2   9  -6-1579.42 1311.87   6
   2   9  -5 2707.82 1620.03   6
   2   9  -4 10951.1 3259.52   6
   2   9  -3 10548.2 3183.00   6
   2   9  -2 3050.29 1689.77   6
   2   9  -1-43.0658 362.404   6
   2   9   0 13373.4 3385.12   6
  -2  -9   0 15719.2 2693.31   1
   2   9   0 16742.7 2516.44   4
   2   9   1 7323.85 1661.83   4
   2   9   1 9129.57 2722.59   6
  -2  -9  -1 5937.22 1628.91   1
  -2  -9  -2 8731.91 1884.97   1
   2   9   2 6269.21 2289.76   6
   2   9   2 5161.11 1383.95   4
   2   9   3 8661.06 2532.35   6
   2   9   3 8409.71 1732.07   4
  -2  -9  -3 10430.1 2102.65   1
   2   9   4 3862.19 1586.08   6
   2   9   4 1776.73 792.990   4
  -2  -9  -4 3786.60 1235.49   1
   2   9   5 9956.49 1863.14   4
   2   9   5 5870.40 2085.90   6
  -2  -9  -5 8762.07 1888.04   1
  -2  -9  -6 9925.20 1989.33   3
  -2  -9  -6 11637.6 2108.78   1
   2   9   6 5554.74 2067.68   6
   2   9   7 7533.94 2415.51   6
   2   9   8 81.0340 336.584   6
   2   9   9-147.047 455.192   6
   2   9  10 1547.67 1146.77   6
   2   9  11 201.936 479.616   6
   2   9  12 1902.26 1257.11   6
   2   9  13 4553.82 2049.79   6
   2   9  14 1574.02 1167.16   6
   2  10  -8 30177.2 6264.53   6
   2  10  -7 769.363 1060.78   6
   2  10  -6 2726.90 1928.58   6
   2  10  -5-156.156 575.557   6
   2  10  -4 33500.0 6181.72   6
   2  10  -3-965.593 1093.56   6
  -2 -10   2 5229.02 1706.37   1
   2  10  -2 850.933 1003.22   6
   2  10  -1 626.456 546.381   4
   2  10  -1 827.694 989.319   6
  -2 -10   1-305.538 460.944   1
   2  10   0 7415.84 1806.54   4
  -2 -10   0 8309.12 2063.33   1
   2  10   0 5849.59 2447.25   6
   2  10   1 3325.39 1190.78   4
  -2 -10  -1 2190.27 998.582   1
   2  10   1 1735.44 1329.03   6
   2  10   2 1932.68 1392.07   6
  -2 -10  -2 3868.64 1337.14   1
  -2 -10  -3 445.273 486.892   1
   2  10   3 120.181 452.085   6
   2  10   4-300.269 632.604   6
  -2 -10  -4 129.630 300.168   1
   2  10   5 353.962 687.237   6
   2  10   6 21361.8 4521.44   6
   2  10   7 1372.76 789.244   6
   2  10   8 995.206 1003.93   6
   2  10   9 1377.51 909.432   6
   2  10  10 32201.0 5512.15   6
   2  10  11 2089.48 1440.62   6
  -3   8   7-778.345 907.321   6
  -3   8   6 1716.49 1293.04   6
  -3   8   5 700.146 842.162   6
  -3   8   4-1348.86 1151.08   6
  -3   8   3-126.022 417.955   6
  -3   8   2-1214.91 1099.57   6
  -3   8   1-306.304 590.907   6
  -3   8   0 988.831 1006.24   6
  -3   8  -1 978.494 1025.13   6
   3  -8   1 130.882 306.388   1
  -3   8  -2 796.929 924.916   6
   3  -8   2 994.244 737.549   1
  -3   8  -3 1183.17 1140.34   6
   3  -8   3 2160.81 1222.45   1
   3  -8   4 5239.64 1653.59   1
  -3   8  -4 3107.67 1835.67   6
   3  -8   5 9680.00 2274.28   1
  -3   8  -5 7457.29 2934.62   6
   3  -8   6 3397.01 1393.16   1
  -3   8  -6 2936.72 2038.89   6
   3  -8   7 1615.96 942.327   1
  -3   8  -7 1874.27 1146.93   6
   3  -8   8 2293.61 1274.03   1
  -3   7  12 36.9928 326.814   6
  -3   7  11 313.171 767.988   6
  -3   7  10-392.625 618.647   6
  -3   7   9 1934.26 1266.37   6
  -3   7   8 1081.41 957.919   6
  -3   7   7 5621.04 2112.14   6
  -3   7   6 8364.53 2593.87   6
  -3   7   5 7656.63 2504.31   6
  -3   7   4 4896.65 1914.18   6
  -3   7   3 8736.21 2633.18   6
  -3   7   2 19746.8 4072.02   6
  -3   7   1 7991.22 2632.75   6
   3  -7   0 5907.78 1718.23   1
  -3   7   0 3243.79 1656.78   6
  -3   7  -1-453.852 682.790   6
   3  -7   1 399.707 450.426   1
  -3   7  -2-49.3791 358.803   6
   3  -7   2-225.753 351.686   1
   3  -7   3 704.131 588.837   1
  -3   7  -3 1341.01 969.011   6
  -3   7  -4 8039.45 2685.33   6
   3  -7   4 2676.18 1190.27   1
  -3   7  -5 2309.19 1478.81   6
   3  -7   5 2012.85 976.616   1
   3  -7   6 1372.04 825.583   1
  -3   7  -6-444.565 690.525   6
  -3   7  -7-625.128 836.582   6
   3  -7   7 179.996 525.600   1
  -3   7  -8 1344.23 1208.22   6
   3  -7   8 1221.07 832.397   1
  -3   7  -9 2938.27 1801.44   6
   3  -7   9 641.736 586.721   1
  -3   7 -10 2019.92 1525.27   6
   3  -7  10 580.632 587.029   1
  -3   7 -11 3970.35 2154.06   6
   3  -7  11 4099.00 1550.74   1
   3  -7  12 12471.6 2640.76   1
  -3   7 -12 14856.5 4323.15   6
  -3   7 -13 7349.06 3051.63   6
   3  -7  13 5628.39 1798.81   1
   3  -7  14 1488.91 934.239   1
  -3   6  15 324.729 558.740   6
  -3   6  14 8307.24 2488.64   6
  -3   6  13 8962.10 2530.38   6
  -3   6  12 3378.12 1550.81   6
  -3   6  11 1024.53 757.800   6
  -3   6  10-336.938 522.947   6
  -3   6   9-128.688 351.254   6
  -3   6   8 1764.43 997.578   6
  -3   6   7 3.40303 742.869   6
  -3   6   6-356.010 528.490   6
  -3   6   5 486.617 700.898   6
  -3   6   4 573.445 641.299   6
  -3   6   3 3309.35 1579.90   6
  -3   6   2 11598.6 2866.16   6
  -3   6   1 7676.11 2283.91   6
   3  -6   0 3328.96 1194.49   1
  -3   6   0 1684.79 1087.91   6
  -3   6  -1 2745.07 1389.18   6
   3  -6   1 4358.86 1338.60   1
  -3   6  -2 11529.9 2897.04   6
   3  -6   2 13901.1 2398.04   1
  -3   6  -3 8592.31 2663.94   6
   3  -6   3 10059.0 2044.67   1
   3  -6   4 1955.55 892.678   1
  -3   6  -4 3115.96 1659.67   6
  -3   6  -5 5678.71 2117.66   6
   3  -6   5 5375.81 1476.06   1
  -3   6  -6 11120.8 3044.29   6
   3  -6   6 9803.80 2058.88   1
   3  -6   7 23876.0 3236.91   1
  -3   6  -7 23812.5 4750.21   6
  -3   6  -8 8055.71 2907.40   6
   3  -6   8 5468.29 1553.02   1
  -3   6  -9 2630.27 1582.50   6
   3  -6   9 504.936 560.264   1
  -3   6 -10-608.904 796.719   6
   3  -6  10 49.5558 222.525   1
  -3   6 -11 1541.55 1267.66   6
   3  -6  11 398.391 498.589   1
  -3   6 -12 6272.54 2602.65   6
   3  -6  12 6779.10 1837.04   1
   3  -6  13 4605.61 1478.70   1
  -3   6 -13 6158.71 2631.58   6
   3  -6  14 440.732 504.075   1
  -3   6 -14 336.213 717.414   6
  -3   6 -15 1183.74 1243.98   6
   3  -6  15-289.459 441.684   1
  -3   6 -16 3832.68 2269.48   6
   3  -6  16 4521.92 1544.91   1
   3  -6  17 2303.26 1142.89   1
   3  -6  18-132.957 310.636   1
  -3   5  17 79.9829 341.094   6
  -3   5  16 5037.27 1825.14   6
  -3   5  15 7042.71 2198.40   6
  -3   5  14 5949.67 1910.69   6
  -3   5  13 3461.47 1381.50   6
  -3   5  12 3045.66 1367.61   6
  -3   5  11 2869.61 1296.80   6
  -3   5  10 233.198 401.344   6
  -3   5   9 2763.54 1256.22   6
  -3   5   8 3173.20 1431.86   6
  -3   5   7 5090.00 1696.63   6
  -3   5   6 8670.09 2198.49   6
  -3   5   5 2726.90 1217.87   6
  -3   5   4 2082.72 1051.34   6
  -3   5   3 252.770 355.297   6
  -3   5   2 1372.38 874.831   6
  -3   5   1 5.48011 145.172   6
  -3   5   0 1253.14 840.161   6
   3  -5   0 524.731 528.828   1
   3  -5   1 136.733 210.012   1
  -3   5  -1 1031.50 775.275   6
  -3   5  -2-217.763 394.992   6
   3  -5   2 1070.67 581.283   1
  -3   5  -3 305.235 436.184   6
   3  -5   3 295.182 338.878   1
   3  -5   4 298.033 284.358   1
  -3   5  -4 781.856 725.511   6
  -3   5  -5 5724.28 2061.17   6
   3  -5   5 8417.03 1781.48   1
   3  -5   6 26942.7 3206.48   1
  -3   5  -6 26280.7 4325.22   6
  -3   5  -7 15512.5 3563.49   6
   3  -5   7 15787.6 2453.95   1
  -3   5  -8 6070.86 2244.51   6
   3  -5   8 5013.64 1407.13   1
  -3   5  -9 10506.9 3104.29   6
   3  -5   9 7162.30 1664.84   1
  -3   5 -10 9437.62 2897.26   6
   3  -5  10 6045.04 1566.42   1
   3  -5  11 3624.10 1205.89   1
  -3   5 -11 2368.02 1716.59   6
  -3   5 -12 473.529 696.400   6
   3  -5  12 662.388 538.115   1
  -3   5 -13 2181.71 1512.40   6
   3  -5  13 1049.75 703.357   1
  -3   5 -14 5319.60 2397.51   6
   3  -5  14 3055.70 1131.65   1
  -3   5 -15 2328.74 1653.95   6
  -3   5 -16 1170.15 1222.58   6
  -3   5 -17 1904.99 1553.81   6
  -3   5 -18 2890.91 1963.31   6
   3  -4 -21-1592.98 1121.65   5
   3  -4 -20 2401.74 1311.94   5
  -3   4  19 3494.33 1582.94   6
   3  -4 -19 39.4201 343.325   5
  -3   4  18-246.075 457.569   6
   3  -4 -18-1326.54 954.412   5
  -3   4  17 1224.71 940.054   6
   3  -4 -17-1325.69 922.589   5
   3  -4 -16 3775.10 1565.45   5
  -3   4  16 3117.73 1331.42   6
  -3   4  15 580.706 556.780   6
  -3   4  14 1579.79 951.447   6
  -3   4  13 4668.36 1542.42   6
  -3   4  12 27.6421 224.480   6
  -3   4  11 138.605 309.675   6
  -3   4  10 500.584 503.950   6
  -3   4   9 2079.65 933.696   6
  -3   4   8 8360.65 1983.12   6
  -3   4   7 22432.0 3150.11   6
  -3   4   6 26654.6 3452.43   6
  -3   4   5 29661.7 3647.70   6
  -3   4   5 20398.6 1186.97   4
  -3   4   4 22677.6 3228.29   6
  -3   4   4 18195.0 1448.30   4
  -3   4   3 7063.59 1770.74   6
  -3   4   2 6399.30 1681.29   6
  -3   4   1 3570.82 1240.57   6
  -3   4   0 2836.78 1198.61   6
   3  -4   0 5044.77 1224.52   1
   3  -4   1 2486.92 834.366   1
  -3   4  -1 2717.05 1116.85   6
  -3   4  -2 853.201 635.249   6
   3  -4   2 597.217 227.078   3
   3  -4   2 791.564 489.278   1
  -3   4  -3 1310.24 911.118   6
   3  -4   3 1101.09 354.744   3
   3  -4   3 1541.45 657.309   1
   3  -4   4 2995.76 642.237   3
   3  -4   4 4490.03 1176.92   1
  -3   4  -4 2738.46 1309.61   6
   3  -4   5 570.830 330.760   3
  -3   4  -5-35.9537 391.293   6
   3  -4   5-137.938 257.149   1
   3  -4   6 235.185 345.555   1
  -3   4  -6-16.8401 198.212   6
  -3   4  -7 1102.60 851.644   6
   3  -4   7 123.946 332.064   1
  -3   4  -8 340.024 599.788   6
   3  -4   8-224.588 288.449   1
  -3   4  -9 649.503 579.026   6
   3  -4   9 182.653 388.612   1
  -3   4 -10 6518.86 2255.58   6
   3  -4  10 4606.03 1230.56   1
  -3   4 -11 3058.95 1793.54   6
   3  -4  11 3698.47 1173.58   1
  -3   4 -12 2427.27 1450.09   6
   3  -4  12 1345.75 706.635   1
  -3   4 -13 7047.05 2766.32   6
  -3   4 -14 19424.9 4653.26   6
  -3   4 -15 5638.63 2416.98   6
  -3   4 -16 5090.70 2450.00   6
  -3   4 -17 12651.6 3843.85   6
  -3   4 -18 7519.77 3041.76   6
  -3   4 -19 441.334 854.231   6
  -3   4 -20-209.217 592.828   6
  -3   4 -21-600.029 1070.32   5
   3  -3 -22-2727.64 1478.52   5
   3  -3 -21 1458.23 1093.75   5
   3  -3 -20 757.637 779.163   5
   3  -3 -19-890.395 822.960   5
   3  -3 -18-188.906 438.112   5
   3  -3 -17 1841.32 1084.87   5
   3  -3 -16 7879.02 2194.80   5
   3  -3 -15 7130.10 2012.96   5
   3  -3 -14 3942.92 1481.77   5
   3  -3 -13 1760.39 978.195   5
   3  -3 -12 7059.75 1873.87   5
   3  -3 -11 7506.68 1838.96   5
  -3   3  11 7373.28 1799.24   6
  -3   3  10 651.567 598.512   6
   3  -3 -10-387.197 450.980   5
  -3   3   9 166.552 187.886   6
  -3   3   9-175.573 159.315   3
  -3   3   8 212.620 220.415   6
  -3   3   8 172.289 162.095   3
  -3   3   7 325.565 245.926   6
  -3   3   6 2188.42 888.569   6
  -3   3   5 2306.33 323.312   4
  -3   3   5 3904.14 1169.41   6
  -3   3   4 398.344 176.997   4
  -3   3   4 411.859 411.730   6
  -3   3   3 1071.94 329.412   4
  -3   3   3 115.138 134.603   6
  -3   3   2 386.481 411.327   6
  -3   3   1 3111.35 1045.21   6
  -3   3   0 11831.8 2055.28   6
   3  -3   1 31479.2 2797.60   1
  -3   3  -1 29616.5 3316.95   6
   3  -3   2 35710.0 1750.71   3
  -3   3  -2 38487.6 3950.58   6
   3  -3   2 38741.4 3119.46   1
  -3   3  -3 43570.9 2389.47   3
   3  -3   3 35276.1 2027.34   3
  -3   3  -3 41134.0 4193.55   6
   3  -3   3 45195.5 3400.73   1
   3  -3   4 49911.4 3596.65   1
  -3   3  -4 55156.6 2969.43   3
   3  -3   4 42083.6 2488.09   3
  -3   3  -4 51283.7 4885.77   6
   3  -3   5 29227.9 2771.34   1
  -3   3  -5 28800.3 2296.92   3
   3  -3   5 25513.3 2091.86   3
  -3   3  -5 26796.3 3677.32   6
  -3   3  -6 15050.0 2871.03   6
  -3   3  -6 15605.9 1801.50   3
   3  -3   6 12762.4 1846.95   1
   3  -3   7 19546.8 2297.99   1
  -3   3  -7 18235.3 2080.85   3
  -3   3  -7 19698.3 3307.68   6
  -3   3  -8 6822.46 2138.78   6
   3  -3   8 8898.97 1573.57   1
  -3   3  -8 9879.95 1617.44   3
   3  -3   9 1353.69 658.321   1
  -3   3  -9 1737.03 1087.63   6
  -3   3  -9 1626.95 680.261   3
  -3   3 -10 1005.37 819.102   6
   3  -3  10 1024.79 582.454   1
  -3   3 -10 935.672 438.961   3
  -3   3 -11 388.258 545.762   6
  -3   3 -11-186.300 325.632   3
  -3   3 -12 682.929 590.276   3
  -3   3 -12 2086.34 1274.27   6
  -3   3 -13 486.743 668.082   6
  -3   3 -13 251.042 211.464   3
  -3   3 -14 1899.98 1291.72   6
  -3   3 -14 462.341 543.618   3
  -3   3 -15 557.515 752.658   6
  -3   3 -15 1694.95 877.138   3
  -3   3 -16 1468.00 1223.75   6
  -3   3 -16-157.652 340.674   3
  -3   3 -17 470.124 742.818   6
  -3   3 -17 36.5906 257.819   3
  -3   3 -18 5172.57 2476.47   6
  -3   3 -18 2404.90 1223.68   3
  -3   3 -19 4386.16 1589.03   3
  -3   3 -20 750.025 1032.51   5
  -3   3 -20 4082.32 1712.50   3
  -3   3 -21 5933.40 2689.91   5
  -3   3 -21 7615.18 2275.64   3
  -3   3 -22 6006.37 2758.27   5
  -3   3 -23 1895.45 1644.31   5
   3  -2 -23 349.047 668.794   5
   3  -2 -22-675.885 823.553   5
   3  -2 -21 1239.78 1028.17   5
   3  -2 -20 57.0751 382.886   5
   3  -2 -19 25.2233 320.046   5
   3  -2 -18 366.353 563.627   5
   3  -2 -17 603.656 669.206   5
   3  -2 -16 843.240 741.934   5
   3  -2 -15 371.983 283.803   2
   3  -2 -15 728.764 707.017   5
   3  -2 -14 2686.08 778.579   2
   3  -2 -14 3527.44 1346.98   5
   3  -2 -13 4347.57 1477.55   5
   3  -2 -12 3651.49 1407.35   5
   3  -2 -11 1218.32 752.570   5
   3  -2 -10 2459.13 1118.15   5
  -3   2   9 9240.16 1278.26   3
   3  -2  -9 8735.23 1888.11   5
  -3   2   8 13696.9 1428.89   3
   3  -2  -8 14221.0 2320.71   5
   3  -2  -7 16584.5 2446.37   5
  -3   2   7 16234.6 1411.18   3
  -3   2   7 16350.6 2234.82   6
  -3   2   6 6413.85 1386.34   6
  -3   2   6 5470.46 725.753   3
   3  -2  -6 6990.09 1553.34   5
  -3   2   5 14270.5 1020.82   3
  -3   2   5 15770.6 2080.18   6
  -3   2   4 15574.7 1050.29   4
  -3   2   4 18473.0 2226.94   6
  -3   2   3 12180.0 1059.77   4
  -3   2   3 11901.2 1770.34   6
  -3   2   2 4528.78 726.398   4
  -3   2   2 5187.51 1192.48   6
  -3   2   1 125.376 121.348   6
  -3   2   1-19.2688 71.2075   4
  -3   2   0-46.1579 144.132   6
  -3   2   0 94.6586 104.234   3
  -3   2  -1 75.3737 183.405   6
  -3   2  -1 194.187 124.570   3
  -3   2  -2-36.0322 97.9618   3
   3  -2   2-43.3403 162.008   1
  -3   2  -2 244.586 280.703   6
  -3   2  -3 2046.02 863.615   6
   3  -2   3 1396.35 401.492   3
   3  -2   3 2620.25 725.667   1
  -3   2  -3 1967.65 502.217   3
   3  -2   4 2621.37 599.202   3
  -3   2  -4 3365.35 753.210   3
   3  -2   4 2775.05 744.675   1
  -3   2  -4 2823.93 1071.84   6
   3  -2   5 4527.57 947.204   1
  -3   2  -5 4011.48 1325.37   6
   3  -2   5 3224.30 736.269   3
  -3   2  -5 5290.54 1004.84   3
  -3   2  -6 6805.41 1739.17   6
  -3   2  -6 8765.05 1377.59   3
   3  -2   6 7479.30 1249.44   1
  -3   2  -7 10339.5 2174.98   6
   3  -2   7 8973.48 1397.31   1
  -3   2  -7 12561.9 1734.65   3
   3  -2   8 13394.9 1731.91   1
  -3   2  -8 11263.9 2397.81   6
  -3   2  -8 13285.5 1873.67   3
  -3   2  -9 8115.94 2118.66   6
  -3   2  -9 8492.01 1579.94   3
   3  -2   9 8205.70 1425.59   1
   3  -2  10 6427.30 1243.72   1
  -3   2 -10 8040.81 2232.71   6
  -3   2 -10 6327.15 1437.76   3
  -3   2 -11 10020.5 2657.84   6
  -3   2 -11 13251.4 2193.40   3
  -3   2 -12 23398.3 4110.08   6
  -3   2 -12 23320.6 3031.19   3
  -3   2 -13 12726.1 3121.72   6
  -3   2 -13 13657.3 2372.72   3
   3  -2  13 15919.3 1928.26   2
  -3   2 -14 7226.69 2595.67   6
   3  -2  14 7631.24 1331.34   2
  -3   2 -14 9296.55 2027.08   3
  -3   2 -15 12618.4 3299.16   6
  -3   2 -15 18182.9 2951.80   3
   3  -2  15 16908.9 1966.81   2
  -3   2 -16 9018.24 2901.71   6
  -3   2 -16 9734.63 2287.38   3
  -3   2 -17-133.294 503.217   3
  -3   2 -18-30.4464 269.968   3
  -3   2 -19 2345.27 1512.37   5
  -3   2 -19 3.07075 277.223   3
  -3   2 -20-810.139 992.442   5
  -3   2 -20-818.870 761.558   3
  -3   2 -21 2209.16 1418.63   5
  -3   2 -21 2330.86 1178.85   3
  -3   2 -22 5048.67 2368.09   5
  -3   2 -22-402.893 611.451   3
  -3   2 -23-2292.96 1653.79   5
   3  -1 -23 614.051 816.332   5
   3  -1 -22 950.509 939.317   5
   3  -1 -21 830.873 876.541   5
   3  -1 -20 1249.58 1015.70   5
   3  -1 -19 6344.09 2278.27   5
   3  -1 -18 11314.4 2832.23   5
   3  -1 -17 2214.57 1213.92   5
   3  -1 -16 3157.54 1327.17   5
   3  -1 -15 4802.94 897.994   2
   3  -1 -15 1889.56 1086.08   5
   3  -1 -14 9762.73 1301.48   2
   3  -1 -14 6281.09 1798.92   5
   3  -1 -13 1368.72 514.998   2
   3  -1 -13 670.372 619.249   5
   3  -1 -12 905.416 425.729   2
   3  -1 -12 1284.84 724.729   5
   3  -1 -11 53.5640 98.3647   4
   3  -1 -11 373.472 282.720   2
   3  -1 -11 14.5294 514.022   5
   3  -1 -10-63.7883 124.753   2
   3  -1 -10 148.369 131.004   4
   3  -1  -9 4287.43 901.394   2
   3  -1  -9 3529.69 1142.00   5
   3  -1  -9 3479.19 514.437   4
  -3   1   8 10729.6 1437.53   3
   3  -1  -8 10117.9 1926.67   5
   3  -1  -8 11155.5 1464.03   2
   3  -1  -8 12034.5 930.724   4
  -3   1   7 17454.5 1719.26   3
   3  -1  -7 14136.7 2216.22   5
   3  -1  -7 17281.0 1123.37   4
  -3   1   6 17301.3 1558.05   3
   3  -1  -6 17715.5 2377.42   5
   3  -1  -6 14771.6 1082.68   4
   3  -1  -5 25259.3 1503.69   4
  -3   1   5 24727.6 1714.40   3
   3  -1  -5 24789.1 2770.90   5
   3  -1  -4 11599.0 1807.36   5
  -3   1   4 9958.90 1440.56   6
   3  -1  -4 11040.8 1049.23   4
  -3   1   4 10208.8 904.233   4
   3  -1  -3 4188.00 1082.86   5
  -3   1   3 5612.76 704.019   4
  -3   1   3 4990.77 988.604   6
  -3   1   2 7632.09 1196.62   6
  -3   1   2 7974.59 902.760   4
  -3   1   1 5246.38 987.450   6
  -3   1   1 5004.75 776.047   4
   3  -1   0 10955.4 1313.44   6
  -3   1   0 11555.3 972.043   3
  -3   1   0 10822.9 1232.67   4
  -3   1   0 10264.0 1395.51   6
  -3   1  -1 14257.6 1523.87   4
  -3   1  -1 12396.9 1084.45   3
   3  -1   1 12028.9 1409.90   6
  -3   1  -1 11104.3 1477.74   6
   3  -1   2 20838.5 1921.52   6
  -3   1  -2 23953.9 1660.67   3
  -3   1  -2 20966.8 2130.06   6
  -3   1  -3 23619.8 1992.50   1
  -3   1  -3 26245.4 1912.82   3
  -3   1  -3 25427.7 2559.13   6
   3  -1   3 24266.7 2178.47   6
  -3   1  -4 15744.6 1594.82   3
   3  -1   4 15112.6 1525.85   3
   3  -1   4 17669.7 1629.26   1
   3  -1   4 15836.8 1824.15   6
  -3   1  -4 13199.1 1924.05   6
   3  -1   5 8533.54 1401.26   6
  -3   1  -5 6775.15 1467.24   6
  -3   1  -5 7834.42 1228.54   3
   3  -1   5 6216.10 1037.01   3
   3  -1   5 7976.84 1106.58   1
  -3   1  -6 5364.68 1358.66   6
   3  -1   6 7648.68 1105.97   1
  -3   1  -6 8093.87 1306.14   3
  -3   1  -7 619.095 537.936   6
   3  -1   7 648.931 311.825   1
  -3   1  -7 226.943 340.125   3
  -3   1  -8 212.821 315.098   6
   3  -1   8 256.385 217.002   1
   3  -1   8-40.5234 114.158   2
  -3   1  -8 129.313 332.013   3
   3  -1   9-7.56032 90.2546   2
  -3   1  -9-235.220 343.021   6
   3  -1   9-83.6933 201.114   1
  -3   1  -9-67.6116 319.322   3
  -3   1 -10 355.097 445.621   6
   3  -1  10-0.50841 120.995   2
  -3   1 -10 499.800 310.050   3
   3  -1  10 724.576 421.314   1
  -3   1 -11 10015.1 2394.80   6
   3  -1  11 12478.0 1587.31   2
  -3   1 -11 8066.37 1676.74   3
  -3   1 -12 10645.0 2616.77   6
  -3   1 -12 16519.8 2513.46   3
   3  -1  12 15754.8 1767.81   2
  -3   1 -13 10358.4 2581.91   6
   3  -1  13 11000.1 1462.47   2
  -3   1 -13 9408.89 1947.24   3
   3  -1  14 10692.1 1433.83   2
  -3   1 -14 9651.34 2086.82   3
   3  -1  15 16068.9 1728.73   2
  -3   1 -15 14370.3 2616.51   3
  -3   1 -16 17072.7 3045.10   3
  -3   1 -17 6119.07 2137.70   5
  -3   1 -17 5328.28 1708.08   3
  -3   1 -18 1722.26 1173.89   5
  -3   1 -18 1893.82 1071.43   3
  -3   1 -19 2246.00 1584.78   5
  -3   1 -19 1843.67 1096.13   3
  -3   1 -20 5364.83 2162.26   5
  -3   1 -20 3626.02 1666.50   3
  -3   1 -21 189.604 563.525   5
  -3   1 -21 2976.61 1438.43   3
  -3   1 -22 1109.57 929.606   3
   3   0 -23 2681.86 1613.24   5
   3   0 -22 1775.06 1163.18   5
   3   0 -21 147.407 516.230   5
   3   0 -20-1210.20 1053.66   5
   3   0 -19 887.939 693.353   5
   3   0 -18 5782.80 2117.44   5
   3   0 -17 2512.57 1238.94   5
   3   0 -16 544.089 649.267   5
   3   0 -15 3171.52 1478.80   5
   3   0 -14 8798.38 1200.69   2
   3   0 -14 6129.41 1863.28   5
   3   0 -13 2348.61 1082.42   5
   3   0 -13 1344.99 472.601   2
   3   0 -12 3824.63 1417.58   5
   3   0 -12 4000.78 812.913   2
   3   0 -11 19011.8 2987.17   5
   3   0 -11 17999.1 1749.34   2
   3   0 -10 17525.2 1706.92   2
   3   0 -10 15313.9 2604.00   5
   3   0  -9 15536.5 2508.20   5
   3   0  -9 15200.5 1590.30   2
   3   0  -8 13644.0 2279.71   5
   3   0  -8 12274.1 1422.01   2
   3   0  -7 15498.5 2283.13   5
   3   0  -7 16559.0 1654.58   2
   3   0  -7 15466.0 1327.25   4
   3   0  -6 13312.7 2043.90   5
   3   0  -6 13205.4 1171.92   4
   3   0  -6 15262.5 1586.06   2
   3   0  -5 3095.11 554.327   4
   3   0  -5 2494.10 815.840   5
   3   0  -4 71.4427 94.1949   4
   3   0  -4 107.011 170.415   2
   3   0  -3 229.291 152.696   4
   3   0  -3 196.608 174.740   2
  -3   0   3-161.626 133.504   4
   3   0  -3-397.451 322.883   5
   3   0  -2 5748.44 1001.20   2
   3   0  -2 5066.67 1094.35   5
  -3   0   2 5148.60 748.840   4
   3   0  -2 4775.17 773.223   4
  -3   0   2 5402.08 824.122   6
  -3   0   1 11745.9 1164.66   4
  -3   0   1 12546.9 1669.53   5
   3   0  -1 12012.3 1264.07   4
   3   0  -1 12359.6 1619.59   5
   3   0  -1 11814.1 1439.26   2
  -3   0   1 11768.1 1169.92   6
  -3   0   0 40392.7 2896.67   5
   3   0   0 37280.3 2584.84   2
  -3   0   0 33453.5 1989.56   6
  -3   0   0 36041.8 2192.42   4
   3   0   0 38379.0 2399.83   4
  -3   0  -1 49011.3 3107.38   5
   3   0   1 44859.5 2750.11   4
  -3   0  -1 43914.8 2575.93   4
   3   0   1 52723.3 3095.72   2
   3   0   1 43545.9 2117.62   6
  -3   0  -1 42066.7 2336.71   6
  -3   0  -2 49104.8 3000.21   5
  -3   0  -2 51507.5 2618.74   3
   3   0   2 51010.0 3058.80   2
   3   0   2 46876.2 2288.83   6
  -3   0  -2 46505.1 2806.45   4
  -3   0  -2 54055.5 2589.13   1
  -3   0  -2 43855.6 2631.66   6
  -3   0  -3 34156.1 2243.52   3
   3   0   3 32834.8 2063.46   6
   3   0   3 33540.8 2474.62   2
  -3   0  -3 33123.5 1975.24   1
  -3   0  -3 35229.1 2439.56   6
  -3   0  -4 30342.7 1881.07   1
  -3   0  -4 31372.1 2289.96   3
   3   0   4 32766.9 2426.34   2
   3   0   4 30647.9 2154.89   6
  -3   0  -4 28813.5 2376.31   6
   3   0   5 19518.8 1862.16   6
  -3   0  -5 20633.3 2162.09   6
  -3   0  -5 21763.4 2015.17   3
   3   0   5 19665.8 1884.80   2
  -3   0  -6 9847.54 1455.16   3
   3   0   6 11945.7 1567.89   6
   3   0   6 10449.2 1358.67   2
  -3   0  -6 10211.4 1660.15   6
  -3   0  -7 7530.13 1350.77   3
  -3   0  -7 7826.99 1569.55   6
   3   0   7 8518.84 1222.00   2
   3   0   7 8416.28 931.809   1
   3   0   7 9985.10 1538.08   6
   3   0   8 8178.54 930.852   1
   3   0   8 6975.12 1403.71   6
  -3   0  -8 8175.52 1701.76   6
   3   0   8 7353.49 1134.55   2
  -3   0  -8 6831.90 1351.16   3
   3   0   9 6796.57 879.582   1
   3   0   9 5442.54 975.513   2
  -3   0  -9 8381.65 1808.46   6
  -3   0  -9 6843.29 1406.50   3
   3   0  10 7986.08 990.058   1
   3   0  10 6542.02 1081.14   2
  -3   0 -10 5892.20 1414.23   3
  -3   0 -11 17726.0 2510.15   3
   3   0  11 16850.6 1750.84   2
  -3   0 -12 4266.80 1302.37   3
   3   0  12 4028.46 858.373   2
  -3   0 -13 1168.33 761.508   3
   3   0  13 2267.50 628.125   2
   3   0  14 1002.60 415.520   2
  -3   0 -14 1308.04 995.008   3
  -3   0 -15-62.0191 281.041   5
  -3   0 -15 96.7124 308.566   3
  -3   0 -16 299.431 496.295   5
  -3   0 -16 480.154 531.785   3
  -3   0 -17-169.483 410.341   5
  -3   0 -17 1865.71 909.870   3
  -3   0 -18-1463.90 995.471   5
  -3   0 -18-421.139 533.806   3
  -3   0 -19 5200.59 1890.94   5
  -3   0 -19 3721.92 1553.74   3
  -3   0 -20 12372.4 3045.40   5
  -3   0 -20 10118.9 2610.82   3
  -3   0 -21 5521.55 2006.32   3
  -3   0 -22 5361.81 2066.38   3
   3   1 -23 3890.40 2078.35   5
   3   1 -22 3066.50 1735.37   5
   3   1 -21 4711.80 2086.43   5
   3   1 -20 1675.82 1235.56   5
   3   1 -19 1140.43 1019.32   5
   3   1 -18 878.717 880.924   5
   3   1 -17 2100.05 1356.94   5
   3   1 -16-1226.34 964.612   5
   3   1 -15 1623.93 1069.00   5
   3   1 -14 598.087 866.209   5
   3   1 -13 509.219 708.149   5
   3   1 -12 453.269 827.892   5
   3   1 -11 9305.01 2191.86   5
   3   1 -10 6448.89 1774.20   5
   3   1  -9 9794.00 1312.98   2
   3   1  -9 8765.20 2016.70   5
   3   1  -8 10771.8 1384.41   2
   3   1  -8 10644.7 2077.83   5
   3   1  -7 19654.3 2690.87   5
   3   1  -7 18806.8 1812.32   2
  -3  -1   7 20079.9 1866.85   2
   3   1  -6 15811.3 2310.41   5
   3   1  -6 18282.1 1783.62   2
  -3  -1   6 21987.1 1939.51   2
   3   1  -5 9482.46 1261.73   2
   3   1  -5 9524.28 1720.84   5
  -3  -1   5 10220.0 1316.87   2
   3   1  -5 9778.22 1149.83   4
   3   1  -4 8206.86 1172.01   2
   3   1  -4 6390.41 1337.54   5
  -3  -1   4 6712.22 1078.95   2
   3   1  -4 9785.86 1118.22   4
  -3  -1   3 15741.2 2040.73   5
   3   1  -3 16201.9 2022.66   5
   3   1  -3 17840.4 1748.33   2
  -3  -1   3 18575.0 1785.72   2
   3   1  -3 18470.5 1540.67   4
  -3  -1   2 13643.2 1774.86   5
   3   1  -2 13382.1 1671.51   5
   3   1  -2 12091.2 1429.99   2
  -3  -1   2 13488.5 1530.95   2
   3   1  -2 13001.4 1312.87   4
  -3  -1   1 14699.7 1707.62   5
   3   1  -1 13295.5 1582.84   5
   3   1  -1 12677.7 1478.07   2
  -3  -1   1 15187.6 1609.94   2
   3   1  -1 14159.3 1379.61   4
  -3  -1   1 10126.1 1154.98   4
  -3  -1   0 6608.07 584.783   6
  -3  -1   0 7799.40 1046.32   4
  -3  -1   0 9334.86 1265.32   5
   3   1   0 8757.48 1205.41   2
   3   1   0 6418.96 1039.75   5
   3   1   0 7790.16 1055.67   4
  -3  -1  -1 12836.6 1414.35   5
   3   1   1 12389.6 1314.58   5
   3   1   1 14893.6 1597.41   2
   3   1   1 15814.8 1574.19   4
  -3  -1  -1 13724.2 1438.85   4
  -3  -1  -2 8267.96 1099.91   5
   3   1   2 8157.51 1197.51   2
   3   1   2 9659.20 1288.16   4
   3   1   3-271.984 235.798   4
  -3  -1  -3 52.1536 68.1024   6
  -3  -1  -3 123.100 133.465   5
   3   1   3 7.85487 117.676   2
   3   1   3 27.6849 64.1441   6
   3   1   4 536.159 216.810   6
  -3  -1  -4 604.423 334.605   3
  -3  -1  -4 570.595 188.636   1
  -3  -1  -4 410.817 168.795   5
   3   1   4 236.063 236.293   4
   3   1   4 419.301 302.908   2
   3   1   5-54.4310 116.513   6
   3   1   5 252.899 289.635   2
  -3  -1  -5 10.2270 168.591   3
  -3  -1  -5-94.0866 80.4826   1
   3   1   6 2604.13 670.638   6
  -3  -1  -6 1979.82 656.879   3
   3   1   6 2361.63 640.885   2
  -3  -1  -7 10440.2 1577.39   3
   3   1   7 11090.8 1418.42   2
   3   1   7 9347.10 1432.30   6
  -3  -1  -8 9636.11 1629.39   3
   3   1   8 13784.4 1592.18   2
   3   1   8 12929.0 1851.27   6
  -3  -1  -9 41052.4 3508.84   3
   3   1   9 41171.2 2808.87   2
   3   1   9 42029.5 3636.06   6
  -3  -1 -10 29167.8 3046.89   3
   3   1  10 25272.9 1160.70   1
   3   1  11 10190.3 779.269   1
  -3  -1 -11 9463.52 1824.74   3
   3   1  12 16792.3 1120.27   1
  -3  -1 -12 16081.0 2368.60   5
  -3  -1 -12 14883.2 2405.87   3
  -3  -1 -13 17224.3 2687.01   3
  -3  -1 -13 15869.5 2494.85   5
  -3  -1 -14 9460.94 2025.06   3
  -3  -1 -14 8280.39 1989.39   5
  -3  -1 -15 1828.11 747.787   5
  -3  -1 -15 2910.04 1187.65   3
  -3  -1 -16 1745.39 907.795   5
  -3  -1 -16 2852.85 1316.72   3
  -3  -1 -17 3964.22 1502.54   5
  -3  -1 -17 3870.98 1447.26   3
  -3  -1 -18 2272.04 1098.58   5
  -3  -1 -18 2182.04 1045.71   3
  -3  -1 -19 2827.92 1313.62   3
  -3  -1 -20 57.7502 333.414   3
  -3  -1 -21-3.53626 411.113   3
  -3  -1 -22-28.3625 574.493   3
  -3  -1 -23 141.930 500.643   3
   3   2 -22 2986.76 1768.08   5
   3   2 -21 7481.95 2698.30   5
   3   2 -20 5982.23 2364.00   5
   3   2 -19 1605.74 1242.50   5
   3   2 -18 1320.56 1208.00   5
   3   2 -17 3986.72 1944.31   5
   3   2 -16 6205.39 2133.29   5
   3   2 -15 2930.06 1486.72   5
   3   2 -14 4074.10 1637.47   5
   3   2 -13 8941.08 2462.69   5
  -3  -2  13 12935.7 1475.66   2
   3   2 -12 7940.37 2224.98   5
   3   2 -11 1908.68 1055.39   5
   3   2 -10 873.625 817.318   5
   3   2  -9 1168.00 783.502   5
   3   2  -8 1254.20 792.015   5
   3   2  -7 6462.97 1647.09   5
   3   2  -6 5779.01 1556.58   5
  -3  -2   5-195.422 237.334   6
   3   2  -5-404.143 392.739   5
  -3  -2   4 444.609 323.488   6
   3   2  -4 1213.43 652.544   5
  -3  -2   3 6643.27 1455.03   5
   3   2  -3 6671.72 1017.75   4
   3   2  -3 6688.49 1316.78   5
  -3  -2   3 7207.20 1190.89   6
  -3  -2   2 13836.1 1916.15   5
   3   2  -2 11634.1 1617.51   5
  -3  -2   2 11258.6 1312.14   6
   3   2  -2 11958.9 1354.81   4
   3   2  -1 11285.7 1457.81   5
  -3  -2   1 12960.9 1716.66   5
  -3  -2   1 12270.7 1185.32   6
   3   2  -1 10812.2 1284.71   4
  -3  -2   0 34884.2 2592.47   5
   3   2   0 29380.7 2153.17   5
   3   2   0 30033.6 2196.62   4
   3   2   1 27138.1 2205.39   4
   3   2   1 27649.5 1878.78   5
  -3  -2  -1 31088.7 2256.22   5
  -3  -2  -2 43523.7 2334.25   5
   3   2   2 38812.9 2640.80   4
  -3  -2  -3 32529.0 1772.45   5
   3   2   3 30050.4 2378.59   4
  -3  -2  -4 24992.9 1328.86   5
   3   2   4 20185.1 1015.96   6
   3   2   4 25787.6 2272.59   4
   3   2   4 22594.6 1405.01   6
  -3  -2  -5 7096.89 603.323   5
  -3  -2  -5 11341.3 1525.43   3
   3   2   5 9101.64 1095.09   6
   3   2   5 9888.35 1437.77   4
   3   2   6 5635.67 1167.75   4
   3   2   6 4192.91 861.433   6
  -3  -2  -6 4998.84 1091.61   3
  -3  -2  -6 3420.23 425.622   5
  -3  -2  -7 1664.38 737.085   3
   3   2   7 780.462 430.824   6
  -3  -2  -8 2155.79 842.321   3
   3   2   8 2778.63 860.015   6
  -3  -2  -8 1336.46 397.158   5
  -3  -2  -9 339.473 494.620   3
   3   2   9 53.1745 292.358   6
  -3  -2  -9 185.090 169.193   5
  -3  -2 -10 83.3795 379.793   3
  -3  -2 -10 359.818 251.377   5
  -3  -2 -11 3130.62 1120.87   3
  -3  -2 -11 2102.18 636.186   5
  -3  -2 -12 1286.54 522.394   5
  -3  -2 -12 744.610 762.741   3
  -3  -2 -13 1230.03 540.303   5
  -3  -2 -13 1841.29 852.508   3
  -3  -2 -14 3579.49 947.194   5
  -3  -2 -14 4232.60 1432.68   3
  -3  -2 -15 2688.78 883.470   5
  -3  -2 -15 2293.73 1061.72   3
  -3  -2 -16 3652.78 1124.14   5
  -3  -2 -16 4783.61 1601.10   3
  -3  -2 -17 12242.4 2674.08   3
  -3  -2 -18 6420.47 1899.83   3
  -3  -2 -19 2090.84 1070.38   3
  -3  -2 -20 9829.84 2603.55   3
  -3  -2 -21 4059.94 1758.29   3
  -3  -2 -22 3648.85 1700.48   3
   3   3 -22 97.8513 521.127   5
   3   3 -21-981.172 1084.00   5
   3   3 -20 477.462 792.004   5
   3   3 -19 3261.34 1856.37   5
   3   3 -18 1461.36 1364.67   5
   3   3 -17 2676.32 1591.80   5
   3   3 -16 765.541 852.394   5
   3   3 -15-43.8092 392.302   5
   3   3 -14 10083.6 2773.13   5
   3   3 -13 14161.0 3224.77   5
   3   3 -12 13844.1 3015.67   5
   3   3 -11 7280.92 2210.89   5
   3   3 -10 13029.5 2822.52   5
   3   3  -9 16723.1 3076.93   5
   3   3  -8 10186.9 2379.29   5
   3   3  -7 4276.77 1516.62   5
   3   3  -6 1318.86 811.477   5
   3   3  -5 13335.4 2312.20   5
   3   3  -5 19327.4 2527.09   6
  -3  -3   4 4674.43 1142.98   6
   3   3  -4 5203.98 1239.74   6
   3   3  -4 6132.49 1528.89   5
  -3  -3   3 329.372 282.291   6
   3   3  -3 390.570 317.081   6
   3   3  -3 415.831 421.672   5
  -3  -3   2 1757.70 607.518   6
   3   3  -2 1347.88 712.170   5
   3   3  -2 1125.82 536.671   6
   3   3  -2 1567.06 586.855   4
   3   3  -1 827.144 539.531   5
  -3  -3   1 1416.20 495.947   6
   3   3  -1 1427.18 523.744   6
   3   3  -1 1352.69 508.076   4
   3   3   0 14785.8 1699.16   5
  -3  -3   0 12006.9 1173.54   6
   3   3   0 11540.6 1301.04   6
   3   3   0 11306.4 1446.15   4
   3   3   1 13088.8 1291.71   6
   3   3   1 12899.8 1539.84   4
   3   3   1 13847.5 1426.90   5
  -3  -3  -1 12679.2 1031.96   6
   3   3   2 13862.6 1207.56   5
   3   3   2 14025.2 1269.78   6
   3   3   2 16827.4 1792.73   4
   3   3   3 2919.63 761.521   4
   3   3   3 2688.98 404.948   5
   3   3   3 2839.15 549.133   6
   3   3   4 6316.68 808.707   6
   3   3   4 6838.57 1204.60   4
   3   3   5 8294.42 940.665   6
   3   3   5 9300.44 1418.85   4
  -3  -3  -6 6428.75 473.222   1
  -3  -3  -6 11433.8 1655.94   3
   3   3   6 9845.98 1108.59   6
   3   3   6 9922.20 1504.79   4
   3   3   7 10601.6 1635.09   4
  -3  -3  -7 11328.4 1758.27   3
  -3  -3  -8 9399.21 1654.29   3
   3   3   8 11772.4 1803.92   4
  -3  -3  -9 14657.3 2165.00   3
  -3  -3 -10 16037.8 2297.74   3
  -3  -3 -11 27094.3 3133.86   3
  -3  -3 -11 16114.7 980.732   5
  -3  -3 -12 5744.25 1500.53   3
  -3  -3 -12 4478.47 633.468   5
  -3  -3 -13 10666.6 2100.12   3
  -3  -3 -13 9329.99 1051.12   5
  -3  -3 -14 1354.64 689.116   3
  -3  -3 -15 1589.41 901.404   3
  -3  -3 -16 615.562 618.806   3
  -3  -3 -17 200.450 403.825   3
  -3  -3 -18 1244.81 894.900   3
  -3  -3 -19 771.671 733.518   3
  -3  -3 -20 1662.63 1280.30   3
  -3  -3 -21 6173.61 2105.38   3
  -3  -3 -22 5820.78 2040.70   3
   3   4 -21-244.766 727.910   5
   3   4 -20 302.783 786.804   5
   3   4 -19 581.041 843.396   5
   3   4 -18-1010.62 1048.52   5
   3   4 -17 390.283 682.641   5
   3   4 -16-602.765 836.018   5
   3   4 -15 2425.40 1451.69   5
   3   4 -14 224.964 536.335   5
   3   4 -13-1068.61 942.224   5
   3   4 -12 1699.75 1184.61   5
   3   4 -11 422.932 757.971   5
   3   4 -10 814.816 701.553   6
   3   4 -10-108.868 545.023   5
   3   4  -9 5428.52 1708.40   6
   3   4  -9 6078.63 1947.18   5
   3   4  -8 284.866 399.154   6
   3   4  -8-12.8977 232.758   5
   3   4  -7 1730.61 802.559   6
   3   4  -7 2878.43 1464.63   5
   3   4  -6 11874.3 2316.77   6
   3   4  -6 11402.4 2447.43   5
   3   4  -5 45584.1 4610.93   5
   3   4  -5 45225.8 4272.78   6
   3   4  -4 27873.5 3466.35   5
   3   4  -4 30506.5 3288.99   6
   3   4  -3 15256.6 2409.65   5
   3   4  -3 16512.4 2265.69   6
   3   4  -2 21383.1 2735.44   5
  -3  -4   2 18772.5 2185.54   6
   3   4  -2 20717.0 2455.39   6
   3   4  -1 31861.8 2961.84   6
   3   4  -1 32085.8 3176.77   5
   3   4  -1 28259.9 2469.00   4
  -3  -4   1 30030.8 2540.54   6
   3   4   0 17950.8 2239.11   5
  -3  -4   0 14520.4 1605.67   6
   3   4   0 12953.3 1650.64   4
   3   4   1 3223.83 818.653   4
   3   4   1 3807.21 961.060   5
   3   4   1 3168.67 851.792   6
  -3  -4  -1 2738.52 633.986   6
   3   4   2 3014.13 841.827   6
   3   4   2 3656.44 884.091   4
   3   4   2 3256.41 778.591   5
  -3  -4  -2 3487.26 686.007   6
   3   4   3 303.360 263.301   6
   3   4   3 571.260 414.330   4
   3   4   3 552.994 301.097   5
   3   4   4 538.770 296.919   6
   3   4   4 1093.05 485.434   4
   3   4   4 521.016 189.790   5
   3   4   5 752.642 455.743   4
   3   4   5 538.480 332.065   6
   3   4   6-99.2500 255.829   4
  -3  -4  -6 78.8013 77.0919   1
   3   4   6-201.883 200.889   6
   3   4   7 906.482 502.977   4
  -3  -4  -7 1053.28 601.676   3
  -3  -4  -7 1199.20 279.137   1
   3   4   7 893.025 388.301   6
  -3  -4  -8 3432.09 1050.80   3
   3   4   8 2623.61 743.082   6
   3   4   8 2757.49 899.233   4
   3   4   9 13155.8 1979.48   4
   3   4   9 11946.3 1631.72   6
  -3  -4  -9 13775.0 2108.28   3
   3   4  10 7773.95 1526.63   4
  -3  -4 -10 6974.08 1595.72   3
   3   4  10 7102.60 1334.86   6
  -3  -4 -11 5138.81 1372.59   3
  -3  -4 -12 3055.78 1192.23   3
  -3  -4 -13 4278.60 1398.96   3
  -3  -4 -14 2530.48 1091.42   3
  -3  -4 -15 9793.36 2279.07   3
  -3  -4 -16 3019.06 1332.36   3
  -3  -4 -17 265.021 421.213   3
  -3  -4 -18 4183.15 1658.37   3
  -3  -4 -19 8019.23 2256.61   3
  -3  -4 -20 2868.67 1330.09   3
  -3  -4 -21 1621.51 1127.41   3
  -3  -4 -22 552.886 918.325   3
   3   5 -20 1662.88 1430.06   5
   3   5 -19 8517.76 3086.36   5
   3   5 -18 8788.39 3074.28   5
   3   5 -17 1125.29 1257.01   5
   3   5 -16 6024.92 2438.77   5
   3   5 -15 9327.01 3086.60   5
   3   5 -14 4733.92 2221.79   5
   3   5 -13-786.248 859.516   5
   3   5 -12 754.534 766.108   6
   3   5 -12-1517.76 1133.65   5
   3   5 -11 1577.20 1018.95   6
   3   5 -11 1030.19 568.902   5
   3   5 -10 528.497 621.819   6
   3   5 -10 827.584 796.176   5
   3   5  -9 951.056 779.138   6
   3   5  -9 496.396 658.960   5
   3   5  -8-674.394 644.312   6
   3   5  -8-1615.55 1046.15   5
   3   5  -7 3164.01 1384.30   6
   3   5  -7 2469.09 1078.51   5
   3   5  -6 209.426 362.877   6
   3   5  -6-159.109 646.086   5
   3   5  -5 1204.87 818.141   6
   3   5  -5 1193.10 728.434   5
   3   5  -4 1148.91 682.575   6
   3   5  -4 2637.17 1144.64   5
   3   5  -3 1394.94 720.495   6
   3   5  -3 1373.99 828.840   5
   3   5  -2 11046.5 2099.36   6
   3   5  -2 12441.2 2232.73   5
   3   5  -1 10144.1 1937.64   6
   3   5  -1 10362.6 2029.11   5
   3   5  -1 12510.8 1751.41   4
   3   5   0 8893.98 1774.42   5
   3   5   0 12048.7 2085.29   6
   3   5   0 10940.0 1641.93   4
   3   5   1 492.115 374.608   6
   3   5   1 2607.07 806.034   4
   3   5   1 2895.27 899.201   5
   3   5   2 10680.2 1756.11   5
   3   5   2 15485.8 1930.36   4
   3   5   2 14591.8 2159.97   6
   3   5   3 8030.79 1524.62   6
   3   5   3 10843.6 1614.51   5
   3   5   3 9857.87 1558.81   4
   3   5   4 13539.7 1635.95   5
   3   5   4 18088.8 2219.00   6
   3   5   4 17992.1 2125.49   4
   3   5   5 7015.21 1386.76   6
   3   5   5 7840.09 1411.39   4
   3   5   5 5581.05 744.625   5
   3   5   5 4975.48 882.654   5
  -3  -5  -6 16165.6 1547.64   1
   3   5   6 16149.5 2070.09   4
   3   5   6 15594.2 2042.61   6
   3   5   7 8211.61 1500.97   4
  -3  -5  -7 9515.33 1088.65   1
   3   5   7 8082.71 1481.29   6
   3   5   8 4822.13 1168.41   4
  -3  -5  -8 3189.34 1043.26   3
   3   5   8 3505.83 986.804   6
  -3  -5  -9 1809.79 813.135   3
   3   5   9 2640.98 849.922   6
  -3  -5 -10 958.320 724.032   3
   3   5  10 2012.27 760.419   6
   3   5  10 1568.04 757.066   4
  -3  -5 -11 25.9308 492.022   3
   3   5  11-218.872 437.602   4
   3   5  11-410.770 373.983   6
  -3  -5 -12 178.425 315.328   3
   3   5  12 1386.70 674.735   6
  -3  -5 -13 802.654 415.801   3
   3   5  13-254.925 329.899   6
  -3  -5 -14 1056.43 758.569   3
   3   5  14 1211.93 692.911   6
   3   5  15 201.095 354.343   6
  -3  -5 -15-418.952 491.499   3
   3   5  16 1264.28 736.246   6
  -3  -5 -16 2153.93 1110.14   3
   3   5  17 5035.97 1493.49   6
  -3  -5 -17 6074.56 1865.78   3
  -3  -5 -18 5100.16 1862.36   3
  -3  -5 -19 2694.35 1432.84   3
  -3  -5 -20 1877.27 1243.03   3
  -3  -5 -21 459.512 679.673   3
   3   6 -18-1766.27 1509.47   5
   3   6 -17 975.312 1131.20   5
   3   6 -16 3047.11 1982.78   5
   3   6 -15 7064.85 2727.57   5
   3   6 -14 2662.95 1868.21   6
   3   6 -14 1700.25 896.168   5
   3   6 -13 463.336 688.439   6
   3   6 -13-311.168 660.871   5
   3   6 -12 2590.61 1497.91   6
   3   6 -12 1573.11 1193.04   5
   3   6 -11 6067.26 2202.89   6
   3   6 -11 4233.75 2192.94   5
   3   6 -10 2340.11 1309.08   6
   3   6 -10 839.323 494.733   5
   3   6  -9 1842.15 1177.87   6
   3   6  -9-1685.15 1183.09   5
   3   6  -8 11989.2 2929.70   6
   3   6  -8 7387.75 2471.69   5
   3   6  -7 31006.9 4680.54   5
   3   6  -7 23418.0 3991.29   6
   3   6  -6 4824.80 1662.49   6
   3   6  -6 2020.40 1180.93   5
   3   6  -5 5635.47 1798.24   6
   3   6  -5 3566.90 1462.00   5
   3   6  -4 1646.74 1001.96   6
   3   6  -4 1554.64 972.178   5
   3   6  -3 6279.92 1791.48   6
   3   6  -3 6506.21 1843.38   5
   3   6  -2 134.547 334.153   6
   3   6  -1 2826.57 1223.94   6
   3   6   0 432.597 306.229   6
   3   6   0 785.593 475.104   4
   3   6   1 295.313 383.769   6
   3   6   1-8.77913 144.703   4
   3   6   2 216.047 204.391   6
   3   6   2 22.7989 265.931   4
   3   6   3 723.733 542.314   6
   3   6   3 175.925 205.242   4
   3   6   4 2253.89 975.363   6
   3   6   4 2091.73 770.125   4
   3   6   5 5431.08 1431.93   6
   3   6   5 6833.24 1388.85   4
  -3  -6  -5 3177.55 862.665   1
   3   6   6 8676.77 1785.60   6
   3   6   6 7550.22 1489.46   4
  -3  -6  -6 8550.60 1312.97   1
  -3  -6  -7 17455.6 1777.89   1
   3   6   7 20790.7 2488.90   4
   3   6   7 18301.0 2618.21   6
   3   6   8 14067.4 2260.56   6
  -3  -6  -8 12915.9 2142.28   3
  -3  -6  -8 13770.1 1473.63   1
   3   6   8 13193.8 2044.95   4
   3   6   9 9270.75 1736.22   4
  -3  -6  -9 9419.69 1913.81   3
   3   6   9 8228.87 1725.21   6
  -3  -6 -10 3531.57 1238.77   3
   3   6  10 5485.11 1383.02   4
   3   6  10 5210.26 1438.72   6
  -3  -6 -11 11934.6 2217.78   3
   3   6  11 12788.0 2287.43   6
   3   6  11 10275.1 1912.55   4
  -3  -6 -12 3902.76 1390.56   3
   3   6  12 4041.77 1316.93   6
   3   6  12 5019.19 1337.95   4
  -3  -6 -13 3722.27 1364.64   3
   3   6  13 5903.71 1593.84   6
  -3  -6 -14 1.26018 314.129   3
   3   6  14 1771.77 891.014   6
  -3  -6 -15 2628.66 1233.81   3
   3   6  15 2466.23 1228.79   6
   3   6  16-1086.92 747.722   6
  -3  -6 -16-102.133 704.421   3
   3   6  17 2077.26 1035.82   6
  -3  -6 -17 2144.17 1203.63   3
  -3  -6 -18 1411.85 980.421   3
   3   6  18 381.680 474.005   6
  -3  -6 -19-94.0400 462.455   3
  -3  -6 -20 126.085 447.049   3
   3   7 -17 4954.59 2759.47   5
   3   7 -16-1111.73 1201.91   6
   3   7 -16 685.737 1058.88   5
   3   7 -15 1310.73 1236.84   6
   3   7 -15 1437.03 1930.13   5
   3   7 -14 4474.65 2230.30   6
   3   7 -14 2703.66 1800.59   5
   3   7 -13 4942.19 2237.16   6
   3   7 -13 8781.38 3095.33   5
   3   7 -12 4228.26 2172.49   6
   3   7 -12 162.228 905.063   5
   3   7 -11 1192.13 1198.20   6
   3   7 -11-936.574 1031.23   5
   3   7 -10 981.023 967.199   6
   3   7 -10 2141.79 1162.54   5
   3   7  -9 1062.55 965.049   6
   3   7  -9-22.9883 905.202   5
   3   7  -8 3657.30 1636.95   6
   3   7  -8 218.030 552.718   5
   3   7  -7 15864.3 3509.88   6
   3   7  -7 19874.2 4122.91   5
   3   7  -6 10797.8 2829.04   6
   3   7  -6 10991.2 2910.24   5
   3   7  -5 10480.5 2735.45   6
   3   7  -5 11950.8 2973.42   5
   3   7  -4 11492.1 2795.99   6
   3   7  -3 8189.22 2252.50   6
   3   7  -2-313.563 471.420   6
   3   7  -1-215.053 538.883   6
   3   7   0 8031.92 2165.63   6
   3   7   0 7720.39 1587.20   4
   3   7   1 19636.8 3401.46   6
   3   7   1 17549.4 2356.79   4
   3   7   2 8115.87 2058.84   6
   3   7   2 6761.26 1445.57   4
   3   7   3-1230.22 799.202   6
   3   7   3 955.077 535.866   4
   3   7   4 4314.66 1482.35   6
  -3  -7  -4 3952.36 1053.08   1
   3   7   4 3531.60 1053.04   4
   3   7   5 1096.01 754.957   6
   3   7   5 2497.79 865.102   4
  -3  -7  -5 2049.30 772.133   1
   3   7   6 1875.33 929.686   6
   3   7   6 1754.97 734.038   4
  -3  -7  -6 2268.19 716.739   1
  -3  -7  -7 3285.64 872.780   1
   3   7   7 1598.04 864.097   6
   3   7   7 3001.14 989.999   4
   3   7   8-887.305 661.140   6
  -3  -7  -8 231.807 491.007   3
   3   7   8-136.629 302.732   4
   3   7   9 4745.76 1282.41   4
  -3  -7  -9 1848.03 959.141   3
   3   7   9 1912.96 957.159   6
   3   7  10-84.7430 215.557   4
   3   7  10 445.746 528.358   6
  -3  -7 -10 721.186 616.393   3
   3   7  11 538.110 463.565   4
  -3  -7 -11 415.793 470.180   3
   3   7  11-398.016 478.470   6
  -3  -7 -12 905.133 796.556   3
   3   7  12-197.069 307.375   4
   3   7  12 1009.67 731.765   6
  -3  -7 -13 5138.82 1611.33   3
   3   7  13 5888.46 1727.40   6
  -3  -7 -14 7109.12 2008.26   3
   3   7  14 6361.74 1757.25   6
  -3  -7 -15 4544.44 1651.83   3
   3   7  15 3592.24 1516.16   6
  -3  -7 -16 4172.69 1567.88   3
  -3  -7 -17 3422.35 1609.19   3
  -3  -7 -18 3985.78 1785.07   3
  -3  -7 -19 2815.45 1421.99   3
   3   8 -15 13.2690 352.519   6
   3   8 -15-266.310 832.233   5
   3   8 -14 4448.49 2527.42   6
   3   8 -14 4776.92 2497.03   5
   3   8 -13 3222.86 1973.02   6
   3   8 -13-105.305 702.702   5
   3   8 -12 2447.98 1729.57   6
   3   8 -12 1272.59 1298.98   5
   3   8 -11-190.272 527.945   6
   3   8 -11-2602.25 1771.08   5
   3   8 -10 1566.52 1307.99   6
   3   8 -10 1250.42 1254.84   5
   3   8  -9 2781.67 1714.74   6
   3   8  -9 7409.18 2713.12   5
   3   8  -8 480.730 714.029   6
   3   8  -8 1368.62 1201.52   5
   3   8  -7-194.958 512.182   6
   3   8  -7-21.8453 466.388   5
   3   8  -6 1490.15 1448.89   6
   3   8  -6 267.994 631.503   5
   3   8  -5 4254.25 1870.15   6
   3   8  -4 454.947 649.134   6
   3   8  -3 1611.84 1123.46   6
   3   8  -2 413.323 598.070   6
   3   8  -1 49.3706 308.894   6
   3   8  -1 997.876 626.893   4
   3   8   0 11487.9 3038.29   6
   3   8   0 7748.96 1696.25   4
   3   8   1 4488.12 1719.93   6
   3   8   1 5079.24 1356.38   4
   3   8   2 6435.48 1517.74   4
   3   8   2 7786.86 2241.58   6
   3   8   3 17780.2 3391.37   6
   3   8   3 10358.5 1928.53   4
  -3  -8  -3 14061.9 2264.06   1
  -3  -8  -4 21064.9 2694.05   1
   3   8   4 20608.1 3647.67   6
   3   8   4 18879.4 2585.03   4
   3   8   5 4679.89 1670.34   6
   3   8   5 6929.31 1584.97   4
  -3  -8  -5 6151.68 1421.51   1
   3   8   6 948.331 762.687   6
   3   8   6 629.675 413.651   4
  -3  -8  -6 885.086 644.083   1
   3   8   7 56.7064 518.704   6
   3   8   7-58.0958 190.466   4
   3   8   8 3141.46 1352.94   6
   3   8   8 3148.97 1099.62   4
  -3  -8  -8 3300.17 1264.54   3
   3   8   9 5669.72 1894.41   6
   3   8   9 5229.26 1411.37   4
  -3  -8  -9 6185.81 1704.27   3
   3   8  10 1061.95 650.595   4
   3   8  10 3041.54 1344.33   6
  -3  -8 -10 1419.90 841.479   3
   3   8  11-83.2894 323.409   6
  -3  -8 -11-703.697 616.279   3
  -3  -8 -12 712.158 635.882   3
   3   8  12-407.662 543.465   6
  -3  -8 -13 1511.36 919.030   3
  -3  -8 -14 46.1392 325.161   3
  -3  -8 -15 344.914 526.194   3
  -3  -8 -16 390.061 564.198   3
  -3  -8 -17-1225.06 944.468   3
   3   9 -13 6198.11 2697.55   6
   3   9 -12 349.627 782.919   6
   3   9 -12-1678.04 1589.30   5
   3   9 -11 2217.94 1703.95   6
   3   9 -11 3546.83 2190.89   5
   3   9 -10 11492.0 3861.04   6
   3   9 -10 7132.05 2918.19   5
   3   9  -9 16139.6 4320.27   6
   3   9  -9 11503.3 3721.35   5
   3   9  -8-340.396 672.554   6
   3   9  -8-2567.42 1745.56   5
   3   9  -7-1119.48 1117.76   6
   3   9  -7 39.6393 493.698   5
   3   9  -6 2277.43 1659.20   6
   3   9  -6-603.604 902.766   5
   3   9  -5 4471.50 2081.52   6
   3   9  -4 1194.25 1262.66   6
   3   9  -3 2588.33 1539.26   6
   3   9  -2 3246.82 1182.13   4
   3   9  -2 1762.12 1263.49   6
   3   9  -1 5891.31 2247.42   6
   3   9  -1 7680.70 1752.29   4
   3   9   0-189.990 471.401   6
   3   9   0 579.238 436.938   4
   3   9   1 1026.95 938.408   6
   3   9   1 340.906 392.785   4
   3   9   2-611.141 727.861   6
   3   9   2 515.616 513.230   4
  -3  -9  -2-812.358 597.060   1
   3   9   3 1028.63 918.093   6
   3   9   3 405.284 534.092   4
  -3  -9  -3-572.895 499.736   1
   3   9   4-386.023 600.013   6
   3   9   4 65.7246 209.051   4
  -3  -9  -4 830.993 712.946   1
   3   9   5 2975.73 1445.84   6
   3   9   5 3151.19 1109.47   4
   3   9   6 856.769 826.399   6
   3   9   6 137.602 420.365   4
   3   9   7 1298.23 831.156   4
  -3  -9  -7 2075.90 972.489   3
   3   9   7 1643.71 1106.59   6
   3   9   8 3789.99 1560.64   6
  -3  -9  -8 754.340 633.794   3
   3   9   9 5329.79 2066.50   6
  -3  -9  -9 3920.15 1384.48   3
  -3  -9 -10 1269.24 828.982   3
  -3  -9 -11 8607.21 2230.96   3
  -3  -9 -12 2043.41 1085.04   3
   3  10  -9 3678.58 2223.90   6
   3  10  -9 3137.84 2137.51   5
   3  10  -8-94.2571 514.655   6
   3  10  -8-1009.65 1283.64   5
   3  10  -7-764.351 1041.12   6
   3  10  -7 460.873 947.017   5
   3  10  -6 3822.59 1896.36   6
   3  10  -6 6541.44 2671.31   5
   3  10  -5 2605.17 1737.14   6
   3  10  -4 177.665 605.732   6
   3  10  -3 2532.53 1659.21   6
   3  10  -3 278.337 296.662   4
   3  10  -2 3311.99 1871.38   6
   3  10  -2 1925.75 945.574   4
   3  10  -1 6022.48 2580.75   6
   3  10  -1 4924.21 1523.78   4
   3  10   0 6167.15 2681.42   6
  -3 -10   0 4999.31 1632.63   1
   3  10   0 2302.60 1005.51   4
   3  10   1 32.0913 719.362   6
   3  10   1 966.164 626.143   4
  -3 -10  -1 1824.29 1065.87   1
   3  10   2 6949.31 2544.86   6
  -3 -10  -2 6964.36 1828.31   1
   3  10   2 4711.30 1519.52   4
   3  10   3 377.689 656.901   6
   3  10   3 1969.15 970.800   4
   3  10   4 2674.50 1560.80   6
  -4   7   9 14907.3 3644.28   6
  -4   7   8 304.991 578.745   6
  -4   7   7 3255.82 1692.07   6
  -4   7   6 1512.60 1154.50   6
  -4   7   5 10070.2 2924.70   6
  -4   7   4 17479.9 3916.88   6
  -4   7   3 5866.91 2292.86   6
  -4   7   2 14482.3 3549.13   6
  -4   7   1 7985.91 2683.30   6
  -4   7   0 22137.5 4536.05   6
  -4   7  -1 4975.36 2086.49   6
  -4   7  -2 19988.6 4404.45   6
  -4   7  -3 1909.63 1384.95   6
   4  -7   3 2888.09 1286.17   1
   4  -7   4 37194.0 4362.44   1
  -4   7  -4 44249.4 6705.58   6
  -4   7  -5 806.923 930.572   6
   4  -7   5 650.843 672.997   1
  -4   7  -6 16239.5 4211.17   6
   4  -7   6 17806.1 3028.30   1
  -4   7  -7 2664.49 1720.53   6
   4  -7   7 2492.39 1130.98   1
  -4   7  -8 6497.09 2684.86   6
   4  -7   8 4077.44 1453.34   1
  -4   7  -9 3169.13 1920.63   6
   4  -7   9 4061.96 1479.16   1
  -4   7 -10 323.269 674.179   6
   4  -7  10 1038.63 762.920   1
   4  -7  11-53.1130 244.555   1
  -4   6  13 18469.6 3872.08   6
  -4   6  12 797.263 835.464   6
  -4   6  11 2247.47 1327.38   6
  -4   6  10 2701.10 1441.86   6
  -4   6   9 54660.1 6469.30   6
  -4   6   8-1204.46 969.323   6
  -4   6   7 9344.19 2622.89   6
  -4   6   6 909.500 598.302   6
  -4   6   5 40826.5 5535.65   6
  -4   6   4 7881.73 2444.78   6
  -4   6   3 31330.3 4801.88   6
  -4   6   2 1562.41 1080.01   6
  -4   6   1 61260.1 6857.01   6
  -4   6   0 542.293 689.152   6
  -4   6  -1 13315.6 3173.36   6
  -4   6  -2 4714.99 1962.48   6
  -4   6  -3 272.063 532.331   6
   4  -6   3 935.661 706.088   1
  -4   6  -4 1963.30 1386.34   6
   4  -6   4 1213.80 744.393   1
   4  -6   5 72223.2 5809.16   1
  -4   6  -5 76050.7 8223.25   6
  -4   6  -6 2248.81 1689.73   6
   4  -6   6 6139.75 1703.83   1
  -4   6  -7 1289.26 1126.67   6
   4  -6   7 391.358 446.740   1
  -4   6  -8 2465.11 1458.61   6
   4  -6   8 809.741 624.348   1
   4  -6   9 32426.5 3927.72   1
  -4   6  -9 35058.5 6068.82   6
   4  -6  10 3650.84 1341.25   1
  -4   6 -10 6984.97 2794.97   6
   4  -6  11 19349.3 3092.24   1
  -4   6 -11 19435.9 4750.30   6
  -4   6 -12 1905.93 1497.81   6
   4  -6  12 2893.90 1245.83   1
   4  -6  13 22256.3 3384.67   1
  -4   6 -13 21611.6 5220.07   6
  -4   6 -14 3372.21 2052.06   6
   4  -6  14 7655.00 2053.74   1
   4  -6  15 788.145 679.294   1
   4  -6  16 542.797 583.307   1
   4  -6  17 15882.6 2999.54   1
  -4   5  15 8604.33 2512.92   6
  -4   5  14 15879.7 3378.77   6
  -4   5  13 21173.3 3800.01   6
  -4   5  12 19303.4 3626.59   6
  -4   5  11 8401.38 2311.58   6
  -4   5  10 317.743 486.594   6
  -4   5   9 44911.8 5362.36   6
  -4   5   8 308.126 467.481   6
  -4   5   7 1452.27 799.584   6
  -4   5   6 2794.01 1243.95   6
  -4   5   5 6517.61 1981.69   6
  -4   5   4 18680.0 3389.16   6
  -4   5   3 6669.59 2013.32   6
  -4   5   2 19678.8 3472.98   6
  -4   5   1 47311.2 5466.46   6
  -4   5   0 5867.62 1813.72   6
  -4   5  -1 3365.26 1460.40   6
  -4   5  -2 96553.7 8183.45   6
  -4   5  -3 264.671 471.032   6
   4  -5   3-79.8884 225.660   1
  -4   5  -4-566.603 676.220   6
   4  -5   4 363.952 405.228   1
   4  -5   5 32651.3 3593.24   1
  -4   5  -5 31494.1 4852.41   6
  -4   5  -6 65231.5 7125.99   6
   4  -5   6 60745.3 4983.42   1
  -4   5  -7 1535.62 1143.20   6
   4  -5   7 4856.71 1399.89   1
  -4   5  -8 3362.16 1805.40   6
   4  -5   8 2746.20 1035.83   1
   4  -5   9 36765.4 3930.81   1
  -4   5  -9 34945.2 5596.32   6
   4  -5  10 1464.23 839.880   1
  -4   5 -10 551.091 770.579   6
  -4   5 -11 7898.27 2759.23   6
   4  -5  11 2506.13 992.280   1
  -4   5 -12 839.506 940.871   6
   4  -5  12 2158.55 973.089   1
   4  -5  13 42475.2 4449.04   1
  -4   5 -13 41304.8 6684.60   6
  -4   5 -14 13568.1 3898.16   6
   4  -5  14 15405.5 2688.46   1
  -4   5 -15-278.725 658.516   6
   4  -5  15-320.241 423.149   1
  -4   5 -16 11675.1 3932.72   6
   4  -5  16 11379.6 2401.20   1
  -4   5 -17 8456.11 3323.20   6
   4  -5  17 4022.36 1425.88   1
  -4   4  17-523.619 664.938   6
  -4   4  16 56354.7 6300.85   6
  -4   4  15 7684.34 2294.94   6
  -4   4  14 11071.3 2645.62   6
  -4   4  13-390.162 519.390   6
  -4   4  12 25331.6 3833.12   6
  -4   4  11 10797.2 2455.06   6
  -4   4  10 4735.50 1587.37   6
  -4   4   9 2432.95 1187.65   6
  -4   4   8 6029.90 1774.36   6
  -4   4   7 80822.8 6463.31   6
  -4   4   6 6084.07 1723.92   6
  -4   4   5 1314.11 926.267   6
  -4   4   4 4021.79 1409.72   6
  -4   4   3 30089.5 3903.91   6
  -4   4   2 100622. 7206.58   6
  -4   4   1 13599.3 2578.77   6
  -4   4   0 19984.2 3198.74   6
  -4   4  -1 5595.54 1614.66   6
  -4   4  -2 65943.9 6071.39   6
  -4   4  -3-392.358 380.252   6
   4  -4   3 199.427 364.699   1
   4  -4   4 30602.5 3240.29   1
  -4   4  -4 29244.9 4166.64   6
  -4   4  -5-250.407 421.773   6
   4  -4   5 23.0176 243.210   1
  -4   4  -6 41933.6 5314.28   6
   4  -4   6 37243.9 3608.85   1
  -4   4  -7 18358.0 3581.01   6
   4  -4   7 19230.5 2596.32   1
   4  -4   8 5578.09 1423.50   1
  -4   4  -8 8257.13 2422.47   6
   4  -4   9 5369.31 1350.75   1
  -4   4  -9 6360.43 2186.06   6
  -4   4  -9 3728.93 1054.19   3
   4  -4  10 17998.7 2568.93   1
  -4   4 -10 16809.8 3733.39   6
  -4   4 -10 19441.2 2549.98   3
  -4   4 -11 6495.27 1507.83   3
   4  -4  11 6733.28 1594.11   1
  -4   4 -11 9018.71 2745.35   6
  -4   4 -12 667.922 799.037   6
  -4   4 -12 502.521 256.044   3
   4  -4  12 1480.15 818.234   1
  -4   4 -13 76.7588 340.795   6
  -4   4 -13-350.114 421.603   3
   4  -4  13 442.946 437.308   1
  -4   4 -14 3046.04 1143.59   3
   4  -4  14 3979.86 1256.32   1
   4  -4  15 48231.6 4557.55   1
  -4   4 -15 43737.7 4640.66   3
  -4   4 -15 40202.8 6803.29   6
   4  -4  16 37910.2 4101.95   1
  -4   4 -16 37775.9 6762.46   6
  -4   4 -16 36964.0 4376.45   3
   4  -4  17 1985.76 1005.55   1
  -4   4 -17 415.526 762.271   6
  -4   4 -17 713.825 558.892   3
  -4   4 -18 12509.8 4020.13   6
  -4   4 -19 4914.45 2536.15   6
   4  -3 -20 56.9479 387.908   5
   4  -3 -19-566.674 719.624   5
   4  -3 -18 1599.04 1091.06   5
   4  -3 -17 4055.02 1681.22   5
   4  -3 -16 2644.66 1483.83   5
   4  -3 -15 18136.2 3390.01   5
  -4   3  15 16004.3 3088.54   6
   4  -3 -14 11678.1 2693.64   5
  -4   3  14 14312.9 2791.36   6
  -4   3  13 18057.3 3100.45   6
   4  -3 -13 16699.9 3110.35   5
  -4   3  12 8994.37 2153.49   6
   4  -3 -12 6834.40 2005.98   5
   4  -3 -11 15814.2 2919.58   5
  -4   3  11 20492.1 3144.28   6
  -4   3  10 29143.6 3684.12   6
  -4   3   9 30605.9 3706.10   6
  -4   3   8 36546.8 3956.92   6
  -4   3   7 111336. 6965.02   6
  -4   3   6 858.852 630.886   6
  -4   3   5 44666.1 4261.51   6
  -4   3   5 38832.5 1855.62   4
  -4   3   4 69.6621 101.562   4
  -4   3   4 484.203 478.064   6
  -4   3   3 143796. 7787.55   6
  -4   3   3 143183. 4873.37   4
  -4   3   2 672.012 538.252   6
  -4   3   1 2354.91 969.613   6
  -4   3   0 1865.71 869.851   6
  -4   3  -1 18968.1 2853.03   6
  -4   3  -2 4264.09 1346.10   6
  -4   3  -2 3210.55 591.137   3
  -4   3  -3 3801.79 1337.18   6
  -4   3  -3 4806.94 802.207   3
  -4   3  -4 16497.9 1650.13   3
   4  -3   4 16321.1 2146.28   1
  -4   3  -4 16636.2 2849.73   6
  -4   3  -5 23618.5 2165.54   3
   4  -3   5 21466.1 2482.63   1
   4  -3   5 22354.8 1938.03   3
  -4   3  -5 24080.3 3529.29   6
  -4   3  -6 658.278 560.999   6
  -4   3  -6 55.6780 261.036   3
   4  -3   6 15.1682 115.115   1
   4  -3   7 154601. 7084.28   1
  -4   3  -7 154869. 6622.93   3
  -4   3  -7 154888. 9884.17   6
  -4   3  -8 29410.9 4315.64   6
  -4   3  -8 25125.5 2691.95   3
   4  -3   8 23201.2 2637.85   1
   4  -3   9 27685.3 2924.59   1
  -4   3  -9 26961.1 2905.57   3
  -4   3  -9 30231.2 4509.27   6
  -4   3 -10 426.240 838.186   6
   4  -3  10 1095.90 628.547   1
  -4   3 -10 900.542 545.116   3
   4  -3  11 91146.3 5565.24   1
  -4   3 -11 91771.0 5946.87   3
  -4   3 -11 84043.5 8167.94   6
  -4   3 -12 1931.87 1299.69   6
  -4   3 -12 553.129 509.403   3
   4  -3  12 1224.32 652.095   1
  -4   3 -13 668.182 1009.03   6
  -4   3 -13 1578.22 828.660   3
   4  -3  13 1085.40 618.515   1
  -4   3 -14 11134.4 3295.40   6
  -4   3 -14 10027.3 2160.50   3
   4  -3  14 8768.18 1776.38   1
   4  -3  15 36734.7 3691.32   1
  -4   3 -15 36190.5 4214.75   3
   4  -3  15 35579.3 3407.52   2
  -4   3 -15 41894.9 6471.24   6
   4  -3  16 16552.5 2525.49   1
  -4   3 -16 14261.9 3947.45   6
  -4   3 -16 17761.3 3061.84   3
  -4   3 -17 20478.4 4794.42   6
  -4   3 -17 17215.8 3119.77   3
  -4   3 -18 14034.9 4153.32   6
  -4   3 -18 9213.90 2248.37   3
  -4   3 -19 1214.01 903.901   3
  -4   3 -20-260.060 494.662   3
  -4   3 -22 1487.17 1515.15   5
   4  -2 -21 9302.01 3008.29   5
   4  -2 -20 3832.15 1778.28   5
   4  -2 -19 2024.11 1290.59   5
   4  -2 -18 51603.4 6325.78   5
   4  -2 -17 6160.45 2194.80   5
   4  -2 -16 9437.39 2444.43   5
   4  -2 -15 2338.96 1328.32   5
   4  -2 -14 16307.7 2122.20   2
   4  -2 -14 14422.4 3007.48   5
   4  -2 -13 1103.41 539.903   2
   4  -2 -13 2775.00 1503.65   5
   4  -2 -12 47982.7 5091.39   5
   4  -2 -12 63131.5 4290.58   2
   4  -2 -11 30891.2 3949.17   5
   4  -2 -11 37157.7 3266.59   2
   4  -2 -10 8077.89 2020.13   5
   4  -2  -9 6473.70 1725.55   5
  -4   2   9 6395.93 1552.49   6
  -4   2   8 2977.13 1028.58   6
   4  -2  -8 1081.46 799.455   5
  -4   2   8 2053.89 578.275   3
  -4   2   7 20677.0 1655.09   3
   4  -2  -7 24162.2 3191.55   5
  -4   2   7 19941.8 2608.90   6
  -4   2   6 2248.66 471.145   3
  -4   2   6 2209.99 821.025   6
  -4   2   5 178.491 122.083   4
  -4   2   5 302.070 404.211   6
  -4   2   5 152.532 128.217   3
  -4   2   4 227017. 8852.40   6
  -4   2   4 227107. 5640.65   4
  -4   2   3 1902.85 476.164   4
  -4   2   3 1149.45 237.519   3
  -4   2   3 1170.53 574.515   6
  -4   2   3 932.522 186.805   3
  -4   2   2 986.312 376.563   4
  -4   2   2 662.829 190.344   3
  -4   2   2 823.412 427.086   6
  -4   2   1 196.767 122.070   3
  -4   2   1 284.547 377.301   6
  -4   2   0 222381. 5425.29   3
  -4   2   0 258667. 9586.21   6
  -4   2  -1 9566.15 1785.74   6
  -4   2  -1 8666.04 984.660   3
  -4   2  -2 45354.9 2491.30   3
  -4   2  -2 47696.5 4095.48   6
  -4   2  -3 206.219 346.845   6
  -4   2  -3-178.021 123.369   3
  -4   2  -4 105268. 4611.75   3
  -4   2  -4 105320. 6625.91   6
  -4   2  -5 10670.9 2156.28   6
  -4   2  -5 10704.5 1495.15   3
  -4   2  -6 39061.2 3055.95   3
   4  -2   6 40502.0 3108.87   1
  -4   2  -6 37079.4 4169.75   6
  -4   2  -7 25186.9 3578.57   6
   4  -2   7 26332.3 2509.85   1
  -4   2  -7 24883.0 2550.10   3
  -4   2  -8 66116.7 4477.83   3
  -4   2  -8 74839.6 6367.70   6
   4  -2   8 71729.3 4275.36   1
  -4   2  -9 8572.35 2239.52   6
  -4   2  -9 7314.31 1523.94   3
   4  -2   9 8085.55 1407.82   1
   4  -2  10 20488.3 2282.91   1
  -4   2 -10 20590.5 3559.29   6
  -4   2 -10 17642.8 2486.57   3
   4  -2  11 37548.4 3185.72   1
  -4   2 -11 35058.3 3671.15   3
   4  -2  11 42470.1 3534.64   2
  -4   2 -11 44984.3 5547.76   6
  -4   2 -12 2817.21 1424.22   6
   4  -2  12 2138.19 804.519   1
   4  -2  12 2504.94 877.460   2
  -4   2 -12 4337.44 1336.82   3
  -4   2 -13 834.192 816.743   6
   4  -2  13 35.7850 155.306   2
  -4   2 -13 408.318 462.823   3
   4  -2  13 367.829 332.741   1
   4  -2  14 35475.3 3219.30   1
  -4   2 -14 23600.8 4469.26   6
  -4   2 -14 28042.4 3703.53   3
   4  -2  14 32850.2 3105.49   2
   4  -2  15 9730.03 1710.73   1
  -4   2 -15 8050.48 2685.43   6
   4  -2  15 8666.27 1590.95   2
  -4   2 -15 9218.20 2229.40   3
   4  -2  16 12559.9 1978.34   1
  -4   2 -16 12296.1 3411.60   6
  -4   2 -16 9272.97 2316.64   3
  -4   2 -17 472.282 502.082   3
  -4   2 -18 7002.30 2154.33   3
  -4   2 -19 1202.68 898.570   3
  -4   2 -20 30874.9 4584.01   3
  -4   2 -21 1669.36 1463.91   5
  -4   2 -21 1545.92 1080.64   3
   4  -1 -21 11617.1 3387.73   5
   4  -1 -20 3733.23 1806.68   5
   4  -1 -19 2765.68 1443.05   5
   4  -1 -18 28341.2 4656.88   5
   4  -1 -17 950.451 896.898   5
   4  -1 -16 10505.6 2763.92   5
   4  -1 -15 238.687 250.810   2
   4  -1 -15 489.718 304.037   5
   4  -1 -14 22568.2 2315.62   2
   4  -1 -14 16633.8 3293.64   5
   4  -1 -13 35673.9 4507.84   5
   4  -1 -13 43129.0 3251.61   2
   4  -1 -12 227.529 190.257   4
   4  -1 -12 387.867 301.122   2
   4  -1 -11 9949.15 1561.57   2
   4  -1 -11 6938.09 1909.72   5
   4  -1 -11 10892.0 1037.60   4
   4  -1 -10 112021. 5498.98   2
   4  -1 -10 118817. 3796.43   4
   4  -1  -9 69142.4 5653.54   5
   4  -1  -9 77595.5 4552.87   2
   4  -1  -9 78210.7 3008.42   4
   4  -1  -8 779.608 275.750   4
   4  -1  -8 382.557 306.941   2
   4  -1  -7 35968.7 2077.89   4
  -4   1   7 33592.1 2511.23   3
   4  -1  -7 33971.8 3693.97   5
   4  -1  -7 35573.1 3017.68   2
  -4   1   6 7765.44 1100.13   3
   4  -1  -6 7978.46 1413.54   2
   4  -1  -6 10860.3 2003.93   5
   4  -1  -6 7273.56 943.844   4
  -4   1   6 7517.16 1426.77   6
   4  -1  -5 78638.0 5383.65   5
   4  -1  -5 84572.2 4725.71   2
  -4   1   5 80597.1 4649.49   6
   4  -1  -5 79685.9 3474.44   4
  -4   1   4 83800.2 3351.38   4
  -4   1   4 88415.5 4787.15   6
   4  -1  -4 86247.1 5514.19   5
   4  -1  -4 88028.0 4835.69   2
  -4   1   3 10947.2 1181.29   4
  -4   1   3 12665.9 1717.62   6
  -4   1   2 60450.2 3773.42   6
  -4   1   2 56958.1 2970.48   4
  -4   1   1 29637.5 2610.56   6
  -4   1   0 53954.2 2606.79   3
  -4   1   0 55845.5 3662.28   6
  -4   1  -1-3.53397 89.7887   6
  -4   1  -1-9.49299 90.2616   3
   4  -1   1 178.642 198.320   6
  -4   1  -2 5411.71 878.351   3
  -4   1  -2 4911.16 1121.01   6
   4  -1   2 6819.39 1128.23   6
  -4   1  -3 2012.37 617.376   3
  -4   1  -3 1817.40 714.591   6
   4  -1   3 1812.38 562.210   6
  -4   1  -4 139013. 5467.08   3
   4  -1   4 137196. 6255.63   2
  -4   1  -4 141893. 6859.73   6
  -4   1  -5 33039.1 2686.03   3
   4  -1   5 34499.7 3012.20   2
  -4   1  -5 38047.4 3679.49   6
  -4   1  -6 13072.3 2175.22   6
  -4   1  -6 13389.7 1805.35   3
   4  -1   6 14814.5 1957.64   2
  -4   1  -7 44838.1 3493.32   3
   4  -1   7 47058.2 3555.91   2
  -4   1  -7 46107.4 4386.05   6
  -4   1  -8 47933.8 4629.64   6
  -4   1  -8 39897.2 3442.36   3
   4  -1   8 44002.6 3437.28   2
   4  -1   8 39361.8 2719.56   1
  -4   1  -9 25418.9 3635.21   6
  -4   1  -9 25008.4 2858.19   3
   4  -1   9 26386.4 2670.78   2
   4  -1   9 25324.1 2191.50   1
  -4   1 -10 333.731 442.342   6
   4  -1  10 2108.25 739.055   2
   4  -1  10 2430.09 683.000   1
  -4   1 -10 2263.90 936.718   3
   4  -1  11 44581.8 3033.56   1
  -4   1 -11 42396.8 4063.27   3
   4  -1  11 41625.1 3363.26   2
  -4   1 -11 40633.9 4901.11   6
   4  -1  12 7263.96 1228.99   1
  -4   1 -12 4922.47 1818.94   6
   4  -1  12 8217.14 1463.22   2
  -4   1 -12 6279.28 1582.81   3
   4  -1  13 37534.0 2882.86   1
  -4   1 -13 30759.1 3682.07   3
   4  -1  13 35058.5 3057.61   2
  -4   1 -13 28011.1 4420.42   6
   4  -1  14 18477.5 2051.77   1
  -4   1 -14 13674.5 3166.79   6
   4  -1  14 15300.5 1999.15   2
  -4   1 -14 13818.1 2565.15   3
   4  -1  15 22500.8 2309.01   1
  -4   1 -15 19813.7 3157.46   3
   4  -1  15 24794.3 2558.49   2
  -4   1 -16 226.573 661.330   3
  -4   1 -17 19880.6 3432.38   3
  -4   1 -18 65303.8 6403.04   3
  -4   1 -19 3525.00 1974.31   5
  -4   1 -19 4511.35 1793.58   3
  -4   1 -20 9222.04 2508.78   3
  -4   1 -21 3897.05 1742.33   3
   4   0 -21 10987.3 3183.86   5
   4   0 -20 9864.42 3001.52   5
   4   0 -19 9137.08 2775.64   5
   4   0 -18 1814.26 1227.14   5
   4   0 -17 5444.05 2223.00   5
   4   0 -16 28670.1 4619.90   5
   4   0 -15 786.777 775.301   5
   4   0 -15 149.446 201.384   2
   4   0 -14 2078.53 1264.40   5
   4   0 -14 195.144 181.275   2
   4   0 -13 50576.4 5552.89   5
   4   0 -13 60061.5 3811.69   2
   4   0 -13 62742.1 3314.51   4
   4   0 -12 72467.2 6406.62   5
   4   0 -12 76370.6 4305.97   2
   4   0 -12 81830.4 3720.28   4
   4   0 -11 57569.8 3712.48   2
   4   0 -11 61182.3 3125.18   4
   4   0 -10 2013.49 694.170   2
   4   0 -10 2814.42 634.053   4
   4   0 -10 2859.59 1232.69   5
   4   0  -9 84717.4 4514.15   2
   4   0  -9 87872.1 3666.24   4
   4   0  -8 1684.14 476.394   4
   4   0  -8 1271.35 540.419   2
   4   0  -8 1318.63 918.301   5
   4   0  -7 115120. 6908.71   5
   4   0  -7 125067. 5536.60   2
   4   0  -7 124313. 4476.18   4
   4   0  -6 28935.6 3254.05   5
   4   0  -6 33983.6 2790.75   2
   4   0  -6 33443.4 2186.14   4
   4   0  -5 36958.3 3591.77   5
   4   0  -5 35013.0 2847.44   2
   4   0  -5 36825.8 2328.08   4
   4   0  -4 49251.0 3983.90   5
   4   0  -4 45387.6 3249.86   2
   4   0  -4 44027.9 2631.48   4
   4   0  -3 82541.6 5048.91   5
   4   0  -3 77729.2 4316.19   2
  -4   0   3 82222.5 3948.93   6
   4   0  -3 78895.0 3725.57   4
   4   0  -2 43401.7 3521.22   5
   4   0  -2 46675.9 3303.90   2
  -4   0   2 47382.8 2841.83   6
   4   0  -2 47800.8 2923.24   4
   4   0  -1 26748.2 2478.09   2
  -4   0   1 26620.8 2052.36   6
   4   0  -1 28294.7 2295.16   4
   4   0   0 29902.6 2467.56   4
   4   0   0 27159.2 2497.60   2
  -4   0   0 26540.4 2043.14   6
  -4   0  -1 5785.38 947.673   6
   4   0   1 5393.83 1116.87   2
  -4   0  -2 45754.9 2785.14   3
   4   0   2 43590.0 3227.68   2
   4   0   2 42905.3 2363.83   6
  -4   0  -2 51292.8 3053.53   6
  -4   0  -3 17459.0 1784.63   3
   4   0   3 20849.0 2190.42   2
   4   0   3 19014.0 1586.85   6
  -4   0  -3 19541.7 1978.25   6
  -4   0  -4 1611.25 636.312   6
  -4   0  -4 770.876 408.866   3
   4   0   4 474.139 211.113   6
   4   0   4 925.350 484.960   2
  -4   0  -4 1250.47 488.446   1
   4   0   5 105712. 4559.64   6
  -4   0  -5 99283.9 4136.69   1
  -4   0  -5 99766.5 4866.57   3
   4   0   5 105042. 5160.27   2
  -4   0  -5 111600. 5582.72   6
   4   0   6 4048.78 906.761   6
  -4   0  -6 5972.48 1210.29   3
  -4   0  -6 4472.13 1145.07   6
   4   0   6 4374.93 1016.40   2
  -4   0  -7 46533.2 3563.06   3
   4   0   7 49201.5 3465.05   2
   4   0   7 49144.5 3420.07   6
  -4   0  -7 49404.3 4069.13   6
   4   0   8 4336.34 1031.98   2
  -4   0  -8 4179.30 1201.02   6
  -4   0  -8 5661.96 1320.28   3
  -4   0  -9 106930. 6095.40   3
   4   0   9 123471. 5702.52   2
  -4   0  -9 127379. 7281.20   6
  -4   0 -10 119170. 6693.95   3
   4   0  10 127840. 5870.20   2
  -4   0 -10 122490. 7494.48   6
  -4   0 -11 65793.6 5079.36   3
   4   0  11 69418.1 4232.24   2
   4   0  11 64432.2 3014.69   1
  -4   0 -12 20809.7 2966.18   3
   4   0  12 23765.0 2441.09   2
   4   0  12 22393.6 1746.69   1
  -4   0 -13 42803.4 4414.98   3
   4   0  13 39866.8 3240.24   2
   4   0  13 43322.0 2500.28   1
  -4   0 -14 175.344 255.592   3
   4   0  14 221.329 252.183   2
   4   0  14 371.992 242.613   1
  -4   0 -15 28452.5 3838.16   3
   4   0  15 29647.7 2753.08   2
  -4   0 -16 34848.2 4334.27   3
  -4   0 -17 5686.64 2079.41   5
  -4   0 -17 9931.25 2402.24   3
  -4   0 -18 1022.02 800.321   3
  -4   0 -19-1052.01 863.734   3
  -4   0 -20 14326.7 3090.42   3
  -4   0 -21 1233.63 349.346   3
  -4   0 -22 335.813 607.826   3
   4   1 -21 757.816 1366.36   5
   4   1 -20 52399.2 6998.99   5
   4   1 -19-112.752 444.414   5
   4   1 -18 18761.2 4017.37   5
   4   1 -17-838.457 864.576   5
   4   1 -16 15536.1 3412.39   5
   4   1 -15 666.187 744.414   5
   4   1 -14 15570.6 3226.68   5
   4   1 -13 1800.50 1080.04   5
   4   1 -12 119987. 8534.40   5
   4   1 -11-204.774 235.580   2
   4   1 -11 537.359 312.037   5
   4   1 -10 219.040 570.814   5
   4   1 -10 623.888 349.655   2
   4   1  -9 123.366 113.705   4
   4   1  -9-123.216 183.907   2
   4   1  -8 8261.35 1378.19   2
   4   1  -8 8466.90 1893.57   5
   4   1  -8 9338.04 1275.34   4
   4   1  -7 28.2907 181.683   2
   4   1  -7 136.367 193.122   4
   4   1  -7-502.237 473.036   5
   4   1  -6 538.100 301.765   4
   4   1  -6 112.506 130.130   2
   4   1  -6 180.301 310.515   5
   4   1  -5 111.495 151.189   4
   4   1  -5 217.850 256.312   2
   4   1  -4 6673.21 1214.78   2
   4   1  -4 6799.28 1052.06   4
   4   1  -4 4458.59 1163.07   5
   4   1  -3 211.973 235.187   2
   4   1  -3 6.66773 66.9368   4
   4   1  -2 193084. 7538.48   5
   4   1  -2 181273. 6880.74   2
   4   1  -2 193350. 6400.23   4
   4   1  -1 676.702 449.387   4
  -4  -1   1 856.010 317.976   6
   4   1   0 216519. 7415.85   5
   4   1   0 199254. 7265.09   2
   4   1   0 213626. 7087.60   4
  -4  -1   0 199228. 5072.68   6
   4   1   1 58.3444 320.345   4
  -4  -1  -1-35.5281 74.7372   6
   4   1   2 936910. 20008.4   2
   4   1   2 960258. 20113.0   4
  -4  -1  -2 925423. 16493.1   6
   4   1   3 302.779 407.519   2
  -4  -1  -3 392.857 261.596   6
  -4  -1  -4 46502.0 2982.54   5
  -4  -1  -4 45172.9 3122.77   3
   4   1   4 44373.7 3238.21   2
   4   1   4 43774.8 3419.66   4
   4   1   4 47058.0 1932.37   6
  -4  -1  -4 47877.8 2370.09   1
  -4  -1  -4 43595.4 2330.53   6
   4   1   5-28.8646 73.1921   6
  -4  -1  -5 122.337 144.414   1
  -4  -1  -5 183.615 284.824   3
  -4  -1  -5 131.293 188.690   5
   4   1   5 210.016 293.888   2
  -4  -1  -6 133889. 5187.21   5
  -4  -1  -6 115410. 5573.86   3
   4   1   6 121915. 5634.54   2
   4   1   6 130400. 4632.66   6
  -4  -1  -7 31.6772 225.158   3
   4   1   7 71.2545 156.565   2
   4   1   8 1900.31 633.299   6
  -4  -1  -8 3755.55 1029.80   3
   4   1   8 3336.54 892.958   2
  -4  -1  -9 424.706 445.908   3
   4   1   9-177.259 236.596   6
   4   1   9-617.586 392.163   2
  -4  -1 -10 11689.5 2011.80   3
   4   1  10 11796.8 1704.80   2
   4   1  11 119.269 123.998   2
  -4  -1 -11 116.914 277.609   3
  -4  -1 -12 961.042 650.862   3
  -4  -1 -13-660.703 570.047   3
  -4  -1 -14 33642.0 4018.83   3
  -4  -1 -15-844.004 645.605   5
  -4  -1 -15-84.1406 299.082   3
  -4  -1 -16 36084.0 4243.14   5
  -4  -1 -16 37690.8 4547.65   3
  -4  -1 -17 598.647 635.617   3
  -4  -1 -18 146.820 393.710   3
  -4  -1 -19-54.4771 343.272   3
  -4  -1 -20 52287.3 5994.87   3
  -4  -1 -21 793.465 816.570   3
  -4  -1 -22 8389.87 2485.51   3
   4   2 -21 6054.12 2437.69   5
   4   2 -20 11515.3 3300.39   5
   4   2 -19 12195.0 3470.24   5
   4   2 -18 2462.57 1597.41   5
   4   2 -17 1070.15 1175.95   5
   4   2 -16 34927.4 5298.66   5
   4   2 -15 1569.25 1113.08   5
   4   2 -14 1325.69 1110.85   5
   4   2 -13 51295.2 5844.33   5
   4   2 -12 70890.1 6700.49   5
   4   2 -11 46716.7 5270.55   5
   4   2 -10 410.341 634.059   5
   4   2  -9 77882.6 6407.47   5
   4   2  -8 1949.15 1152.33   5
   4   2  -7 129377. 7669.16   5
   4   2  -7 140225. 5724.74   4
   4   2  -6 33291.8 3629.58   5
   4   2  -6 36027.4 2726.51   4
   4   2  -5 31573.2 3355.38   5
  -4  -2   5 33720.6 3142.96   6
   4   2  -5 39764.8 2810.94   4
   4   2  -4 45349.1 3830.83   5
  -4  -2   4 41893.6 3272.47   6
   4   2  -4 45002.7 2988.33   4
   4   2  -3 76557.3 4785.74   5
  -4  -2   3 79614.9 4191.02   6
   4   2  -3 80786.2 4040.03   4
   4   2  -2 47591.2 3518.07   5
  -4  -2   2 47076.7 2836.39   6
   4   2  -2 48189.0 3105.96   4
   4   2  -1 27298.7 2329.47   4
   4   2  -1 23829.8 2325.65   5
   4   2  -1 26849.6 2573.03   2
  -4  -2   1 25400.0 1737.65   6
  -4  -2   0 28708.2 2625.92   5
   4   2   0 27002.1 2327.21   5
   4   2   0 23396.3 2407.03   2
   4   2   0 26697.2 2333.28   4
   4   2   1 4473.70 971.075   4
   4   2   1 5977.77 1214.32   2
  -4  -2  -1 6662.92 1200.99   5
   4   2   1 4590.70 864.778   5
  -4  -2  -2 42661.5 2835.23   5
   4   2   2 42782.7 2590.56   5
   4   2   2 47691.2 3319.15   4
  -4  -2  -3 17112.2 1645.62   5
   4   2   3 14946.4 1891.32   4
  -4  -2  -4 2023.92 562.308   5
   4   2   4 723.922 432.628   4
  -4  -2  -5 103648. 3805.10   5
  -4  -2  -5 99903.0 5136.56   3
   4   2   5 105965. 5531.37   4
  -4  -2  -6 4559.53 502.783   1
   4   2   6 3596.96 589.227   6
  -4  -2  -6 4994.37 1150.95   3
  -4  -2  -6 4241.26 682.943   5
   4   2   6 4645.59 1144.84   4
  -4  -2  -7 46470.0 2281.95   5
  -4  -2  -7 45956.5 3596.28   3
   4   2   7 46002.4 2667.58   6
   4   2   8 4056.91 895.105   6
  -4  -2  -8 5187.77 1274.31   3
  -4  -2  -8 3699.28 618.245   5
  -4  -2  -9 106716. 6026.26   3
   4   2   9 115851. 5550.69   6
  -4  -2 -10 111960. 6423.39   3
   4   2  10 122308. 6211.49   6
  -4  -2 -11 54113.5 3520.63   5
  -4  -2 -11 59543.3 4756.76   3
  -4  -2 -12 19764.2 2139.59   5
  -4  -2 -12 15364.8 2490.99   3
  -4  -2 -13 37189.1 3082.66   5
  -4  -2 -13 43900.0 4383.83   3
  -4  -2 -14 166.706 339.768   3
  -4  -2 -15 25908.1 3659.81   3
  -4  -2 -16 33461.5 4284.11   3
  -4  -2 -17 6951.75 2013.66   3
  -4  -2 -18 576.836 634.894   3
  -4  -2 -19-733.809 747.949   3
  -4  -2 -20 13019.2 3041.04   3
  -4  -2 -21-683.660 768.618   3
   4   3 -21 7198.62 2770.47   5
   4   3 -20 3783.81 1969.33   5
   4   3 -19 3875.78 1948.61   5
   4   3 -18 26725.2 5042.82   5
   4   3 -17 308.723 596.536   5
   4   3 -16 7267.21 2452.73   5
   4   3 -15-257.201 574.225   5
   4   3 -14 17158.1 3636.71   5
   4   3 -13 41046.1 5479.93   5
   4   3 -12-118.501 780.426   5
   4   3 -11 7952.11 2294.60   5
   4   3 -10 93558.6 7541.45   5
   4   3  -9 59032.1 5772.69   5
   4   3  -8 1166.47 918.113   5
   4   3  -7 30009.3 3817.39   5
   4   3  -6 9613.93 2050.21   5
   4   3  -5 77213.0 5611.41   5
   4   3  -5 82392.3 4520.90   4
   4   3  -4 87497.1 5716.20   5
  -4  -3   4 92987.1 5129.31   6
   4   3  -4 98704.2 4920.84   4
   4   3  -3 17025.8 2352.52   5
  -4  -3   3 12612.9 1705.86   6
   4   3  -3 11911.8 1625.12   4
   4   3  -2 56114.8 4022.10   5
  -4  -3   2 67595.9 3576.36   6
   4   3  -2 64890.4 3861.57   4
  -4  -3   1 25495.6 2908.33   5
   4   3  -1 33030.0 2813.83   5
   4   3  -1 31683.4 2644.15   4
  -4  -3   1 32112.6 2061.43   6
  -4  -3   0 53481.8 3926.37   5
   4   3   0 51868.6 3287.58   5
  -4  -3   0 47704.1 1969.44   6
   4   3   0 58552.0 3649.27   4
   4   3   1 355.932 352.800   4
   4   3   1 80.3311 219.295   5
   4   3   2 4611.39 1033.05   4
  -4  -3  -2 5802.72 1108.51   5
   4   3   2 5007.51 849.322   5
   4   3   3 1734.55 659.005   4
  -4  -3  -3 2778.07 690.364   5
   4   3   3 1362.02 392.215   5
   4   3   4 128620. 6024.06   4
   4   3   5 23057.9 1170.45   6
   4   3   5 24004.6 1384.04   6
   4   3   6 10700.7 1187.17   6
  -4  -3  -6 11570.4 1804.18   3
   4   3   6 11579.9 945.736   6
   4   3   6 11673.3 1831.21   4
   4   3   7 40512.0 2070.93   6
  -4  -3  -7 37811.4 3385.36   3
   4   3   7 41939.4 3606.58   4
   4   3   7 42664.8 2787.33   6
  -4  -3  -8 36690.6 3430.96   3
   4   3   8 38488.1 3576.86   4
   4   3   8 37185.4 2897.42   6
  -4  -3  -9 22330.9 2754.07   3
   4   3   9 22665.7 2458.52   6
  -4  -3 -10 2219.92 921.222   3
   4   3  10 1401.46 666.265   6
  -4  -3 -11 29617.9 3409.93   3
  -4  -3 -12 3452.04 1291.09   3
  -4  -3 -13 29231.3 3642.87   3
  -4  -3 -14 9693.57 2217.75   3
  -4  -3 -15 16352.6 2898.63   3
  -4  -3 -16-828.863 710.343   3
  -4  -3 -17 15860.7 3102.33   3
  -4  -3 -18 61106.0 6206.16   3
  -4  -3 -19 5137.62 1863.39   3
  -4  -3 -20 5490.49 2009.57   3
  -4  -3 -21 4594.65 1902.41   3
   4   4 -20 4324.70 2176.50   5
   4   4 -19 1429.63 1280.45   5
   4   4 -18 57110.2 7570.51   5
   4   4 -17 6947.56 2456.87   5
   4   4 -16 8892.07 2878.15   5
   4   4 -15 2142.05 1402.69   5
   4   4 -14 16760.2 3651.06   5
   4   4 -13 764.650 1126.33   5
   4   4 -12 63081.5 6853.07   5
   4   4 -11 26060.7 4293.96   5
   4   4 -10 9175.17 2401.73   5
   4   4  -9 5347.87 1784.35   5
   4   4  -8 2628.92 1225.48   5
   4   4  -7 19990.3 3300.19   5
   4   4  -6 2244.24 1096.52   5
   4   4  -5 1355.63 898.448   5
   4   4  -4 238676. 9473.23   6
   4   4  -4 252061. 8778.23   4
  -4  -4   3 2011.87 702.055   6
   4   4  -3 1925.08 742.126   4
   4   4  -3 1784.73 734.048   6
  -4  -4   2 1463.26 595.106   6
   4   4  -2 526.154 370.692   4
   4   4  -2 1569.68 627.517   6
   4   4  -2 566.864 532.527   5
  -4  -4   1 517.609 327.286   6
   4   4  -1 1405.67 601.366   4
   4   4  -1 1190.99 544.604   6
   4   4  -1 1539.88 841.593   5
   4   4   0 253798. 8586.57   5
  -4  -4   0 255120. 6740.32   6
   4   4   0 244985. 7776.21   6
   4   4   0 255490. 8710.64   4
   4   4   1 12370.5 1579.21   5
  -4  -4  -1 7736.89 865.276   6
   4   4   1 8955.12 1205.51   6
   4   4   1 11100.8 1684.90   4
   4   4   2 42273.5 2491.90   6
   4   4   2 39453.4 2455.07   5
   4   4   2 45900.5 3447.73   4
   4   4   3 52.7255 218.268   4
   4   4   3-316.986 213.762   6
   4   4   3 53.9241 97.2564   5
   4   4   4 96268.3 3849.02   6
   4   4   4 100033. 5361.79   4
   4   4   5 8463.35 1539.30   4
   4   4   5 8073.17 1029.63   6
   4   4   6 35826.9 2295.61   6
   4   4   6 38935.2 3427.89   4
  -4  -4  -7 17041.9 914.346   1
  -4  -4  -7 24105.1 2749.13   3
   4   4   7 22792.0 1848.63   6
   4   4   7 22569.9 2660.23   4
  -4  -4  -8 60726.4 4559.05   3
   4   4   8 66377.4 3388.56   6
   4   4   8 73677.8 4968.72   4
  -4  -4  -9 4884.30 1334.02   3
   4   4   9 4672.83 904.366   6
   4   4   9 5532.99 1367.28   4
  -4  -4 -10 14774.6 2359.39   3
   4   4  10 15720.8 2396.43   4
   4   4  10 16669.9 1836.75   6
  -4  -4 -11 31821.4 3575.77   3
   4   4  11 38412.0 2966.67   6
  -4  -4 -12 1629.86 817.606   3
  -4  -4 -13-383.794 497.561   3
  -4  -4 -14 24056.5 3416.16   3
  -4  -4 -15 7706.33 1982.07   3
  -4  -4 -16 8018.28 2080.43   3
  -4  -4 -17-22.6744 577.035   3
  -4  -4 -18 9453.18 2383.09   3
  -4  -4 -19-20.6144 316.312   3
  -4  -4 -20 21268.2 3919.64   3
  -4  -4 -21 2210.87 1181.02   3
   4   5 -19 2455.99 1681.98   5
   4   5 -18 2570.26 1833.36   5
   4   5 -17 2384.48 1452.17   5
   4   5 -16 1266.16 1161.46   5
   4   5 -15 9033.25 2816.93   5
   4   5 -14 17759.5 4067.29   5
   4   5 -13 16384.1 3739.39   5
   4   5 -12 5616.67 1947.63   5
   4   5 -11 16984.3 3621.86   5
   4   5 -10 27092.2 4439.22   5
   4   5  -9 33992.6 4833.16   5
   4   5  -9 31886.8 4383.61   6
   4   5  -8 44143.7 5331.76   5
   4   5  -8 36047.3 4466.72   6
   4   5  -7 95494.4 7179.32   6
   4   5  -7 100766. 7882.86   5
   4   5  -6 647.707 572.726   6
   4   5  -6 3515.49 1655.09   5
   4   5  -5 39190.1 4568.30   5
   4   5  -5 51639.0 4762.99   6
   4   5  -4 428.568 252.303   6
   4   5  -4 2699.54 1151.07   5
   4   5  -3 147452. 8310.73   5
   4   5  -3 145912. 7625.65   6
   4   5  -3 145488. 6867.37   4
   4   5  -2 100.449 181.741   6
   4   5  -2 696.604 510.459   4
   4   5  -2 438.039 648.236   5
   4   5  -1 2143.76 793.668   6
   4   5  -1 2214.54 785.453   4
   4   5  -1 1975.02 843.975   5
   4   5   0 1843.99 761.465   6
   4   5   0 2103.22 771.877   4
   4   5   0 3689.42 1049.57   5
  -4  -5   0 3165.94 755.952   6
   4   5   1 15259.8 2000.60   5
  -4  -5  -1 14632.6 1534.94   6
   4   5   1 15994.4 2045.02   6
   4   5   1 14494.7 2004.66   4
   4   5   2 3708.29 925.986   6
   4   5   2 5386.63 1201.30   4
   4   5   2 4659.26 970.757   5
  -4  -5  -2 3744.61 741.978   6
   4   5   3 6338.07 1219.56   6
   4   5   3 4929.03 1179.74   4
   4   5   3 4190.58 765.209   5
   4   5   4 11014.6 944.239   5
   4   5   4 11862.1 1666.68   6
   4   5   4 13609.0 1981.99   4
   4   5   5 25927.1 2435.29   6
   4   5   5 22485.9 2616.21   4
   4   5   6-9.55634 294.968   6
   4   5   6-122.802 226.597   4
  -4  -5  -7 145630. 4348.53   1
   4   5   7 153139. 7355.62   4
   4   5   7 143065. 6087.83   6
  -4  -5  -8 25803.9 3079.61   3
   4   5   8 22244.9 2297.68   6
   4   5   8 22610.1 2786.35   4
  -4  -5  -9 23743.8 2992.88   3
   4   5   9 24426.1 2453.17   6
   4   5   9 24440.4 2952.73   4
  -4  -5 -10 883.633 614.571   3
   4   5  10 631.845 404.806   6
   4   5  10 176.138 205.737   4
  -4  -5 -11 72576.6 5637.73   3
   4   5  11 81409.1 5825.29   4
   4   5  11 80112.1 4800.84   6
  -4  -5 -12 876.691 793.030   3
   4   5  12 420.906 385.319   6
  -4  -5 -13 845.075 736.320   3
   4   5  13 692.575 567.321   6
  -4  -5 -14 7450.29 1920.51   3
   4   5  14 8826.45 1746.10   6
  -4  -5 -15 28475.3 3952.40   3
  -4  -5 -16 9905.54 2409.25   3
  -4  -5 -17 12644.7 2808.35   3
  -4  -5 -18 5395.97 1914.05   3
  -4  -5 -19 887.229 826.997   3
  -4  -5 -20 1291.86 1402.15   3
   4   6 -18 6824.86 2825.30   5
   4   6 -17 537.805 913.173   5
   4   6 -16 42413.3 6806.66   5
   4   6 -15 12689.8 3727.42   5
   4   6 -14 10765.1 3231.88   5
   4   6 -13 2324.24 1498.21   5
   4   6 -12 25572.9 4766.64   5
   4   6 -11 10913.7 2874.22   6
   4   6 -11 9669.87 2738.33   5
   4   6 -10 4711.20 1795.48   6
   4   6 -10 5070.54 2008.43   5
   4   6  -9 2368.37 1266.20   6
   4   6  -9 2190.01 1370.78   5
   4   6  -8 5533.90 1803.22   6
   4   6  -8 5755.44 2171.83   5
   4   6  -7 78175.9 7382.57   5
   4   6  -7 91058.0 7529.65   6
   4   6  -6 6474.86 2006.21   6
   4   6  -6 9867.82 2496.33   5
   4   6  -5 2405.07 1124.73   6
   4   6  -5 2668.44 1290.87   5
   4   6  -4 4946.26 1496.70   6
   4   6  -4 3841.27 1484.18   5
   4   6  -3 24513.4 3606.94   5
   4   6  -3 34443.5 3991.58   6
   4   6  -3 27199.3 3018.79   4
   4   6  -2 98704.7 7085.54   5
   4   6  -2 105998. 6900.94   6
   4   6  -2 104650. 5982.98   4
   4   6  -1 11997.4 2247.24   6
   4   6  -1 9560.01 1740.62   4
   4   6  -1 14285.1 2568.63   5
   4   6   0 17275.9 2647.25   5
   4   6   0 15642.5 2506.43   6
   4   6   0 16580.9 2284.67   4
   4   6   1 5362.27 1428.80   6
   4   6   1 6836.28 1459.57   4
   4   6   1 6528.50 1515.12   5
   4   6   2 69266.9 4644.49   5
   4   6   2 72275.2 5260.99   6
   4   6   2 69411.0 4722.72   4
   4   6   3-149.137 283.531   6
   4   6   3-18.8238 254.142   4
   4   6   3-356.293 319.670   5
   4   6   4 28324.2 2249.38   5
   4   6   4 33503.6 3432.58   6
   4   6   4 26474.5 2925.94   4
   4   6   5-142.448 267.359   6
   4   6   5 658.238 473.066   4
   4   6   6 37858.0 3534.97   6
   4   6   6 43972.9 3885.32   4
  -4  -6  -7 18308.9 1680.46   1
   4   6   7 17926.9 2408.01   6
   4   6   7 18577.3 2545.25   4
   4   6   8 5559.56 1319.14   6
   4   6   8 4772.08 1327.26   4
  -4  -6  -8 3981.88 1342.71   3
   4   6   9 5387.74 1419.69   4
  -4  -6  -9 4896.75 1423.41   3
   4   6   9 4772.66 1250.62   6
  -4  -6 -10 12404.1 2357.63   3
   4   6  10 16769.9 2349.27   6
   4   6  10 15884.2 2506.50   4
  -4  -6 -11 6356.62 1729.78   3
   4   6  11 10314.9 2008.49   4
   4   6  11 6658.83 1478.62   6
  -4  -6 -12 1605.48 872.679   3
   4   6  12 1138.75 662.365   4
   4   6  12 869.786 571.647   6
  -4  -6 -13 739.403 643.860   3
  -4  -6 -14 1056.88 781.090   3
  -4  -6 -15 40900.5 4810.79   3
  -4  -6 -16 26147.1 3965.15   3
  -4  -6 -17 1355.84 969.467   3
  -4  -6 -18 8333.59 2383.40   3
  -4  -6 -19 4636.49 1940.71   3
   4   7 -16 17342.5 4622.75   5
   4   7 -15 10744.7 3713.67   5
   4   7 -14 16426.2 4036.51   5
   4   7 -13 21200.3 4579.34   6
   4   7 -13 18125.8 4213.88   5
   4   7 -12 22271.4 4580.61   6
   4   7 -12 13303.0 3728.41   5
   4   7 -11 6297.09 2451.60   6
   4   7 -11 8764.77 2807.24   5
   4   7 -10 1185.28 1013.16   6
   4   7 -10 264.710 994.844   5
   4   7  -9 40920.1 5944.35   5
   4   7  -9 48999.7 6284.33   6
   4   7  -8 613.898 713.321   6
   4   7  -8 1937.71 1306.36   5
   4   7  -7 2903.36 1444.46   6
   4   7  -7 1210.94 918.986   5
   4   7  -6 2187.85 1148.71   6
   4   7  -6 1778.44 831.706   5
   4   7  -5 7115.87 2107.58   6
   4   7  -5 7931.92 2237.07   5
   4   7  -4 17383.3 3253.83   6
   4   7  -4 16609.9 3501.00   5
   4   7  -3 7130.28 2067.08   6
   4   7  -3 5567.52 1442.31   4
   4   7  -3 8258.86 2300.36   5
   4   7  -2 20903.6 3474.54   5
   4   7  -2 22561.5 3584.89   6
   4   7  -2 20667.9 2741.27   4
   4   7  -1 45276.7 5086.87   5
   4   7  -1 43292.9 4774.46   6
   4   7  -1 36256.8 3643.47   4
   4   7   0 8216.50 1955.14   6
   4   7   0 7689.30 1625.45   4
   4   7   0 7010.22 1790.79   5
   4   7   1 2981.47 1240.24   6
   4   7   1 1729.85 763.337   4
   4   7   1 2265.48 1046.31   5
   4   7   2 98568.5 6993.77   6
   4   7   2 89366.1 5682.33   4
   4   7   3-445.199 482.891   6
   4   7   3-569.343 451.687   4
   4   7   4-610.601 555.478   6
   4   7   4 145.926 378.628   4
   4   7   5 28809.3 3226.97   4
   4   7   5 27192.2 3483.66   6
   4   7   6 63041.5 5268.07   6
   4   7   6 63182.6 4915.18   4
   4   7   7 2724.29 1112.39   6
   4   7   7 2374.52 933.686   4
   4   7   8 4948.36 1417.01   6
   4   7   8 3704.64 1187.98   4
  -4  -7  -8 3059.38 1136.44   3
  -4  -7  -9 30850.4 3749.89   3
   4   7   9 37267.7 3902.02   4
   4   7  10 1166.21 703.179   4
  -4  -7 -10 562.947 638.729   3
  -4  -7 -11 3494.89 1299.04   3
   4   7  11 5935.86 1672.99   4
  -4  -7 -12 2042.99 1025.23   3
   4   7  12 265.941 380.873   4
  -4  -7 -13 29558.7 4000.26   3
  -4  -7 -14 7988.30 2133.97   3
  -4  -7 -15 798.550 598.826   3
  -4  -7 -16 10466.0 2593.40   3
  -4  -7 -17 3347.31 1575.46   3
   4   8 -14 7985.29 3039.13   6
   4   8 -14 5608.08 2646.20   5
   4   8 -13 17842.8 4556.68   6
   4   8 -13 22369.0 5244.77   5
   4   8 -12 2150.31 1529.91   6
   4   8 -12 684.658 1033.47   5
   4   8 -11 3288.01 1843.83   6
   4   8 -11 4784.79 2066.92   5
   4   8 -10 4108.33 2008.92   6
   4   8 -10 4974.07 2061.13   5
   4   8  -9 57959.0 7581.28   5
   4   8  -9 49636.8 6957.46   6
   4   8  -8 1176.06 1043.76   6
   4   8  -8-61.9529 488.068   5
   4   8  -7 10444.0 3026.37   6
   4   8  -7 11958.3 3187.15   5
   4   8  -6 475.381 649.869   6
   4   8  -6 528.586 1037.95   5
   4   8  -5 38210.8 5671.09   5
   4   8  -5 40616.2 5654.88   6
   4   8  -4 16558.4 3531.00   6
   4   8  -4 13520.1 3457.24   5
   4   8  -3 29478.9 4765.53   5
   4   8  -3 33371.3 4839.50   6
   4   8  -3 27895.4 3478.97   4
   4   8  -2 1855.01 1146.58   6
   4   8  -2 2213.21 955.088   4
   4   8  -2 108.633 429.747   5
   4   8  -1 57282.7 6222.81   5
   4   8  -1 61617.2 6447.24   6
   4   8  -1 45908.0 4350.16   4
   4   8   0 9.84919 297.396   6
   4   8   0-187.611 303.234   4
   4   8   1 13318.3 2929.42   6
   4   8   1 13859.1 2320.08   4
   4   8   2 4686.81 1653.33   6
   4   8   2 4929.51 1374.25   4
   4   8   3-506.803 580.932   6
   4   8   3 1454.51 745.927   4
   4   8   4 326.045 325.095   6
   4   8   4 629.106 455.307   4
   4   8   5 78233.7 6804.93   6
   4   8   5 81555.0 5770.78   4
   4   8   6 5417.54 1496.08   4
   4   8   7 841.191 597.304   4
   4   8   8 909.155 604.327   4
  -4  -8  -8 3724.92 1314.32   3
  -4  -8  -9 28906.7 3808.79   3
   4   8   9 35044.9 3966.79   4
   4   8  10 5338.78 1578.26   4
  -4  -8 -10 3233.72 1275.39   3
  -4  -8 -11 15615.9 2892.19   3
   4   8  11 16422.0 2766.57   4
  -4  -8 -12 2213.49 1247.82   3
  -4  -8 -13 17978.1 3226.71   3
  -4  -8 -14 8106.57 2233.79   3
  -4  -8 -15-510.647 642.589   3
  -4  -8 -16-615.359 708.626   3
   4   9 -13 7365.91 3062.00   6
   4   9 -12 11039.4 3821.50   6
   4   9 -12 14900.5 4485.55   5
   4   9 -11-140.547 484.054   6
   4   9 -11 3.21998 553.388   5
   4   9 -10 10902.4 3512.26   6
   4   9 -10 13627.8 4397.57   5
   4   9  -9 22418.0 4934.02   6
   4   9  -9 12277.9 3949.42   5
   4   9  -8 906.628 1012.84   6
   4   9  -8 845.927 1064.81   5
   4   9  -7-144.460 471.044   6
   4   9  -7 5000.20 2473.31   5
   4   9  -6 984.495 990.494   6
   4   9  -6 113.560 567.817   5
   4   9  -5 8800.51 2928.61   6
   4   9  -5 8636.64 2954.25   5
   4   9  -4 21301.1 4346.99   6
   4   9  -4 19272.9 3067.51   4
   4   9  -3 7570.65 2522.17   6
   4   9  -3 7207.45 1837.79   4
   4   9  -2 13277.8 3358.46   6
   4   9  -2 11457.0 2293.56   4
   4   9  -1 5417.92 1950.73   6
   4   9  -1 5672.59 1565.55   4
   4   9   0 25017.7 4420.64   6
   4   9   0 23609.9 3241.36   4
   4   9   1 6024.86 1625.93   4
   4   9   2 22897.1 3152.68   4
   4   9   3 2594.27 1036.65   4
   4   9   4 37440.1 4059.76   4
   4   9   5 676.824 557.544   4
   4   9   6 16886.6 2752.99   4
   4   9   7 6679.69 1758.37   4
   4   9   8 6035.46 1641.51   4
  -4  -9  -8 2658.58 1312.23   3
   4   9   9 2273.53 1039.82   4
  -4  -9  -9 2165.30 1211.04   3
  -4  -9 -10 454.890 566.743   3
  -4  -9 -11-323.432 510.821   3
  -4  -9 -12 1413.92 949.557   3
  -4  -9 -13 6395.69 2065.55   3
   4  10  -4 9285.78 2257.71   4
   4  10  -3 19496.3 3210.67   4
   4  10  -2-224.343 616.187   4
   4  10  -1 398.120 472.361   4
   4  10   0 7049.91 1875.00   4
   4  10   1 5649.58 1678.33   4
   4  10   2 9428.28 2107.87   4
   4  10   3 3717.79 1350.37   4
   4  10   4 2056.75 1075.14   4
   4  10   5-329.029 423.201   4
  -4 -10  -7 18999.5 3312.99   3
  -4 -10  -8 3135.28 1352.27   3
  -4 -10  -9-1254.70 902.535   3
  -4 -10 -10 34.4538 368.155   3
  -5   7   4 3218.01 1770.25   6
  -5   7   3 1952.03 1401.52   6
  -5   7   2 388.014 687.331   6
  -5   7   1 1308.76 1155.44   6
  -5   7   0 1941.62 1421.14   6
  -5   7  -1 250.799 587.707   6
  -5   7  -2-466.717 742.073   6
  -5   7  -3 874.083 985.926   6
  -5   7  -4-1070.60 1112.37   6
  -5   7  -5 3594.25 2063.59   6
  -5   7  -6 2132.60 1577.04   6
  -5   6  10-1238.17 1056.64   6
  -5   6   9-939.750 923.939   6
  -5   6   8 644.093 776.527   6
  -5   6   7 161.834 455.804   6
  -5   6   6 1263.66 1041.22   6
  -5   6   5-1252.94 1031.61   6
  -5   6   4 1531.17 1309.67   6
  -5   6   3 3909.44 1864.79   6
  -5   6   2 6968.84 2409.68   6
  -5   6   1 8068.81 2643.09   6
  -5   6   0 4875.01 2163.87   6
  -5   6  -1 3375.96 1566.96   6
  -5   6  -2 3566.72 1781.21   6
  -5   6  -3 1889.14 1315.38   6
  -5   6  -4 4050.78 1922.18   6
  -5   6  -5 243.799 539.230   6
  -5   6  -6-322.196 590.642   6
  -5   6  -7 1353.86 1190.31   6
   5  -6   7 299.918 426.716   1
  -5   6  -8 675.055 316.837   6
   5  -6   8 1514.41 937.264   1
  -5   6  -9 694.121 891.300   6
   5  -6   9 714.075 624.090   1
  -5   6 -10-333.545 639.143   6
   5  -6  10 222.079 386.474   1
  -5   6 -11-739.972 941.665   6
   5  -6  11 560.099 759.304   1
  -5   6 -12 3144.90 1933.97   6
   5  -6  12 1700.32 958.299   1
   5  -6  13 3691.95 1419.59   1
   5  -6  14 2308.44 1133.99   1
  -5   5  13 11971.4 3055.89   6
  -5   5  12 4282.82 1878.73   6
  -5   5  11 2073.12 1239.08   6
  -5   5  10-654.495 707.301   6
  -5   5   9 811.520 779.044   6
  -5   5   8-826.483 780.949   6
  -5   5   7 1382.17 998.435   6
  -5   5   6 1667.03 1088.55   6
  -5   5   5 1874.74 1149.77   6
  -5   5   4 284.972 390.925   6
  -5   5   3 173.258 421.017   6
  -5   5   2 1991.31 1167.10   6
  -5   5   1 1083.75 886.333   6
  -5   5   0-75.7071 327.037   6
  -5   5  -1 770.894 766.045   6
  -5   5  -2 1246.22 975.697   6
  -5   5  -3 1355.86 1211.84   6
  -5   5  -4 3380.53 1865.25   6
  -5   5  -5 1058.99 933.825   6
  -5   5  -6 3531.75 1716.60   6
  -5   5  -7 16499.4 3811.77   6
   5  -5   7 14905.6 2583.34   1
  -5   5  -8 8659.04 2760.30   6
   5  -5   8 11485.1 2314.93   1
  -5   5  -9 1716.56 1123.36   6
   5  -5   9 3847.69 1277.98   1
  -5   5 -10-630.734 823.996   6
   5  -5  10 69.2982 233.160   1
  -5   5 -11 1784.98 1353.57   6
   5  -5  11 1149.41 714.287   1
  -5   5 -12-344.530 633.331   6
   5  -5  12 275.880 388.333   1
  -5   5 -13-548.397 812.343   6
   5  -5  13 113.717 298.330   1
  -5   5 -14 828.903 1004.95   6
   5  -5  14-33.8079 237.599   1
  -5   5 -15 275.856 657.278   6
   5  -5  15-159.172 336.919   1
  -5   5 -16-467.717 840.737   6
  -5   4  16-1480.52 1070.36   6
  -5   4  15-457.728 624.252   6
  -5   4  14-53.1677 636.121   6
  -5   4  13-421.657 564.486   6
  -5   4  12 119.937 339.495   6
  -5   4  11-156.058 347.614   6
  -5   4  10 1121.06 859.571   6
  -5   4   9 4488.46 1641.80   6
  -5   4   8 7859.23 2139.73   6
  -5   4   7 5971.71 1883.21   6
  -5   4   6 19858.3 3368.76   6
  -5   4   5 9730.29 2387.18   6
  -5   4   4 7662.32 2090.16   6
  -5   4   3 5306.42 1789.81   6
  -5   4   2-457.317 530.148   6
  -5   4   1 119.446 290.038   6
  -5   4   0 396.337 491.129   6
  -5   4  -1-375.163 485.822   6
  -5   4  -2 1319.01 778.481   6
  -5   4  -3 513.376 458.091   6
  -5   4  -4 247.858 508.990   6
  -5   4  -5-121.868 345.992   6
  -5   4  -6 430.900 579.311   6
  -5   4  -7 1099.30 922.023   6
  -5   4  -8 623.283 726.662   6
   5  -4   8 305.479 357.983   1
  -5   4  -9-113.797 390.307   6
   5  -4   9-459.660 440.223   1
  -5   4 -10 2841.07 1547.51   6
   5  -4  10 88.1025 346.156   1
  -5   4 -11 1750.72 1261.36   6
   5  -4  11 2201.90 936.591   1
  -5   4 -12 6303.30 2413.33   6
   5  -4  12 3504.27 1165.20   1
  -5   4 -13 1395.23 1197.28   6
   5  -4  13 543.573 495.284   1
  -5   4 -14 6463.20 2611.22   6
   5  -4  14 3379.92 1204.54   1
  -5   4 -15 5173.68 2820.58   6
   5  -4  15 6335.65 1684.70   1
  -5   4 -16 7241.85 2918.79   6
  -5   4 -17 929.498 1081.97   6
  -5   4 -18 806.524 1037.93   6
   5  -3 -18-883.678 907.023   5
   5  -3 -17-479.879 711.251   5
  -5   3  17 1558.39 962.717   6
   5  -3 -16 5791.77 2096.97   5
  -5   3  16 5912.88 2140.16   6
   5  -3 -15 7349.21 2254.69   5
  -5   3  15 12350.5 2882.69   6
   5  -3 -14 5469.64 1460.29   2
   5  -3 -14 4269.65 1670.34   5
  -5   3  14 5745.32 1887.87   6
   5  -3 -13 5724.29 1507.50   2
  -5   3  13 4787.04 1701.06   6
   5  -3 -12 3708.22 1199.32   2
  -5   3  12 4479.06 1644.16   6
  -5   3  11 898.811 710.546   6
  -5   3  10 339.708 421.715   6
  -5   3   9 340.233 482.150   6
  -5   3   8 858.299 705.216   6
  -5   3   7 336.241 422.493   6
  -5   3   6 3771.42 1368.84   6
  -5   3   5 1151.55 758.725   6
  -5   3   4 1261.59 820.551   6
  -5   3   3 307.628 324.417   6
  -5   3   2 4677.94 1469.25   6
  -5   3   1 8853.36 2051.28   6
  -5   3   0 9217.27 2076.46   6
  -5   3  -1 9009.72 2132.82   6
  -5   3  -2 9621.54 2173.46   6
  -5   3  -3 11040.6 2487.11   6
  -5   3  -3 11422.6 1305.19   3
  -5   3  -4 5137.12 1705.48   6
  -5   3  -4 7239.03 1155.75   3
  -5   3  -5 8881.35 2312.48   6
  -5   3  -5 6246.54 1142.10   3
  -5   3  -6 1263.66 870.987   6
  -5   3  -6 1058.98 582.231   3
  -5   3  -7 721.426 697.104   6
  -5   3  -7 1312.64 546.930   3
  -5   3  -8-440.921 561.190   6
  -5   3  -8 668.950 506.433   3
  -5   3  -9 567.370 653.074   6
   5  -3   9 326.920 345.832   1
  -5   3  -9 880.802 555.518   3
  -5   3 -10-404.822 597.764   6
   5  -3  10-109.325 219.340   1
  -5   3 -10 391.815 404.900   3
  -5   3 -11 2318.13 1358.85   6
   5  -3  11 2214.48 900.814   1
  -5   3 -11 3076.81 1098.31   3
  -5   3 -12 640.828 763.156   6
  -5   3 -12 616.505 561.171   3
   5  -3  12 210.272 298.675   1
   5  -3  12 796.543 556.862   2
  -5   3 -13 456.796 665.325   6
  -5   3 -13 462.506 486.270   3
   5  -3  13-16.3984 176.892   2
   5  -3  13-14.4791 167.501   1
  -5   3 -14 56.9411 312.249   6
   5  -3  14 1003.20 624.096   2
  -5   3 -14 1281.11 801.476   3
   5  -3  14 1280.29 754.307   1
  -5   3 -15 1050.41 1061.02   6
   5  -3  15 1309.62 708.412   2
  -5   3 -15 1715.11 882.297   3
  -5   3 -16 3156.89 1824.55   6
  -5   3 -16-471.318 550.918   3
  -5   3 -17-118.231 419.069   6
  -5   3 -17 536.952 607.421   3
  -5   3 -18-515.987 807.167   6
  -5   3 -18 1783.02 1090.79   3
  -5   3 -19 577.335 671.908   3
  -5   3 -20 1368.95 1007.41   3
   5  -2 -19 104.501 471.462   5
   5  -2 -18-679.766 820.708   5
   5  -2 -17-1378.40 1079.17   5
   5  -2 -16 1320.62 920.408   5
   5  -2 -15 4404.88 1763.77   5
   5  -2 -14 1514.02 714.377   2
   5  -2 -14 786.855 472.221   5
   5  -2 -13 1827.50 784.644   2
   5  -2 -13 1839.56 1313.32   5
  -5   2  13 1655.08 893.101   6
   5  -2 -12 6995.43 1573.75   2
   5  -2 -12 3850.08 1643.27   5
  -5   2  12 5128.97 1627.01   6
   5  -2 -11 6926.00 1551.45   2
   5  -2 -11 4499.17 1650.22   5
  -5   2  11 5787.73 1665.58   6
   5  -2 -10 1663.07 749.977   2
   5  -2 -10 1738.68 1121.97   5
  -5   2  10 1591.23 852.389   6
   5  -2  -9 132.880 240.475   2
   5  -2  -9-280.035 690.171   5
  -5   2   9 7.58065 143.834   6
   5  -2  -8 5848.68 1445.26   2
  -5   2   8 5964.38 1601.13   6
   5  -2  -7 11183.8 1967.14   2
  -5   2   7 9021.75 1892.60   6
  -5   2   6 16647.5 2545.85   6
  -5   2   5 9316.25 1895.58   6
  -5   2   4 6278.72 1533.18   6
  -5   2   3 2816.77 492.983   3
  -5   2   3 7063.19 1620.12   6
  -5   2   2 1848.81 397.247   3
  -5   2   2 1770.35 795.422   6
  -5   2   1 48.9212 87.8608   3
  -5   2   1 18.3663 169.964   6
  -5   2   0 234.361 501.954   6
  -5   2   0 482.123 284.925   3
  -5   2  -1 3478.16 1129.96   6
  -5   2  -1 3449.66 703.189   3
  -5   2  -2 7428.56 1761.77   6
  -5   2  -2 5927.72 1000.73   3
  -5   2  -3 3822.57 1278.15   6
  -5   2  -3 4915.12 956.614   3
  -5   2  -4 4232.54 1458.13   6
  -5   2  -4 4680.20 989.548   3
  -5   2  -5 9808.17 2165.10   6
  -5   2  -5 10008.6 1530.66   3
  -5   2  -6 5858.76 1780.07   6
  -5   2  -6 5064.99 1141.64   3
  -5   2  -7 6493.45 1926.97   6
   5  -2   7 4746.65 1281.91   2
  -5   2  -7 6611.91 1361.40   3
  -5   2  -8 8799.10 2348.12   6
   5  -2   8 6853.86 1553.20   2
  -5   2  -8 5599.17 1365.44   3
  -5   2  -9 4757.07 1692.68   6
   5  -2   9 5786.16 1445.65   2
  -5   2  -9 4300.74 1218.20   3
  -5   2 -10 3585.67 1543.15   6
   5  -2  10 2109.91 863.862   2
  -5   2 -10 2546.17 951.219   3
   5  -2  10 1766.74 715.309   1
  -5   2 -11 1082.26 887.363   6
   5  -2  11 498.119 382.767   1
   5  -2  11 826.884 545.364   2
  -5   2 -11 515.086 514.007   3
  -5   2 -12 3324.37 1585.46   6
   5  -2  12 1543.70 656.903   1
   5  -2  12 1268.43 721.410   2
  -5   2 -12 992.548 680.316   3
  -5   2 -13 5191.15 2029.86   6
   5  -2  13 4656.88 1318.13   2
   5  -2  13 4624.49 1181.68   1
  -5   2 -13 2342.86 1067.86   3
  -5   2 -14 1787.12 1245.21   6
   5  -2  14 1593.52 857.551   2
   5  -2  14 1518.96 709.492   1
  -5   2 -14 58.7430 277.930   3
  -5   2 -15-331.573 580.877   6
   5  -2  15 85.5443 216.408   2
  -5   2 -15-311.969 623.992   3
  -5   2 -16-823.281 910.717   6
  -5   2 -16 623.648 574.885   3
  -5   2 -17 2721.87 1306.05   3
  -5   2 -18 761.800 745.220   3
  -5   2 -19 3539.57 1566.30   3
  -5   2 -20 1086.44 916.934   3
   5  -1 -19 1445.78 1172.78   5
   5  -1 -18 5896.94 2253.80   5
   5  -1 -17 5747.73 2128.91   5
   5  -1 -16 300.681 570.749   5
   5  -1 -15-1857.20 1178.11   5
   5  -1 -14 268.654 296.611   2
   5  -1 -14-318.065 399.940   5
   5  -1 -13 195.789 280.177   2
   5  -1 -13 578.296 630.257   5
   5  -1 -12 104.398 200.086   2
   5  -1 -12-13.8994 294.060   5
   5  -1 -11 2790.49 905.257   2
   5  -1 -11 4549.96 1715.03   5
   5  -1 -10 4778.00 1227.94   2
   5  -1 -10 1855.07 1096.46   5
   5  -1 -10 3815.96 728.610   4
   5  -1  -9 4885.57 1255.58   2
   5  -1  -9 6750.70 1845.25   5
   5  -1  -9 4999.92 865.498   4
   5  -1  -8 11945.5 1952.56   2
   5  -1  -8 13011.3 2568.78   5
  -5   1   8 12285.6 2091.99   6
   5  -1  -8 13682.7 1472.91   4
   5  -1  -7 10601.8 1849.40   2
   5  -1  -7 14003.4 2581.26   5
   5  -1  -7 10453.8 1346.98   4
  -5   1   7 9871.00 1863.82   6
   5  -1  -6 10313.6 1837.23   2
   5  -1  -6 10205.8 2206.06   5
  -5   1   6 11082.0 1899.02   6
   5  -1  -5 5655.17 1352.27   2
   5  -1  -5 4533.64 1479.20   5
  -5   1   5 4619.69 1208.43   6
   5  -1  -4 13690.0 2090.07   2
  -5   1   4 12214.9 1894.95   6
   5  -1  -3 4059.73 1160.41   2
  -5   1   3 4144.59 1156.19   6
   5  -1  -2 115.173 433.349   2
  -5   1   2 174.697 246.706   6
   5  -1  -1 302.803 365.329   2
  -5   1   1 416.237 295.274   6
  -5   1   0 582.857 473.920   6
  -5   1   0 660.626 322.313   3
   5  -1   0 1124.08 595.307   2
  -5   1  -1 2073.59 789.188   6
  -5   1  -1 3585.07 795.899   3
   5  -1   1 2413.84 886.349   2
  -5   1  -2 3066.52 1049.60   6
  -5   1  -2 4985.40 937.589   3
   5  -1   2 4716.66 1213.58   2
  -5   1  -3 6571.99 1496.94   6
  -5   1  -3 5802.70 1103.80   3
   5  -1   3 5098.94 1292.14   2
  -5   1  -4 5290.22 1119.38   3
  -5   1  -4 5630.62 1413.00   6
   5  -1   4 4988.17 1287.59   2
  -5   1  -5 3637.34 1195.18   6
   5  -1   5 5363.48 1337.32   2
  -5   1  -5 3875.40 1000.61   3
  -5   1  -6 396.966 418.863   6
   5  -1   6 652.425 488.009   2
  -5   1  -6 1321.66 601.443   3
  -5   1  -7 467.825 471.804   6
   5  -1   7 239.398 294.836   2
  -5   1  -7 434.216 447.758   3
  -5   1  -8 6.08332 158.010   6
   5  -1   8 31.1649 146.756   2
  -5   1  -9 1783.32 1081.76   6
   5  -1   9 1689.30 779.044   2
  -5   1  -9 930.099 586.673   3
  -5   1 -10 2488.47 1238.59   6
   5  -1  10 4733.90 1237.32   2
  -5   1 -10 1626.41 860.891   3
  -5   1 -11 1700.77 1024.76   6
   5  -1  11 840.186 581.552   2
  -5   1 -11 1544.29 766.006   3
   5  -1  12 5601.23 1354.43   2
  -5   1 -12 7321.21 2241.03   6
  -5   1 -12 6203.97 1646.82   3
   5  -1  13 10105.1 1860.21   2
  -5   1 -13 8279.47 2436.37   6
  -5   1 -13 8775.70 2027.39   3
   5  -1  14 10037.5 1859.44   2
  -5   1 -14 8132.58 2427.48   6
  -5   1 -14 8557.60 2090.34   3
   5  -1  15 2409.06 849.815   2
  -5   1 -15 4585.30 1687.09   3
  -5   1 -16 8416.97 2221.09   3
  -5   1 -17 5049.34 1671.37   3
  -5   1 -18 261.463 498.032   3
  -5   1 -19 161.940 451.718   3
  -5   1 -20-315.850 586.115   3
   5   0 -20 2204.21 1516.49   5
   5   0 -19 6114.37 2464.36   5
   5   0 -18 13754.8 3408.35   5
   5   0 -17 9151.08 2844.92   5
   5   0 -16 2745.34 1407.07   5
   5   0 -15 8587.09 2402.02   5
   5   0 -14 7928.84 2410.86   5
   5   0 -14 6619.30 1398.43   2
   5   0 -13 7597.49 2342.51   5
   5   0 -13 9162.76 1685.80   2
   5   0 -12 2363.99 684.769   4
   5   0 -12 2540.48 1293.23   5
   5   0 -12 2640.87 877.913   2
   5   0 -11 828.265 556.475   2
   5   0 -11 927.171 411.097   4
   5   0 -11 687.489 680.239   5
   5   0 -10 6410.06 1381.59   2
   5   0 -10 8036.46 2082.33   5
   5   0 -10 8332.40 1216.18   4
   5   0  -9 6297.76 1354.68   2
   5   0  -9 3537.03 1304.57   5
   5   0  -9 6794.85 1128.79   4
   5   0  -8 422.801 309.581   4
   5   0  -8 780.993 501.778   2
   5   0  -8 411.078 414.063   5
   5   0  -7 19.9430 167.350   4
   5   0  -7-0.72021 218.709   2
   5   0  -7-214.056 670.855   5
   5   0  -6 276.268 231.879   4
   5   0  -6 208.685 336.288   2
   5   0  -6 124.295 304.573   5
   5   0  -5 612.005 343.136   4
   5   0  -5-273.232 289.578   2
  -5   0   5-328.068 290.775   6
   5   0  -5-999.368 656.289   5
   5   0  -4 1561.82 569.905   4
   5   0  -4 1945.75 770.017   2
   5   0  -4 1306.81 756.187   5
  -5   0   4 1760.64 644.912   6
   5   0  -3 5345.27 1271.01   2
   5   0  -3 3700.98 1266.80   5
  -5   0   3 5155.12 1054.26   6
   5   0  -3 6462.09 1206.78   4
   5   0  -2 2451.41 864.993   2
  -5   0   2 3544.03 866.123   6
   5   0  -2 2388.29 735.595   4
   5   0  -1 10463.4 1740.37   2
   5   0  -1 11217.9 1671.24   4
  -5   0   1 10045.2 1424.30   6
   5   0   0 10220.0 1726.33   2
  -5   0   0 8325.41 1304.36   6
   5   0   1 19778.0 2412.44   2
  -5   0  -1 17278.0 1887.14   6
  -5   0  -2 14179.5 1765.82   3
   5   0   2 16367.5 2207.65   2
  -5   0  -2 15328.6 1870.27   6
  -5   0  -3 16041.6 1910.59   3
   5   0   3 17718.5 2305.94   2
   5   0   3 17971.0 1684.65   6
  -5   0  -3 17484.9 2043.13   6
  -5   0  -4 5398.94 1230.87   6
  -5   0  -4 7629.53 1371.62   3
   5   0   4 4547.36 1181.50   2
   5   0   4 5960.19 1004.30   6
  -5   0  -5 2890.90 898.144   3
  -5   0  -5 3253.13 985.132   6
   5   0   5 2981.92 932.369   2
   5   0   5 2631.03 699.823   6
  -5   0  -6 360.256 200.815   3
  -5   0  -6 1349.47 646.847   6
   5   0   6 903.747 580.758   2
   5   0   6 357.091 275.130   6
  -5   0  -7 1683.73 771.360   3
   5   0   7 1182.84 616.689   2
  -5   0  -7 2221.42 853.883   6
   5   0   7 900.447 499.347   6
  -5   0  -8-257.561 321.901   3
   5   0   8-105.964 221.872   2
  -5   0  -8 80.6434 206.051   6
  -5   0  -9 939.629 644.309   3
   5   0   9 278.892 323.074   2
  -5   0  -9 1938.35 895.751   6
   5   0  10 2069.35 789.529   2
  -5   0 -10 490.092 653.487   6
  -5   0 -10 1375.44 722.782   3
   5   0  11 423.465 370.721   2
  -5   0 -11 74.7963 186.063   3
   5   0  12-241.390 302.399   2
  -5   0 -12 1127.81 785.792   3
  -5   0 -13 212.269 372.376   3
   5   0  13 85.3980 213.009   2
  -5   0 -14 914.373 699.013   3
   5   0  14-55.5402 177.080   2
  -5   0 -15 29.6241 597.006   3
   5   0  15 508.889 428.610   2
  -5   0 -16 1107.93 741.000   3
  -5   0 -17 817.902 654.515   3
  -5   0 -18-687.220 716.785   3
  -5   0 -19 865.790 822.176   3
  -5   0 -20 2039.97 1352.30   3
   5   1 -20 954.413 1051.48   5
   5   1 -19 1969.78 1400.52   5
   5   1 -18 2212.27 1440.56   5
   5   1 -17 2595.21 1514.62   5
   5   1 -16-272.246 550.506   5
   5   1 -15 265.489 273.265   4
   5   1 -15-1806.98 1197.77   5
   5   1 -14 651.077 358.625   4
   5   1 -14-801.998 817.060   5
   5   1 -13 6681.65 1262.21   4
   5   1 -13 2916.77 1644.41   5
   5   1 -12 901.808 489.043   4
   5   1 -12 381.398 217.127   2
   5   1 -11 1420.41 585.677   4
   5   1 -11 3040.84 1510.64   5
   5   1 -11 1883.36 788.646   2
   5   1 -10 20711.4 2536.78   2
   5   1 -10 19048.5 3311.46   5
   5   1 -10 22301.5 2196.98   4
   5   1  -9 17868.7 2356.13   2
   5   1  -9 16337.4 2979.98   5
   5   1  -9 19087.6 2006.86   4
   5   1  -8 18055.7 2351.28   2
   5   1  -8 19552.6 3073.13   5
   5   1  -8 24382.7 2260.30   4
   5   1  -7 16378.3 2234.10   2
   5   1  -7 15754.4 2703.38   5
   5   1  -7 21050.4 2089.58   4
   5   1  -6 20059.8 2970.27   5
   5   1  -6 23907.1 2677.62   2
   5   1  -6 25242.9 2327.28   4
   5   1  -5 14148.4 2057.04   2
   5   1  -5 13415.4 2310.22   5
   5   1  -5 14299.0 1748.98   4
   5   1  -4 6049.39 1313.61   2
   5   1  -4 6059.83 1152.65   4
   5   1  -4 5243.61 1448.79   5
   5   1  -3 931.469 541.288   2
   5   1  -3 1313.17 540.444   4
  -5  -1   3 1703.70 530.945   6
   5   1  -3 1212.74 720.135   5
   5   1  -2 4221.84 998.665   4
   5   1  -2 2292.56 833.891   2
   5   1  -2 3534.94 1078.26   5
  -5  -1   2 3151.16 678.713   6
   5   1  -1-130.078 195.660   4
   5   1  -1 157.355 229.363   2
   5   1  -1-212.243 292.942   5
  -5  -1   1 139.287 140.244   6
   5   1   0 230.405 289.617   4
   5   1   0-72.1512 300.610   2
  -5  -1   0 56.8099 95.4731   6
  -5  -1  -1 1643.48 447.058   6
   5   1   1 2286.58 781.714   2
   5   1   1 1810.68 723.151   4
   5   1   2 1142.14 576.573   2
  -5  -1  -2 666.008 325.197   6
   5   1   2 1627.31 733.001   4
   5   1   3-631.335 435.714   2
  -5  -1  -3-157.650 146.837   6
   5   1   3 124.373 301.959   4
   5   1   4 1528.97 662.342   2
  -5  -1  -4 1646.61 497.773   6
  -5  -1  -4 2163.29 814.934   3
   5   1   5 4303.29 1184.71   2
  -5  -1  -5 4743.35 854.679   1
  -5  -1  -5 4218.34 835.604   6
  -5  -1  -5 4162.57 1062.55   3
   5   1   5 4012.86 611.159   6
  -5  -1  -6 3231.32 990.706   3
  -5  -1  -6 2288.92 566.513   1
   5   1   6 2155.54 513.419   6
   5   1   6 1324.58 604.283   2
   5   1   7 2335.16 600.767   6
  -5  -1  -7 2084.69 811.778   3
   5   1   7 3252.31 1021.10   2
   5   1   8 7033.31 1145.12   6
  -5  -1  -8 8373.10 1645.26   3
   5   1   8 11159.2 1883.85   2
   5   1   9 5307.45 1099.88   6
  -5  -1  -9 5056.74 1335.49   3
   5   1   9 5431.71 1321.15   2
  -5  -1 -10 10287.0 2035.70   3
   5   1  10 10589.5 1875.68   2
  -5  -1 -11 11639.7 2231.44   3
   5   1  11 14629.7 2206.55   2
   5   1  12 8101.17 1649.13   2
  -5  -1 -12 7806.98 1875.46   3
  -5  -1 -13-231.902 691.970   3
  -5  -1 -14 752.198 705.027   3
  -5  -1 -15 3018.04 1217.66   3
  -5  -1 -16-513.782 596.497   3
  -5  -1 -17-755.468 724.537   3
  -5  -1 -18 101.246 383.481   3
  -5  -1 -19-652.964 716.844   3
  -5  -1 -20 584.241 427.916   3
   5   2 -20 5156.58 2445.08   5
   5   2 -19 5585.92 2323.55   5
   5   2 -18 1091.42 1019.41   5
   5   2 -17 3318.56 1467.47   5
   5   2 -16 1863.90 1148.31   5
   5   2 -15 3974.75 1777.43   5
   5   2 -14-66.5004 669.376   5
   5   2 -13 1481.26 633.486   4
   5   2 -13-334.648 582.317   5
   5   2 -12 1059.07 553.569   4
   5   2 -12 428.971 605.683   5
   5   2 -11 336.019 406.731   4
   5   2 -11 146.227 396.301   5
   5   2 -10 8297.64 1451.23   4
   5   2 -10 6076.24 1912.69   5
   5   2  -9 4735.23 1105.31   4
   5   2  -9 2895.19 1420.45   5
   5   2  -8 2692.82 797.441   4
   5   2  -8 2717.55 1171.68   5
   5   2  -7 2308.36 723.537   4
   5   2  -7 1465.39 863.037   5
   5   2  -6 4258.90 979.228   4
   5   2  -6 4276.94 1406.66   5
   5   2  -5 4181.78 1041.66   4
   5   2  -5 2760.14 966.849   2
   5   2  -5 4285.40 1347.24   5
   5   2  -4 155.621 216.591   4
  -5  -2   4 27.4559 105.635   6
   5   2  -4 719.641 663.212   5
   5   2  -4-80.9366 260.492   2
   5   2  -3 660.830 390.369   4
  -5  -2   3 229.396 232.316   6
   5   2  -3 1216.60 810.480   5
   5   2  -3 430.115 334.771   2
   5   2  -2 6630.82 1291.88   4
  -5  -2   2 5048.71 967.099   6
   5   2  -2 6117.85 1398.46   5
   5   2  -2 4977.78 1262.72   2
   5   2  -1 12880.6 2005.54   2
   5   2  -1 11132.0 1800.77   5
  -5  -2   1 9333.50 861.755   6
   5   2  -1 13511.5 1839.19   4
  -5  -2   1 9602.53 1136.58   6
   5   2   0 8982.10 1683.44   2
   5   2   0 9070.71 1603.68   5
   5   2   0 11271.1 1719.86   4
   5   2   1 16761.5 2101.86   5
   5   2   1 20496.3 2525.67   2
   5   2   1 17596.3 2235.77   4
   5   2   2 19431.5 2458.92   2
   5   2   2 20905.6 2484.51   4
  -5  -2  -3 16585.3 1981.65   5
   5   2   3 15087.5 2187.67   2
   5   2   3 15282.5 2175.76   4
  -5  -2  -4 4299.42 983.948   5
   5   2   4 4751.49 1239.71   2
   5   2   4 3646.48 1075.92   4
  -5  -2  -5 8942.15 1625.76   3
   5   2   5 8356.49 1628.56   2
  -5  -2  -5 8766.89 1302.72   5
  -5  -2  -5 8261.31 979.213   1
   5   2   5 8401.24 1693.00   4
  -5  -2  -6 236.606 211.043   3
   5   2   6 380.192 432.892   2
  -5  -2  -6 958.440 455.340   5
   5   2   6 1649.80 727.004   4
  -5  -2  -6 846.445 275.812   1
   5   2   7 139.810 101.753   6
  -5  -2  -7-51.4293 397.752   3
  -5  -2  -7 308.345 247.542   5
   5   2   8 1796.34 473.092   6
  -5  -2  -8 1576.98 464.604   5
  -5  -2  -9 2015.87 884.122   3
  -5  -2 -10 2700.36 1153.25   3
  -5  -2 -11 312.801 445.131   3
  -5  -2 -12 1753.83 917.577   3
  -5  -2 -13 4287.94 1576.09   3
  -5  -2 -14 2863.29 1230.88   3
  -5  -2 -15 499.891 428.404   3
  -5  -2 -16 1791.54 1033.40   3
  -5  -2 -17 1414.04 920.386   3
  -5  -2 -18 3235.70 1397.82   3
  -5  -2 -19 3471.25 1422.05   3
  -5  -2 -20-437.478 617.589   3
   5   3 -19 4440.30 2373.04   5
   5   3 -18-460.213 753.605   5
   5   3 -17-1913.61 1371.89   5
   5   3 -16 5717.07 2468.54   5
   5   3 -15 7623.81 2586.79   5
   5   3 -14 2691.01 1731.92   5
   5   3 -13 8544.73 2710.12   5
   5   3 -12 19987.4 3754.05   5
   5   3 -11 10349.4 2584.03   5
   5   3 -10 2635.45 978.523   4
   5   3 -10-416.669 550.742   5
   5   3  -9 2736.61 933.684   4
   5   3  -9 1015.90 797.525   5
   5   3  -8 6304.88 1399.16   4
   5   3  -8 4902.90 1639.45   5
   5   3  -7 816.356 458.667   4
   5   3  -7 586.307 704.114   5
   5   3  -6 169.859 191.092   4
   5   3  -6 323.746 499.204   5
   5   3  -5 517.257 376.741   4
   5   3  -5 1361.49 917.785   5
  -5  -3   4 575.815 397.013   6
   5   3  -4 781.558 479.991   4
   5   3  -4 737.008 552.298   5
  -5  -3   3 581.744 361.955   6
   5   3  -3 840.785 465.129   4
   5   3  -3 997.590 582.777   5
  -5  -3   2 4916.36 889.298   6
   5   3  -2 2478.32 817.297   4
   5   3  -2 4562.22 1220.91   5
   5   3  -1 8041.78 1472.00   4
   5   3  -1 6807.85 1421.65   5
  -5  -3   1 5185.45 720.035   6
   5   3   0 3922.47 1067.72   4
   5   3   0 2984.64 855.654   5
   5   3   1 10360.6 1571.90   5
   5   3   1 14073.8 2000.62   4
   5   3   2 8468.32 1628.50   4
  -5  -3  -2 8659.20 1533.16   5
   5   3   2 7320.76 1198.79   5
   5   3   3 9269.95 1690.65   4
  -5  -3  -3 10271.4 1519.28   5
   5   3   4 402.285 397.791   4
  -5  -3  -4 1093.44 544.393   5
   5   3   5 1224.50 634.745   4
  -5  -3  -5 470.732 278.342   5
  -5  -3  -6 925.953 566.655   3
  -5  -3  -6 1011.68 344.246   5
   5   3   6-31.5122 246.709   4
  -5  -3  -7 1681.66 310.405   1
  -5  -3  -7 1827.00 777.935   3
  -5  -3  -7 1351.06 376.188   5
  -5  -3  -8 4497.38 1288.25   3
   5   3   8 2918.80 1035.88   4
   5   3   8 2604.30 406.156   6
  -5  -3  -9 5188.03 1465.34   3
  -5  -3 -10 4050.87 1267.88   3
  -5  -3 -11 3050.49 1163.58   3
  -5  -3 -12 4430.32 1496.51   3
  -5  -3 -13 1282.72 882.594   3
  -5  -3 -14 682.470 620.151   3
  -5  -3 -15 878.066 725.745   3
  -5  -3 -16-783.216 701.023   3
  -5  -3 -17 2454.54 1512.04   3
  -5  -3 -18 2310.56 1232.59   3
  -5  -3 -19 1608.36 1244.86   3
  -5  -3 -20 1733.33 1164.35   3
   5   4 -19-2384.17 1644.34   5
   5   4 -18 6861.60 2414.23   5
   5   4 -17 2886.71 1684.84   5
   5   4 -16 462.412 724.012   5
   5   4 -15 1234.01 1068.76   5
   5   4 -14-393.128 669.601   5
   5   4 -13 923.438 910.130   5
   5   4 -12 5547.60 2139.06   5
   5   4 -11 3660.77 1652.36   5
   5   4 -10 3399.13 1430.12   5
   5   4  -9 4837.80 1713.88   5
   5   4  -8 22921.3 3666.60   5
   5   4  -8 25686.0 2980.78   4
   5   4  -7 8361.70 1678.44   4
   5   4  -7 6922.55 1916.81   5
   5   4  -6 8069.88 1615.20   4
   5   4  -6 8692.60 2114.42   5
   5   4  -5 7760.01 1605.10   4
   5   4  -5 4984.64 1547.17   5
   5   4  -4 27349.5 3407.30   5
  -5  -4   4 28783.7 2942.18   6
   5   4  -4 26234.6 2874.99   4
   5   4  -3 12246.5 2160.05   5
  -5  -4   3 13316.0 1798.64   6
   5   4  -3 11163.4 1869.75   4
  -5  -4   2 2695.22 700.110   6
   5   4  -2 2036.44 744.132   4
   5   4  -2 2194.54 844.783   5
  -5  -4   1 643.747 270.041   6
   5   4  -1 311.755 337.739   4
   5   4  -1 379.810 404.469   5
   5   4   0 1031.51 573.855   4
   5   4   0 1433.42 569.676   5
  -5  -4   0 1297.03 292.017   6
   5   4   1 656.838 467.346   4
   5   4   1 361.037 277.274   5
   5   4   2 253.421 246.866   4
   5   4   2 193.018 231.635   5
   5   4   3 236.376 392.760   4
   5   4   3-28.8533 155.665   5
   5   4   4 4.91470 373.831   4
   5   4   5 1256.82 711.080   4
   5   4   6 4851.09 1322.04   4
   5   4   7 782.748 214.829   6
  -5  -4  -7 1895.13 892.952   3
   5   4   7 1533.18 778.598   4
  -5  -4  -8 2957.71 1095.65   3
   5   4   8 3994.34 1245.34   4
  -5  -4  -9 5160.55 1515.06   3
   5   4   9 3567.49 1233.50   4
  -5  -4 -10 12917.8 2375.08   3
  -5  -4 -11 6620.94 1771.10   3
  -5  -4 -12 4433.81 1439.36   3
  -5  -4 -13 725.623 450.339   3
  -5  -4 -14 1845.18 887.663   3
  -5  -4 -15-284.586 803.677   3
  -5  -4 -16 456.042 439.841   3
  -5  -4 -17 2298.46 1086.68   3
  -5  -4 -18-1194.76 932.305   3
  -5  -4 -19 846.837 828.514   3
   5   5 -18 8583.63 2882.11   5
   5   5 -17 4575.95 2195.19   5
   5   5 -16 533.867 792.592   5
   5   5 -15 2829.24 1648.50   5
   5   5 -14 2898.22 1682.35   5
   5   5 -13 1326.16 1103.40   5
   5   5 -12-1218.80 1040.90   5
   5   5 -11-1056.76 966.559   5
   5   5 -10 578.101 701.557   5
   5   5  -9-841.619 799.631   5
   5   5  -8-609.783 690.082   5
   5   5  -7 246.548 305.756   4
   5   5  -7 963.317 802.565   5
   5   5  -6 638.584 528.580   4
   5   5  -6 604.845 633.521   5
   5   5  -5 1200.68 669.651   4
   5   5  -5 2638.26 1351.97   5
   5   5  -4 8588.88 2003.18   5
   5   5  -4 12684.1 2088.21   4
   5   5  -3 9980.30 1870.86   4
   5   5  -3 6616.13 1624.26   5
   5   5  -2 5471.63 1366.68   4
   5   5  -2 4347.85 1173.72   6
   5   5  -2 4000.77 1238.28   5
   5   5  -1 21284.4 2652.30   5
   5   5  -1 22413.9 2445.22   6
   5   5  -1 22830.3 2749.33   4
   5   5   0 21426.3 2499.41   5
   5   5   0 19358.8 2129.24   6
   5   5   0 19973.3 2627.19   4
   5   5   1 11083.6 1601.45   5
   5   5   1 13289.9 1606.81   6
   5   5   1 11680.3 1979.85   4
   5   5   2 2195.54 914.776   4
   5   5   2 1606.70 498.926   6
   5   5   2 2098.61 552.690   5
   5   5   3 7052.67 1597.71   4
   5   5   3 4725.20 788.266   5
   5   5   3 5609.19 908.806   6
   5   5   4 3710.38 1207.19   4
   5   5   4 1997.58 530.732   6
   5   5   5 6163.90 1479.28   4
   5   5   6-190.078 290.712   4
   5   5   7 1766.91 847.158   4
  -5  -5  -8 50.5032 245.776   3
   5   5   8-214.437 323.169   4
  -5  -5  -9 160.797 476.143   3
   5   5   9 643.982 534.573   4
  -5  -5 -10 606.717 521.352   3
   5   5  10 1343.57 696.257   4
  -5  -5 -11 418.448 480.634   3
   5   5  11 195.978 482.293   4
  -5  -5 -12 478.519 606.357   3
  -5  -5 -13 95.1463 378.532   3
  -5  -5 -14-634.495 618.877   3
  -5  -5 -15 1509.67 976.902   3
  -5  -5 -16 500.941 600.831   3
  -5  -5 -17 815.747 651.722   3
  -5  -5 -18 1458.83 1113.27   3
   5   6 -17 3524.01 1995.00   5
   5   6 -16 702.704 1008.97   5
   5   6 -15 7642.63 2681.46   5
   5   6 -14 13276.4 3654.93   5
   5   6 -13 5257.04 2217.34   5
   5   6 -12-679.570 868.008   5
   5   6 -11 565.743 773.609   5
   5   6 -10 6744.14 2309.01   5
   5   6  -9 1116.16 977.720   5
   5   6  -8 387.631 601.774   5
   5   6  -7 5017.71 1480.49   4
   5   6  -7 3461.50 1416.60   6
   5   6  -7 3333.96 1524.55   5
   5   6  -6 12476.1 2560.54   6
   5   6  -6 12013.8 2797.47   5
   5   6  -6 14361.7 2500.62   4
   5   6  -5-52.3701 191.515   4
   5   6  -5 411.958 463.979   6
   5   6  -5 772.184 689.613   5
   5   6  -4-4.86755 267.861   4
   5   6  -4 169.037 339.393   6
   5   6  -4 513.196 591.343   5
   5   6  -3 924.098 639.414   4
   5   6  -3 439.528 444.643   6
   5   6  -3 873.751 700.800   5
   5   6  -2 396.361 383.060   4
   5   6  -2 725.466 531.147   6
   5   6  -2 1069.70 782.690   5
   5   6  -1 1450.63 766.728   4
   5   6  -1 1369.05 682.620   6
   5   6  -1 940.040 650.279   5
   5   6   0 1314.79 650.889   4
   5   6   0 1455.41 659.757   6
   5   6   0 1556.57 679.118   5
   5   6   1 1677.32 807.767   4
   5   6   1 1545.21 651.155   6
   5   6   1 1824.88 693.527   5
   5   6   2 213.196 211.925   4
   5   6   2 622.275 463.973   6
   5   6   3 907.702 593.296   4
   5   6   4 2910.16 1085.65   4
   5   6   5 4705.13 1427.28   4
   5   6   6 6881.24 1652.44   4
   5   6   7 12170.5 2241.49   4
   5   6   8 13129.8 2380.08   4
  -5  -6  -8 8335.79 1962.02   3
  -5  -6  -9 5142.88 1620.44   3
   5   6   9 5483.28 1584.02   4
  -5  -6 -10 6847.78 1831.45   3
   5   6  10 7912.66 1934.46   4
  -5  -6 -11 811.133 682.676   3
   5   6  11-278.276 397.070   4
  -5  -6 -12 185.971 366.901   3
  -5  -6 -13 1313.03 871.007   3
  -5  -6 -14 658.915 798.370   3
  -5  -6 -15 77.6500 367.745   3
  -5  -6 -16-982.218 831.407   3
  -5  -6 -17 2492.10 1409.28   3
   5   7 -15-423.816 860.956   5
   5   7 -14 3958.38 2092.67   5
   5   7 -13 4102.09 2076.59   5
   5   7 -12 918.266 1017.24   5
   5   7 -11 2815.71 1644.60   5
   5   7 -10 9885.52 3003.07   5
   5   7  -9 2722.17 1418.48   6
   5   7  -9 2090.75 1390.71   5
   5   7  -8 5522.09 2011.80   6
   5   7  -8 3844.04 1767.06   5
   5   7  -7 10966.6 2748.31   6
   5   7  -7 15385.7 3388.38   5
   5   7  -7 18410.8 2995.47   4
   5   7  -6 21059.9 3649.33   6
   5   7  -6 20529.4 3842.60   5
   5   7  -6 23189.6 3300.47   4
   5   7  -5 6278.12 1710.43   4
   5   7  -5 5603.49 1895.29   6
   5   7  -5 5941.37 2033.27   5
   5   7  -4 5912.58 1608.94   4
   5   7  -4 7273.04 2012.84   6
   5   7  -4 8656.46 2324.94   5
   5   7  -3 4595.14 1375.96   4
   5   7  -3 5789.81 1772.39   6
   5   7  -3 7124.34 2069.50   5
   5   7  -2 3671.66 1238.21   4
   5   7  -2 4163.56 1534.27   6
   5   7  -2 3652.92 1458.06   5
   5   7  -1 388.174 552.850   4
   5   7  -1 1148.10 793.449   5
   5   7   0 119.968 254.619   4
   5   7   1 2124.07 971.674   4
   5   7   2 5551.99 1513.48   4
   5   7   3 3401.80 1132.90   4
   5   7   4 993.836 706.062   4
   5   7   5 324.482 385.832   4
   5   7   6 1192.85 714.906   4
   5   7   7-58.8434 260.529   4
   5   7   8 9860.50 2142.73   4
  -5  -7  -8 8403.14 2121.40   3
   5   7   9 890.091 651.904   4
  -5  -7  -9 1662.40 1023.29   3
  -5  -7 -10 481.681 399.997   3
   5   7  10 1536.45 887.415   4
  -5  -7 -11 3079.60 1374.24   3
   5   7  11 3127.35 1296.97   4
  -5  -7 -12 2599.75 1328.41   3
   5   7  12 2965.14 1228.87   4
  -5  -7 -13 1245.51 923.706   3
  -5  -7 -14 716.742 713.291   3
  -5  -7 -15 4141.54 1644.26   3
  -5  -7 -16 4163.86 1681.73   3
   5   8 -14 2141.89 1669.84   5
   5   8 -13 11225.5 3571.71   5
   5   8 -12 8224.37 3011.17   5
   5   8 -11 1628.15 1208.34   6
   5   8 -11 2996.03 2224.73   5
   5   8 -10 1361.17 1206.28   6
   5   8 -10 431.273 793.058   5
   5   8  -9 1396.47 1103.34   6
   5   8  -9 2089.67 1483.22   5
   5   8  -8 2317.03 1382.62   6
   5   8  -8 4384.78 1839.79   5
   5   8  -7 1105.24 776.644   4
   5   8  -7 262.700 624.681   5
   5   8  -6 5433.55 1669.72   4
   5   8  -6 916.765 942.320   5
   5   8  -5 2979.18 1204.51   4
   5   8  -5 3885.16 1782.21   5
   5   8  -4 389.491 448.840   4
   5   8  -4-289.373 593.485   5
   5   8  -3 3142.18 1214.06   4
   5   8  -2 314.331 198.962   4
   5   8  -1 1360.74 852.902   4
   5   8   0 2077.32 935.473   4
   5   8   1 20755.0 3026.86   4
   5   8   2 12415.7 2342.97   4
   5   8   3 2898.85 1150.49   4
   5   8   4 1564.29 882.969   4
   5   8   5 10634.3 2249.15   4
   5   8   6 2644.58 1061.36   4
   5   8   7 171.212 288.870   4
   5   8   8 2025.24 996.515   4
  -5  -8  -8 688.976 500.297   3
   5   8   9-481.094 515.637   4
  -5  -8  -9 548.034 606.229   3
   5   8  10 853.896 734.649   4
  -5  -8 -10-197.117 411.925   3
  -5  -8 -11 328.423 689.273   3
   5   8  11 1711.16 1111.22   4
  -5  -8 -12 1209.66 878.517   3
   5   8  12 286.209 449.359   4
  -5  -8 -13 1072.62 715.122   3
   5   8  13 1286.47 871.950   4
  -5  -8 -14 157.791 378.515   3
   5   9 -12 5081.34 2552.24   5
   5   9 -11 801.074 1093.95   5
   5   9 -10 1657.46 1431.51   5
   5   9  -9 3093.10 1873.58   5
   5   9  -8 6144.64 2567.19   5
   5   9  -7 1840.95 1035.68   4
   5   9  -6 756.320 669.851   4
   5   9  -5 1522.96 913.540   4
   5   9  -4 6657.37 1891.85   4
   5   9  -3 410.423 475.027   4
   5   9  -2 19.0393 200.894   4
   5   9  -1 1899.00 959.275   4
   5   9   0 2120.85 1042.97   4
   5   9   1 372.620 445.852   4
   5   9   2 2187.07 1022.42   4
   5   9   3 2113.96 1006.90   4
   5   9   4 3273.67 1376.87   4
   5   9   5 2868.88 1283.91   4
   5   9   6 1451.23 835.196   4
   5   9   7-372.570 465.788   4
   5   9   8 4012.02 1465.12   4
  -5  -9  -8 1816.59 1167.76   3
   5   9   9 4806.54 1670.20   4
  -5  -9  -9 4432.77 1524.09   3
   5   9  10 5416.35 1766.61   4
  -5  -9 -10 2149.32 1168.20   3
  -5  -9 -11-1697.35 1057.66   3
   5  10   0 1412.37 856.912   4
   5  10   1 724.750 632.925   4
   5  10   2 784.695 661.147   4
   5  10   3 2442.66 985.731   4
   5  10   4 115.783 323.734   4
   5  10   5-541.374 575.146   4
   5  10   6 61.4596 280.567   4
   5  10   7 147.567 359.728   4
  -6   6   6 1312.94 1097.61   6
  -6   6   5 436.924 835.524   6
  -6   6   4 10088.5 3006.94   6
  -6   6   3 5628.16 2300.35   6
  -6   6   2 516.480 734.773   6
  -6   6   1 944.728 959.937   6
  -6   6   0 5987.62 2369.19   6
  -6   6  -1 771.588 896.571   6
  -6   6  -2 2984.93 1714.95   6
  -6   6  -3 7133.09 2610.22   6
  -6   6  -4 352.881 664.130   6
  -6   6  -5 1926.42 1466.06   6
  -6   6  -6 2093.56 1494.70   6
  -6   6  -7 12292.5 3727.82   6
  -6   6  -8 520.182 825.091   6
  -6   6  -9-1150.02 1148.19   6
  -6   5  10-833.063 837.439   6
  -6   5   9 1399.96 1024.54   6
  -6   5   8 21132.1 4133.93   6
  -6   5   7 312.819 542.969   6
  -6   5   6 696.813 968.053   6
  -6   5   5 259.018 488.699   6
  -6   5   4 8111.46 2451.55   6
  -6   5   3 1762.29 1162.63   6
  -6   5   2 9928.80 2853.56   6
  -6   5   1 2540.57 1416.19   6
  -6   5   0 16189.2 3577.59   6
  -6   5  -1 1899.85 1171.56   6
  -6   5  -2 19175.8 4036.52   6
  -6   5  -3 8519.30 2646.32   6
  -6   5  -4 6027.37 2249.74   6
  -6   5  -5-4.46229 173.667   6
  -6   5  -6 30735.4 5259.63   6
  -6   5  -7 1229.16 1095.75   6
  -6   5  -8 5784.18 2361.29   6
  -6   5  -9-1532.48 1244.63   6
  -6   5 -10 11846.8 3506.93   6
  -6   5 -11-617.551 862.201   6
  -6   5 -12 6883.83 2702.83   6
  -6   5 -13-349.024 715.945   6
  -6   5 -14 3551.30 2073.48   6
   6  -4 -13 5599.45 1710.04   2
  -6   4  13 4893.58 1895.16   6
   6  -4 -12 6182.80 1748.97   2
  -6   4  12 4421.32 1807.69   6
  -6   4  11 13857.8 3132.51   6
  -6   4  10 1086.09 946.558   6
  -6   4   9 374.269 525.752   6
  -6   4   8 1091.32 863.367   6
  -6   4   7 1123.93 878.655   6
  -6   4   6 9800.09 2504.81   6
  -6   4   5 64.5036 561.714   6
  -6   4   4 4080.75 1657.59   6
  -6   4   3 8936.11 2375.53   6
  -6   4   2 926.252 775.728   6
  -6   4   1 2628.07 1304.72   6
  -6   4   0 22378.6 3841.29   6
  -6   4  -1 758.143 737.114   6
  -6   4  -2 5113.53 1905.18   6
  -6   4  -3 20137.9 3792.13   6
  -6   4  -4 804.284 699.125   6
  -6   4  -5 1538.30 1071.89   6
  -6   4  -6-268.813 517.310   6
  -6   4  -7 48612.8 6232.36   6
  -6   4  -8 3134.70 1610.97   6
  -6   4  -9-1276.31 1053.22   6
  -6   4 -10 3522.77 1766.54   6
  -6   4 -11 19048.9 4225.20   6
  -6   4 -12 60.7180 299.281   6
   6  -4  12 1338.18 873.125   2
  -6   4 -13 2069.24 1460.60   6
   6  -4  13 1221.99 563.232   2
  -6   4 -14 11467.1 3590.41   6
   6  -4  14 8558.49 2050.81   2
  -6   4 -15 3510.88 2006.27   6
  -6   3  15 2212.48 1269.21   6
   6  -3 -14 6481.26 1702.96   2
  -6   3  14 6543.84 2121.32   6
   6  -3 -13 1624.16 885.195   2
  -6   3  13-475.816 588.653   6
   6  -3 -12 411.869 464.396   2
  -6   3  12-356.086 502.300   6
   6  -3 -11 4714.60 1460.82   2
  -6   3  11 3803.99 1505.39   6
   6  -3 -10 10128.3 2218.42   2
  -6   3  10 9315.60 2322.19   6
   6  -3  -9 5693.95 1603.13   2
  -6   3   9 4165.92 1530.17   6
   6  -3  -8 316.272 432.935   2
  -6   3   8-72.3123 445.225   6
  -6   3   7 21157.4 3417.54   6
  -6   3   6 57794.1 5646.00   6
  -6   3   5 7368.96 1969.51   6
  -6   3   4 6189.62 1758.08   6
  -6   3   3 860.427 669.130   6
  -6   3   2 9070.28 2223.16   6
  -6   3   1 12756.4 2606.69   6
  -6   3   0 6.78741 176.580   6
  -6   3  -1 490.915 531.488   6
  -6   3  -2 2161.19 1130.36   6
  -6   3  -3 17016.0 3133.85   6
  -6   3  -4 1375.46 1002.69   6
  -6   3  -5 186.032 363.622   6
  -6   3  -6 515.187 588.205   6
  -6   3  -7 2480.55 1290.97   6
   6  -3   8 29361.5 3650.96   2
  -6   3  -8 35041.8 5065.70   6
  -6   3  -9-910.444 834.450   6
   6  -3   9-575.124 524.178   2
  -6   3 -10-264.735 477.139   6
   6  -3  10-451.255 475.388   2
  -6   3 -11 701.977 771.944   6
   6  -3  11-575.844 532.910   2
  -6   3 -12 16171.0 3773.66   6
   6  -3  12 12320.1 2362.05   2
  -6   3 -13 2369.34 1486.39   6
   6  -3  13 57.3391 221.880   2
  -6   3 -14-132.471 385.726   6
   6  -3  14 371.077 430.108   2
  -6   2  17 11444.6 2905.21   6
   6  -2 -16 409.740 680.780   5
  -6   2  16 581.607 654.962   6
   6  -2 -15-586.505 742.987   5
  -6   2  15 583.322 637.868   6
   6  -2 -14 5863.38 1553.05   2
   6  -2 -14 4279.92 1809.50   5
  -6   2  14 9671.52 2430.75   6
   6  -2 -13 9170.34 1960.31   2
   6  -2 -13 10700.5 2809.50   5
  -6   2  13 10283.2 2475.47   6
   6  -2 -12 7088.96 1698.54   2
   6  -2 -12 6206.96 2053.86   5
  -6   2  12 5167.01 1677.50   6
   6  -2 -11 2946.53 1092.61   2
   6  -2 -11 4412.08 1794.06   5
  -6   2  11 4191.03 1476.95   6
   6  -2 -10 61.9004 212.178   2
  -6   2  10 834.702 661.144   6
   6  -2  -9 3756.88 1273.87   2
  -6   2   9 4132.41 1385.16   6
   6  -2  -8 11244.5 2167.23   2
  -6   2   8 10485.2 2208.10   6
   6  -2  -7 2326.26 970.313   2
  -6   2   7 1123.98 652.977   6
   6  -2  -6 10818.6 2127.86   2
  -6   2   6 8558.18 1956.79   6
   6  -2  -5 2062.15 894.395   2
  -6   2   5 229.907 339.883   6
   6  -2  -4-139.313 332.476   2
  -6   2   4 48.2278 197.542   6
   6  -2  -3 18298.8 2783.70   2
  -6   2   3 17452.5 2734.47   6
   6  -2  -2 56932.5 4884.72   2
  -6   2   2 54389.9 4876.37   6
  -6   2   1 4093.24 1350.43   6
   6  -2  -1 4170.85 1339.57   2
  -6   2   0 13795.8 2421.77   6
   6  -2   0 14619.9 2469.96   2
   6  -2   1 24427.5 3173.27   2
  -6   2  -1 22273.6 3140.59   6
  -6   2  -2 14999.2 2664.33   6
   6  -2   2 19022.3 2786.87   2
  -6   2  -3 825.427 595.122   6
   6  -2   3 691.911 537.956   2
  -6   2  -3 1510.10 649.150   3
  -6   2  -4 2166.34 1024.22   6
   6  -2   4 2186.80 1001.77   2
  -6   2  -4 2012.69 688.319   3
  -6   2  -5 17485.4 3032.95   6
  -6   2  -5 15983.7 2037.11   3
   6  -2   5 17988.1 2743.44   2
  -6   2  -6 1344.80 864.392   6
   6  -2   6 1575.66 807.580   2
  -6   2  -6 2158.03 795.692   3
  -6   2  -7 2846.39 1312.02   6
   6  -2   7 1659.68 877.111   2
  -6   2  -7 1706.71 747.341   3
  -6   2  -8 12397.5 2869.46   6
   6  -2   8 13838.1 2429.94   2
  -6   2  -8 9899.98 1834.46   3
  -6   2  -9 12757.6 2836.52   6
   6  -2   9 10912.9 2123.92   2
  -6   2  -9 12597.7 2138.78   3
  -6   2 -10 1390.80 988.747   6
   6  -2  10 1148.55 676.887   2
  -6   2 -10 1851.04 834.903   3
  -6   2 -11 8765.91 2687.66   6
   6  -2  11 10650.8 2121.34   2
  -6   2 -11 9032.94 1991.55   3
  -6   2 -12 15464.4 3621.54   6
   6  -2  12 14822.5 2485.69   2
  -6   2 -12 10844.8 2206.37   3
  -6   2 -13 2302.11 1384.33   6
   6  -2  13 1270.14 770.874   2
  -6   2 -13 741.130 584.424   3
   6  -2  14 1052.71 670.767   2
  -6   2 -14-592.707 600.888   3
  -6   2 -15 7679.25 2134.77   3
  -6   2 -16 7557.02 2169.97   3
  -6   2 -17 2808.03 1361.05   3
  -6   2 -18 5985.30 2056.12   3
  -6   2 -19 4101.39 1821.01   3
   6  -1 -17 24902.1 4650.58   5
   6  -1 -16 6602.60 2350.88   5
   6  -1 -15 1116.47 992.215   5
   6  -1 -14-513.285 456.997   2
   6  -1 -14-529.093 705.871   5
   6  -1 -13 13412.1 2272.12   2
   6  -1 -13 11610.1 2858.65   5
   6  -1 -12 4245.21 1313.46   2
   6  -1 -12 2235.47 1359.92   5
  -6   1  12 4701.81 1511.87   6
   6  -1 -11 5532.53 1447.46   2
   6  -1 -11 5587.71 1972.29   5
  -6   1  11 5802.42 1651.10   6
   6  -1 -10 19566.9 2725.61   2
   6  -1 -10 17062.4 3261.79   5
  -6   1  10 16725.3 2716.92   6
   6  -1  -9 13953.2 2285.95   2
   6  -1  -9 12402.3 2745.09   5
  -6   1   9 16498.0 2611.84   6
   6  -1  -8 17223.5 2550.46   2
   6  -1  -8 15518.7 2953.87   5
  -6   1   8 15734.3 2498.52   6
   6  -1  -7 386.934 392.473   2
   6  -1  -7 830.976 446.303   5
  -6   1   7 1102.35 647.967   6
   6  -1  -6 1267.62 668.319   2
  -6   1   6 435.849 435.019   6
   6  -1  -5 724.899 469.391   2
  -6   1   5 856.243 555.628   6
   6  -1  -4 7442.07 1674.05   2
  -6   1   4 7418.67 1608.89   6
   6  -1  -3 37635.8 3821.27   2
  -6   1   3 42109.1 3799.14   6
   6  -1  -2 6725.67 1610.15   2
  -6   1   2 7302.12 1539.87   6
  -6   1   1 410.203 424.711   6
  -6   1   1 607.866 366.672   3
   6  -1  -1 769.896 547.793   2
  -6   1   0 681.419 437.757   6
  -6   1   0 143.692 146.949   3
   6  -1   0 855.591 586.317   2
  -6   1  -1 15313.4 1805.58   3
   6  -1   1 20148.7 2777.56   2
  -6   1  -1 17424.9 2419.68   6
  -6   1  -2-144.717 259.844   6
  -6   1  -2 506.967 417.473   3
   6  -1   2 545.191 465.263   2
  -6   1  -3 788.688 442.035   3
  -6   1  -3 1090.37 636.007   6
   6  -1   3 636.318 497.380   2
  -6   1  -4 743.448 416.196   3
  -6   1  -4 65.1768 224.898   6
   6  -1   4 390.646 397.756   2
  -6   1  -5 34281.6 3147.08   3
   6  -1   5 42432.3 4093.13   2
  -6   1  -5 45352.1 4465.91   6
  -6   1  -6 18156.2 2384.09   3
   6  -1   6 21055.0 2885.10   2
  -6   1  -6 19011.8 2928.61   6
  -6   1  -7 717.481 594.877   6
   6  -1   7 851.783 555.948   2
  -6   1  -7 426.129 390.945   3
  -6   1  -8 1243.88 801.377   6
   6  -1   8 1525.97 824.674   2
  -6   1  -8 330.583 379.971   3
  -6   1  -9 30704.0 3492.82   3
   6  -1   9 32515.2 3589.59   2
  -6   1  -9 33628.4 4433.34   6
  -6   1 -10 65.6752 484.467   6
   6  -1  10 202.545 362.569   2
  -6   1 -10 1276.62 748.704   3
   6  -1  11 12647.6 2261.11   2
  -6   1 -11 10424.7 2632.51   6
  -6   1 -11 10418.8 2137.54   3
   6  -1  12 156.019 322.098   2
  -6   1 -12-352.510 462.792   3
   6  -1  13 10851.0 2119.21   2
  -6   1 -13 9594.59 2274.52   3
   6  -1  14 1542.50 834.828   2
  -6   1 -14 1485.99 852.094   3
   6  -1  15 15904.9 2626.61   2
  -6   1 -15 11339.7 2558.11   3
  -6   1 -16 932.288 793.643   3
  -6   1 -17-524.774 628.912   3
  -6   1 -18 2454.24 1326.45   3
  -6   1 -19 12036.7 2901.01   3
   6   0 -18 7660.53 2703.06   5
   6   0 -17 2135.28 1426.80   5
   6   0 -16 655.454 828.414   5
   6   0 -15 3074.41 1496.16   5
   6   0 -14 995.384 1037.13   5
   6   0 -14 145.807 269.517   2
   6   0 -13 59.0948 352.502   5
   6   0 -13 85.3388 219.021   2
   6   0 -12 34496.0 3644.42   2
   6   0 -12 28452.8 4436.34   5
   6   0 -11 8401.05 1788.68   2
   6   0 -11 7061.76 2097.73   5
   6   0 -10 7179.88 1259.49   4
   6   0 -10 5427.66 1426.58   2
   6   0 -10 7679.08 2243.63   5
   6   0  -9 25997.6 3889.72   5
   6   0  -9 30606.9 3352.29   2
   6   0  -9 29080.9 2601.70   4
   6   0  -8 14832.4 2320.93   2
   6   0  -8 10207.2 2483.00   5
  -6   0   8 14427.9 2211.52   6
   6   0  -8 14370.3 1828.38   4
   6   0  -7 1419.35 720.249   2
   6   0  -7 1601.11 917.950   5
  -6   0   7 2652.97 908.003   6
   6   0  -7 2507.76 769.611   4
   6   0  -6 26546.9 3604.17   5
   6   0  -6 25645.5 3048.68   2
  -6   0   6 28415.9 2938.05   6
   6   0  -6 29789.7 2726.82   4
   6   0  -5 13713.6 2221.22   2
   6   0  -5 11171.0 2377.09   5
  -6   0   5 14244.7 2005.29   6
   6   0  -5 14572.9 1952.39   4
   6   0  -4 11971.8 2066.69   2
   6   0  -4 11047.2 2254.60   5
  -6   0   4 11923.2 1784.12   6
   6   0  -4 8578.49 1518.99   4
   6   0  -3 52462.4 4369.86   2
   6   0  -3 55608.9 4011.16   4
  -6   0   3 55609.6 3870.75   6
   6   0  -2 2094.24 848.808   2
  -6   0   2 1735.44 673.305   6
   6   0  -1 12606.6 2130.09   2
  -6   0   1 10487.3 1601.74   6
   6   0   0 9396.06 1851.01   2
  -6   0   0 9620.50 1513.38   6
  -6   0  -1 6391.75 1233.33   6
   6   0   1 5080.44 1349.39   2
  -6   0  -1 4813.59 1086.94   3
  -6   0  -2 116.506 200.038   6
   6   0   2-21.7144 205.784   2
  -6   0  -2 530.400 309.244   3
  -6   0  -3 2559.09 833.569   6
   6   0   3 1322.72 716.772   2
  -6   0  -3 2056.10 747.012   3
  -6   0  -4 1084.19 571.004   6
  -6   0  -4 1414.95 649.204   3
   6   0   4 1721.76 789.330   2
  -6   0  -5 8448.48 1579.69   3
  -6   0  -5 8453.53 1629.72   6
   6   0   5 12630.7 2162.79   2
  -6   0  -6 8904.68 1654.10   3
   6   0   6 9638.34 1888.31   2
  -6   0  -6 7930.33 1639.16   6
  -6   0  -7 238.031 322.217   3
   6   0   7 388.571 358.629   2
  -6   0  -7 196.659 298.172   6
  -6   0  -8 7477.76 1641.60   3
   6   0   8 7124.70 1663.51   2
  -6   0  -8 6915.70 1778.74   6
   6   0   9 1844.16 872.286   2
  -6   0  -9 1236.29 734.880   6
  -6   0  -9 1034.58 711.546   3
  -6   0 -10 13713.3 2648.44   6
   6   0  10 18075.5 2708.28   2
  -6   0 -10 16303.9 2648.34   3
   6   0  11 8167.53 1840.40   2
  -6   0 -11 7332.13 1870.08   3
  -6   0 -12 9605.18 2164.70   3
   6   0  12 8977.61 1919.22   2
  -6   0 -13 7358.16 1970.63   3
   6   0  13 7376.35 1761.60   2
  -6   0 -14 28634.1 4040.99   3
   6   0  14 34750.3 3891.61   2
  -6   0 -15 951.952 783.811   3
   6   0  15 616.984 618.026   2
  -6   0 -16 8566.63 2348.20   3
  -6   0 -17 6131.12 2005.64   3
  -6   0 -18 2102.95 1233.45   3
  -6   0 -19 19709.3 3854.57   3
   6   1 -18 272.179 655.480   5
   6   1 -17 354.910 581.832   5
   6   1 -16 822.568 1279.41   5
   6   1 -15 10123.9 2928.49   5
   6   1 -14 10150.0 2923.26   5
   6   1 -13-974.716 897.903   5
   6   1 -12 469.783 438.609   4
   6   1 -12 1734.77 1323.21   5
   6   1 -12 1051.72 703.670   2
   6   1 -11 39636.9 5199.04   5
   6   1 -11 48415.1 4370.12   2
   6   1 -11 54401.8 3781.05   4
   6   1 -10 1026.10 508.491   4
   6   1 -10-524.078 628.689   5
   6   1 -10 837.941 568.254   2
   6   1  -9 6400.90 1277.65   4
   6   1  -9 2765.56 1296.95   5
   6   1  -9 6170.51 1510.24   2
   6   1  -8 6446.91 1306.47   4
   6   1  -8 3897.93 1434.44   5
   6   1  -8 4219.66 1245.59   2
   6   1  -7-52.7312 141.916   4
   6   1  -7 505.354 437.287   2
   6   1  -6 2516.11 820.321   4
   6   1  -6 2861.75 1274.73   5
   6   1  -6 1695.63 804.224   2
   6   1  -5 1144.85 546.692   4
  -6  -1   5 867.634 419.175   6
   6   1  -5 742.377 522.965   2
   6   1  -4 1625.49 738.835   2
   6   1  -4 1597.44 640.110   4
   6   1  -4 1444.56 782.546   5
  -6  -1   4 828.599 434.018   6
   6   1  -3 2782.69 856.100   4
   6   1  -3 2816.29 1016.53   2
   6   1  -3 4644.93 1442.30   5
  -6  -1   3 1896.61 599.507   6
   6   1  -2 9667.67 1856.35   2
   6   1  -2 11341.4 2132.13   5
  -6  -1   2 10469.8 1369.84   6
   6   1  -2 10769.3 1767.42   4
   6   1  -1 27646.7 3177.63   2
   6   1  -1 31230.2 3116.06   4
  -6  -1   1 29484.6 2238.97   6
  -6  -1   0 1124.96 409.630   6
   6   1   0 821.748 602.884   2
   6   1   1 23569.9 2930.06   2
   6   1   1 22838.2 2776.12   4
  -6  -1  -1 22155.0 1867.75   6
   6   1   2 858.611 558.865   2
  -6  -1  -2 142.515 174.733   6
   6   1   2 753.766 587.596   4
  -6  -1  -3 66131.2 4446.68   3
   6   1   3 68055.6 5086.61   2
  -6  -1  -3 71912.2 3437.05   6
   6   1   4 10401.0 1958.99   2
  -6  -1  -4 9257.11 1666.42   3
  -6  -1  -4 10486.2 1284.50   6
  -6  -1  -5 21593.7 2596.12   3
   6   1   5 21327.4 2814.54   2
  -6  -1  -5 18515.0 1784.78   6
  -6  -1  -6 31030.3 3214.85   3
   6   1   6 41371.1 3990.77   2
  -6  -1  -7 29399.1 3206.85   3
   6   1   7 35927.2 3784.02   2
  -6  -1  -8 479.833 533.234   3
   6   1   8 296.890 230.300   2
  -6  -1  -9 436.941 450.345   3
   6   1   9-37.3994 317.043   2
  -6  -1 -10 2375.85 1082.10   3
   6   1  10 1958.20 886.838   2
  -6  -1 -11 20412.2 3062.43   3
   6   1  11 24438.1 3227.08   2
   6   1  12 14455.3 2480.28   2
  -6  -1 -12 14251.1 2666.52   3
   6   1  13 9434.05 2025.41   2
  -6  -1 -13 10939.6 2378.28   3
  -6  -1 -14 27.0363 515.464   3
  -6  -1 -15 290.094 479.383   3
  -6  -1 -16 5054.54 1915.59   3
  -6  -1 -17 7550.44 2308.56   3
  -6  -1 -18-2325.26 1302.54   3
  -6  -1 -19 218.293 482.113   3
   6   2 -18-806.425 988.467   5
   6   2 -17 2037.25 1412.54   5
   6   2 -16 1174.12 1068.25   5
   6   2 -15 11203.2 3122.33   5
   6   2 -14 11196.4 1894.70   4
   6   2 -14 7671.47 2480.25   5
   6   2 -13 2088.75 758.000   4
   6   2 -13 2361.51 1406.61   5
   6   2 -12 1400.03 646.687   4
   6   2 -12 1318.24 998.869   5
   6   2 -11 40152.7 5280.24   5
   6   2 -11 51828.2 3958.20   4
   6   2 -10 439.475 424.618   4
   6   2 -10 2024.80 1086.23   5
   6   2  -9 5542.07 1228.65   4
   6   2  -9 6056.95 1819.63   5
   6   2  -8 5010.17 1174.97   4
   6   2  -8 4333.15 1614.83   5
   6   2  -7 298.063 295.086   4
   6   2  -7 863.217 608.722   2
   6   2  -7 770.748 660.646   5
   6   2  -6 2237.49 772.953   4
   6   2  -6 767.490 540.920   2
   6   2  -6 1862.76 1047.47   5
   6   2  -5 508.548 383.579   4
   6   2  -5 685.715 633.172   5
   6   2  -5 159.728 145.304   2
   6   2  -4 887.959 464.744   4
   6   2  -4 1149.46 706.753   5
   6   2  -4 1698.98 806.341   2
   6   2  -3 2770.42 906.935   4
   6   2  -3 1841.13 1057.60   5
   6   2  -3 3128.53 1078.03   2
  -6  -2   3 1428.04 437.011   6
   6   2  -2 8185.49 1820.94   5
  -6  -2   2 8009.54 975.199   6
   6   2  -2 10443.5 1968.95   2
   6   2  -2 10955.4 1818.37   4
   6   2  -1 27188.3 3139.28   5
   6   2  -1 31859.5 3451.54   2
  -6  -2   1 26486.5 1618.61   6
   6   2  -1 32831.3 3210.05   4
   6   2   0 2962.56 972.635   4
   6   2   0 2180.81 924.368   5
   6   2   0 1988.71 860.419   2
   6   2   1 22335.1 2907.81   2
   6   2   1 22194.1 2711.11   4
   6   2   2 255.414 360.508   2
   6   2   2 269.241 328.457   4
   6   2   3 66809.6 5120.47   2
   6   2   3 64925.6 4973.43   4
   6   2   4 10401.5 2002.89   2
   6   2   4 12133.4 2185.36   4
   6   2   5 22553.9 2978.94   2
  -6  -2  -5 22014.0 2689.65   3
   6   2   5 22773.2 3018.95   4
   6   2   6 43426.3 4155.93   2
  -6  -2  -6 31012.5 3333.30   3
   6   2   7 33305.1 3668.26   2
  -6  -2  -7 30590.8 3341.14   3
  -6  -2  -8 663.753 367.418   3
  -6  -2  -9 211.720 441.519   3
  -6  -2 -10 951.412 657.030   3
  -6  -2 -11 19767.8 3085.27   3
  -6  -2 -12 7903.81 1990.75   3
  -6  -2 -13 7240.81 1917.78   3
  -6  -2 -14 1289.53 842.399   3
  -6  -2 -15 2014.71 1121.39   3
  -6  -2 -16 5202.66 1790.55   3
  -6  -2 -17 8383.00 2518.21   3
  -6  -2 -18 201.996 461.415   3
  -6  -2 -19 323.946 594.086   3
   6   3 -18 7228.39 2418.42   5
   6   3 -17 3632.22 1883.46   5
   6   3 -16 1802.50 935.086   4
   6   3 -16 697.663 888.615   5
   6   3 -15 3916.16 1227.41   4
   6   3 -15 2163.38 1395.74   5
   6   3 -14 169.861 374.106   4
   6   3 -14-304.500 578.063   5
   6   3 -13-65.4156 215.468   4
   6   3 -13 1791.65 1224.19   5
   6   3 -12 20508.2 3861.27   5
   6   3 -12 43964.3 3971.87   4
   6   3 -11 10207.2 1914.62   4
   6   3 -11 4648.63 1838.59   5
   6   3 -10 7071.58 1546.17   4
   6   3 -10 5882.27 1922.28   5
   6   3  -9 27661.1 4098.77   5
   6   3  -9 31878.1 3274.14   4
   6   3  -8 16018.6 3030.29   5
   6   3  -8 17120.7 2369.49   4
   6   3  -7 1877.26 792.267   4
   6   3  -7 2866.08 1190.20   5
   6   3  -6 22045.7 3305.53   5
   6   3  -6 33041.8 3236.33   4
   6   3  -5 12236.8 2390.31   5
   6   3  -5 16337.7 2263.06   4
   6   3  -4 9889.97 1751.61   4
   6   3  -4 8195.53 1873.98   5
   6   3  -3 42955.7 4215.63   5
   6   3  -3 58120.8 4316.33   4
   6   3  -2 2074.49 818.505   4
  -6  -3   2 1321.36 333.614   6
   6   3  -1 11356.3 1965.11   5
   6   3  -1 13835.6 2118.18   4
   6   3   0 10721.5 1896.47   4
   6   3   0 8589.35 1584.94   5
   6   3   1 5850.10 1412.43   4
   6   3   1 4498.43 1152.29   5
   6   3   2 608.843 406.656   4
   6   3   3 2705.40 1031.54   4
   6   3   4 764.495 558.948   4
   6   3   5 10594.1 2053.50   4
  -6  -3  -6 9396.23 1841.85   3
   6   3   6 5460.21 1525.43   4
  -6  -3  -7 448.874 363.074   3
   6   3   7 703.646 529.178   4
  -6  -3  -8 6374.56 1609.43   3
  -6  -3  -9 659.924 519.687   3
  -6  -3 -10 19345.6 2917.97   3
  -6  -3 -11 3537.93 1283.73   3
  -6  -3 -12 6560.79 1779.86   3
  -6  -3 -13 5826.57 1784.77   3
  -6  -3 -14 24658.8 3725.73   3
  -6  -3 -15-19.7649 257.978   3
  -6  -3 -16 8176.86 2325.13   3
  -6  -3 -17 4691.52 1837.15   3
  -6  -3 -18 3375.15 1536.12   3
   6   4 -17 15317.3 3914.10   5
   6   4 -17 32040.3 4004.65   4
   6   4 -16 336.402 428.746   4
   6   4 -16-661.769 851.078   5
   6   4 -15 899.652 791.343   4
   6   4 -15 159.113 514.977   5
   6   4 -14-514.119 499.875   4
   6   4 -14 1516.30 1166.09   5
   6   4 -13 10147.2 2754.88   5
   6   4 -13 15936.6 2667.27   4
   6   4 -12 5407.44 1529.83   4
   6   4 -12 1144.66 991.338   5
   6   4 -11 7964.68 1805.10   4
   6   4 -11 5306.61 2022.86   5
   6   4 -10 16792.6 3373.30   5
   6   4 -10 25492.6 3191.60   4
   6   4  -9 10554.3 2631.56   5
   6   4  -9 18606.8 2676.80   4
   6   4  -8 13687.3 2873.77   5
   6   4  -8 19594.4 2722.34   4
   6   4  -7 1881.81 839.162   4
   6   4  -7 2512.84 1281.69   5
   6   4  -6 1328.81 680.540   4
   6   4  -6 1153.57 800.404   5
   6   4  -5 262.986 323.894   4
   6   4  -5 697.618 616.824   5
   6   4  -4 7249.74 1581.58   4
   6   4  -4 4765.37 1514.46   5
   6   4  -3 35515.6 3807.14   5
   6   4  -3 41433.5 3810.69   4
   6   4  -2 7073.21 1600.43   4
   6   4  -2 7958.90 1748.06   5
   6   4  -1 1106.35 659.714   4
   6   4  -1 2275.73 863.345   5
   6   4   0 607.301 407.054   4
   6   4   0 559.084 320.833   5
   6   4   1 17332.0 2101.40   5
   6   4   1 20407.5 2701.27   4
   6   4   2 825.850 556.423   4
   6   4   2 500.697 354.244   5
   6   4   3 705.655 588.217   4
   6   4   4 591.771 462.743   4
   6   4   5 42923.8 4210.61   4
   6   4   6 21479.2 3050.19   4
  -6  -4  -7 884.102 564.996   3
   6   4   7 640.248 590.373   4
  -6  -4  -8 254.745 548.510   3
   6   4   8 217.364 312.522   4
  -6  -4  -9 23814.6 3321.88   3
   6   4   9 28555.9 3745.58   4
  -6  -4 -10 1047.35 789.961   3
  -6  -4 -11 8387.15 2043.35   3
  -6  -4 -12-203.041 346.954   3
  -6  -4 -13 6112.42 1857.59   3
  -6  -4 -14 562.981 515.521   3
  -6  -4 -15 9551.04 2472.02   3
  -6  -4 -16-579.332 667.690   3
  -6  -4 -17 1020.11 867.749   3
   6   5 -16 1107.11 1120.80   5
   6   5 -15 2303.72 1509.39   5
   6   5 -14 7916.78 2039.64   4
   6   5 -14 6390.02 2409.74   5
   6   5 -13 14501.1 2742.51   4
   6   5 -13 5251.00 2153.10   5
   6   5 -12 9628.16 2235.40   4
   6   5 -12 5121.27 2032.43   5
   6   5 -11 8053.50 1987.15   4
   6   5 -11 2647.44 1851.75   5
   6   5 -10 546.349 562.735   4
   6   5 -10-173.872 477.857   5
   6   5  -9 1641.70 907.199   4
   6   5  -9 2824.86 1418.88   5
   6   5  -8 14093.7 2474.48   4
   6   5  -8 10898.0 2651.30   5
   6   5  -7 2372.68 981.785   4
   6   5  -7 1788.28 950.676   5
   6   5  -6 6857.14 1672.36   4
   6   5  -6 7674.18 2075.27   5
   6   5  -5 1955.12 893.885   4
   6   5  -5 943.094 615.410   5
   6   5  -4 252.155 431.550   4
   6   5  -4 1624.69 987.751   5
   6   5  -3 12920.2 2355.37   5
   6   5  -3 15717.4 2488.16   4
   6   5  -2 53145.4 4562.71   5
   6   5  -2 62890.4 4944.26   4
   6   5  -1 3248.36 1133.81   4
   6   5  -1 5123.86 1450.23   5
   6   5   0 14096.3 2045.80   5
   6   5   0 15796.9 2448.51   4
   6   5   1 23322.5 2426.22   5
   6   5   1 23859.0 3050.00   4
   6   5   2 20545.5 2863.20   4
   6   5   3 1183.12 790.975   4
   6   5   4 2789.40 1073.66   4
   6   5   5 19753.5 2907.86   4
   6   5   6 1400.48 792.522   4
   6   5   7 707.614 582.009   4
  -6  -5  -8 10458.2 2184.07   3
   6   5   8 13744.9 2599.90   4
  -6  -5  -9 11399.5 2306.09   3
   6   5   9 12607.9 2511.36   4
  -6  -5 -10 2616.88 1181.20   3
   6   5  10 3516.00 1347.75   4
  -6  -5 -11 8051.85 2033.69   3
  -6  -5 -12 9456.12 2235.64   3
  -6  -5 -13 961.428 836.327   3
  -6  -5 -14-360.202 528.850   3
  -6  -5 -15 7277.98 2167.66   3
  -6  -5 -16 6690.12 2174.50   3
   6   6 -15 2376.36 1599.19   5
   6   6 -14 6058.31 2284.30   5
   6   6 -13 1902.10 1185.93   4
   6   6 -13-222.969 591.185   5
   6   6 -12-789.355 683.566   4
   6   6 -12 909.502 930.031   5
   6   6 -11 6408.42 1949.03   4
   6   6 -11 3127.09 1653.50   5
   6   6 -10 10618.5 2403.24   4
   6   6 -10 7441.74 2517.44   5
   6   6  -9 5034.13 1591.83   4
   6   6  -9 3861.76 1592.62   5
   6   6  -8 1015.57 663.444   4
   6   6  -8 214.770 893.253   5
   6   6  -7 14635.5 3077.08   5
   6   6  -7 26266.4 3525.51   4
   6   6  -6 51852.9 5747.63   5
   6   6  -6 59453.1 5276.91   4
   6   6  -5 8149.91 1890.20   4
   6   6  -5 6920.88 2080.28   5
   6   6  -4 9105.11 1992.49   4
   6   6  -4 7604.34 1941.57   5
   6   6  -3 467.127 453.508   4
   6   6  -3 318.007 477.138   5
   6   6  -2 10750.1 2100.77   4
   6   6  -2 10177.5 2115.56   5
   6   6  -1 12855.8 2324.09   4
   6   6  -1 8538.09 1731.38   5
   6   6   0-158.691 285.262   4
   6   6   1 316.949 383.869   4
   6   6   2 684.416 471.451   4
   6   6   3 10689.1 2131.01   4
   6   6   4 1876.77 945.670   4
   6   6   5-81.8726 248.234   4
   6   6   6 630.628 559.821   4
   6   6   7 2425.26 1022.14   4
  -6  -6  -8 27137.2 3695.56   3
   6   6   8 34689.7 4184.35   4
  -6  -6  -9 1393.55 770.796   3
   6   6   9 417.213 559.529   4
  -6  -6 -10-427.399 525.967   3
   6   6  10-455.347 521.611   4
  -6  -6 -11-94.9007 424.279   3
   6   6  11-918.016 734.142   4
  -6  -6 -12 11719.3 2647.33   3
  -6  -6 -13 1025.32 1034.77   3
  -6  -6 -14 2118.02 1164.08   3
  -6  -6 -15-1109.60 895.578   3
   6   7 -14 12629.4 3649.03   5
   6   7 -13 2470.59 1634.37   5
   6   7 -12 5700.30 1973.81   4
   6   7 -12 3254.30 1804.34   5
   6   7 -11 19811.2 3521.31   4
   6   7 -11 11651.7 3373.18   5
   6   7 -10-414.835 536.296   4
   6   7 -10-1231.80 1109.43   5
   6   7  -9-504.816 571.650   4
   6   7  -9-944.358 955.260   5
   6   7  -8 2979.92 1305.28   4
   6   7  -8-413.754 707.029   5
   6   7  -7 264.763 406.434   4
   6   7  -7-470.892 659.230   5
   6   7  -6 13862.5 2666.88   4
   6   7  -6 10739.3 2724.86   5
   6   7  -5 1355.56 831.090   4
   6   7  -5 1341.16 1235.64   5
   6   7  -4 2763.32 1145.37   4
   6   7  -4 3746.60 1645.57   5
   6   7  -3 11914.3 2377.95   4
   6   7  -2 2464.06 1082.74   4
   6   7  -1 2982.16 1188.09   4
   6   7   0 22994.5 3251.66   4
   6   7   1 2002.57 1014.97   4
   6   7   2 6604.26 1729.13   4
   6   7   3 20167.8 3075.33   4
   6   7   4 582.517 517.296   4
   6   7   5-10.9400 173.004   4
   6   7   6-389.816 466.610   4
   6   7   7 40627.2 4588.61   4
   6   7   8 3826.50 1407.47   4
  -6  -7  -8 3688.62 1399.47   3
  -6  -7  -9-56.7819 482.596   3
   6   7   9 373.899 495.199   4
  -6  -7 -10 1552.52 953.226   3
   6   7  10 2817.33 1260.31   4
  -6  -7 -11 7993.80 2219.31   3
   6   7  11 12503.7 2814.36   4
  -6  -7 -12 533.873 323.139   3
   6   7  12-29.6744 232.594   4
  -6  -7 -13 1721.90 1130.94   3
   6   8 -13-2040.32 1580.92   5
   6   8 -12 3867.37 2065.33   5
   6   8 -11 728.274 957.586   5
   6   8 -10-15.4299 425.670   5
   6   8  -9 788.468 1045.47   4
   6   8  -9 596.867 869.101   5
   6   8  -8 15667.5 3706.72   5
   6   8  -8 28996.5 4236.09   4
   6   8  -7 2758.18 1226.27   4
   6   8  -6 391.003 407.763   4
   6   8  -5-435.747 516.719   4
   6   8  -4 14719.3 2817.46   4
   6   8  -3 1265.86 812.723   4
   6   8  -2 10847.6 2331.57   4
   6   8  -1 3120.35 1260.29   4
   6   8   0 17876.7 2934.20   4
   6   8   1 4559.48 1488.33   4
   6   8   2 13616.6 2584.26   4
   6   8   3 13789.3 2611.18   4
   6   8   4 6490.98 1792.45   4
   6   8   5 674.061 606.853   4
   6   8   6 31428.1 4085.35   4
   6   8   7 1556.50 1058.20   4
   6   8   8 5194.58 1729.36   4
  -6  -8  -8 8118.32 2170.52   3
   6   8   9 541.554 584.729   4
  -6  -8  -9 1415.52 937.965   3
  -6  -8 -10 7733.20 2142.23   3
   6   8  10 11810.5 2674.87   4
  -6  -8 -11 100.945 383.450   3
   6   8  11 308.645 491.506   4
   6   8  12 8166.75 2222.74   4
   6   9  -3 11428.2 2564.20   4
   6   9  -2 3557.70 1575.39   4
   6   9  -1 991.539 668.340   4
   6   9   0 11091.8 2440.35   4
   6   9   1 442.266 634.088   4
   6   9   2 4933.86 1664.27   4
   6   9   3 10498.3 2362.10   4
   6   9   4 4.20790 208.503   4
   6   9   5 2684.94 1165.61   4
   6   9   6 7442.39 1994.11   4
   6   9   7 9790.72 2377.76   4
   6   9   8 345.131 498.698   4
   6   9   9 600.982 810.959   4
   6   9  10 19309.2 3546.22   4
  -7   5   7-803.763 889.448   6
  -7   5   6 531.679 717.445   6
  -7   5   5 356.571 584.738   6
  -7   5   4 886.742 900.410   6
  -7   5   3 723.333 803.052   6
  -7   5   2-405.574 629.529   6
  -7   5   1 491.822 700.599   6
  -7   5   0 6640.47 2411.45   6
  -7   5  -1 1967.96 1338.37   6
  -7   5  -2 2593.74 1533.07   6
  -7   5  -3 2469.01 1500.87   6
  -7   5  -4 2955.58 1647.09   6
  -7   5  -5 6278.54 2416.64   6
  -7   5  -6 3633.64 1765.75   6
  -7   5  -7 6887.00 2597.77   6
   7  -4 -13 2217.06 1149.32   2
   7  -4 -12 873.175 741.194   2
   7  -4 -11-487.567 567.415   2
  -7   4  11 1280.59 1043.20   6
   7  -4 -10 1356.39 899.754   2
  -7   4  10-309.463 570.796   6
   7  -4  -9 3495.84 1459.11   2
  -7   4   9 1456.60 1082.12   6
   7  -4  -8 2421.45 1267.84   2
  -7   4   8 566.105 702.596   6
   7  -4  -7 5225.13 1743.74   2
  -7   4   7 1456.23 1315.21   6
  -7   4   6 4423.12 1871.67   6
   7  -4  -6 2971.32 1263.70   2
  -7   4   5 5136.58 2011.37   6
   7  -4  -5 4829.64 1766.56   2
  -7   4   4 6890.13 2278.43   6
  -7   4   3 827.370 778.496   6
  -7   4   2 732.712 744.887   6
  -7   4   1-368.416 555.833   6
  -7   4   0-110.491 334.479   6
  -7   4  -1-819.070 793.408   6
  -7   4  -2 886.999 839.478   6
  -7   4  -3-92.0534 341.839   6
  -7   4  -4-117.398 338.772   6
  -7   4  -5-363.418 558.752   6
   7  -4   5 1723.83 961.104   2
  -7   4  -6 1679.98 1181.72   6
   7  -4   6 833.363 677.205   2
  -7   4  -7 2607.28 1485.33   6
   7  -4   7 6015.53 1858.16   2
   7  -4   8 10372.9 2444.37   2
   7  -4   9 4316.85 1588.74   2
   7  -4  10 1857.06 1044.21   2
   7  -4  11 877.269 713.907   2
   7  -4  12 2743.90 1232.45   2
   7  -4  13 6197.85 1762.32   2
   7  -3 -13 2082.32 1045.41   2
  -7   3  13 2665.50 1343.25   6
   7  -3 -12-662.430 602.096   2
  -7   3  12-311.588 527.741   6
   7  -3 -11-35.3815 222.274   2
  -7   3  11 276.715 280.514   6
   7  -3 -10 436.029 180.103   2
  -7   3  10 574.719 770.478   6
   7  -3  -9 1428.46 880.093   2
  -7   3   9-571.694 644.294   6
   7  -3  -8 1408.17 796.440   2
  -7   3   8 518.153 616.249   6
   7  -3  -7 6600.12 1946.37   2
  -7   3   7 4862.13 1672.05   6
   7  -3  -6 6321.17 1876.21   2
  -7   3   6 4018.64 1485.60   6
   7  -3  -5 5861.46 1778.80   2
  -7   3   5 7060.78 2064.92   6
  -7   3   4 4253.27 1596.60   6
   7  -3  -4 2747.56 1241.32   2
  -7   3   3 5117.36 1805.23   6
   7  -3  -3 3846.87 1393.20   2
  -7   3   2 2978.69 1319.91   6
   7  -3  -2 2958.39 1251.96   2
  -7   3   1 2223.15 1148.37   6
   7  -3  -1 3669.63 1418.28   2
  -7   3   0 3964.76 1543.52   6
   7  -3   0 3980.70 1441.60   2
  -7   3  -1 3433.69 1372.98   6
   7  -3   1 1927.31 1041.46   2
  -7   3  -2 2422.32 1227.59   6
   7  -3   2 2358.01 1086.16   2
  -7   3  -3 3019.78 1517.00   6
   7  -3   3 3377.68 1366.16   2
  -7   3  -4 1717.12 1045.59   6
   7  -3   4 1263.60 828.797   2
  -7   3  -5 363.747 506.058   6
   7  -3   5 727.172 824.935   2
  -7   3  -6 1348.92 975.815   6
   7  -3   6 795.055 689.220   2
   7  -3   7 319.894 441.851   2
   7  -3   8-751.211 645.197   2
   7  -3   9 64.4856 262.318   2
   7  -3  10-504.749 538.311   2
   7  -3  11 19.7786 238.743   2
   7  -3  12 2044.80 1138.70   2
   7  -3  13 815.807 813.273   2
   7  -3  14 1067.80 751.099   2
  -7   2  15 2882.65 1462.11   6
  -7   2  14 7411.96 2224.43   6
   7  -2 -13 874.698 664.418   2
  -7   2  13 1288.62 929.156   6
   7  -2 -12 2689.56 1119.42   2
  -7   2  12 1074.03 822.461   6
   7  -2 -11 866.693 688.918   2
  -7   2  11 1293.41 887.422   6
   7  -2 -10 1456.20 886.061   2
  -7   2  10 152.943 389.115   6
   7  -2  -9 671.740 542.306   2
  -7   2   9 1897.70 1026.53   6
   7  -2  -8-586.365 545.626   2
  -7   2   8 286.674 427.568   6
   7  -2  -7 677.073 560.313   2
  -7   2   7-914.503 707.870   6
   7  -2  -6 1998.26 961.256   2
  -7   2   6 2386.19 1088.64   6
   7  -2  -5 3015.59 1171.42   2
  -7   2   5 2336.37 1087.33   6
   7  -2  -4 704.112 592.943   2
  -7   2   4 1572.68 832.078   6
  -7   2   3 1589.22 785.035   6
   7  -2  -3 626.118 593.100   2
  -7   2   2-314.922 418.957   6
   7  -2  -2 383.087 450.146   2
  -7   2   1 1031.25 714.099   6
   7  -2  -1 95.7359 526.016   2
  -7   2   0 6135.24 1775.58   6
   7  -2   0 7267.20 1919.46   2
  -7   2  -1 4187.59 1400.78   6
   7  -2   1 4381.65 1499.81   2
  -7   2  -2 6301.01 1786.90   6
   7  -2   2 10405.4 2296.70   2
  -7   2  -3 10694.7 2370.02   6
   7  -2   3 11918.6 2440.84   2
  -7   2  -4 10776.4 2436.86   6
   7  -2   4 11292.7 2349.53   2
   7  -2   5 5638.69 1667.12   2
   7  -2   6 6977.22 1895.17   2
   7  -2   7 2972.60 1265.64   2
   7  -2   8 2661.72 1167.25   2
   7  -2   9 4323.63 1439.12   2
   7  -2  10 1049.66 721.839   2
   7  -2  11 517.533 522.657   2
   7  -2  12 525.455 531.801   2
   7  -2  13-568.080 543.137   2
   7  -2  14 1490.49 865.646   2
  -7   1  16 960.309 822.038   6
  -7   1  15 436.207 550.141   6
   7  -1 -14 1262.35 1080.15   5
  -7   1  14 1964.66 917.296   6
   7  -1 -13 318.238 414.725   2
   7  -1 -13-1103.65 985.362   5
  -7   1  13 513.832 703.120   6
   7  -1 -12 2053.98 975.961   2
   7  -1 -12 1187.98 993.628   5
  -7   1  12 2262.33 1090.99   6
   7  -1 -11 2112.17 963.588   2
   7  -1 -11 2366.62 1413.45   5
  -7   1  11 2596.63 1158.61   6
   7  -1 -10 1708.00 885.608   2
   7  -1 -10 2897.15 1441.08   5
  -7   1  10 1595.68 901.216   6
   7  -1  -9 2114.84 1019.26   2
  -7   1   9 2178.12 1011.35   6
   7  -1  -8 2896.30 1136.03   2
  -7   1   8 909.620 651.237   6
   7  -1  -7 8699.73 2008.44   2
  -7   1   7 7584.02 1820.11   6
   7  -1  -6 11162.0 2244.94   2
  -7   1   6 12742.1 2349.75   6
   7  -1  -5 9439.45 2082.83   2
  -7   1   5 7395.74 1766.01   6
   7  -1  -4 1420.41 813.789   2
  -7   1   4 1970.72 898.305   6
   7  -1  -3 6605.73 1750.52   2
  -7   1   3 5071.61 1395.08   6
  -7   1   2 3825.50 1218.57   6
   7  -1  -2 2860.34 1122.86   2
  -7   1   1 991.195 617.127   6
   7  -1  -1 1995.30 1042.73   2
  -7   1   0 151.451 269.102   6
   7  -1   0 264.778 349.500   2
  -7   1  -1-64.9524 191.497   6
   7  -1   1 1117.22 760.811   2
  -7   1  -2 503.069 457.440   6
   7  -1   2 844.486 626.948   2
  -7   1  -3 429.011 364.597   3
   7  -1   3 514.937 641.827   2
  -7   1  -4 316.457 334.399   3
   7  -1   4 738.350 593.863   2
   7  -1   5 316.451 457.929   2
  -7   1  -5 861.567 537.593   3
   7  -1   6 716.454 673.460   2
  -7   1  -6 899.788 570.597   3
   7  -1   7 1731.38 896.984   2
  -7   1  -7 1837.62 840.357   3
   7  -1   8 5319.37 1574.31   2
  -7   1  -8 3355.66 1177.60   3
   7  -1   9 7010.52 1860.73   2
  -7   1  -9 6098.22 1636.75   3
   7  -1  10 4573.89 1475.34   2
  -7   1 -10 5174.31 1502.05   3
   7  -1  11 4993.86 1586.56   2
  -7   1 -11 6829.11 1841.49   3
   7  -1  12 7540.17 1912.72   2
  -7   1 -12 4069.69 1402.69   3
   7  -1  13 8662.89 2093.03   2
  -7   1 -13 4595.94 1611.78   3
   7  -1  14 7759.85 1983.26   2
  -7   1 -14 4903.45 1713.15   3
  -7   1 -15 6737.03 2011.63   3
  -7   1 -16 1401.06 1153.01   3
  -7   1 -17 2187.24 1339.25   3
  -7   1 -18 367.593 610.379   3
   7   0 -15 3500.39 1780.03   5
   7   0 -14 466.989 728.247   5
   7   0 -14 865.725 739.495   2
   7   0 -13 925.027 1259.92   5
   7   0 -13 754.601 603.247   2
   7   0 -12 3635.61 1668.54   5
  -7   0  12 3116.87 1237.64   6
   7   0 -12 2224.59 1023.25   2
   7   0 -11-146.661 711.368   5
  -7   0  11 131.520 225.620   6
   7   0 -11-685.767 570.532   2
   7   0 -10 909.116 740.172   2
  -7   0  10 20.0766 170.514   6
   7   0  -9 137.317 283.271   2
   7   0  -9 3.30496 568.607   5
  -7   0   9-623.061 520.863   6
   7   0  -8 689.736 562.932   2
   7   0  -8 308.688 319.443   5
  -7   0   8 439.513 432.768   6
   7   0  -7 805.737 686.053   2
  -7   0   7 1947.78 842.549   6
   7   0  -7 1684.24 684.368   4
   7   0  -6 2208.27 946.582   2
   7   0  -6 1639.76 1065.07   5
   7   0  -6 2655.98 931.634   4
  -7   0   6 2345.73 959.886   6
   7   0  -5 3123.77 1232.09   2
  -7   0   5 2886.35 971.574   6
   7   0  -4 89.9987 234.079   2
  -7   0   4 1334.81 656.227   6
   7   0  -3 2632.63 1028.32   2
  -7   0   3 3630.27 1088.52   6
  -7   0   2 2785.16 908.806   6
   7   0  -2 3484.74 1237.85   2
  -7   0   1 2014.88 780.125   6
   7   0  -1 1280.56 749.130   2
   7   0   0 4577.27 1421.26   2
  -7   0   0 5828.42 1326.43   3
   7   0   1 4454.87 1402.57   2
  -7   0  -1 4222.22 1153.41   3
   7   0   2 9036.49 2012.82   2
  -7   0  -2 9346.89 1656.30   3
   7   0   3 7695.36 1839.43   2
  -7   0  -3 5698.59 1376.81   3
   7   0   4 8019.67 1919.48   2
  -7   0  -4 6389.48 1460.78   3
  -7   0  -5 4600.60 1317.07   3
   7   0   5 3863.40 1374.43   2
  -7   0  -6 4737.81 1295.29   3
   7   0   6 3255.77 1222.27   2
  -7   0  -7 566.402 494.074   3
   7   0   7-531.003 509.728   2
  -7   0  -8 2617.17 1055.79   3
   7   0   8 2893.13 1173.60   2
   7   0   9-391.364 452.592   2
  -7   0  -9 188.993 337.266   3
   7   0  10 48.1991 251.187   2
  -7   0 -10-354.430 457.564   3
  -7   0 -11-340.743 465.638   3
   7   0  11-522.579 524.198   2
  -7   0 -12 811.779 690.684   3
   7   0  12 300.117 246.902   2
  -7   0 -13 1915.09 1074.52   3
   7   0  13 2323.70 1172.77   2
  -7   0 -14 2315.33 1227.59   3
   7   0  14 3459.07 1333.00   2
  -7   0 -15 1459.33 1002.30   3
  -7   0 -16 1110.09 908.285   3
  -7   0 -17 1425.27 1048.15   3
   7   1 -15 1431.48 1179.21   5
   7   1 -14-919.447 959.727   5
   7   1 -13 555.797 525.662   2
   7   1 -13 1015.14 957.717   5
   7   1 -12 4574.40 2126.82   5
   7   1 -12 2439.11 1115.25   2
   7   1 -11 2310.60 1418.62   5
   7   1 -11 4132.44 1398.69   2
   7   1 -10 2414.02 849.393   4
   7   1 -10 2832.14 1489.72   5
   7   1 -10 2656.34 1157.41   2
   7   1  -9 8263.98 2325.91   5
   7   1  -9 15758.2 2240.18   4
   7   1  -9 13835.9 2532.99   2
   7   1  -8 11292.2 2655.74   5
   7   1  -8 14725.6 2153.78   4
   7   1  -8 12017.9 2333.61   2
  -7  -1   8 12019.9 2021.48   6
   7   1  -7 7324.82 1527.17   4
   7   1  -7 5588.20 1758.98   5
   7   1  -7 4399.81 1402.55   2
  -7  -1   7 4564.64 1208.63   6
   7   1  -6 5999.84 1405.95   4
   7   1  -6 1073.14 636.197   5
  -7  -1   6 3455.66 971.010   6
   7   1  -6 4047.78 1354.44   2
   7   1  -5 6739.79 1521.80   4
   7   1  -5 4034.17 1447.25   5
  -7  -1   5 6489.58 1309.71   6
   7   1  -5 6963.84 1782.21   2
  -7  -1   4 1608.00 626.283   6
   7   1  -4 1304.51 716.960   2
   7   1  -4 1742.41 766.376   4
   7   1  -3 28.8522 184.079   2
   7   1  -3-193.841 283.856   4
   7   1  -2 2210.65 830.079   4
   7   1  -2 2281.75 1002.28   2
   7   1  -1 173.016 315.203   4
   7   1  -1-534.130 498.249   2
   7   1   0 4392.02 1266.52   4
   7   1   0 3580.00 1231.86   2
   7   1   1 6717.52 1704.87   2
  -7  -1  -2 8289.48 1621.58   3
   7   1   2 10327.5 2135.97   2
  -7  -1  -3 6333.84 1447.93   3
   7   1   3 5085.79 1529.25   2
  -7  -1  -4 3270.04 1078.10   3
   7   1   4 6721.58 1789.95   2
  -7  -1  -5 1171.60 661.622   3
   7   1   5 1620.71 934.696   2
  -7  -1  -6 3848.53 1250.38   3
   7   1   6 4648.84 1477.10   2
  -7  -1  -7 2452.66 1079.40   3
   7   1   7 3525.58 1330.36   2
  -7  -1  -8 2872.20 1137.88   3
   7   1   8 3399.16 1273.73   2
  -7  -1  -9 4673.42 1400.37   3
   7   1   9 2801.45 1166.86   2
  -7  -1 -10 7085.35 1859.16   3
   7   1  10 5861.47 1686.61   2
   7   1  11 4335.55 1484.37   2
  -7  -1 -11 2876.36 1152.12   3
   7   1  12 2958.97 1259.05   2
  -7  -1 -12 1497.12 923.142   3
   7   1  13 4339.35 1504.35   2
  -7  -1 -13 3881.94 1487.86   3
  -7  -1 -14 234.580 448.170   3
  -7  -1 -15 1103.52 885.467   3
  -7  -1 -16-276.882 520.506   3
  -7  -1 -17 222.224 518.727   3
   7   2 -16-200.813 581.170   5
   7   2 -15 1490.33 1356.27   5
   7   2 -14 185.673 541.454   5
   7   2 -13 1559.85 1158.56   5
   7   2 -12 255.540 222.148   4
   7   2 -12 873.480 829.224   5
   7   2 -11 317.791 352.536   4
   7   2 -11-33.6898 334.188   5
   7   2 -10 488.885 416.993   4
   7   2 -10-1338.63 1004.22   5
   7   2  -9 10879.6 2536.53   5
   7   2  -9 16816.8 2387.67   4
   7   2  -8 6277.60 1518.74   4
   7   2  -8 4449.30 1651.83   5
   7   2  -7 5434.86 1381.87   4
   7   2  -7 3722.60 1279.28   2
   7   2  -7 3678.30 1543.66   5
   7   2  -6 1122.76 597.306   4
   7   2  -6 1819.93 1080.47   5
   7   2  -6 1535.18 820.332   2
   7   2  -5 4785.98 1315.82   4
   7   2  -5 4529.87 1494.79   5
   7   2  -5 5425.55 1573.90   2
   7   2  -4 4064.22 1279.86   4
   7   2  -4 4050.68 1467.79   5
   7   2  -4 4631.28 1509.72   2
   7   2  -3 5540.59 1395.25   4
   7   2  -3 5432.15 1553.77   5
   7   2  -3 4441.61 1431.42   2
   7   2  -2 2507.32 941.816   4
   7   2  -2 2588.67 1102.10   5
   7   2  -2 2266.77 1021.63   2
   7   2  -1 9046.64 1854.52   4
   7   2  -1 10866.8 2245.68   2
   7   2   0 7227.91 1830.83   2
   7   2   0 8674.03 1865.90   4
   7   2   1 6480.95 1741.41   2
   7   2   1 8410.49 1876.80   4
   7   2   2 5147.85 1553.59   2
   7   2   2 6090.64 1643.66   4
   7   2   3 4887.30 1537.99   2
   7   2   3 6434.63 1643.89   4
  -7  -2  -4 5254.53 1422.72   3
   7   2   4 4579.37 1458.21   2
  -7  -2  -5 203.133 218.955   3
   7   2   5 445.065 570.168   2
  -7  -2  -6 12.9729 254.813   3
   7   2   6 403.426 307.624   2
  -7  -2  -7 984.793 701.360   3
   7   2   7 911.104 692.925   2
  -7  -2  -8 2805.62 1148.08   3
  -7  -2  -9 8113.02 1952.02   3
  -7  -2 -10 7967.36 2043.45   3
  -7  -2 -11 11240.7 2402.64   3
  -7  -2 -12 3877.48 1517.06   3
  -7  -2 -13 1731.86 1089.82   3
  -7  -2 -14 1715.10 1044.26   3
  -7  -2 -15 8578.71 2323.09   3
  -7  -2 -16 1782.84 1081.93   3
  -7  -2 -17 3313.44 1560.29   3
   7   3 -16-575.510 869.668   5
   7   3 -15 2367.83 1705.69   5
   7   3 -14 7938.04 1814.15   4
   7   3 -14 2114.26 1404.66   5
   7   3 -13 1430.45 757.379   4
   7   3 -13-1047.90 994.239   5
   7   3 -12 1230.32 667.330   4
   7   3 -12 2337.23 1439.75   5
   7   3 -11 4267.36 1287.30   4
   7   3 -11 1346.65 1061.82   5
   7   3 -10 3866.70 1236.07   4
   7   3 -10 1255.37 885.269   5
   7   3  -9 786.175 559.600   4
   7   3  -9 2518.52 1307.06   5
   7   3  -8-49.1573 185.161   4
   7   3  -8-134.882 425.203   5
   7   3  -7-12.1769 146.883   4
   7   3  -7-488.239 814.284   5
   7   3  -6 261.876 334.415   4
   7   3  -6-864.632 732.779   5
   7   3  -5 181.918 370.429   4
   7   3  -5 747.608 431.347   5
   7   3  -4 1944.37 845.032   4
   7   3  -4 1915.58 965.903   5
   7   3  -3-224.404 312.936   4
   7   3  -3 310.407 693.386   5
   7   3  -2 956.382 608.201   4
   7   3  -2 2163.76 994.218   5
   7   3  -1 7806.16 1747.05   4
   7   3  -1 4217.42 1263.14   5
   7   3   0 13541.4 2361.10   4
   7   3   1 3341.72 1186.32   4
   7   3   2 13275.9 2418.44   4
   7   3   3 8262.99 1916.60   4
   7   3   4 9761.27 2150.16   4
  -7  -3  -5 3437.67 1226.70   3
   7   3   5 3092.74 1303.88   4
  -7  -3  -6 3891.75 1303.52   3
   7   3   6 7127.66 1867.47   4
  -7  -3  -7 205.174 514.937   3
  -7  -3  -8 323.415 309.253   3
  -7  -3  -9 1645.43 887.082   3
  -7  -3 -10 3002.28 1329.38   3
  -7  -3 -11 2047.88 921.053   3
  -7  -3 -12 904.367 737.439   3
  -7  -3 -13-218.618 348.628   3
  -7  -3 -14-1151.86 873.146   3
  -7  -3 -15 291.668 497.102   3
  -7  -3 -16 290.567 888.019   3
   7   4 -16 590.312 563.791   4
   7   4 -15 844.642 656.188   4
   7   4 -15 2751.11 1646.99   5
   7   4 -14 2904.29 1167.60   4
   7   4 -14 2203.85 1576.70   5
   7   4 -13 1429.90 874.753   4
   7   4 -13 1050.96 1002.12   5
   7   4 -12 10726.2 2236.13   4
   7   4 -12 2531.29 1472.35   5
   7   4 -11 13441.5 2446.48   4
   7   4 -11 7892.42 2476.05   5
   7   4 -10 9125.67 2036.13   4
   7   4 -10 6677.70 2285.89   5
   7   4  -9 2714.30 1067.61   4
   7   4  -9 2301.49 1394.81   5
   7   4  -8 4862.36 1444.16   4
   7   4  -8 2921.42 1394.58   5
   7   4  -7 12288.5 2281.10   4
   7   4  -7 10026.8 2499.18   5
   7   4  -6 2855.36 1124.16   4
   7   4  -6 2152.69 1136.21   5
   7   4  -5 1528.46 873.284   4
   7   4  -5 680.805 610.649   5
   7   4  -4 539.976 483.736   4
   7   4  -4 112.191 309.577   5
   7   4  -3 4232.64 1304.46   4
   7   4  -3 1920.36 969.232   5
   7   4  -2 571.401 490.476   4
   7   4  -2 1537.20 744.591   5
   7   4  -1 144.802 276.288   4
   7   4  -1 352.588 411.796   5
   7   4   0 1418.64 742.354   4
   7   4   0 1430.10 743.247   5
   7   4   1 188.300 380.840   4
   7   4   1-161.207 272.398   5
   7   4   2 1855.64 900.706   4
   7   4   3 1289.34 741.982   4
   7   4   4 2406.75 1060.92   4
   7   4   5-294.739 401.764   4
  -7  -4  -6 270.117 450.457   3
   7   4   6 882.888 676.196   4
  -7  -4  -7 2645.82 1108.80   3
   7   4   7 2001.29 1034.27   4
  -7  -4  -8 4364.08 1475.26   3
   7   4   8 4544.74 1577.91   4
  -7  -4  -9 3646.43 1468.79   3
  -7  -4 -10 3019.21 1406.55   3
  -7  -4 -11 8003.39 2096.04   3
  -7  -4 -12 8162.37 2186.30   3
  -7  -4 -13 6295.20 2061.69   3
  -7  -4 -14 886.881 927.020   3
  -7  -4 -15 442.428 991.307   3
   7   5 -17 8196.53 2179.55   4
   7   5 -16 1741.84 1013.12   4
   7   5 -15 966.765 757.858   4
   7   5 -15 470.160 779.407   5
   7   5 -14-521.955 564.271   4
   7   5 -14 1424.84 1192.15   5
   7   5 -13 494.219 542.643   4
   7   5 -13 532.553 782.385   5
   7   5 -12-357.068 468.129   4
   7   5 -12-1212.93 1081.51   5
   7   5 -11 876.879 917.811   4
   7   5 -11 2868.04 1558.69   5
   7   5 -10 345.380 451.596   4
   7   5 -10 4562.62 1954.00   5
   7   5  -9 575.883 602.356   4
   7   5  -9-22.3955 324.181   5
   7   5  -8 166.275 316.972   4
   7   5  -8 22.8759 328.291   5
   7   5  -7 4467.30 1475.98   4
   7   5  -7 3603.41 1538.88   5
   7   5  -6 291.357 295.753   4
   7   5  -6 1689.64 1030.83   5
   7   5  -5 1349.29 714.252   4
   7   5  -5 3088.61 1317.97   5
   7   5  -4 6134.16 1695.86   4
   7   5  -4 5231.89 1722.92   5
   7   5  -3 16434.9 2775.09   5
   7   5  -3 26152.9 3435.86   4
   7   5  -2 9713.31 1994.94   5
   7   5  -2 15314.2 2619.11   4
   7   5  -1 6143.46 1663.44   4
   7   5  -1 4017.38 1315.03   5
   7   5   0 10071.8 2167.37   4
   7   5   1 14348.5 2585.63   4
   7   5   2 7138.65 1855.52   4
   7   5   3 173.949 321.989   4
   7   5   4 493.108 563.142   4
   7   5   5 561.934 605.200   4
   7   5   6-914.017 709.199   4
  -7  -5  -7 376.658 642.542   3
   7   5   7-487.298 551.394   4
  -7  -5  -8-442.405 524.884   3
   7   5   8-1095.91 804.864   4
  -7  -5  -9 866.771 700.775   3
   7   5   9 2659.35 1277.57   4
  -7  -5 -10 1123.99 814.315   3
  -7  -5 -11 3361.13 1394.62   3
  -7  -5 -12 418.235 564.335   3
  -7  -5 -13 1264.87 1004.01   3
  -7  -5 -14 1682.44 1078.80   3
   7   6 -14 4764.05 1721.32   4
   7   6 -14 1834.31 1441.79   5
   7   6 -13 5905.56 1962.07   4
   7   6 -13 3013.44 1733.33   5
   7   6 -12 1909.03 1078.49   4
   7   6 -12 1039.53 1036.28   5
   7   6 -11 882.048 734.634   4
   7   6 -11-328.414 609.534   5
   7   6 -10-230.125 397.318   4
   7   6 -10 609.704 789.499   5
   7   6  -9 3732.52 1510.89   4
   7   6  -9 4469.74 1872.16   5
   7   6  -8 2075.28 944.508   4
   7   6  -8 466.345 699.080   5
   7   6  -7-127.393 315.518   4
   7   6  -7 1383.96 1014.02   5
   7   6  -6 294.743 424.912   4
   7   6  -6 2230.22 1268.18   5
   7   6  -5 4858.05 1542.09   4
   7   6  -5 2510.36 1418.11   5
   7   6  -4 641.138 672.344   4
   7   6  -4 1905.75 1038.08   5
   7   6  -3 2034.15 1027.04   4
   7   6  -2 1241.36 791.480   4
   7   6  -1 834.793 645.274   4
   7   6   0 5460.35 1682.95   4
   7   6   1 2707.43 1142.22   4
   7   6   2 2593.05 1135.16   4
   7   6   3 1018.74 753.315   4
   7   6   4 5265.11 1692.88   4
   7   6   5 3573.69 1318.86   4
   7   6   6 8326.00 2158.05   4
  -7  -6  -7 3947.31 1436.96   3
   7   6   7 3970.69 1442.39   4
  -7  -6  -8 9163.04 2285.37   3
   7   6   8 11827.2 2674.56   4
  -7  -6  -9 7093.54 2137.08   3
   7   6   9 5277.50 1772.94   4
  -7  -6 -10 1788.64 1035.47   3
   7   6  10 2090.88 1150.59   4
  -7  -6 -11 26.2628 303.411   3
  -7  -6 -12 1662.42 979.485   3
   7   7 -13 6022.07 2515.18   5
   7   7 -12 821.117 997.829   5
   7   7 -11-1700.53 1318.07   5
   7   7 -10 1851.77 1103.88   4
   7   7 -10 83.6216 1064.76   5
   7   7  -9 5341.56 1889.46   4
   7   7  -9 5494.93 2191.15   5
   7   7  -8 2302.92 1109.70   4
   7   7  -8 2066.21 1406.35   5
   7   7  -7 1557.99 1057.94   4
   7   7  -6 5196.48 1763.89   4
   7   7  -5 11401.3 2467.76   4
   7   7  -4-42.7968 247.028   4
   7   7  -3 44.7256 308.447   4
   7   7  -2 523.518 549.188   4
   7   7  -1 4925.12 1638.48   4
   7   7   0 1292.48 857.497   4
   7   7   1 38.6977 220.081   4
   7   7   2 546.607 561.752   4
   7   7   3 2554.75 1166.85   4
   7   7   4 630.948 595.785   4
   7   7   5 910.145 730.355   4
   7   7   6 5135.25 1703.45   4
   7   7   7 2606.01 1412.47   4
  -7  -7  -8 1854.46 1221.06   3
   7   7   8 1074.87 899.320   4
  -7  -7  -9 3166.65 1368.27   3
   7   7   9 5575.11 1987.98   4
  -7  -7 -10 5579.47 1977.43   3
   7   7  10 6603.78 2066.95   4
   7   7  11 3128.76 1331.94   4
   7   8  -5 10853.8 2589.05   4
   7   8  -4 3016.97 1393.00   4
   7   8  -3 2906.15 1300.62   4
   7   8  -2 2829.97 1292.27   4
   7   8  -1 4555.45 1647.00   4
   7   8   0 1413.73 823.844   4
   7   8   1 857.112 774.571   4
   7   8   2 7374.78 2027.65   4
   7   8   3 7359.28 2106.64   4
   7   8   4 1468.98 710.868   4
   7   8   5 1857.78 1100.62   4
   7   8   6 1501.42 1071.05   4
   7   8   7-217.709 421.340   4
   7   8   8 670.823 684.042   4
   8  -3  -6-416.643 543.069   2
   8  -3  -5 49806.2 5579.35   2
   8  -3  -4 5648.71 1905.69   2
   8  -3  -3 408.583 540.592   2
   8  -3  -2 755.343 502.253   2
   8  -3  -1 7851.45 2198.93   2
   8  -3   0 21554.5 3675.87   2
   8  -3   1 3933.94 1575.01   2
   8  -3   2 5015.87 1831.87   2
   8  -3   3 7930.09 2204.14   2
   8  -3   4 37007.5 4784.27   2
   8  -3   5 253.453 257.721   2
   8  -3   6 8922.97 2361.82   2
   8  -3   7 1334.24 871.554   2
   8  -2 -13 8088.48 2133.80   2
   8  -2 -12 4149.60 1522.36   2
   8  -2 -11 2677.36 1228.62   2
   8  -2 -10 277.809 428.946   2
   8  -2  -9 5037.84 1697.61   2
   8  -2  -8 2947.80 1283.02   2
   8  -2  -7 21623.2 3507.69   2
   8  -2  -6 12707.7 2682.11   2
   8  -2  -5 40606.6 4849.40   2
   8  -2  -4 2887.24 1268.60   2
   8  -2  -3 23696.4 3698.13   2
   8  -2  -2 3204.36 1337.02   2
   8  -2  -1 39340.5 4731.32   2
   8  -2   0-451.354 530.597   2
   8  -2   1-189.164 379.379   2
   8  -2   2 673.305 635.541   2
   8  -2   3 5865.13 1830.33   2
   8  -2   4 300.699 452.918   2
   8  -2   5 5756.64 1834.18   2
   8  -2   6 4142.75 1542.93   2
   8  -2   7 5897.14 1784.39   2
   8  -2   8 1120.70 811.854   2
   8  -2   9 25702.8 3801.22   2
   8  -2  10 4613.01 1583.90   2
   8  -2  11 5026.47 1661.05   2
   8  -2  12 1503.67 931.178   2
   8  -2  13 28138.6 4012.55   2
   8  -1 -13 2392.38 1165.05   2
   8  -1 -12 28098.8 3949.33   2
   8  -1 -11 503.235 552.155   2
   8  -1 -10 12796.6 2630.30   2
   8  -1  -9 7806.36 2065.26   2
   8  -1  -8 2336.56 1147.42   2
   8  -1  -7 1839.84 1022.90   2
   8  -1  -6 307.450 594.008   2
   8  -1  -5 3791.55 1412.53   2
   8  -1  -4 553.759 554.936   2
   8  -1  -3 47.1754 166.361   2
   8  -1  -2 27471.9 3838.50   2
   8  -1  -1 3688.41 1432.50   2
   8  -1   0 192.648 417.247   2
   8  -1   1 151.141 329.512   2
   8  -1   2 78503.4 6547.50   2
   8  -1   3 1230.11 787.566   2
   8  -1   4 6116.04 1830.89   2
   8  -1   5 1370.83 868.565   2
   8  -1   6 36990.8 4531.50   2
   8  -1   7 1634.85 948.371   2
   8  -1   8 11844.0 2563.01   2
   8  -1   9 11959.4 2561.05   2
   8  -1  10 6449.14 1937.63   2
   8  -1  11 147.726 349.479   2
   8  -1  12 1035.36 938.577   2
   8  -1  13 13953.1 2875.89   2
   8  -1  14 2306.17 1177.03   2
   8   0 -13 1611.87 961.927   2
   8   0 -12 11416.2 3081.49   5
   8   0 -12 16803.3 3067.22   2
   8   0 -11 5308.15 2033.07   5
   8   0 -11 12336.2 2610.32   2
   8   0 -10 4893.55 1932.29   5
   8   0 -10 2729.24 1236.92   2
   8   0  -9 814.131 1212.01   5
   8   0  -9 173.304 352.398   2
   8   0  -8 23757.7 3581.82   2
   8   0  -7 47542.2 5089.17   2
   8   0  -6 7905.35 2229.96   2
   8   0  -5 6139.11 1814.72   2
   8   0  -4 284.644 348.505   2
   8   0  -3 35871.3 4357.44   2
   8   0  -2 35123.3 4303.42   2
   8   0  -1 1113.25 808.604   2
   8   0   0 1420.33 882.971   2
   8   0   1 8434.94 2119.35   2
   8   0   2 14535.4 2780.99   2
   8   0   3 852.153 789.967   2
   8   0   4 7486.07 2018.50   2
  -8   0  -5 1141.04 787.427   3
   8   0   5-734.318 647.596   2
  -8   0  -6 27122.7 3332.20   3
   8   0   6 35333.9 4420.76   2
  -8   0  -7 5203.86 1575.09   3
   8   0   7 4614.10 1602.36   2
   8   0   8 644.879 463.819   2
  -8   0  -8 180.310 330.766   3
  -8   0  -9 6902.60 1792.01   3
   8   0   9 6667.60 1898.69   2
  -8   0 -10 5838.64 1745.98   3
   8   0  10 8602.67 2213.91   2
  -8   0 -11 2921.32 1237.60   3
   8   0  11 2213.19 1181.14   2
  -8   0 -12 2808.46 1293.04   3
   8   0  12 2710.46 1295.56   2
  -8   0 -13 10661.9 2598.39   3
   8   0  13 18890.9 3367.79   2
  -8   0 -14 2571.26 1314.56   3
   8   0  14 2488.96 1359.60   2
  -8   0 -15 10712.8 2654.88   3
  -8   0 -16 5450.37 1989.25   3
   8   1 -13 1407.34 1171.91   5
   8   1 -12 1467.04 940.754   2
   8   1 -12 399.057 730.419   5
   8   1 -11 9154.33 2744.34   5
   8   1 -11 10734.5 2452.05   2
   8   1 -10 24986.2 3805.65   2
   8   1 -10 16823.3 3616.34   5
   8   1  -9 6504.72 2142.60   5
   8   1  -9 8341.23 2166.74   2
   8   1  -8 8716.59 2345.79   5
   8   1  -8 7443.05 2061.53   2
   8   1  -7 22672.6 3506.47   2
   8   1  -7 22002.5 3811.53   5
   8   1  -7 27673.1 3281.61   4
   8   1  -6 348.703 596.062   2
   8   1  -6 49.1404 194.437   4
   8   1  -5 53922.1 5418.91   2
   8   1  -5 52793.9 4724.30   4
   8   1  -4 1856.55 992.843   2
   8   1  -4 1779.16 880.171   4
   8   1  -3 13018.6 2414.41   4
   8   1  -3 9594.28 2268.39   2
   8   1  -2 2217.29 1056.77   2
   8   1  -1 24553.0 3677.03   2
   8   1   0 24155.8 3596.49   2
  -8  -1  -1 3785.68 1310.38   3
   8   1   1 1882.53 1069.47   2
  -8  -1  -2 2676.98 972.254   3
   8   1   2 196.995 391.502   2
  -8  -1  -3 302.931 355.311   3
   8   1   3 1031.62 865.294   2
  -8  -1  -4 8600.81 1838.24   3
   8   1   4 14032.3 2776.61   2
  -8  -1  -5 1572.23 998.462   3
   8   1   5 1938.91 901.901   2
  -8  -1  -6-238.719 378.345   3
   8   1   6 2513.95 1237.96   2
  -8  -1  -7 23512.6 3261.61   3
   8   1   7 34891.2 4480.37   2
  -8  -1  -8 10195.6 2253.66   3
   8   1   8 14999.6 2975.18   2
  -8  -1  -9 720.888 690.447   3
   8   1   9 2737.95 1267.48   2
  -8  -1 -10 1436.81 1068.15   3
   8   1  10 1207.56 875.245   2
  -8  -1 -11 26600.2 3856.65   3
   8   1  11 39556.7 4926.98   2
   8   1  12 9690.19 2427.62   2
  -8  -1 -12 5573.56 1880.32   3
   8   1  13 14667.6 3023.14   2
  -8  -1 -13 10079.5 2480.20   3
  -8  -1 -14 8070.92 2341.39   3
  -8  -1 -15 8749.95 2498.04   3
   8   2 -13 1462.46 1474.29   5
   8   2 -12 16300.3 3865.64   5
   8   2 -11 1634.79 1740.83   5
   8   2 -10 25948.5 4423.98   5
   8   2  -9 926.648 613.624   4
   8   2  -9 450.502 667.826   5
   8   2  -8 3767.20 1230.02   4
   8   2  -8 1869.51 1119.62   5
   8   2  -7-112.696 245.990   4
   8   2  -7 2180.95 1305.08   5
   8   2  -6 13362.1 2360.48   4
   8   2  -6 11168.3 2495.28   2
   8   2  -6 9221.67 2362.94   5
   8   2  -5 796.004 588.629   4
   8   2  -5-984.791 745.359   2
   8   2  -5 242.610 453.124   5
   8   2  -4 1819.20 1056.76   2
   8   2  -4 360.358 528.478   5
   8   2  -4 836.792 628.147   4
   8   2  -3-272.963 424.448   2
   8   2  -3-541.120 504.688   4
   8   2  -2 434.151 509.493   2
   8   2  -2 721.018 580.678   4
   8   2  -1-251.228 406.075   2
   8   2  -1-57.6696 198.132   4
   8   2   0 58602.2 5742.15   2
   8   2   0 61816.9 5488.45   4
   8   2   1 813.087 632.837   2
   8   2   1 208.153 353.591   4
   8   2   2 48772.6 5249.82   2
  -8  -2  -3 1324.81 828.962   3
   8   2   3 274.391 434.640   2
   8   2   4 85687.6 7005.18   2
  -8  -2  -4 67313.3 5399.21   3
  -8  -2  -5 352.474 596.685   3
   8   2   5 749.935 746.142   2
  -8  -2  -6 854.462 636.513   3
   8   2   6 1645.01 863.782   2
  -8  -2  -7 1402.69 828.498   3
   8   2   7-246.560 324.181   2
  -8  -2  -8 47642.4 4890.72   3
  -8  -2  -9 240.423 412.691   3
  -8  -2 -10 996.130 763.456   3
  -8  -2 -11 872.676 746.340   3
  -8  -2 -12 3034.37 1492.77   3
  -8  -2 -13 1023.68 838.323   3
  -8  -2 -14 2418.59 1294.54   3
  -8  -2 -15-603.254 711.787   3
   8   3 -13 2096.55 1328.57   5
   8   3 -12-212.576 590.067   5
   8   3 -11 14384.6 2546.45   4
   8   3 -11 4886.64 1907.97   5
   8   3 -10 20861.6 4117.92   5
   8   3 -10 26396.6 3429.88   4
   8   3  -9 10205.4 2131.17   4
   8   3  -9 6865.78 2303.56   5
   8   3  -8 9702.40 2061.26   4
   8   3  -8 4339.84 1732.77   5
   8   3  -7 16382.7 3409.52   5
   8   3  -7 26625.6 3419.02   4
   8   3  -6 1041.91 681.351   4
   8   3  -6 1955.17 1185.75   5
   8   3  -5 32404.1 4318.11   5
   8   3  -5 42754.4 4404.19   4
   8   3  -4 2702.19 1142.75   4
   8   3  -4 2957.11 1484.94   5
   8   3  -3 9699.29 2077.96   4
   8   3  -3 7998.97 2079.30   5
   8   3  -2 1421.14 729.127   4
   8   3  -2 2577.90 1148.89   5
   8   3  -1 29135.5 3730.53   4
   8   3   0 30945.7 3913.27   4
   8   3   1 1957.44 984.941   4
   8   3   2 1513.32 882.054   4
   8   3   3 564.549 561.454   4
  -8  -3  -4 9504.86 2091.39   3
   8   3   4 12918.3 2647.81   4
  -8  -3  -5 1763.14 941.985   3
  -8  -3  -6 601.156 662.750   3
  -8  -3  -7 30331.5 3892.45   3
  -8  -3  -8 12171.2 2508.66   3
  -8  -3  -9 3031.00 1361.41   3
  -8  -3 -10 1183.41 940.413   3
  -8  -3 -11 28311.4 4085.46   3
  -8  -3 -12 10641.4 2685.39   3
  -8  -3 -13 11860.5 2843.51   3
  -8  -3 -14 10386.2 2642.85   3
   8   4 -13 2124.35 1038.15   4
   8   4 -13 506.621 823.514   5
   8   4 -12 12547.6 2454.25   4
   8   4 -12 10216.4 2977.65   5
   8   4 -11 13813.0 2570.12   4
   8   4 -11 6405.91 2249.71   5
   8   4 -10 2990.51 1323.63   4
   8   4 -10 2073.49 1282.60   5
   8   4  -9-760.907 618.926   4
   8   4  -9-437.533 649.859   5
   8   4  -8 14151.5 3171.43   5
   8   4  -8 23928.2 3397.76   4
   8   4  -7 39223.1 5164.65   5
   8   4  -7 51531.4 4990.61   4
   8   4  -6 8644.04 2027.36   4
   8   4  -6 8545.94 2331.82   5
   8   4  -5 10955.4 2278.97   4
   8   4  -5 6475.01 1968.32   5
   8   4  -4 636.578 492.863   4
   8   4  -4 1521.55 931.020   5
   8   4  -3 20705.4 3228.88   5
   8   4  -3 32476.5 3932.90   4
   8   4  -2 22668.2 3289.29   5
   8   4  -2 39665.2 4383.86   4
   8   4  -1 2389.54 1281.52   4
   8   4   0 1719.48 1043.39   4
   8   4   1 6623.54 1846.15   4
   8   4   2 17556.2 3065.40   4
   8   4   3 171.850 311.361   4
   8   4   4 10144.2 2352.21   4
  -8  -4  -5 2271.45 1055.77   3
   8   4   5 737.277 586.571   4
  -8  -4  -6 23391.8 3437.48   3
   8   4   6 31104.8 4368.76   4
  -8  -4  -7 6740.12 1877.07   3
  -8  -4  -8 728.535 665.100   3
  -8  -4  -9 5806.63 1764.53   3
  -8  -4 -10 7206.77 2081.04   3
  -8  -4 -11 2440.83 1236.64   3
  -8  -4 -12 775.464 836.830   3
  -8  -4 -13 12494.4 2911.49   3
   8   5 -15 1684.60 989.249   4
   8   5 -14 3775.32 1405.67   4
   8   5 -13 773.926 699.928   4
   8   5 -13 220.136 664.046   5
   8   5 -12 18576.2 4280.20   5
   8   5 -12 31836.0 4234.26   4
   8   5 -11 2011.95 1057.92   4
   8   5 -11 3174.32 1668.01   5
   8   5 -10 17059.6 3075.88   4
   8   5 -10 11801.9 3003.74   5
   8   5  -9 5925.55 1827.39   4
   8   5  -9 6946.13 2178.36   5
   8   5  -8 1158.59 798.057   4
   8   5  -8 1945.19 1315.58   5
   8   5  -7 1980.59 1023.27   4
   8   5  -7 331.891 591.074   5
   8   5  -6-659.490 607.562   4
   8   5  -6-107.895 433.075   5
   8   5  -5 5715.52 1700.97   4
   8   5  -5 240.000 485.238   5
   8   5  -4 882.504 681.687   4
   8   5  -3 1170.77 781.040   4
   8   5  -2 29176.4 3874.01   4
   8   5  -1 4978.21 1580.05   4
   8   5   0 1185.16 864.534   4
   8   5   1 1846.22 1000.68   4
   8   5   2 67466.4 6171.06   4
   8   5   3 1898.52 1034.58   4
   8   5   4 11246.7 2519.02   4
   8   5   5 934.184 755.867   4
  -8  -5  -6 30811.9 4099.41   3
   8   5   6 40334.3 4970.72   4
  -8  -5  -7 1331.83 881.058   3
   8   5   7 1524.68 1051.73   4
  -8  -5  -8 14425.7 2881.97   3
   8   5   8 14644.5 3151.61   4
  -8  -5  -9 8539.85 2288.62   3
  -8  -5 -10 4378.15 1706.68   3
  -8  -5 -11 2052.93 1157.68   3
   8   6 -12 363.327 734.435   5
   8   6 -11 1666.14 1046.92   4
   8   6 -11-123.488 504.843   5
   8   6 -10 800.857 729.382   4
   8   6 -10 298.755 665.704   5
   8   6  -9 5820.53 1867.27   4
   8   6  -9 2988.92 1327.41   5
   8   6  -8 2434.46 1276.12   4
   8   6  -8 6452.02 2222.14   5
   8   6  -7 27508.8 4051.40   4
   8   6  -6 15943.6 3013.85   4
   8   6  -5 43793.9 5061.86   4
   8   6  -4 2788.81 1363.94   4
   8   6  -3 29195.5 4104.80   4
   8   6  -2 1942.25 1042.21   4
   8   6  -1 35709.3 4474.65   4
   8   6   0-329.599 464.705   4
   8   6   1 465.026 536.781   4
   8   6   2 407.658 511.889   4
   8   6   3 5695.47 1804.64   4
   8   6   4 1222.63 872.332   4
   8   6   5 6174.89 1902.81   4
   8   6   6 4963.81 1759.46   4
  -8  -6  -7 2478.11 1384.68   3
   8   6   7 3677.96 1504.05   4
  -8  -6  -8-1446.78 963.406   3
   8   6   8 116.029 366.073   4
  -8  -6  -9 21484.9 3673.45   3
   8   6   9 27483.6 4413.38   4
   8   7  -5 53712.0 5865.83   4
   8   7  -4 5119.19 1803.14   4
   8   7  -3 2116.84 1136.68   4
   8   7  -2 2737.66 1287.93   4
   8   7  -1 9956.45 2445.93   4
   8   7   0 24132.5 3819.71   4
   8   7   1 5524.51 1777.45   4
   8   7   2 4882.97 1758.80   4
   8   7   3 5059.16 1841.52   4
   8   7   4 35810.8 4833.74   4
   8   7   5-331.658 510.479   4
   9   0  -8 2307.04 1216.32   2
   9   0  -7 265.492 463.540   2
   9   0  -6 2820.18 1312.29   2
   9   0  -5 3317.02 1437.47   2
   9   0  -4 2035.96 1154.41   2
   9   0  -3 91.1286 455.131   2
   9   0  -2 2395.62 1265.60   2
   9   0  -1 1629.36 1045.50   2
   9   0   0 417.535 241.254   2
   9   0   1 1401.98 971.034   2
   9   0   2 2256.22 1193.09   2
   9   0   3 3054.53 1459.50   2
   9   0   4 2081.79 1154.95   2
   9   0   5 702.689 696.881   2
   9   0   6 423.865 567.275   2
   9   0   7-464.094 577.774   2
   9   0   8 269.825 462.067   2
   9   0   9 1004.02 833.393   2
   9   1 -11 2256.87 1227.39   2
   9   1 -10 1873.26 1004.70   2
   9   1  -9 1828.49 1098.49   2
   9   1  -8 1643.15 1041.21   2
   9   1  -7 3166.83 1427.31   2
   9   1  -6 201.606 389.529   2
   9   1  -5-321.445 501.743   2
   9   1  -4-308.377 488.241   2
   9   1  -3 221.924 484.051   2
   9   1  -2 1260.21 907.127   2
   9   1  -1 2176.89 1157.65   2
   9   1   0 752.357 720.277   2
   9   1   1 3467.94 1486.22   2
   9   1   2 2166.21 1261.71   2
   9   1   3 2958.05 1352.72   2
   9   1   4 1563.36 1020.76   2
   9   1   5 13.4653 254.797   2
   9   1   6 914.017 723.430   2
   9   1   7 93.2674 336.170   2
   9   1   8 1854.45 1126.86   2
  -9  -1  -9 723.639 673.070   3
   9   1   9 1044.98 876.475   2
   9   1  10 1184.23 927.412   2
  -9  -1 -10 765.537 782.958   3
   9   1  11 1130.24 1115.30   2
  -9  -1 -11 1077.46 845.539   3
   9   1  12 198.880 461.714   2
  -9  -1 -12 1707.83 1082.87   3
  -9  -1 -13-1340.39 1006.53   3
   9   2 -10 2130.95 1375.31   5
   9   2  -9 2242.69 1364.77   5
   9   2  -8 6482.50 2207.01   5
   9   2  -7 5472.24 2107.14   5
   9   2  -6 762.217 633.817   4
   9   2  -5 1348.01 1145.11   2
   9   2  -5 725.618 424.214   4
   9   2  -4 4912.88 1817.21   2
   9   2  -4 4318.91 1494.02   4
   9   2  -3 975.243 705.506   2
   9   2  -3 1257.38 822.568   4
   9   2  -2 1793.12 1076.43   2
   9   2  -2 647.467 604.616   4
   9   2  -1-214.017 438.621   2
   9   2   0 1587.31 1023.50   2
  -9  -2  -1 573.595 526.771   3
   9   2   1-675.597 697.695   2
  -9  -2  -2 636.406 564.178   3
   9   2   2-731.858 722.691   2
  -9  -2  -3-482.779 501.556   3
   9   2   3 256.231 579.504   2
  -9  -2  -4-664.585 590.350   3
   9   2   4-902.039 800.634   2
  -9  -2  -5 396.015 769.441   3
   9   2   5-925.667 811.104   2
  -9  -2  -6 1472.26 875.248   3
  -9  -2  -7 1595.85 883.641   3
  -9  -2  -8 1148.95 813.055   3
  -9  -2  -9 2110.94 1335.42   3
  -9  -2 -10 2680.26 1287.78   3
  -9  -2 -11 1196.14 893.637   3
  -9  -2 -12-1094.29 890.563   3
   9   3 -10-513.386 767.670   5
   9   3  -9 1091.56 974.528   5
   9   3  -8 3033.22 1237.56   4
   9   3  -8 649.899 785.208   5
   9   3  -7-581.589 567.946   4
   9   3  -7-516.335 680.243   5
   9   3  -6-97.6438 291.554   4
   9   3  -6-226.439 493.263   5
   9   3  -5 28.2925 217.580   4
   9   3  -5-1714.25 1080.87   5
   9   3  -4 783.688 656.198   4
   9   3  -3 1786.01 970.564   4
   9   3  -2 433.336 585.397   4
   9   3  -1 902.274 536.757   4
   9   3   0 3496.12 1509.12   4
   9   3   1 9327.00 2380.83   4
   9   3   2 4064.46 1609.14   4
  -9  -3  -3 3234.95 1435.07   3
  -9  -3  -4 2598.67 1059.21   3
  -9  -3  -5 2202.07 1129.23   3
  -9  -3  -6 756.552 682.250   3
  -9  -3  -7 620.827 635.084   3
  -9  -3  -8-13.3064 264.326   3
  -9  -3  -9 1044.49 811.902   3
  -9  -3 -10 38.6539 500.783   3
  -9  -3 -11 1153.20 904.569   3
   9   4 -11 1507.96 1218.66   5
   9   4 -10 10932.8 2468.87   4
   9   4 -10 5723.71 2170.61   5
   9   4  -9 5759.72 1774.22   4
   9   4  -9 4820.68 1987.61   5
   9   4  -8-732.042 645.163   4
   9   4  -8 2827.51 1405.88   5
   9   4  -7 186.813 360.542   4
   9   4  -7 2791.90 1430.86   5
   9   4  -6 2804.24 1235.37   4
   9   4  -6-170.003 510.363   5
   9   4  -5 1166.54 810.035   4
   9   4  -4 836.692 692.843   4
   9   4  -3 294.194 426.770   4
   9   4  -2 135.000 338.755   4
   9   4  -1-56.4232 264.524   4
   9   4   0-813.143 707.908   4
   9   4   1 1371.55 998.480   4
   9   4   2-617.280 642.254   4
   9   4   3 3297.13 1446.50   4
  -9  -4  -4 815.357 684.937   3
   9   4   4 555.951 624.876   4
  -9  -4  -5 1072.52 971.052   3
  -9  -4  -6 33.1006 280.087   3
  -9  -4  -7-236.421 439.296   3
  -9  -4  -8 1891.91 1143.48   3
  -9  -4  -9 2014.76 1190.22   3
   9   5 -10 2202.78 1721.99   5
   9   5  -9 1558.03 915.035   4
   9   5  -8 2735.73 1285.35   4
   9   5  -7 1010.13 792.865   4
   9   5  -6 7956.23 2129.53   4
   9   5  -5-682.022 649.337   4
   9   5  -4 2166.93 1137.24   4
   9   5  -3 2686.94 1264.09   4
   9   5  -2 12108.8 2749.42   4
   9   5  -1 4016.68 1560.07   4
   9   5   0 507.158 587.100   4
   9   5   1-119.494 334.122   4
   9   5   2-491.775 592.996   4
   9   5   3-587.060 643.236   4
   9   5   4 737.370 713.994   4
  -9  -5  -5-73.6802 293.118   3
  -9  -5  -6 60.7950 301.441   3
  -9  -5  -7 908.432 714.571   3
  10   3  -5 4592.93 1681.11   4
  10   3  -4 75.1277 305.133   4
  10   3  -3 215.490 424.297   4
  10   3  -2 3560.23 1526.80   4
  10   3  -1 179.297 369.932   4
 -10  -3  -2 444.673 532.853   3
 -10  -3  -3 1702.23 929.372   3
 -10  -3  -4-280.951 479.063   3
 -10  -3  -5 8142.22 2101.13   3
 -10  -3  -6 888.979 782.950   3
 -10  -3  -7 3850.62 1564.50   3
 -10  -4  -3 4787.66 1666.10   3
 -10  -4  -4-190.361 435.623   3
   0   0   0    0.00    0.00   0
TITL P140421C in P-1
REM P-1 (#2 in standard setting)
CELL 0.71073   7.622561   8.033222  19.270935  89.7724  88.9016  76.3220
ZERR   16.00   0.000592   0.000682   0.001596   0.0068   0.0065   0.0070
LATT  1
SFAC C H N O Cu
UNIT 16.00 16.00 16.00 16.00 16.00
TREF
HKLF 4
END
;
_shelx_hkl_checksum              95963
_olex2_submission_special_instructions 'No special instructions were received'
#END Tags that were not found in dictionaries
loop_
_space_group_symop_operation_xyz
'x, y, z'
'-x, -y, -z'
loop_
_atom_site_label
_atom_site_type_symbol
_atom_site_fract_x
_atom_site_fract_y
_atom_site_fract_z
_atom_site_U_iso_or_equiv
_atom_site_adp_type
_atom_site_occupancy
_atom_site_site_symmetry_order
_atom_site_calc_flag
_atom_site_refinement_flags_posn
_atom_site_refinement_flags_adp
_atom_site_refinement_flags_occupancy
_atom_site_disorder_assembly
_atom_site_disorder_group
Cu1 Cu 1.21689(10) 0.68353(10) 0.47309(4) 0.0131(3) Uani 0.928(3) 1 d . . P A 1
Cu2 Cu 0.55616(19) 0.3142(2) 0.97327(8) 0.0131(4) Uani 0.5 1 d . . P . .
Cu3 Cu 1.06106(19) 0.3192(2) 0.97322(8) 0.0137(4) Uani 0.5 1 d . . P . .
S1 S 0.6145(2) 0.5245(2) 0.75278(9) 0.0164(4) Uani 1 1 d . . . . .
S2 S 1.1204(2) 0.5353(2) 0.74708(9) 0.0170(4) Uani 1 1 d . . . . .
O17 O 1.0739(6) 1.0001(5) 0.6828(2) 0.0176(11) Uani 1 1 d . U . . .
O10 O 0.7329(6) 0.4469(6) 0.6124(2) 0.0191(11) Uani 1 1 d . . . . .
O14 O 1.0344(7) 0.4632(7) 0.8902(3) 0.0300(13) Uani 1 1 d . . . . .
O3 O 0.9588(5) 0.6923(6) 0.4677(2) 0.0178(11) Uani 1 1 d . . . . .
O19 O 1.2428(6) 0.4849(6) 0.6030(2) 0.0192(11) Uani 1 1 d . . . . .
O2 O 1.4734(5) 0.6850(6) 0.4769(2) 0.0201(12) Uani 1 1 d . . . . .
O8 O 0.5745(6) 0.9773(6) 0.6766(3) 0.0228(12) Uani 1 1 d . . . . .
O7 O 0.4278(6) 0.9895(6) 0.8171(3) 0.0236(12) Uani 1 1 d . . . . .
O16 O 0.9347(6) 0.9899(6) 0.8235(3) 0.0244(12) Uani 1 1 d . . . . .
O13 O 1.3099(6) 0.3075(6) 0.9727(3) 0.0244(12) Uani 1 1 d . . . . .
O18 O 1.1812(6) 0.7625(6) 0.5701(2) 0.0183(11) Uani 1 1 d . . . . .
O5 O 0.5248(6) 0.4690(7) 0.8942(3) 0.0342(14) Uani 1 1 d . . . . .
O11 O 0.8097(5) 0.3143(6) 0.9718(3) 0.0228(12) Uani 1 1 d . . . . .
O1 O 1.1575(6) 0.9583(6) 0.4380(2) 0.0215(11) Uani 1 1 d . . . . .
O9 O 0.7532(7) 0.7112(6) 0.5798(3) 0.0314(13) Uani 1 1 d . . . . .
O15 O 0.9186(8) 0.7310(9) 0.9245(3) 0.065(2) Uani 1 1 d . . . . .
C10 C 1.0273(8) 0.6823(9) 0.8099(3) 0.0150(15) Uani 1 1 d . . . . .
C0AA C 1.1346(8) 0.6921(8) 0.6877(3) 0.0131(14) Uani 1 1 d . U . . .
C2 C 0.5197(8) 0.6815(8) 0.8120(3) 0.0146(15) Uani 1 1 d . . . . .
C7 C 0.6363(8) 0.6713(8) 0.6901(3) 0.0138(14) Uani 1 1 d . . . . .
C8 C 0.7141(8) 0.6067(9) 0.6219(4) 0.0176(15) Uani 1 1 d . . . . .
C4 C 0.4779(10) 1.1376(9) 0.7843(4) 0.0268(18) Uani 1 1 d . . . . .
C14 C 1.0728(7) 0.8524(8) 0.7159(3) 0.0115(14) Uani 1 1 d . . . . .
C3 C 0.5022(8) 0.8411(8) 0.7838(4) 0.0145(15) Uani 1 1 d . . . . .
C2AA C 0.9505(9) 1.1492(9) 0.7156(4) 0.0233(17) Uani 1 1 d . . . . .
C6 C 0.5734(8) 0.8369(9) 0.7137(4) 0.0182(16) Uani 1 1 d . . . . .
C5 C 0.4558(9) 1.1333(8) 0.7059(4) 0.0246(18) Uani 1 1 d . . . . .
C12 C 0.9764(9) 1.1446(9) 0.7931(4) 0.0252(18) Uani 1 1 d . . . . .
C1AA C 1.0074(8) 0.8465(8) 0.7865(4) 0.0147(15) Uani 1 1 d . . . . .
C16 C 1.1917(8) 0.6422(9) 0.6156(4) 0.0191(17) Uani 1 1 d . . . . .
C1 C 0.4811(9) 0.6268(11) 0.8826(4) 0.0256(17) Uani 1 1 d . U . . .
C9 C 0.9891(8) 0.6222(10) 0.8799(4) 0.0244(18) Uani 1 1 d . . . . .
O6 O 0.4162(8) 0.7445(9) 0.9261(3) 0.0622(19) Uani 1 1 d . U . . .
O4 O 0.6229(12) 0.0385(10) 0.9396(5) 0.108(4) Uani 1 1 d . . . . .
O12 O 1.1229(12) 0.0354(10) 0.9452(5) 0.111(4) Uani 1 1 d . . . . .
O0AA O 0.4232(16) 1.0168(14) 0.5374(6) 0.050(4) Uani 0.5 1 d . . P . .
Cu1' Cu 1.7164(17) 0.6796(18) 0.4736(7) 0.034(5) Uani 0.072(3) 1 d . U P A 2
loop_
_atom_site_aniso_label
_atom_site_aniso_U_11
_atom_site_aniso_U_22
_atom_site_aniso_U_33
_atom_site_aniso_U_23
_atom_site_aniso_U_13
_atom_site_aniso_U_12
Cu1 0.0149(5) 0.0106(5) 0.0134(5) 0.0007(4) 0.0013(3) -0.0021(4)
Cu2 0.0152(8) 0.0097(8) 0.0133(9) 0.0022(7) 0.0002(6) -0.0010(7)
Cu3 0.0155(8) 0.0113(9) 0.0141(10) 0.0028(7) -0.0004(6) -0.0027(7)
S1 0.0200(9) 0.0105(9) 0.0182(10) 0.0053(7) -0.0014(7) -0.0027(7)
S2 0.0201(9) 0.0106(9) 0.0199(10) 0.0041(7) -0.0024(7) -0.0025(7)
O17 0.024(2) 0.007(2) 0.022(3) 0.0073(19) -0.0003(19) -0.0042(18)
O10 0.022(2) 0.014(3) 0.020(3) -0.003(2) 0.000(2) -0.001(2)
O14 0.039(3) 0.034(3) 0.026(3) 0.023(2) -0.014(2) -0.024(3)
O3 0.015(2) 0.019(3) 0.021(3) -0.001(2) -0.0006(19) -0.0072(19)
O19 0.020(2) 0.014(3) 0.022(3) -0.004(2) 0.001(2) -0.001(2)
O2 0.011(2) 0.020(3) 0.028(3) -0.005(2) -0.001(2) 0.000(2)
O8 0.038(3) 0.009(3) 0.021(3) 0.005(2) 0.003(2) -0.005(2)
O7 0.029(3) 0.017(3) 0.025(3) -0.007(2) 0.002(2) -0.006(2)
O16 0.029(3) 0.021(3) 0.021(3) -0.005(2) 0.005(2) -0.002(2)
O13 0.020(2) 0.019(3) 0.033(3) 0.013(2) 0.002(2) -0.003(2)
O18 0.023(2) 0.021(3) 0.013(3) 0.001(2) 0.002(2) -0.010(2)
O5 0.025(3) 0.047(4) 0.035(4) 0.031(3) -0.007(2) -0.016(3)
O11 0.016(2) 0.016(3) 0.036(3) 0.012(2) 0.000(2) -0.002(2)
O1 0.026(2) 0.012(3) 0.025(3) 0.010(2) 0.000(2) -0.002(2)
O9 0.054(3) 0.023(3) 0.020(3) -0.004(2) 0.021(3) -0.017(3)
O15 0.069(4) 0.062(5) 0.030(4) 0.032(3) 0.030(3) 0.047(4)
C10 0.017(3) 0.017(4) 0.010(4) 0.002(3) 0.006(3) -0.004(3)
C0AA 0.015(3) 0.012(3) 0.013(3) 0.009(2) -0.001(2) -0.006(2)
C2 0.011(3) 0.017(4) 0.015(4) 0.005(3) 0.004(3) 0.000(3)
C7 0.020(3) 0.008(3) 0.012(4) -0.001(3) 0.001(3) -0.001(3)
C8 0.015(3) 0.021(4) 0.016(4) 0.001(3) 0.003(3) -0.001(3)
C4 0.035(4) 0.013(4) 0.033(5) 0.004(3) -0.003(3) -0.008(3)
C14 0.006(3) 0.007(3) 0.022(4) 0.004(3) -0.002(3) -0.002(3)
C3 0.014(3) 0.013(4) 0.016(4) 0.000(3) -0.001(3) -0.003(3)
C2AA 0.021(4) 0.013(4) 0.032(5) -0.004(3) 0.000(3) 0.003(3)
C6 0.007(3) 0.014(4) 0.033(5) 0.001(3) 0.000(3) -0.001(3)
C5 0.024(4) 0.010(4) 0.038(5) 0.001(3) -0.005(3) 0.001(3)
C12 0.027(4) 0.019(4) 0.030(5) -0.001(4) -0.005(3) -0.006(3)
C1AA 0.012(3) 0.015(4) 0.016(4) -0.002(3) 0.000(3) -0.002(3)
C16 0.006(3) 0.024(4) 0.027(5) -0.010(4) 0.004(3) -0.005(3)
C1 0.017(3) 0.040(4) 0.017(3) 0.011(3) -0.003(3) -0.002(3)
C9 0.009(3) 0.033(5) 0.029(5) 0.005(4) -0.004(3) -0.002(3)
O6 0.063(3) 0.066(4) 0.033(3) 0.021(3) 0.022(3) 0.033(3)
O4 0.123(7) 0.060(5) 0.130(9) -0.025(6) -0.078(6) 0.009(5)
O12 0.124(7) 0.052(5) 0.142(9) -0.026(6) -0.079(6) 0.018(5)
O0AA 0.083(9) 0.028(7) 0.049(8) 0.022(6) -0.042(7) -0.027(6)
Cu1' 0.034(5) 0.034(5) 0.034(5) -0.0003(10) -0.0006(10) -0.0082(15)
loop_
_atom_type_symbol
_atom_type_description
_atom_type_scat_dispersion_real
_atom_type_scat_dispersion_imag
_atom_type_scat_source
C C 0.0033 0.0016 'International Tables Vol C Tables 4.2.6.8 and 6.1.1.4'
H H 0.0000 0.0000 'International Tables Vol C Tables 4.2.6.8 and 6.1.1.4'
Cu Cu 0.3201 1.2651 'International Tables Vol C Tables 4.2.6.8 and 6.1.1.4'
O O 0.0106 0.0060 'International Tables Vol C Tables 4.2.6.8 and 6.1.1.4'
S S 0.1246 0.1234 'International Tables Vol C Tables 4.2.6.8 and 6.1.1.4'
loop_
_geom_angle_atom_site_label_1
_geom_angle_atom_site_label_2
_geom_angle_atom_site_label_3
_geom_angle
_geom_angle_site_symmetry_1
_geom_angle_site_symmetry_3
O10 Cu1 O3 91.54(18) 2_766 .
O10 Cu1 O2 88.97(18) 2_766 .
O10 Cu1 O18 166.5(2) 2_766 .
O10 Cu1 O1 104.08(19) 2_766 .
O3 Cu1 O2 177.5(2) . .
O3 Cu1 O18 89.74(18) . .
O3 Cu1 O1 88.60(18) . .
O2 Cu1 O18 90.34(18) . .
O2 Cu1 O1 88.89(18) . .
O18 Cu1 O1 89.36(19) . .
O13 Cu2 O5 91.5(2) 1_455 .
O13 Cu2 O11 178.1(2) 1_455 .
O13 Cu2 O6 93.9(3) 1_455 2_667
O13 Cu2 O4 87.7(3) 1_455 .
O5 Cu2 O6 154.5(3) . 2_667
O5 Cu2 O4 111.7(3) . .
O11 Cu2 O5 88.6(2) . .
O11 Cu2 O6 86.9(2) . 2_667
O11 Cu2 O4 90.5(3) . .
O6 Cu2 O4 93.5(3) 2_667 .
O14 Cu3 Cu3 75.11(17) . 2_767
O14 Cu3 O15 155.9(3) . 2_767
O14 Cu3 O12 111.4(3) . .
O13 Cu3 Cu3 96.99(16) . 2_767
O13 Cu3 O14 90.2(2) . .
O13 Cu3 O11 175.9(2) . .
O13 Cu3 O15 87.0(2) . 2_767
O13 Cu3 O12 89.2(3) . .
O11 Cu3 Cu3 87.08(15) . 2_767
O11 Cu3 O14 91.1(2) . .
O11 Cu3 O15 93.4(3) . 2_767
O11 Cu3 O12 86.7(3) . .
O15 Cu3 Cu3 81.4(2) 2_767 2_767
O15 Cu3 O12 92.5(3) 2_767 .
O12 Cu3 Cu3 171.1(3) . 2_767
C7 S1 C2 92.8(3) . .
C0AA S2 C10 92.6(3) . .
C14 O17 C2AA 112.5(5) . .
C8 O10 Cu1 129.1(5) . 2_766
C9 O14 Cu3 134.1(5) . .
C16 O19 Cu1' 141.9(7) . 2_866
C6 O8 C5 113.2(6) . .
C3 O7 C4 112.4(5) . .
C1AA O16 C12 112.8(5) . .
Cu3 O13 Cu2 175.6(3) . 1_655
C16 O18 Cu1 114.9(4) . .
C1 O5 Cu2 138.7(5) . .
Cu3 O11 Cu2 178.0(3) . .
C8 O9 Cu1' 119.2(6) . 1_455
C9 O15 Cu3 122.0(5) . 2_767
C1AA C10 S2 111.5(5) . .
C1AA C10 C9 128.9(6) . .
C9 C10 S2 119.4(5) . .
C14 C0AA S2 111.1(5) . .
C14 C0AA C16 129.5(6) . .
C16 C0AA S2 119.1(5) . .
C3 C2 S1 110.9(5) . .
C3 C2 C1 131.3(6) . .
C1 C2 S1 117.7(5) . .
C8 C7 S1 118.2(5) . .
C6 C7 S1 111.4(5) . .
C6 C7 C8 130.4(7) . .
O10 C8 C7 115.1(6) . .
O9 C8 O10 126.7(6) . .
O9 C8 C7 118.1(6) . .
O7 C4 C5 110.4(5) . .
O17 C14 C0AA 124.7(6) . .
O17 C14 C1AA 122.9(5) . .
C0AA C14 C1AA 112.4(6) . .
O7 C3 C2 124.6(6) . .
O7 C3 C6 122.3(6) . .
C2 C3 C6 113.1(6) . .
O17 C2AA C12 110.0(6) . .
O8 C6 C7 124.7(7) . .
O8 C6 C3 123.6(6) . .
C7 C6 C3 111.7(6) . .
O8 C5 C4 110.2(6) . .
O16 C12 C2AA 110.8(5) . .
O16 C1AA C14 122.4(6) . .
C10 C1AA O16 125.3(6) . .
C10 C1AA C14 112.3(6) . .
O19 C16 O18 125.0(6) . .
O19 C16 C0AA 117.0(7) . .
O18 C16 C0AA 118.0(6) . .
O5 C1 C2 116.3(7) . .
O6 C1 O5 126.8(8) . .
O6 C1 C2 116.8(7) . .
O14 C9 C10 116.7(7) . .
O15 C9 O14 124.9(8) . .
O15 C9 C10 118.4(7) . .
C1 O6 Cu2 117.5(5) . 2_667
O3 Cu1' O19 90.3(6) 1_655 2_866
O3 Cu1' O9 82.7(5) 1_655 1_655
O19 Cu1' O9 144.7(8) 2_866 1_655
O2 Cu1' O3 175.4(9) . 1_655
O2 Cu1' O19 91.5(6) . 2_866
O2 Cu1' O9 98.3(6) . 1_655
loop_
_geom_bond_atom_site_label_1
_geom_bond_atom_site_label_2
_geom_bond_distance
_geom_bond_site_symmetry_2
Cu1 O10 1.938(4) 2_766
Cu1 O3 1.957(4) .
Cu1 O2 1.961(4) .
Cu1 O18 1.970(4) .
Cu1 O1 2.250(5) .
Cu2 O13 1.891(4) 1_455
Cu2 O5 1.945(6) .
Cu2 O11 1.933(4) .
Cu2 O6 1.997(6) 2_667
Cu2 O4 2.247(8) .
Cu3 Cu3 3.013(3) 2_767
Cu3 O14 1.957(5) .
Cu3 O13 1.877(4) .
Cu3 O11 1.926(4) .
Cu3 O15 2.012(6) 2_767
Cu3 O12 2.281(8) .
S1 C2 1.722(6) .
S1 C7 1.718(7) .
S2 C10 1.717(6) .
S2 C0AA 1.719(7) .
O17 C14 1.347(8) .
O17 C2AA 1.472(7) .
O10 Cu1 1.938(4) 2_766
O10 C8 1.271(8) .
O14 C9 1.257(9) .
O3 Cu1' 1.875(13) 1_455
O19 C16 1.255(8) .
O19 Cu1' 1.957(13) 2_866
O2 Cu1' 1.843(13) .
O8 C6 1.335(8) .
O8 C5 1.469(8) .
O7 C4 1.470(9) .
O7 C3 1.352(7) .
O16 C12 1.470(9) .
O16 C1AA 1.354(7) .
O13 Cu2 1.891(4) 1_655
O18 C16 1.291(9) .
O5 C1 1.253(9) .
O9 C8 1.247(8) .
O9 Cu1' 2.096(15) 1_455
O15 Cu3 2.012(6) 2_767
O15 C9 1.249(9) .
C10 C1AA 1.367(9) .
C10 C9 1.477(10) .
C0AA C14 1.373(8) .
C0AA C16 1.476(9) .
C2 C3 1.369(9) .
C2 C1 1.473(10) .
C7 C8 1.475(9) .
C7 C6 1.380(8) .
C4 C5 1.524(10) .
C14 C1AA 1.444(9) .
C3 C6 1.443(10) .
C2AA C12 1.511(10) .
C1 O6 1.270(9) .
O6 Cu2 1.997(6) 2_667
O0AA O0AA 1.82(3) 2_676
Cu1' O3 1.875(13) 1_655
Cu1' O19 1.957(13) 2_866
Cu1' O9 2.096(15) 1_655
