#------------------------------------------------------------------------------
#$Date: 2015-07-16 18:05:34 +0300 (Thu, 16 Jul 2015) $
#$Revision: 152130 $
#$URL: svn://www.crystallography.net/cod/cif/7/11/75/7117548.cif $
#------------------------------------------------------------------------------
#
# This file is available in the Crystallography Open Database (COD),
# http://www.crystallography.net/
#
# All data on this site have been placed in the public domain by the
# contributors.
#
data_7117548
loop_
_publ_author_name
'L. H. Blair'
'A. Colakel'
'R. M. Vrcelj'
'I. Sinclair'
'S. J. Coles'
_publ_section_title
;
 Metal-organic fireworks: MOFs as integrated structural scaffolds for
 pyrotechnic materials
;
_journal_name_full               Chem.Commun.
_journal_page_first              12185
_journal_paper_doi               10.1039/C5cc04174K
_journal_volume                  51
_journal_year                    2015
_chemical_formula_moiety         'C8 H2 F4 N O8 Sr, C5 H6 N'
_chemical_formula_sum            'C13 H8 F4 N2 O8 Sr'
_chemical_formula_weight         483.83
_chemical_name_systematic
;
 ?
;
_space_group_crystal_system      triclinic
_space_group_IT_number           2
_space_group_name_Hall           '-P 1'
_space_group_name_H-M_alt        'P -1'
_symmetry_space_group_name_Hall  '-P 1'
_symmetry_space_group_name_H-M   'P -1'
_atom_sites_solution_hydrogens   mixed
_atom_sites_solution_primary     iterative
_audit_creation_date             2015-01-29
_audit_creation_method
;
Olex2 1.2
(compiled 2015.01.19 svn.r3143 for OlexSys, GUI svn.r4992)
;
_audit_update_record
;
2015-01-30 deposited with the CCDC.
2015-06-23 downloaded from the CCDC.
;
_cell_angle_alpha                101.118(6)
_cell_angle_beta                 93.830(5)
_cell_angle_gamma                110.526(6)
_cell_formula_units_Z            2
_cell_length_a                   7.3008(5)
_cell_length_b                   9.1264(5)
_cell_length_c                   13.1904(9)
_cell_measurement_reflns_used    0
_cell_measurement_temperature    100(2)
_cell_measurement_theta_max      27.5
_cell_measurement_theta_min      3.0
_cell_volume                     798.95(10)
_computing_cell_refinement
'CrystalClear-SM Expert 3.1 b27 (Rigaku, 2013)'
_computing_data_collection
'CrystalClear-SM Expert 3.1 b27 (Rigaku, 2013)'
_computing_data_reduction
'CrystalClear-SM Expert 3.1 b27 (Rigaku, 2013)'
_computing_molecular_graphics    'Olex2 (Dolomanov et al., 2009)'
_computing_publication_material  'Olex2 (Dolomanov et al., 2009)'
_computing_structure_refinement  'ShelXL (Sheldrick, 2008)'
_computing_structure_solution
;
Superflip (Palatinus & Chapuis, 2007;Palatinus & van der Lee, 2008;
Palatinus et al., 2012)
;
_diffrn_ambient_temperature      100(2)
_diffrn_detector                 'CCD area detector'
_diffrn_detector_area_resol_mean 28.5714
_diffrn_detector_type            'Rigaku HG Saturn724+ (2x2 bin mode)'
_diffrn_measured_fraction_theta_full 0.997
_diffrn_measured_fraction_theta_max 0.993
_diffrn_measurement_details
;
scan:
    Number of images: 100
               Slice: -27.0000 - 73.0000
         Image width: 1.0000
            Exp time: 10.0000
       Rotation axis: Omega
               Omega: 0.0000
               Kappa: 72.0000
                 Phi: 30.0000
                 XTD: 44.9964
              2theta: -16.9437
scan:
    Number of images: 91
               Slice: -69.0000 - 22.0000
         Image width: 1.0000
            Exp time: 10.0000
       Rotation axis: Omega
               Omega: 0.0000
               Kappa: -72.0000
                 Phi: -90.0000
                 XTD: 44.9964
              2theta: -16.9437
scan:
    Number of images: 88
               Slice: -66.0000 - 22.0000
         Image width: 1.0000
            Exp time: 10.0000
       Rotation axis: Omega
               Omega: 0.0000
               Kappa: -72.0000
                 Phi: 90.0000
                 XTD: 44.9964
              2theta: -16.9437
scan:
    Number of images: 69
               Slice: -81.0000 - -12.0000
         Image width: 1.0000
            Exp time: 10.0000
       Rotation axis: Omega
               Omega: 0.0000
               Kappa: 0.0000
                 Phi: 90.0000
                 XTD: 44.9964
              2theta: -16.9437
scan:
    Number of images: 15
               Slice: -41.0000 - -26.0000
         Image width: 1.0000
            Exp time: 10.0000
       Rotation axis: Omega
               Omega: 0.0000
               Kappa: 72.0000
                 Phi: -120.0000
                 XTD: 44.9964
              2theta: -16.9437
scan:
    Number of images: 180
               Slice: -107.0000 - 73.0000
         Image width: 1.0000
            Exp time: 10.0000
       Rotation axis: Omega
               Omega: 0.0000
               Kappa: 0.0000
                 Phi: -90.0000
                 XTD: 44.9964
              2theta: -16.9437
scan:
    Number of images: 17
               Slice: -50.0000 - -33.0000
         Image width: 1.0000
            Exp time: 10.0000
       Rotation axis: Omega
               Omega: 0.0000
               Kappa: -72.0000
                 Phi: 60.0000
                 XTD: 44.9964
              2theta: -16.9437
;
_diffrn_measurement_device       'four-circle \k diffractometer'
_diffrn_measurement_device_type  'Rigaku AFC12 (Right)'
_diffrn_measurement_method       'profile data from \w-scans'
_diffrn_measurement_specimen_support 'MiTeGen MicroMesh'
_diffrn_orient_matrix_type       d*Trek
_diffrn_orient_matrix_UB_11      0.142122
_diffrn_orient_matrix_UB_12      0.039598
_diffrn_orient_matrix_UB_13      0.009592
_diffrn_orient_matrix_UB_21      0.012291
_diffrn_orient_matrix_UB_22      0.113319
_diffrn_orient_matrix_UB_23      0.038359
_diffrn_orient_matrix_UB_31      0.008878
_diffrn_orient_matrix_UB_32      -0.007910
_diffrn_orient_matrix_UB_33      0.077192
_diffrn_radiation_collimation    0.3
_diffrn_radiation_monochromator  'Confocal mirrors, VHF Varimax'
_diffrn_radiation_probe          x-ray
_diffrn_radiation_type           MoK\a
_diffrn_radiation_wavelength     0.71075
_diffrn_reflns_av_R_equivalents  0.0868
_diffrn_reflns_av_unetI/netI     0.0669
_diffrn_reflns_laue_measured_fraction_full 0.997
_diffrn_reflns_laue_measured_fraction_max 0.993
_diffrn_reflns_limit_h_max       9
_diffrn_reflns_limit_h_min       -8
_diffrn_reflns_limit_k_max       11
_diffrn_reflns_limit_k_min       -11
_diffrn_reflns_limit_l_max       17
_diffrn_reflns_limit_l_min       -17
_diffrn_reflns_number            10036
_diffrn_reflns_point_group_measured_fraction_full 0.997
_diffrn_reflns_point_group_measured_fraction_max 0.993
_diffrn_reflns_theta_full        25.242
_diffrn_reflns_theta_max         27.488
_diffrn_reflns_theta_min         3.012
_diffrn_source                   'Rotating Anode'
_diffrn_source_current           55.0
_diffrn_source_power             2.475
_diffrn_source_target            Mo
_diffrn_source_type              'Rotating Anode'
_diffrn_source_voltage           45.0
_exptl_absorpt_coefficient_mu    3.469
_exptl_absorpt_correction_T_max  1.000
_exptl_absorpt_correction_T_min  0.253
_exptl_absorpt_correction_type   multi-scan
_exptl_absorpt_process_details
'CrystalClear-SM Expert 3.1 b27 (Rigaku, 2013)'
_exptl_crystal_colour            Colorless
_exptl_crystal_density_diffrn    2.011
_exptl_crystal_description       Block
_exptl_crystal_F_000             476
_exptl_crystal_size_max          0.14
_exptl_crystal_size_mid          0.04
_exptl_crystal_size_min          0.02
_refine_diff_density_max         1.667
_refine_diff_density_min         -2.458
_refine_diff_density_rms         0.194
_refine_ls_extinction_coef       .
_refine_ls_extinction_method     none
_refine_ls_goodness_of_fit_ref   1.036
_refine_ls_hydrogen_treatment    constr
_refine_ls_matrix_type           full
_refine_ls_number_parameters     254
_refine_ls_number_reflns         3656
_refine_ls_number_restraints     0
_refine_ls_restrained_S_all      1.036
_refine_ls_R_factor_all          0.0605
_refine_ls_R_factor_gt           0.0574
_refine_ls_shift/su_max          0.001
_refine_ls_shift/su_mean         0.000
_refine_ls_structure_factor_coef Fsqd
_refine_ls_weighting_details
'w=1/[\s^2^(Fo^2^)+(0.1149P)^2^] where P=(Fo^2^+2Fc^2^)/3'
_refine_ls_weighting_scheme      calc
_refine_ls_wR_factor_gt          0.1482
_refine_ls_wR_factor_ref         0.1525
_reflns_Friedel_coverage         0.000
_reflns_friedel_fraction_full    .
_reflns_friedel_fraction_max     .
_reflns_number_gt                3403
_reflns_number_total             3656
_reflns_threshold_expression     'I > 2\s(I)'
_cod_data_source_file            c5cc04174k2.cif
_cod_data_source_block           sr_isofbdc_2
_cod_original_cell_volume        798.95(9)
_cod_database_code               7117548
_shelxl_version_number           2013-3
_shelx_space_group_comment
;
The symmetry employed for this shelxl refinement is uniquely defined
by the following loop, which should always be used as a source of
symmetry information in preference to the above space-group names.
They are only intended as comments.
;
_olex2_refinement_description
;
1. Fixed Uiso
 At 1.2 times of:
  All C(H) groups, All N(H) groups
 At 1.5 times of:
  All O(H,H) groups
2.a Rotating group:
 O1W(H1WA,H1WB)
2.b Aromatic/amide H refined with riding coordinates:
 N101(H101), C101(H10A), C102(H102), C103(H103), C104(H104), C105(H105)
;
_shelx_res_file
;
TITL 2014lhb067b
CELL 0.71075 7.3008 9.1264 13.1904 101.118 93.83 110.526
ZERR 2 0.0005 0.0005 0.0009 0.006 0.005 0.006
LATT 1
SFAC C H F N O Sr
UNIT 26 16 8 4 16 2
EQIV $1 -X,-Y,-Z
EQIV $2 1-X,-Y,-Z
EQIV $3 1-X,1-Y,-Z

L.S. 4 0 0
PLAN  20
TEMP -173(2)
HTAB O1W O3_$1
HTAB O1W O11_$2
HTAB N101 O1W_$3
FREE Sr1 N11
MORE -1
BOND $H
CONF
fmap 2 53
acta
REM <olex2.extras>
REM <HklSrc "%.\\Sr_isofBDC.hkl">
REM </olex2.extras>

WGHT    0.114900
FVAR       4.40891
SR1   6    0.722856    0.396049    0.040575    11.00000    0.01507    0.01414 =
         0.01935    0.00237    0.00399    0.00371
F1    3    0.131053    0.448476    0.322750    11.00000    0.02906    0.01488 =
         0.02527   -0.00442    0.00612    0.00537
F2    3    0.006898    0.219633    0.432960    11.00000    0.03081    0.02571 =
         0.01838   -0.00069    0.00800    0.00624
F3    3   -0.034315   -0.085289    0.348903    11.00000    0.02981    0.02207 =
         0.02716    0.00883    0.00897    0.00476
F4    3    0.193046    0.067897    0.044240    11.00000    0.02325    0.02141 =
         0.02082    0.00206    0.00795    0.00695
O1    5    0.390068    0.431920    0.087237    11.00000    0.01575    0.01884 =
         0.02222    0.00406    0.00529    0.00371
O1W   5    0.434753    0.195490   -0.104441    11.00000    0.01924    0.01549 =
         0.02343    0.00223    0.00606    0.00407
AFIX   7
H1WA  2    0.331853    0.222929   -0.101191    11.00000   -1.50000
H1WB  2    0.403894    0.098410   -0.094492    11.00000   -1.50000
AFIX   0
O2    5    0.087604    0.436221    0.091028    11.00000    0.01717    0.02323 =
         0.02556    0.00743    0.00563    0.00720
O3    5   -0.129000   -0.296947    0.135891    11.00000    0.01909    0.01725 =
         0.02509    0.00390    0.00566    0.00469
O4    5    0.188079   -0.215179    0.106848    11.00000    0.02228    0.02030 =
         0.03887    0.00018    0.00998    0.00769
O11   5    0.651245    0.136891    0.122958    11.00000    0.03127    0.02062 =
         0.02163    0.00351    0.00816    0.00698
O12   5    0.677408    0.351192    0.237926    11.00000    0.03504    0.01993 =
         0.02871    0.00320    0.00651    0.01056
O13   5    0.595172    0.120719    0.281502    11.00000    0.03813    0.02669 =
         0.02306    0.00873    0.01042    0.00888
N11   4    0.640385    0.201993    0.215404    11.00000    0.01950    0.02056 =
         0.02231    0.00217    0.00346    0.00718
C1    1    0.221127    0.387962    0.114673    11.00000    0.01722    0.01344 =
         0.02146    0.00069    0.00134    0.00428
C2    1    0.166828    0.262438    0.180045    11.00000    0.01558    0.01361 =
         0.02282    0.00051    0.00249    0.00176
C3    1    0.115385    0.298068    0.278472    11.00000    0.01739    0.01470 =
         0.02389   -0.00086    0.00383    0.00366
C4    1    0.050327    0.181556    0.335150    11.00000    0.01916    0.02302 =
         0.01471   -0.00065    0.00375    0.00558
C5    1    0.028483    0.025049    0.290869    11.00000    0.01902    0.02052 =
         0.02138    0.00541    0.00365    0.00436
C6    1    0.073460   -0.019944    0.192220    11.00000    0.01611    0.01732 =
         0.02101    0.00100    0.00314    0.00446
C7    1    0.042855   -0.193250    0.141052    11.00000    0.02087    0.01672 =
         0.01908    0.00141    0.00264    0.00453
C8    1    0.145692    0.104427    0.140130    11.00000    0.01634    0.01891 =
         0.01785    0.00152    0.00337    0.00367

N101  4    0.476326    0.753668    0.293397    11.00000    0.02770    0.02219 =
         0.02061    0.00205    0.00500    0.00342
AFIX  43
H101  2    0.471816    0.766649    0.229002    11.00000   -1.20000
AFIX   0
C101  1    0.580789    0.669302    0.322503    11.00000    0.02234    0.02080 =
         0.02859   -0.00195    0.00547    0.00197
AFIX  43
H10A  2    0.647526    0.624252    0.273613    11.00000   -1.20000
AFIX   0
C102  1    0.591240    0.648113    0.422649    11.00000    0.03164    0.02932 =
         0.03339    0.00843    0.00141    0.00932
AFIX  43
H102  2    0.665359    0.589165    0.443858    11.00000   -1.20000
AFIX   0
C103  1    0.491267    0.714575    0.492495    11.00000    0.03637    0.02659 =
         0.02458    0.00399    0.00538    0.00410
AFIX  43
H103  2    0.497506    0.701736    0.562266    11.00000   -1.20000
AFIX   0
C104  1    0.382748    0.799347    0.460594    11.00000    0.03071    0.02441 =
         0.02832   -0.00103    0.01042    0.00323
AFIX  43
H104  2    0.312188    0.843503    0.507495    11.00000   -1.20000
AFIX   0
C105  1    0.378999    0.818497    0.359406    11.00000    0.02246    0.02482 =
         0.03145    0.00212    0.00410    0.00497
AFIX  43
H105  2    0.307108    0.877894    0.336460    11.00000   -1.20000
AFIX   0
HKLF 4

REM  2014lhb067b
REM R1 =  0.0574 for    3403 Fo > 4sig(Fo)  and  0.0605 for all    3656 data
REM    254 parameters refined using      0 restraints

END

WGHT      0.1149      0.0000

REM Highest difference peak  1.667,  deepest hole -2.458,  1-sigma level  0.194
Q1    1   0.7055  0.4584  0.0001  11.00000  0.05    1.67
Q2    1   0.7200  0.3224  0.0830  11.00000  0.05    1.44
Q3    1   0.2465  0.4824  0.0556  11.00000  0.05    0.95
Q4    1   0.7201  0.4433  0.1148  11.00000  0.05    0.94
Q5    1   0.7012  0.2659 -0.0233  11.00000  0.05    0.85
Q6    1  -0.0132  0.3989  0.0595  11.00000  0.05    0.82
Q7    1   0.7643  0.4232 -0.0512  11.00000  0.05    0.80
Q8    1   0.4119  0.4019  0.0399  11.00000  0.05    0.78
Q9    1   0.0437  0.3803  0.0068  11.00000  0.05    0.71
Q10   1   0.5752  0.4221  0.0920  11.00000  0.05    0.70
Q11   1   0.5815  0.3132  0.0192  11.00000  0.05    0.68
Q12   1   0.5817  0.4350  0.0197  11.00000  0.05    0.67
Q13   1   0.8660  0.4763  0.0516  11.00000  0.05    0.67
Q14   1   0.1964  0.3231  0.1464  11.00000  0.05    0.61
Q15   1   0.0447  0.2034  0.3790  11.00000  0.05    0.61
Q16   1   0.1352  0.4164  0.0550  11.00000  0.05    0.61
Q17   1   0.8603  0.3613  0.0589  11.00000  0.05    0.59
Q18   1   0.8571  0.3683  0.0007  11.00000  0.05    0.59
Q19   1   0.6962  0.3056  0.1581  11.00000  0.05    0.58
Q20   1   0.5424  0.6521  0.3844  11.00000  0.05    0.58
;
_shelx_res_checksum              30921
_shelx_hkl_file
;
  -1   0   0 550.110 90.4300   1
  -1   0   0 762.710 125.710   1
  -1   0   0 594.260 94.1100   1
  -1   1   0 609.740 111.420   1
  -1   1   0 457.600 165.790   1
   1  -1   0 560.890 145.450   1
   0   0  -2 4643.70 348.680   1
   0   0   2 4263.12 258.570   1
  -1   0   1 1761.22 125.860   1
   1   0  -1 1673.31 252.430   1
  -1   0   1 1984.70 154.690   1
   0   1   1 156826. 1966.92   1
  -1   1  -1 1840.98 386.990   1
   1  -1   1 2500.33 347.670   1
   1  -1   1 2107.76 152.630   1
  -1   1  -1 1935.20 180.320   1
  -1   1  -1 1487.56 124.190   1
   1  -1   1 2045.99 154.440   1
  -1   1  -1 1826.34 137.880   1
   0   1  -2 17887.1 491.190   1
   0  -1   2 21008.4 414.050   1
   0  -1   2 24495.3 758.880   1
   0  -1   2 20550.6 459.590   1
   0  -1   2 18861.6 484.300   1
   0   1  -2 21133.5 601.210   1
   0   1  -2 22776.5 528.130   1
  -1   1   1 38364.9 569.160   1
  -1   1   1 41794.4 1193.63   1
  -1   1   1 38453.5 758.740   1
   1   0   1 417.650 91.8700   1
  -1   0  -1 428.590 101.510   1
  -1   0  -1 477.950 89.6200   1
   1   0  -2 20817.1 461.480   1
  -1   0   2 18082.3 438.890   1
   1   0  -2 16644.5 929.170   1
  -1   0   2 19674.1 423.170   1
  -1   0   2 21971.5 799.980   1
  -1   1  -2 143090. 1614.57   1
   1  -1   2 128633. 1427.01   1
   0   1   2 177329. 1842.35   1
   0   1   2 161549. 2108.47   1
   1   1  -1 43546.7 919.340   1
   1   1  -1 45677.2 729.810   1
  -1  -1   1 45382.9 805.380   1
   1   1  -1 45360.6 699.700   1
  -1  -1   1 42806.5 929.170   1
   1  -1  -2 69192.6 1222.52   1
  -1   1   2 62466.8 914.230   1
  -1   1   2 61608.0 945.150   1
  -1   1   2 64369.4 869.690   1
  -1  -1   0 79351.0 1117.27   1
  -1  -1   0 68870.9 1149.03   1
   1   0   2 1821.85 158.660   1
   1   0   2 1862.84 255.040   1
  -1   0  -2 1472.35 126.050   1
  -1   0  -2 1837.65 158.280   1
  -1   2   0 50999.6 794.160   1
   1  -2   0 52564.7 946.920   1
   1  -2   0 57057.6 1073.26   1
   1  -2   0 51787.1 862.480   1
  -1   2  -1 2516.81 182.330   1
   1  -2   1 2830.68 215.000   1
   1  -2   1 2390.02 245.870   1
  -1   2  -1 2103.28 137.680   1
  -1   2  -1 2114.61 147.800   1
   1  -2   1 2438.67 189.320   1
   0   0   3 19858.0 584.990   1
   0   0  -3 16675.3 629.070   1
   0   0   3 19587.3 451.750   1
   0   0  -3 15858.2 383.190   1
   0   0  -3 19670.7 1008.84   1
   0   2  -1 4105.02 226.440   1
   0   2  -1 4065.36 224.110   1
   0  -2   1 3974.18 215.280   1
   0  -2   1 4196.15 189.550   1
   0   2  -1 5152.41 217.360   1
   0  -2   1 3769.93 201.900   1
   0  -2   1 4836.34 227.220   1
   0   1  -3 33593.5 923.780   1
   0  -1   3 30387.5 1014.94   1
   0  -1   3 31340.1 566.290   1
   0   1  -3 25290.4 1029.88   1
   0  -2   0 51711.6 797.450   1
   0   2   0 54479.0 899.050   1
   0  -2   0 49154.3 810.500   1
   0   2   0 49389.5 768.980   1
   1   1  -2 1235.25 128.880   1
  -1  -1   2 1132.17 113.590   1
  -1  -1   2 1164.91 168.000   1
   1   1  -2 1089.38 113.260   1
  -1  -1   2 896.090 105.870   1
   1   1  -2 1152.38 121.100   1
   1   1   1 1602.17 149.190   1
  -1  -1  -1 1523.74 160.600   1
  -1  -1  -1 1277.25 130.200   1
   1   1   1 1570.02 242.660   1
   1  -2  -1 117134. 1304.96   1
   1  -2  -1 119198. 1287.12   1
  -1   2   1 107741. 1223.59   1
   1  -2  -1 117451. 1611.09   1
   0  -2   2 12647.2 432.230   1
   0   2  -2 10062.8 305.300   1
   0  -2   2 10950.4 238.340   1
   0  -2   2 10503.8 368.420   1
   0   2  -2 11186.9 241.150   1
   0  -2   2 14185.6 384.710   1
   0   2  -2 13446.7 350.900   1
   0   2  -2 11867.9 425.860   1
   1   0  -3 552.370 156.510   1
  -1   0   3 531.900 72.6100   1
   1   0  -3 569.690 85.0900   1
  -1   0   3 744.740 251.360   1
  -1   0   3 493.460 79.9100   1
  -1   2  -2 43659.6 754.920   1
  -1   2  -2 45037.8 808.430   1
   1  -2   2 39778.1 736.940   1
  -1   2  -2 43407.9 818.870   1
   1  -2   2 45089.7 682.330   1
  -1   2  -2 49575.6 1493.88   1
   0  -2  -1 102599. 1418.77   1
   0   2   1 107118. 1433.86   1
  -1   1  -3 3995.02 218.070   1
   1  -1   3 5053.69 440.760   1
   1  -1   3 4912.22 242.120   1
  -1   1  -3 5501.25 271.260   1
   1  -1   3 6315.84 511.760   1
   1  -1   3 8073.97 448.250   1
   1  -1   3 5246.43 234.250   1
   2  -1   0 462425. 5736.17   1
  -2   1   1 101061. 2015.63   1
   2  -1  -1 105445. 1282.78   1
   2  -1  -1 89881.4 1343.16   1
  -2   1   1 108872. 1570.19   1
   2  -1  -1 92930.8 2282.45   1
   1  -1  -3 261.240 125.640   1
  -1   1   3 99.6800 132.940   1
   1  -1  -3 61.8600 110.300   1
  -1   1   3 192.310 91.3600   1
   1   1  -3 113271. 1665.06   1
   1   1  -3 107992. 1289.00   1
  -1  -1   3 102382. 1256.41   1
   0   1   3 14740.2 425.710   1
   0  -1  -3 12696.0 449.130   1
   0  -1  -3 11958.6 464.860   1
   0   1   3 10159.4 405.340   1
   2  -1   1 1443.75 149.820   1
  -2   1  -1 1061.11 209.850   1
  -2   1  -1 1264.11 229.840   1
   2  -1   1 1458.26 148.360   1
   2  -1   1 1902.91 167.570   1
   2  -1   1 2268.86 195.100   1
   2  -1   1 1279.34 203.010   1
   0   2  -3 2034.26 154.360   1
   0  -2   3 1721.85 136.640   1
   0   2  -3 2399.42 161.490   1
   0  -2   3 2364.48 203.040   1
   0   2  -3 1924.34 158.810   1
   0   2  -3 2356.40 138.220   1
   0  -2   3 1716.31 177.580   1
   0  -2   3 2040.44 115.180   1
   2   0  -1 2506.17 182.370   1
   2   0  -1 3365.94 214.570   1
   2   0  -1 3019.46 214.820   1
  -2   0   1 2672.60 160.820   1
  -2   0   1 3914.68 389.190   1
  -2   0   1 3932.44 251.020   1
  -1   0  -3 450.170 62.3100   1
   1   0   3 412.140 91.2700   1
   1   0   3 532.860 74.5000   1
  -1   0  -3 520.300 104.210   1
  -2   0   0 908.790 158.220   1
  -2   0   0 511.620 91.0100   1
   2   0   0 1140.96 114.380   1
  -2   0   0 874.280 170.030   1
  -1   2   2 15209.4 436.330   1
   1  -2  -2 16269.7 508.050   1
  -1   2   2 14741.2 456.550   1
  -1   2   2 15903.0 502.110   1
  -1  -1  -2 75940.4 1365.95   1
   1   1   2 80152.2 1251.06   1
   1  -2   3 152142. 1733.04   1
  -1   2  -3 144622. 1637.27   1
  -1   2  -3 140994. 1762.35   1
   1  -2   3 148471. 1633.62   1
   2  -2   0 8867.10 340.290   1
   2  -2   0 9678.25 349.970   1
  -2   2   0 9429.13 359.390   1
   2  -2   0 8138.38 203.250   1
   2  -2   0 7259.20 396.280   1
  -2   2   0 10280.5 544.410   1
   0  -1   4 403.760 196.380   1
   0   1  -4 493.350 185.420   1
   0  -1   4 287.390 71.2800   1
   0   1  -4 355.810 76.6400   1
   0   1  -4 240.140 57.9100   1
   0  -1   4 332.810 70.8600   1
   0  -1   4 225.680 78.8300   1
   0   1  -4 190.750 86.3200   1
  -2   1   2 80621.4 1298.61   1
   2  -1  -2 71788.0 1081.81   1
  -2   1   2 76561.7 1173.04   1
   2  -1  -2 67690.6 872.600   1
   2  -1  -2 70895.4 1670.92   1
  -2   1   2 67291.7 1334.02   1
  -2   2  -1 845.300 239.650   1
   2  -2   1 718.700 115.360   1
   2  -2   1 990.270 102.500   1
  -2   2  -1 867.090 108.350   1
  -2   2  -1 828.200 113.140   1
   2  -2   1 864.870 107.120   1
  -2   2  -1 965.530 99.6900   1
   0   0  -4 11736.1 381.660   1
   0   0   4 14227.0 389.660   1
   0   0  -4 15897.7 994.110   1
   0   0  -4 10276.5 505.640   1
  -2   0   2 3367.01 205.310   1
   2   0  -2 5182.07 355.020   1
   2   0  -2 3047.19 343.550   1
  -2   0   2 3406.34 201.420   1
   2   0  -2 4061.30 227.260   1
   2   0  -2 2841.49 179.720   1
   0   2   2 83100.8 1242.29   1
   0  -2  -2 77091.9 1362.89   1
   2   0   1 979535. 7723.01   1
  -2   0  -1 983668. 8360.57   1
   2  -2  -1 56798.6 769.440   1
   2  -2  -1 61979.9 1166.61   1
  -2   2   1 58313.0 974.480   1
  -2   1  -2 156973. 2218.27   1
   1   0  -4 61466.9 1536.47   1
   1   0  -4 59519.0 900.380   1
  -1   0   4 61414.9 875.520   1
  -1   0   4 59759.9 785.980   1
  -1   0   4 65597.1 1480.86   1
  -1  -2   0 12794.2 391.810   1
  -1  -2   0 14129.9 441.400   1
  -1  -2   0 14185.7 491.410   1
   1   2   0 13203.5 277.880   1
  -1  -2   2 35486.1 903.590   1
   1   2  -2 31264.4 518.600   1
   1   2  -2 33920.4 720.320   1
   1   2  -2 31007.8 545.530   1
  -1  -2   2 35417.0 742.880   1
   1   2  -2 33455.1 730.700   1
   1  -3   1 5738.76 274.370   1
   1  -3   1 4374.55 353.080   1
  -1   3  -1 5482.51 272.830   1
  -1   3  -1 5819.13 387.970   1
   1  -3   1 5723.87 391.290   1
   1  -3   0 2740.94 231.160   1
  -1   3   0 2200.33 173.470   1
   1  -3   0 2440.75 145.780   1
   1  -3   0 2305.28 191.800   1
   1  -3   0 2297.66 169.440   1
  -1   3   0 2015.96 151.370   1
   1  -3   0 1844.37 115.470   1
  -2   2  -2 9761.32 290.140   1
  -2   2  -2 14543.7 472.690   1
   2  -2   2 13224.2 398.950   1
  -2   2  -2 9832.62 583.920   1
   2  -2   2 11835.8 521.470   1
   2  -2   2 12858.2 301.610   1
   2  -2   2 11614.9 355.350   1
  -2   2  -2 10574.3 325.580   1
  -1  -1   4 56901.5 815.180   1
   1   1  -4 58490.6 856.780   1
   1   1  -4 58828.6 1677.74   1
   1   1  -4 62173.9 832.360   1
   1  -1   4 28686.5 656.210   1
  -1   1  -4 32553.3 573.470   1
   1  -1   4 32499.0 548.080   1
  -1   3  -2 7557.59 359.620   1
   1  -3   2 8087.78 366.560   1
  -1   3  -2 6983.55 341.490   1
   1  -3   2 7147.33 333.780   1
  -1   3  -2 6789.45 348.510   1
  -1   3  -2 6405.45 296.480   1
   1  -3   2 6990.52 282.090   1
   0   2  -4 57268.6 799.620   1
   0   2  -4 50371.2 758.450   1
   0  -2   4 51459.9 743.700   1
   0   2  -4 59350.7 1006.86   1
   0  -2   4 56952.3 1307.19   1
   0  -2   4 50182.0 780.640   1
   0   2  -4 52176.8 955.800   1
  -2   2   2 81287.3 1179.53   1
   2  -2  -2 81738.3 1321.81   1
   2  -2  -2 77203.1 1002.62   1
   2   0  -3 4402.66 230.060   1
  -2   0   3 4300.28 221.230   1
   2   0  -3 6067.13 263.660   1
   2   0  -3 3495.07 196.580   1
   2   0  -3 4426.97 453.970   1
  -2   0   3 4523.73 386.930   1
  -2   0   3 4362.21 220.800   1
   2   0  -3 4879.75 344.480   1
   2   0  -3 5273.05 440.310   1
  -2   1   3 51246.3 824.940   1
   2  -1  -3 49134.5 700.590   1
  -2   1   3 51487.5 1105.28   1
  -2   1   3 51528.9 862.390   1
   0   3  -1 115961. 1386.81   1
   0   3  -1 122421. 1380.95   1
   0  -3   1 113988. 1478.97   1
   0  -3   1 114245. 1198.95   1
  -2  -1   1 3128.40 247.910   1
   2   1  -1 3026.45 177.190   1
   2   1  -1 2961.09 201.930   1
   2   1  -1 4281.03 238.890   1
  -2  -1   1 3097.46 204.780   1
  -1   2   3 41204.0 828.080   1
  -1   2   3 36921.5 789.680   1
  -1   2   3 34583.5 621.470   1
  -1  -2  -1 78750.9 1251.68   1
  -1  -2  -1 75957.6 1200.07   1
   1  -1  -4 6354.06 424.120   1
  -1   1   4 7336.15 340.100   1
  -1   1   4 12001.9 597.020   1
   1  -1  -4 9430.63 421.190   1
  -1  -2   3 3319.69 179.550   1
  -1  -2   3 4310.12 242.480   1
   1   2  -3 4189.68 224.770   1
   1   2  -3 4211.93 256.520   1
  -1  -2   3 3940.70 234.980   1
   1   2  -3 3938.13 225.890   1
  -1  -2   3 3791.54 251.130   1
   1   2  -3 4979.66 251.680   1
  -2   0  -2 195198. 2368.20   1
   2   0   2 204342. 2233.60   1
   2   0   2 194209. 1847.83   1
   1   1   3 5017.26 278.710   1
  -1  -1  -3 3685.57 216.000   1
  -1  -1  -3 3287.45 238.780   1
   1   1   3 3213.94 223.050   1
  -1   3   1 933.770 137.740   1
   1  -3  -1 947.440 122.900   1
  -2  -1   0 4647.75 289.760   1
  -2  -1   0 4747.29 247.330   1
   2   1   0 5526.22 276.940   1
  -2  -1   0 4508.25 292.270   1
   0   3  -2 228107. 2354.13   1
   0   3  -2 233782. 2131.58   1
   0  -1  -4 45109.0 1034.70   1
   0   1   4 42337.9 750.670   1
   1  -2   4 84652.1 1078.61   1
  -1   2  -4 81861.0 1096.30   1
   1  -2   4 75983.9 1034.75   1
  -1   2  -4 82700.4 1061.24   1
   0  -3   0 833.680 132.520   1
   0   3   0 776.890 87.1400   1
   0  -3   0 909.940 109.170   1
   0   3   0 854.090 114.230   1
   0  -3   0 897.060 98.4200   1
   0   3   0 759.190 75.9000   1
   0   3   0 1067.81 115.000   1
  -2  -1   2 36869.7 685.340   1
   2   1  -2 33303.1 651.310   1
  -2  -1   2 32807.4 753.440   1
  -2  -1   2 32684.8 1024.50   1
  -1   0  -4 14968.9 768.720   1
  -1   0  -4 14651.5 474.480   1
   1   0   4 12672.8 359.330   1
   1   0   4 13214.3 424.530   1
   2  -1   3 11384.8 297.750   1
  -2   1  -3 11082.9 533.650   1
  -2   1  -3 13619.1 416.160   1
   2  -1   3 11472.8 440.120   1
  -2   3  -1 1077.29 183.050   1
   2  -3   1 662.600 105.690   1
   2  -3   1 916.760 108.300   1
  -2   3  -1 687.670 79.4900   1
  -2   3  -1 719.750 89.9500   1
   2  -3   1 818.600 88.5800   1
  -1   3  -3 5180.27 308.530   1
   1  -3   3 4033.58 212.180   1
  -1   3  -3 4968.92 234.640   1
  -1   3  -3 4943.64 420.450   1
  -1   3  -3 4587.92 248.500   1
  -1   3  -3 3964.95 227.660   1
   1  -3   3 4108.87 262.980   1
   1  -3   3 4434.36 256.860   1
   1  -3   3 4747.87 207.050   1
   2  -3   0 931.890 131.620   1
  -2   3   0 878.320 86.2800   1
   2  -3   0 1121.16 128.690   1
   2  -3   0 1214.42 143.590   1
   2  -3   0 1132.64 92.2900   1
  -2   3   0 1616.47 205.630   1
   0  -2  -3 249663. 2980.23   1
   0   2   3 271589. 2509.05   1
  -2   2  -3 39.7800 123.060   1
   2  -2   3 12.3000 98.7700   1
   2  -2   3 24.0600 46.6000   1
  -2   2  -3 48.0600 53.5800   1
  -2   2  -3 71.1700 62.2300   1
   2  -2   3 89.9200 75.6100   1
   2  -2   3 35.9600 61.9000   1
   0   1  -5 84160.3 1082.64   1
   0  -1   5 81091.1 1952.01   1
   2   1   1 50661.8 742.320   1
  -2  -1  -1 42508.7 904.050   1
  -2  -1  -1 48702.5 1089.16   1
   2   1   1 45295.3 835.200   1
   0  -3   3 154797. 1544.44   1
   0   3  -3 151055. 1452.58   1
   0  -3  -1 45951.8 913.330   1
   0   3   1 47422.4 910.870   1
   0   3   1 42644.2 964.220   1
   0  -3  -1 43366.5 697.280   1
  -2  -1   3 8541.59 307.960   1
  -2  -1   3 8203.19 404.600   1
   2   1  -3 8119.42 408.140   1
   2   1  -3 7974.79 366.770   1
   2   1  -3 8027.03 348.290   1
  -2  -1   3 7918.68 363.360   1
  -2   3  -2 6090.71 274.340   1
  -2   3  -2 6525.50 428.160   1
   2  -3   2 8079.70 419.290   1
   2  -3   2 5614.16 393.970   1
   2  -3   2 5138.49 211.280   1
  -2   3  -2 5539.98 284.920   1
  -2   3  -2 7542.10 375.750   1
  -2   3   1 6575.75 352.440   1
   2  -3  -1 6712.87 383.490   1
  -2   3   1 5517.55 253.600   1
   2  -3  -1 4353.85 189.610   1
   2  -3  -1 6662.20 540.430   1
  -2   3   1 6553.05 377.400   1
   0   0  -5 73511.8 2078.41   1
   0   0  -5 81687.3 1143.36   1
   0   0   5 86490.9 1248.66   1
   0   0   5 89994.1 2081.25   1
   0   0   5 74428.8 947.800   1
  -2   2   3 7418.14 378.390   1
   2  -2  -3 7709.74 452.990   1
  -2   2   3 7709.18 498.870   1
   2  -2  -3 7343.82 288.030   1
  -2   2   3 7878.23 356.150   1
   2  -2  -3 7808.04 331.810   1
   2  -2  -3 5565.98 468.410   1
  -1  -2  -2 211363. 2486.72   1
  -1  -2   4 30886.3 545.560   1
   1   2  -4 26918.0 653.590   1
  -1  -2   4 33535.9 544.990   1
   1   2  -4 27028.0 562.500   1
   1   2  -4 29696.7 607.240   1
  -1  -2   4 31817.6 875.870   1
  -1   3   2 74960.3 1183.78   1
   1  -3  -2 67711.8 1150.83   1
  -1   3   2 67635.4 961.590   1
  -1   3   2 69258.9 1111.60   1
  -1   0   5 31166.7 561.330   1
  -1   0   5 31998.3 558.710   1
   1   0  -5 27024.6 940.180   1
   1   0  -5 33713.8 719.330   1
  -2   0   4 115.170 65.7400   1
   2   0  -4 96.4400 74.1800   1
   2   0  -4 -12.340 155.040   1
   2   0  -4 28.3300 110.170   1
  -2   0   4 136.000 63.1200   1
  -2   0   4 207.910 233.000   1
   2   0   3 9834.65 259.250   1
  -2   0  -3 8636.39 384.320   1
   2   0   3 10679.4 377.790   1
   1   1  -5 189729. 1910.87   1
  -1  -1   5 187070. 1771.14   1
   1   1  -5 183222. 3336.26   1
  -1  -1   5 187958. 1888.26   1
   1   1  -5 176536. 2435.84   1
  -2   1   4 64758.3 1383.24   1
   2  -1  -4 56110.6 1434.77   1
  -2   1   4 55533.7 859.460   1
   2  -1  -4 51853.0 945.880   1
  -2   1   4 52583.5 816.140   1
   0   2  -5 13376.4 452.120   1
   0   2  -5 10191.5 816.100   1
   0  -2   5 11328.0 651.270   1
   0  -2   5 13503.8 303.340   1
   0  -2   5 13333.5 319.490   1
   0   2  -5 12755.1 386.820   1
   0   2  -5 14166.0 362.580   1
  -1   1  -5 19480.5 505.730   1
   1  -1   5 20361.7 456.750   1
   1  -1   5 18625.4 409.210   1
   1  -1   5 19566.8 891.720   1
   1  -1   5 23564.5 891.170   1
   1  -3   4 14815.3 453.320   1
  -1   3  -4 17360.1 372.770   1
  -1   3  -4 13006.0 386.020   1
   1  -3   4 14470.1 383.180   1
  -1   3  -4 15260.8 462.520   1
  -1   3  -4 13802.0 335.700   1
   1  -3   4 18132.4 538.640   1
   1  -3   4 14678.7 295.870   1
   3  -1   0 75571.6 1314.40   1
  -3   1   0 59109.7 1412.96   1
  -3   1   1 64101.2 1281.36   1
   3  -1  -1 66409.0 919.470   1
  -3   1   1 78045.3 1623.17   1
  -1   2   4 104389. 1397.75   1
   2  -3   3 17433.4 379.290   1
   2  -3   3 19555.3 524.890   1
  -2   3  -3 18050.1 435.470   1
   2  -3   3 14022.1 452.150   1
  -2   3  -3 17353.8 467.640   1
  -2  -1  -2 11577.5 503.330   1
   2   1   2 10194.1 363.300   1
  -2  -1  -2 9680.15 376.510   1
  -2   3   2 9013.56 421.720   1
   2  -3  -2 6285.38 422.540   1
   2  -3  -2 9026.67 237.930   1
  -2   3   2 9429.66 382.790   1
   2  -3  -2 10333.6 490.680   1
  -2   3   2 6834.84 293.180   1
   2  -3  -2 9566.92 271.090   1
   3  -2   0 108867. 2237.90   1
  -3   2   0 111124. 2019.97   1
   0  -3   4 542535. 4761.54   1
   0   3  -4 540345. 4446.50   1
   0   3  -4 499216. 4321.98   1
  -1  -1  -4 9032.77 319.310   1
  -1  -1  -4 8948.34 386.090   1
   1   1   4 6291.26 306.630   1
   1   1   4 12110.3 524.540   1
   1  -2   5 37476.3 569.370   1
  -1   2  -5 34518.3 1331.33   1
  -1   2  -5 38479.7 633.910   1
  -1   2  -5 40181.0 663.980   1
  -3   2   1 219.730 83.7600   1
   3  -2  -1 280.870 84.3400   1
   3  -2  -1 268.400 159.590   1
   3  -2  -1 246.380 61.3400   1
  -3   2   1 210.070 90.1200   1
   3  -2  -1 168.540 222.530   1
  -3   2   1 198.010 272.330   1
  -1   1   5 31864.1 611.680   1
   0   3   2 143802. 1765.06   1
   0  -3  -2 144632. 1941.59   1
   1   3  -1 4690.21 299.930   1
   1   3  -1 3710.45 187.050   1
  -1  -3   1 3505.95 240.360   1
   1   3  -1 4278.02 228.290   1
  -1  -3   1 4609.71 271.180   1
   1   3  -1 4358.69 199.470   1
   2   1  -4 46707.7 792.660   1
   2   1  -4 40857.6 696.090   1
  -2  -1   4 45350.7 700.220   1
   2   1  -4 37453.4 1066.82   1
   2   1  -4 43459.0 753.030   1
   2  -2   4 456.560 91.7700   1
   2  -2   4 420.770 80.3400   1
   2  -2   4 252.730 124.330   1
   2  -2   4 207.410 70.3800   1
   2  -2   4 327.950 72.0100   1
  -2   2  -4 301.410 61.6600   1
   2  -2   4 424.010 206.860   1
  -2   2  -4 335.060 63.6100   1
   2  -1   4 4600.63 220.250   1
  -2   1  -4 4279.56 410.820   1
   2  -1   4 4905.97 283.000   1
   2  -1   4 6370.36 304.500   1
  -2   1  -4 4442.90 273.920   1
   3  -2   1 50746.1 851.210   1
  -3   2  -1 58891.8 1434.40   1
   3  -2   1 48580.1 1198.05   1
   3  -2   1 50259.8 943.750   1
   3  -2   1 54886.4 759.280   1
   1   3  -2 22202.9 396.720   1
   1   3  -2 24476.4 676.090   1
  -1  -3   2 28715.1 690.850   1
   1   3  -2 26798.3 694.920   1
   1   3  -2 25309.0 507.390   1
   3  -1   1 23056.0 788.720   1
  -3   1  -1 24943.1 848.350   1
  -3   1   2 64712.5 919.540   1
  -3   1   2 54378.9 1222.39   1
  -3   1   2 71345.9 1746.25   1
   0   1   5 81396.8 1139.09   1
   0  -1  -5 89775.8 1591.49   1
   2   2  -1 35865.9 588.720   1
  -2  -2   1 40976.0 781.030   1
   0   2   4 117731. 1482.83   1
  -1   0  -5 77924.8 1119.57   1
  -1   0  -5 73295.6 1164.46   1
  -1   0  -5 87502.4 2320.92   1
   2   2  -2 15006.1 429.500   1
  -2  -2   2 12066.7 477.500   1
  -2  -2   2 15977.6 492.210   1
   2   2  -2 14608.4 418.690   1
   2   2  -2 15898.7 366.700   1
  -1  -3   0 9732.67 371.440   1
  -1  -3   0 9912.04 393.480   1
   1   3   0 10929.9 295.050   1
  -1  -3   0 9166.97 375.040   1
   1  -4   1 4465.14 264.370   1
   1  -4   1 3064.99 153.740   1
   1  -4   1 3443.41 258.910   1
   1  -4   1 3314.33 218.150   1
  -1   4  -1 3381.20 222.630   1
  -3   0   1 1090.14 114.230   1
   3   0  -1 1496.47 142.240   1
   3   0  -1 1011.74 115.890   1
  -3   0   1 1062.93 162.560   1
   3   0  -1 992.310 257.660   1
   3   0  -1 1419.54 151.060   1
  -1   3   3 56459.0 880.600   1
  -1   3   3 61172.7 1076.29   1
   1  -3  -3 61477.5 1323.60   1
  -1   3   3 64472.8 1153.82   1
   1  -3  -3 67181.7 1491.15   1
  -1   3   3 64912.6 1095.14   1
  -3   0   0 24082.6 816.210   1
   3   0   0 18893.2 504.950   1
  -3   0   0 20878.8 559.830   1
  -3   0   0 19219.3 620.270   1
  -1   4  -2 20184.8 543.710   1
   1  -4   2 20825.4 597.800   1
  -1   4  -2 17692.3 404.430   1
  -1   4  -2 18432.0 457.280   1
   1  -4   2 18255.0 352.400   1
   1  -4   2 19644.6 509.320   1
  -3   2   2 5320.65 460.960   1
   3  -2  -2 4119.35 330.210   1
   3  -2  -2 5138.21 554.730   1
   3  -2  -2 4634.25 299.470   1
  -3   2   2 5390.34 337.990   1
   3  -2  -2 4286.30 222.860   1
  -3   2   2 4880.60 278.530   1
   1   2   3 34696.8 670.990   1
  -1  -2  -3 39293.1 951.960   1
   1   3  -3 4999.11 302.790   1
   1   3  -3 3682.97 209.250   1
  -1  -3   3 4218.75 250.550   1
   1   3  -3 5046.30 245.580   1
  -1  -3   3 4347.72 349.320   1
   1   3  -3 4417.02 257.200   1
  -2   2   4 50329.0 762.530   1
  -2   2   4 47414.5 786.840   1
  -2  -2   0 31027.9 824.030   1
  -2  -2   0 26177.8 570.860   1
   2   2   0 32570.3 594.750   1
  -2  -2   0 23992.9 757.760   1
   1   2  -5 49626.9 1415.26   1
   1   2  -5 54282.2 923.140   1
  -1  -2   5 57042.2 1314.26   1
  -1  -2   5 49613.8 637.500   1
   1   2  -5 42850.5 817.980   1
   1   2  -5 51349.8 922.180   1
   1   2  -5 43888.9 722.120   1
   1  -4   0 147107. 1617.13   1
  -1   4   0 132579. 1474.81   1
   1  -4   0 130246. 1742.70   1
   1  -4   0 137969. 1389.00   1
   3   0  -2 13698.0 392.370   1
  -3   0   2 12586.2 357.050   1
   3   0  -2 12986.0 658.140   1
   3   0  -2 15284.1 428.760   1
  -3   0   2 15135.9 453.400   1
   3  -2   2 121461. 1503.59   1
   3  -2   2 131819. 1977.64   1
   2   0  -5 1558.92 181.360   1
  -2   0   5 1467.39 124.370   1
  -2   0   5 1544.39 141.880   1
   2   0  -5 1746.28 166.930   1
  -2   0   5 1836.85 134.880   1
  -2   0   5 1513.88 257.530   1
   2   0  -5 1353.33 230.580   1
  -2  -2   3 1864.43 229.350   1
   2   2  -3 2066.61 185.200   1
  -2  -2   3 1949.61 168.840   1
   2   2  -3 1977.44 177.820   1
   2   2  -3 1917.78 131.720   1
   2   2  -3 1980.06 134.170   1
  -2  -2   3 1779.12 167.530   1
   3  -1   2 19854.4 789.380   1
  -3   1  -2 18162.0 476.000   1
  -3   1  -2 22374.3 834.650   1
   0  -1   6 86422.4 1856.43   1
   0   1  -6 79410.0 1694.43   1
   0  -1   6 88254.8 951.200   1
   0  -1   6 94020.4 1184.39   1
   0   1  -6 83462.6 1242.74   1
   0  -1   6 85941.8 1881.37   1
   3  -3   0 34861.9 822.740   1
  -3   3   0 38655.4 1093.16   1
   3  -3   0 37538.9 595.120   1
  -3   3   0 29654.4 662.730   1
   3  -3   0 34485.8 724.450   1
  -2   4  -1 99838.2 1262.44   1
  -3   1   3 15072.2 411.760   1
  -3   1   3 17901.9 796.280   1
  -3   1   3 15651.5 429.050   1
   3  -1  -3 12399.6 575.550   1
   3  -1  -3 17882.5 398.310   1
   3  -1  -3 14694.6 442.700   1
  -2   3  -4 21731.9 512.800   1
   2  -3   4 22399.7 501.800   1
  -2   3  -4 24278.7 478.920   1
   2  -3   4 24016.6 555.540   1
  -2   3  -4 28469.8 793.180   1
  -3   3  -1 12234.6 443.790   1
   3  -3   1 9469.41 543.220   1
   3  -3   1 11702.8 421.290   1
  -3   3  -1 9865.41 629.840   1
  -3   3  -1 11968.0 432.170   1
   3  -3   1 8980.82 336.870   1
   2   0   4 60300.3 903.340   1
  -2   0  -4 69724.2 1114.39   1
  -2   3   3 88339.1 1245.83   1
   2  -3  -3 85735.3 1506.07   1
  -3   0  -1 9567.98 423.840   1
  -3   0  -1 11557.7 541.440   1
   2  -4   0 77071.4 1233.84   1
  -2   4   0 87654.3 1151.05   1
   2  -4   0 78031.3 838.370   1
   2  -4   0 77995.4 1388.48   1
  -1   4  -3 14082.5 312.920   1
   1  -4   3 10265.7 316.560   1
   1  -4   3 11390.3 248.500   1
  -1   4  -3 10681.3 302.380   1
  -1   4  -3 12659.3 420.330   1
  -1   4  -3 11460.2 290.940   1
   1  -4   3 13211.7 434.800   1
  -1  -3  -1 162847. 2011.02   1
   1   3   1 165076. 1849.59   1
  -2   1   5 5448.07 253.340   1
  -2   1   5 7801.83 261.810   1
  -2   1   5 9065.37 508.070   1
   2  -1  -5 4965.89 365.090   1
  -2   1   5 7672.04 276.680   1
   2  -1  -5 5250.66 231.340   1
  -2   4  -2 101385. 1418.41   1
   2  -4   2 94893.8 1338.58   1
  -2   4  -2 101312. 1366.65   1
   2  -4   2 97554.2 979.530   1
   2   1   3 34331.9 704.690   1
  -2  -1  -3 34340.4 938.370   1
   2   1   3 35575.8 545.300   1
  -2  -1  -3 32320.2 770.460   1
   1  -3   5 31977.3 531.320   1
  -1   3  -5 36696.6 739.610   1
  -1   3  -5 32371.4 787.900   1
   1  -3   5 30246.1 767.920   1
   1  -3   5 32497.5 543.260   1
  -3   3   1 76608.8 1124.54   1
   3  -3  -1 75955.1 818.970   1
  -3   3   1 81404.7 1224.70   1
   0   3  -5 121498. 1530.33   1
   0  -3   5 130917. 1365.46   1
   0   0  -6 896.930 228.660   1
   0   0   6 1241.67 237.360   1
   0   0  -6 426.330 105.350   1
   0   0   6 828.880 98.9100   1
   0   0  -6 563.920 106.450   1
   0   0   6 815.830 109.760   1
   2   2   1 9388.35 243.350   1
  -2  -2  -1 7440.83 380.770   1
  -2  -2  -1 9220.13 418.540   1
   0  -4   1 108945. 1280.89   1
   0   4  -1 112600. 1445.50   1
   0  -4   1 103527. 1413.16   1
  -1   4   1 167814. 1876.20   1
  -1   4   1 156711. 1545.71   1
   1  -4  -1 159911. 2216.64   1
  -1   4   1 166781. 1980.33   1
   1  -4  -1 165537. 1996.85   1
   0  -4   2 18743.8 327.220   1
   0  -4   2 18746.9 483.670   1
   0  -4   2 17579.8 387.980   1
   0   4  -2 18256.2 363.940   1
   0   4  -2 17129.9 486.410   1
   0   4  -2 18865.8 596.560   1
   0  -4   2 17699.0 527.080   1
  -1   0   6 7098.19 308.480   1
   1   0  -6 6408.85 340.300   1
  -1   0   6 7895.16 871.540   1
   1   0  -6 5254.99 451.680   1
  -1   0   6 6834.46 286.030   1
   3   0  -3 34592.6 984.730   1
   3   0  -3 30608.6 912.680   1
  -3   0   3 37864.4 644.610   1
   3   0  -3 33081.1 616.720   1
  -3   0   3 37199.6 699.420   1
   1   1  -6 20451.7 444.630   1
   1   1  -6 22202.5 923.840   1
   1   1  -6 20450.0 776.610   1
  -1  -1   6 18795.5 394.100   1
  -1  -1   6 22619.2 510.120   1
  -1  -1   6 20763.0 489.590   1
  -1  -1   6 15618.3 775.070   1
   1   3  -4 3400.71 190.960   1
  -1  -3   4 4095.51 241.930   1
   1   3  -4 4037.36 215.930   1
  -1  -3   4 4057.51 259.940   1
  -1  -3   4 3764.81 303.590   1
  -1  -3   4 4774.48 194.450   1
   1   3  -4 2909.24 128.740   1
   1   3  -4 5062.75 226.520   1
   0   3   3 59534.5 1087.27   1
   0   2  -6 50817.8 1542.63   1
   0   2  -6 47679.1 1058.78   1
   0  -2   6 49824.8 880.240   1
   0   2  -6 43832.9 713.580   1
   0  -2   6 49918.4 648.710   1
  -2  -1   5 4665.26 185.540   1
   2   1  -5 4091.45 454.910   1
   2   1  -5 3302.72 238.700   1
  -2  -1   5 4329.67 186.530   1
   2   1  -5 4088.34 200.760   1
   2   1  -5 3443.38 180.830   1
  -2  -1   5 3853.95 186.100   1
  -3   2   3 66.9700 85.1800   1
   3  -2  -3 51.9600 98.8800   1
   3  -2  -3 53.6200 184.500   1
   3  -2  -3 35.7800 50.6300   1
   3  -2  -3 -36.970 136.890   1
  -3   2   3 99.4400 229.890   1
  -3   2   3 27.0900 63.6700   1
   3  -2  -3 -1.9000 47.0500   1
   3  -3   2 13000.6 567.460   1
  -3   3  -2 13866.9 764.930   1
  -3   3  -2 12859.1 403.270   1
  -3   3  -2 14393.2 360.500   1
   3  -3   2 15208.0 482.350   1
   3  -3   2 13554.4 298.820   1
  -3   3  -2 15980.3 531.240   1
  -2   4   1 70894.5 899.760   1
   2  -4  -1 69720.2 864.480   1
   0  -4   0 37175.9 726.180   1
   0   4   0 36882.4 702.710   1
   0   4   0 40756.1 812.080   1
   0  -4   0 35840.1 585.400   1
   0   4   0 36153.3 495.720   1
   0  -4   0 39027.3 820.970   1
  -1   2   5 150.430 151.460   1
   2   2  -4 20833.3 545.350   1
  -2  -2   4 26078.0 482.890   1
  -2  -2   4 27838.2 571.890   1
   2   2  -4 23038.1 571.890   1
  -2  -2   4 29063.9 980.110   1
   2   2  -4 27784.5 524.340   1
   0  -4   3 111025. 1401.87   1
   0  -4   3 102633. 1522.35   1
   0   4  -3 115055. 1244.06   1
   0   4  -3 113292. 1117.47   1
   3  -2   3 98594.8 1198.37   1
  -3   2  -3 94226.4 1272.76   1
   3  -2   3 96412.2 1117.68   1
   3  -2   3 85579.3 1738.44   1
   2  -2   5 44507.2 687.810   1
  -2   4  -3 1592.54 112.450   1
   2  -4   3 2562.45 225.920   1
   2  -4   3 2005.34 150.370   1
  -2   4  -3 1982.58 193.120   1
   2  -4   3 2121.29 112.480   1
  -2   4  -3 1767.80 165.110   1
  -2   4  -3 2359.76 173.380   1
  -1   1  -6 59166.8 1019.58   1
   1  -1   6 60474.8 1788.11   1
   1  -1   6 58086.0 809.940   1
   3  -3  -2 24472.2 430.710   1
  -3   3   2 27120.6 900.670   1
   3  -3  -2 26280.1 700.860   1
  -2   1  -5 412.460 74.8500   1
   2  -1   5 516.770 93.3700   1
  -2   1  -5 474.410 229.900   1
   2  -1   5 621.350 85.1400   1
   2  -1   5 152.450 117.820   1
   1   1   5 16277.3 459.400   1
  -1  -1  -5 16131.6 452.840   1
  -1  -1  -5 17965.8 662.380   1
   1   1   5 15716.9 443.730   1
  -1   2  -6 18064.1 417.450   1
  -3   0  -2 287.810 96.0600   1
  -3   0  -2 327.820 108.220   1
   3   0   2 253.250 83.5500   1
   3   0   2 363.550 87.9200   1
  -1   4  -4 8265.65 247.710   1
   1  -4   4 8324.43 396.980   1
   1  -4   4 7657.02 316.910   1
   1  -4   4 6030.60 162.580   1
  -1   4  -4 7105.10 263.800   1
  -1   4  -4 7264.69 315.680   1
   1  -4   4 6165.94 278.960   1
  -1   4  -4 7904.41 345.150   1
  -3  -1   1 110779. 1502.58   1
  -3  -1   1 100479. 1602.97   1
   3  -1  -4 206066. 3271.20   1
  -3   1   4 222658. 2868.18   1
  -3   1   4 203659. 1948.39   1
  -3   1   4 217701. 2245.26   1
   3  -1  -4 210306. 2119.51   1
  -3   1   4 187552. 3040.05   1
   3  -1  -4 242036. 14910.1   1
   3  -1  -4 240791. 14805.8   1
  -3  -1   2 100108. 1311.76   1
   3   1  -2 95955.3 1199.12   1
  -3  -1   2 100474. 1911.54   1
   1  -1  -6 123687. 4078.62   1
   1  -1  -6 134860. 2062.53   1
  -1   3   4 39392.4 722.160   1
   1   3   2 9237.43 217.570   1
  -1  -3  -2 8025.40 337.870   1
   1   3   2 10656.4 381.520   1
  -1  -2  -4 23903.2 555.840   1
  -1  -2  -4 24496.4 749.210   1
   1   2   4 22402.4 528.670   1
   1  -4  -2 5293.27 374.320   1
  -1   4   2 4828.00 191.050   1
   1  -4  -2 3748.26 173.690   1
  -1   4   2 4968.93 258.890   1
   1  -4  -2 5675.27 337.880   1
  -1   4   2 6237.47 304.770   1
  -1   4   2 4913.75 188.270   1
   1   2  -6 4899.36 216.710   1
   1   2  -6 5333.95 466.050   1
  -1  -2   6 5770.07 235.850   1
   1   2  -6 4281.38 320.890   1
  -1  -2   6 4444.88 166.620   1
   1   2  -6 4464.21 234.140   1
  -1  -2   6 7953.60 475.260   1
   1   2  -6 4227.84 298.700   1
  -1  -2   6 4732.72 192.000   1
  -2  -2  -2 7599.37 382.320   1
   2   2   2 8092.53 324.600   1
  -2  -2  -2 9129.60 476.770   1
   2   2   2 8680.52 268.730   1
  -3   0   4 50215.8 720.840   1
   3   0  -4 47252.0 834.470   1
   3   0  -4 40878.4 1111.75   1
  -3   0   4 44599.6 655.100   1
   3   0  -4 44734.9 737.020   1
   3   0  -4 48565.4 767.740   1
   0   2   5 36075.7 700.080   1
  -3   3  -3 82410.1 1049.34   1
   3  -3   3 71142.2 1158.36   1
   3  -3   3 74485.9 1352.48   1
   3  -3   3 82866.7 947.650   1
   3  -3   3 80974.6 1125.17   1
   2  -2  -5 54977.0 1093.22   1
  -2   2   5 56028.8 883.970   1
  -2   2   5 57134.5 867.440   1
  -2   2   5 48040.8 837.180   1
   0   4   1 13926.0 494.710   1
   0  -4  -1 15068.9 489.690   1
   0   4   1 13357.3 369.400   1
   0  -4  -1 14780.9 397.770   1
   0   4   1 17897.2 445.950   1
  -2   4   2 22.7400 114.930   1
   2  -4  -2 31.6400 110.140   1
  -2   4   2 45.7200 92.9300   1
   2  -4  -2 -40.510 135.370   1
  -2   4   2 91.7900 114.080   1
  -2   3  -5 149567. 1528.48   1
   2  -3   5 139637. 1427.68   1
   0   4  -4 23254.6 402.910   1
   0   4  -4 20034.7 526.380   1
   0   4  -4 24819.0 612.760   1
   0  -4   4 22790.1 372.930   1
   0   4  -4 22185.0 419.680   1
   0  -4   4 26623.4 630.990   1
   0  -4   4 19702.0 526.080   1
   0   1   6 14664.9 548.620   1
   0  -1  -6 15484.7 574.840   1
   0   1   6 13808.3 410.060   1
   2  -3  -4 7299.55 412.780   1
  -2   3   4 6202.82 271.740   1
  -2   3   4 6115.51 224.570   1
  -2   3   4 7064.17 386.570   1
  -2   3   4 6667.75 287.760   1
  -1   0  -6 87443.5 1350.63   1
  -1   0  -6 75976.9 2127.41   1
  -1   0  -6 87152.2 1242.75   1
  -1   0  -6 94628.8 2230.98   1
   1   3  -5 556.990 106.680   1
  -1  -3   5 712.060 111.540   1
   1   3  -5 502.000 94.0800   1
  -1  -3   5 526.210 108.290   1
   1   3  -5 487.990 87.0600   1
  -1  -3   5 439.520 59.8200   1
  -1  -3   5 560.870 140.970   1
   1   3  -5 799.140 112.610   1
  -3  -1   3 54398.1 822.940   1
  -3  -1   3 55040.7 981.800   1
  -3  -1   3 60452.0 1715.14   1
  -2   0   6 338.660 88.8800   1
  -2   0   6 472.340 119.530   1
   2   0  -6 214.480 169.040   1
  -2   0   6 406.190 247.370   1
  -2   0   6 305.690 81.4900   1
   2   0  -6 307.700 96.0000   1
   3  -2  -4 111.810 66.1500   1
   3  -2  -4 147.240 71.4900   1
  -3   2   4 77.1700 58.0500   1
  -3   2   4 114.610 189.910   1
   3  -2  -4 117.700 185.580   1
  -3   2   4 91.3500 87.1800   1
   3  -2  -4 94.0100 108.170   1
   3  -2  -4 36.1600 113.980   1
   2  -4   4 42103.2 777.700   1
   2  -4   4 43532.0 568.690   1
   2  -4   4 40212.4 788.330   1
  -2   4  -4 39424.7 827.380   1
  -2   4  -4 45778.0 826.150   1
  -2   4  -4 40890.5 660.410   1
   3  -4   1 196199. 2105.24   1
  -3   4  -1 192085. 2077.36   1
  -3   4  -1 245013. 15309.1   1
   3  -4   1 192568. 2192.73   1
   3  -4   0 126137. 2350.64   1
  -3   4   0 117386. 2118.02   1
   3  -4   0 117641. 1540.80   1
   3  -4   0 111208. 1539.53   1
   3  -4   0 111424. 1120.57   1
  -2  -1  -4 42936.3 1025.69   1
   2   1   4 38930.7 800.930   1
  -3  -1  -1 121313. 1754.15   1
   0  -3   6 492.540 110.130   1
   0  -3   6 558.830 71.9200   1
   0   3  -6 392.440 63.6300   1
   0   3  -6 702.390 139.180   1
   0  -3   6 497.010 71.3500   1
   0   3  -6 703.110 106.500   1
   0  -3   6 766.600 106.610   1
   0   3  -6 593.300 89.8000   1
   3  -3  -3 46118.7 634.190   1
  -3   3   3 41416.9 752.290   1
   3  -3  -3 49140.9 984.020   1
  -3   3   3 47808.7 798.520   1
  -3   3   3 52267.4 1271.97   1
  -2  -2   5 62277.0 895.470   1
   2   2  -5 65801.8 1126.85   1
  -2  -2   5 62258.6 873.530   1
  -2   0  -5 41846.7 1742.88   1
  -2   0  -5 37297.5 818.350   1
  -1   3  -6 343.180 139.710   1
   1  -3   6 25.8600 77.8900   1
  -1   3  -6 326.690 84.5800   1
   1  -3   6 230.060 86.6500   1
  -1   3  -6 240.190 61.8800   1
  -1   3  -6 249.720 163.970   1
  -1   3  -6 314.080 54.2600   1
   1  -3   6 160.470 80.0700   1
   1  -3   6 277.630 87.8300   1
   3  -2   4 75839.2 1866.44   1
   3  -2   4 65163.9 861.070   1
   3  -2   4 64529.5 1258.56   1
  -3   2  -4 64723.2 999.830   1
   3  -2   4 64777.6 984.200   1
  -3   4  -2 10044.4 681.930   1
  -3   4  -2 7673.96 309.650   1
  -3   4  -2 8944.47 351.580   1
  -3   4  -2 6452.04 241.650   1
   3  -4   2 8987.32 379.380   1
   0   3   4 46247.5 795.310   1
   0   3   4 40579.2 722.230   1
   0  -3  -4 44396.1 1214.52   1
  -2   1   6 24685.9 455.050   1
   2  -1  -6 24876.7 614.200   1
   2  -1  -6 19909.2 865.970   1
  -2   1   6 30260.3 700.030   1
   2   1  -6 41061.0 703.700   1
   2   1  -6 37082.8 1166.76   1
   2   1  -6 36787.8 920.300   1
   2   3  -2 111532. 1221.38   1
   2   3  -2 115834. 1536.52   1
  -2  -3   2 112262. 1649.32   1
  -3   0  -3 25.9300 93.3200   1
   3   0   3 61.0800 77.5600   1
  -3   0  -3 -96.550 85.7600   1
   3   0   3 13.1800 68.0500   1
   1  -4   5 714.410 118.600   1
  -1   4  -5 592.320 98.5800   1
  -1   4  -5 558.520 91.8400   1
   1  -4   5 681.870 114.850   1
  -1   4  -5 723.360 78.6200   1
   1  -4   5 717.210 111.730   1
  -1   4  -5 671.360 101.750   1
   1  -4   5 711.430 79.1700   1
   0   1  -7 28010.5 1088.61   1
   0  -1   7 36958.5 1239.65   1
   0   1  -7 32965.9 599.380   1
   0  -1   7 29701.2 1532.43   1
   0  -1   7 35109.0 1072.67   1
  -3   4   1 31169.2 603.280   1
   3  -4  -1 31088.0 639.990   1
  -2  -3   1 103376. 1454.91   1
   1   4  -2 783.340 87.7900   1
  -1  -4   2 807.200 112.140   1
   1   4  -2 810.830 112.770   1
   1   4  -2 834.940 133.020   1
   1   4  -2 853.910 65.7700   1
   3   1  -4 90643.4 1083.03   1
  -3  -1   4 80459.2 1007.54   1
  -3  -1   4 91433.8 1133.78   1
   0  -4  -2 36035.7 847.230   1
   0   4   2 36755.8 612.730   1
   1   4  -1 103.310 61.2800   1
  -1  -4   1 164.970 100.310   1
  -1  -4   1 91.5000 87.7100   1
   1   4  -1 142.200 68.4800   1
   1   4  -1 129.270 68.7100   1
   3  -1   4 24691.3 565.000   1
   3  -1   4 23717.0 464.550   1
  -3   1  -4 23323.6 567.120   1
  -3   1  -4 30598.4 1205.70   1
   3  -1   4 27362.1 551.270   1
   2   3  -3 230724. 2047.25   1
   2   3  -3 238388. 14696.3   1
  -2  -3   3 232660. 14404.5   1
   2   3  -3 236602. 14625.8   1
   2   3  -3 207410. 2198.57   1
   3  -3   4 6333.35 195.820   1
   3  -3   4 2622.19 722.890   1
   3  -3   4 9370.68 334.440   1
  -3   3  -4 8459.75 303.620   1
   3  -3   4 6761.75 269.730   1
  -1  -1   7 26551.7 676.390   1
  -1  -1   7 18793.7 859.890   1
   1   1  -7 24445.9 571.430   1
   1   1  -7 18469.8 887.630   1
  -1  -1   7 19435.4 1076.09   1
  -3   1   5 183252. 1866.09   1
  -3   1   5 196272. 1998.40   1
  -3   1   5 176801. 2703.23   1
   1   3   3 20588.1 556.560   1
  -1  -3  -3 23278.8 801.490   1
   0   2  -7 43918.2 695.630   1
   0   2  -7 40041.1 1485.53   1
  -2  -3   0 62342.0 1193.11   1
   2   3   0 58676.6 744.860   1
  -2  -3   0 57163.4 936.230   1
   0   4  -5 944.190 121.670   1
   0  -4   5 816.700 129.360   1
   0   4  -5 660.820 63.5700   1
   0  -4   5 611.030 122.040   1
   0  -4   5 805.280 71.7800   1
   0   4  -5 669.800 96.0200   1
   1   0  -7 1342.44 183.840   1
  -1   0   7 1757.63 380.380   1
   1   0  -7 998.470 205.890   1
  -1   0   7 1193.99 125.200   1
   1  -4  -3 35361.5 970.650   1
   3   0  -5 91357.3 1100.91   1
  -3   0   5 100307. 1264.58   1
  -3   0   5 93671.4 1185.17   1
   3   0  -5 105809. 1618.96   1
   1   4  -3 1253.51 131.630   1
   1   4  -3 1429.35 145.160   1
   1   4  -3 1276.18 88.5800   1
  -1  -4   3 1435.38 135.910   1
   1   4  -3 1460.96 125.970   1
   0   0   7 192.470 87.6900   1
   0   0  -7 330.660 107.830   1
   0   0  -7 181.300 81.7100   1
   0   0   7 284.310 190.500   1
   2   2   3 23282.6 572.430   1
  -2  -2  -3 21119.8 699.690   1
  -2   4   3 6274.34 288.680   1
   2  -4  -3 6698.50 371.680   1
  -2   4   3 5409.81 232.400   1
  -2   4   3 7380.21 419.030   1
  -2   2  -6 19655.3 496.980   1
   2  -2   6 19235.3 944.650   1
   2  -2   6 18191.9 411.680   1
   2  -2   6 20159.0 418.540   1
   4  -2   0 36032.9 593.980   1
   4  -2   0 31685.1 926.020   1
  -3   4  -3 12597.3 744.610   1
   3  -4   3 13134.3 277.280   1
  -3   4  -3 16546.3 448.930   1
   3  -4   3 16355.7 505.810   1
   4  -2  -1 34701.3 747.570   1
   4  -2  -1 25285.4 875.690   1
  -4   2   1 33222.5 967.060   1
   4  -2  -1 28316.5 626.490   1
  -3  -1  -2 52148.6 1132.60   1
   3   1   2 47521.4 856.990   1
  -1   5  -2 4382.25 204.190   1
   1  -5   2 3777.15 223.710   1
   1  -5   2 4038.02 144.540   1
  -1   5  -2 4276.96 165.510   1
   1  -5   1 3532.16 132.580   1
   1  -5   1 3642.14 200.760   1
  -1   5  -1 5876.91 286.810   1
   1  -5   1 4637.31 173.890   1
  -1  -4   0 3073.59 265.160   1
  -1  -4   0 2626.78 199.300   1
   1   4   0 2129.10 119.400   1
   1   4   0 3235.93 156.200   1
   2  -5   1 55687.4 1343.23   1
   2  -5   1 51792.4 1017.76   1
   2  -5   1 49285.4 874.460   1
  -4   1   1 39108.6 1078.40   1
   4  -1  -1 48007.7 870.680   1
   3  -4  -2 47053.1 649.900   1
   3  -4  -2 57464.9 1253.16   1
  -3   4   2 53014.6 824.060   1
  -2   1  -6 2049.91 154.200   1
   2  -1   6 2790.67 190.800   1
   2  -1   6 2518.34 134.800   1
   2  -1   6 1963.51 276.190   1
   4  -1   0 29759.3 996.070   1
  -4   1   0 32158.7 975.010   1
   4  -1   0 39499.3 840.580   1
  -2   5  -2 45096.6 874.500   1
   2  -5   2 39497.6 760.700   1
  -2   5  -2 38342.3 586.330   1
   2  -4   5 9969.25 372.510   1
   2  -4   5 7351.47 270.810   1
  -2   4  -5 8936.47 344.200   1
   2  -4   5 7666.20 202.850   1
  -2   4  -5 8843.13 288.220   1
  -2   4  -5 4745.34 1021.74   1
  -1  -3   6 3497.01 175.820   1
   1   3  -6 4493.57 252.490   1
   1   3  -6 3733.24 179.210   1
   1   3  -6 3722.51 235.420   1
  -1  -3   6 4203.78 169.810   1
  -1  -3   6 3420.41 310.000   1
   4  -2   1 604.480 130.810   1
   4  -2   1 720.330 160.750   1
   4  -2   1 778.600 121.730   1
  -1   3   5 17192.6 864.700   1
   1  -3  -5 17804.2 633.010   1
   1  -2   7 14488.1 708.400   1
   1  -2   7 9035.66 358.340   1
  -1   1  -7 6307.24 530.420   1
   1  -1   7 11302.3 314.980   1
   1  -1   7 7782.71 658.440   1
  -1   1  -7 10218.7 384.820   1
   2   3  -4 19898.0 581.390   1
   2   3  -4 18651.7 597.180   1
  -2  -3   4 19882.8 577.650   1
   2   3  -4 20188.7 427.570   1
  -1  -1  -6 23756.5 655.350   1
  -1  -1  -6 27315.6 621.300   1
   4  -2  -2 21814.1 752.090   1
  -4   2   2 24879.0 487.500   1
  -4   2   2 29870.2 930.330   1
   4  -2  -2 22319.0 566.040   1
  -4   2   2 27740.7 689.930   1
   4  -2  -2 25534.5 485.310   1
  -2   5   0 19343.5 603.920   1
   2  -5   0 17721.3 335.030   1
   2  -5   0 15315.5 475.180   1
   2  -5   0 14192.9 470.640   1
   2  -5   0 13449.4 282.750   1
   2  -5   0 14762.2 659.230   1
  -1   5  -3 764.970 84.8500   1
  -1   5  -3 1216.80 180.200   1
   1  -5   3 606.520 90.2500   1
   1  -5   3 846.790 89.3800   1
  -3   3   4 25896.4 965.620   1
   3  -3  -4 20472.6 483.830   1
  -3   3   4 22693.9 539.220   1
   3  -3  -4 22650.0 689.230   1
  -3   3   4 22010.2 582.050   1
   3  -3  -4 18327.0 339.470   1
   1  -5   0 14854.8 291.680   1
  -4   1   2 14806.8 519.870   1
   4  -1  -2 14761.0 456.370   1
  -4   1   2 16187.2 706.360   1
   4  -1  -2 17818.0 477.750   1
   4  -1  -2 21033.5 734.550   1
  -4   1   2 14875.2 469.220   1
  -1  -2  -5 83455.1 1379.00   1
   1   2   5 73223.5 1128.59   1
   1   2   5 81263.2 1113.21   1
  -1  -2  -5 86537.9 1123.63   1
  -2   3  -6 68617.9 1053.08   1
  -2   3  -6 71668.6 922.850   1
   1   2  -7 833.620 197.400   1
   1   2  -7 1144.66 153.310   1
  -1  -2   7 1157.85 111.130   1
  -1  -2   7 772.710 106.240   1
   1   2  -7 928.790 118.420   1
   3   2  -2 36881.9 1295.85   1
   3   2  -2 41785.1 1342.33   1
  -3  -2   2 40337.6 1447.73   1
   3   2  -2 34306.5 1118.06   1
   1   4  -4 14940.7 527.190   1
  -1  -4   4 13153.2 479.220   1
   1   4  -4 10539.7 415.250   1
   1   4  -4 11550.6 477.850   1
  -3   2   5 131.120 64.0700   1
  -3   2   5 71.0900 276.010   1
  -3   2   5 178.680 91.2000   1
   3  -2  -5 335.800 123.270   1
  -3  -2   1 80990.9 3897.68   1
   3   2  -1 85969.3 3959.63   1
   3   2  -1 105879. 4980.91   1
  -3  -2   1 98791.4 4662.64   1
   4  -3   0 2855.50 272.810   1
   4  -3   0 2023.19 234.080   1
   4  -3   0 2483.23 368.900   1
  -4   3   0 2408.08 246.480   1
  -4   3   0 2106.99 349.490   1
   4  -3   0 2104.50 268.120   1
   4  -3   0 2129.60 193.000   1
  -4   3   0 3078.86 334.150   1
   2  -3  -5 33734.0 1300.79   1
  -2   3   5 35973.2 1251.30   1
  -2   3   5 42632.3 1630.79   1
  -2  -3  -1 13220.0 579.270   1
  -2  -3  -1 12205.1 548.780   1
   2  -2  -6 10544.8 541.280   1
  -2   2   6 9551.66 443.000   1
  -2   2   6 12396.2 706.080   1
  -2   2   6 11979.3 552.920   1
   2   2  -6 10300.5 734.510   1
  -2  -2   6 11715.3 464.770   1
   2   2  -6 9560.80 419.900   1
   2   2  -6 11750.6 491.380   1
  -2  -2   6 12516.9 491.960   1
  -4   1  -1 159067. 7537.37   1
   4  -1   1 136392. 6502.69   1
   4  -1   1 196910. 9227.51   1
   4  -1   1 208192. 9506.02   1
  -2   5  -3 10461.1 478.950   1
  -2   5  -3 9844.61 390.830   1
   2  -5   3 13286.1 644.480   1
   2  -5   3 11366.4 515.300   1
   2  -5   3 11131.4 405.600   1
  -2   5  -3 14500.8 631.470   1
  -4   3   1 6863.57 374.950   1
   4  -3  -1 7996.81 478.080   1
   4  -3  -1 6154.09 348.760   1
  -4   3   1 7628.95 559.990   1
   4  -3  -1 6434.19 285.990   1
   4  -3  -1 5029.88 446.970   1
   4  -3  -1 7569.11 684.700   1
  -4   3  -1 11449.2 762.760   1
   4  -3   1 9374.36 529.550   1
  -4   3  -1 13629.6 689.400   1
   4  -3   1 10801.5 713.040   1
   4  -3   1 11458.8 553.130   1
   4  -3   1 9984.79 505.960   1
   4  -3   1 9579.22 382.440   1
  -4   3  -1 8925.57 403.490   1
   1  -1  -7 27129.7 1574.11   1
   0  -2  -6 40257.4 1461.41   1
  -3  -1   5 9155.56 394.820   1
   3   1  -5 7280.59 367.780   1
   3   1  -5 9225.63 429.690   1
  -3  -1   5 9464.07 419.590   1
   3   1  -5 10918.9 465.630   1
   3   1  -5 10011.7 459.030   1
   3   2  -3 20493.3 731.390   1
   3   2  -3 16721.8 706.380   1
   3   2  -3 18302.9 673.940   1
  -3  -2   3 15531.2 601.920   1
   1   4   1 25214.8 815.340   1
  -1  -4  -1 30584.0 1164.78   1
  -3  -2   0 152621. 7096.06   1
  -3  -2   0 121112. 5631.33   1
   3   2   0 137535. 6282.88   1
   3   0   4 8493.26 411.860   1
  -3   0  -4 8265.71 440.400   1
  -3   0  -4 6719.05 390.310   1
   3   0   4 7976.29 335.770   1
   3  -2   5 30223.1 1025.75   1
  -3   2  -5 41495.3 1352.94   1
   3  -2   5 41541.2 1419.69   1
   3  -2   5 43291.5 1677.52   1
  -1   4  -6 17382.3 619.650   1
   1  -4   6 18435.6 624.400   1
  -1   4  -6 17160.7 801.590   1
   1  -4   6 14705.9 560.920   1
   1  -4   6 14189.1 720.490   1
   4  -2   2 19973.4 905.660   1
   4  -2   2 28977.2 1067.59   1
   4  -2   2 24893.0 882.830   1
  -4   2  -2 22837.6 909.980   1
   2   1   5 18072.5 704.580   1
  -2  -1  -5 17889.4 749.260   1
   2   1   5 16728.6 674.590   1
  -2  -1  -5 16045.7 689.510   1
   0  -3   7 9611.95 372.950   1
   0  -3   7 7839.75 524.700   1
   0   3  -7 6929.68 348.800   1
   0   3  -7 7204.08 596.840   1
   0   3  -7 7574.23 381.260   1
   0  -3   7 7199.68 311.870   1
   0   3  -7 9662.10 570.890   1
   2  -5  -1 29286.7 930.260   1
   2  -5  -1 28306.6 1098.15   1
   2  -5  -1 28661.3 942.780   1
  -2   5   1 30344.0 1116.52   1
   3  -4   4 52.8200 101.300   1
   3  -4   4 454.090 101.310   1
  -3   4  -4 352.190 86.0700   1
  -3   4  -4 361.050 92.8100   1
  -3   4  -4 224.870 138.500   1
   3  -4   4 285.190 101.380   1
   3  -4   4 239.930 80.7800   1
   0  -4  -3 4731.44 410.940   1
   0   4   3 5435.33 419.860   1
   4  -1  -3 33033.6 1112.14   1
  -4   1   3 30518.5 1028.49   1
  -4   1   3 27108.6 1137.88   1
   4  -1  -3 28479.2 997.050   1
  -4   1   3 29154.5 1068.96   1
   2   0  -7 18187.2 719.550   1
   2   0  -7 11252.9 774.370   1
  -2   0   7 18664.5 668.140   1
  -2   0   7 18254.3 940.740   1
  -1   5  -4 42684.0 1334.64   1
   1  -5   4 49813.1 1513.80   1
   1  -5   4 44605.5 1513.85   1
  -1   5  -4 55200.0 1719.34   1
   1  -5  -1 4371.81 364.690   1
  -1   5   1 4727.49 392.170   1
  -4   0   1 291.500 84.5800   1
  -4   0   1 203.630 56.8400   1
   4   0  -1 73.8700 108.020   1
   4   0  -1 230.520 56.0600   1
  -4   2   3 37457.7 1540.38   1
  -4   2   3 36369.7 1261.93   1
   4  -2  -3 29956.3 1107.55   1
  -4   2   3 30881.0 1028.36   1
   4  -2  -3 26159.8 883.890   1
   0   5  -2 30454.3 985.390   1
   0  -5   2 28345.2 894.250   1
   0   5  -2 26113.6 851.270   1
  -1   3  -7 198.590 46.1200   1
   1  -3   7 202.180 113.640   1
   1  -3   7 213.900 80.6800   1
  -1   3  -7 148.820 87.4200   1
   1  -3   7 228.310 85.9900   1
  -1   3  -7 140.950 115.460   1
   0  -1  -7 4323.85 397.130   1
   0  -1  -7 4158.15 545.590   1
   0   1   7 4531.38 425.570   1
   0  -1  -7 2440.58 283.850   1
  -1   0  -7 17829.2 849.490   1
  -1   0  -7 16013.8 677.960   1
  -1   0  -7 19511.3 788.600   1
   1   0   7 20064.2 859.470   1
   1   0   7 19172.1 690.600   1
  -1   0  -7 17861.0 1134.82   1
  -4   3   2 61396.8 2204.62   1
  -4   3   2 67331.7 3248.77   1
   4  -3  -2 40920.3 1780.23   1
   4  -3  -2 51453.4 1835.92   1
   4  -3  -2 44938.8 1422.33   1
   0   5  -1 67501.3 3233.36   1
   0   5  -1 54615.7 1701.74   1
   0  -5   1 49335.5 1642.44   1
  -3   3  -5 132.880 61.7600   1
   3  -3   5 250.820 82.3900   1
   3  -3   5 253.240 83.7500   1
  -3   3  -5 201.050 80.2900   1
   3  -3   5 76.9400 106.970   1
   3  -3   5 140.480 46.2400   1
   3  -3   5 121.540 86.9200   1
   3  -4  -3 29630.1 1156.87   1
  -3   4   3 23934.9 891.350   1
   3  -4  -3 27117.9 878.240   1
  -3   4   3 34783.2 1542.40   1
   3  -4  -3 26022.8 875.160   1
  -3   4   3 28916.5 995.580   1
   0  -4   6 7015.59 324.730   1
   0  -4   6 6468.02 262.270   1
   0  -4   6 4590.54 429.160   1
   0   4  -6 5739.73 406.630   1
   0   4  -6 6822.64 428.410   1
   0   4  -6 6622.93 321.630   1
   4  -3   2 775.450 153.340   1
   4  -3   2 584.770 99.9600   1
   4  -3   2 795.020 109.070   1
  -4   3  -2 558.820 79.8500   1
  -4   3  -2 507.060 85.3400   1
  -4   0   2 6193.50 312.460   1
   4   0  -2 8505.82 404.590   1
   4   0  -2 6473.13 319.030   1
   4   0  -2 8960.64 458.860   1
  -2   0  -6 852.160 139.100   1
   2   0   6 903.750 126.840   1
   2   0   6 383.130 130.510   1
  -2   0  -6 627.560 97.1300   1
  -2   0  -6 1911.89 450.170   1
   0  -3  -5 4847.39 366.320   1
   0  -3  -5 8204.03 511.100   1
   3   1   3 1985.63 169.700   1
   3   1   3 2471.33 235.510   1
  -3  -1  -3 2282.14 282.320   1
  -3  -1  -3 1280.99 207.400   1
   2   1  -7 31495.2 1459.59   1
   2   1  -7 40554.5 1359.58   1
  -4   0   0 586.090 185.670   1
   4   0   0 788.100 132.390   1
   4   0   0 486.480 81.6600   1
  -4   0   0 275.260 70.7700   1
  -4   0   0 650.460 141.740   1
   2   3  -5 1292.76 154.560   1
  -2  -3   5 984.710 153.080   1
   2   3  -5 1009.02 132.270   1
   2   3  -5 1104.98 144.420   1
   2   3  -5 831.780 120.280   1
   0   5  -3 33045.6 1050.25   1
   0  -5   3 30719.6 1013.85   1
   0   5  -3 36649.3 1189.78   1
   0  -5   3 27764.7 895.780   1
   3  -1   5 32549.6 1062.10   1
   3  -1   5 32789.8 1060.15   1
  -3   1  -5 30674.2 1452.94   1
   3  -1   5 30180.7 1055.15   1
   2  -4  -4 581.150 174.330   1
  -2   4   4 921.790 218.940   1
  -2   4   4 643.120 119.180   1
  -1   4   4 41164.8 1414.52   1
   1  -4  -4 37393.0 1404.00   1
  -4   1  -2 57030.6 2083.09   1
   4  -1   2 40552.1 1331.18   1
   4  -1   2 64549.4 3188.05   1
   4  -1   2 69001.1 3228.60   1
   4  -1   2 47702.9 1940.85   1
   2  -5   4 20306.2 665.850   1
  -2   5  -4 22603.2 786.700   1
   2  -5   4 21266.5 804.230   1
  -2   5  -4 21957.6 878.670   1
  -1  -4   5 55099.5 1739.22   1
   1   4  -5 53993.7 1680.33   1
   1   4  -5 46008.3 1506.55   1
  -1  -4   5 42300.9 1434.41   1
   1   4  -5 42428.1 1441.02   1
   3  -5   1 6722.25 374.600   1
   3  -5   1 8102.19 583.910   1
   3  -5   1 9145.50 357.070   1
   3  -5   1 7288.76 418.320   1
  -3   5  -1 9307.38 594.480   1
  -1  -3  -4 47777.0 1577.92   1
  -1  -3  -4 71598.3 3535.26   1
   1   3   4 59134.1 1839.38   1
   3   0  -6 8981.87 578.050   1
  -3   0   6 11597.0 664.310   1
  -3   0   6 11829.6 475.810   1
   3   0  -6 10018.9 417.630   1
  -3   0   6 10478.8 446.080   1
  -3  -2   4 7906.26 349.680   1
   3   2  -4 8780.01 405.550   1
   3   2  -4 7476.68 428.990   1
  -3  -2   4 7662.29 392.380   1
   3   2  -4 7657.50 394.040   1
   3   2  -4 8149.42 381.720   1
  -3   1   6 2545.93 217.270   1
  -3   1   6 1770.51 204.820   1
  -3   1   6 2195.25 318.570   1
   3  -1  -6 2354.91 232.710   1
  -3   1   6 2145.13 212.640   1
   2   2   4 23627.6 882.000   1
  -2  -2  -4 31640.7 1284.31   1
  -2  -2  -4 24612.7 937.360   1
   2   2   4 29202.4 957.590   1
  -2   1   7 1400.25 155.060   1
   2  -1  -7 1088.49 153.700   1
  -2   1   7 941.990 225.100   1
   3   2   1 47939.2 1516.62   1
  -3  -2  -1 40452.9 1468.01   1
  -3  -2  -1 36748.7 1326.69   1
   3  -5   0 66141.4 3042.55   1
   3  -5   0 46037.7 1740.86   1
   3  -5   0 59297.6 1908.51   1
  -3   5   0 82396.8 4089.20   1
   3  -5   0 72094.8 3457.45   1
  -2  -3  -2 1423.68 189.150   1
   2   3   2 1725.76 157.220   1
   2   3   2 1428.28 154.250   1
   3  -5   2 -34.630 54.0800   1
  -3   5  -2 198.070 138.100   1
  -3   5  -2 107.890 182.430   1
   3  -5   2 -114.99 112.670   1
   3  -5   2 27.0400 50.1500   1
   0   5   0 117294. 5415.67   1
   0  -5   0 67809.3 3229.38   1
  -4   0   3 1580.84 177.350   1
   4   0  -3 2001.10 274.040   1
   4   0  -3 1428.06 157.110   1
   4   0  -3 1620.56 193.950   1
  -4   0   3 1722.34 166.120   1
   4   0  -3 2256.00 216.710   1
   2  -4   6 8656.71 445.370   1
  -2   4  -6 3606.98 1131.52   1
   2  -4   6 9942.38 390.470   1
   2  -4   6 12521.5 521.150   1
  -2   4  -6 11816.0 487.800   1
  -4   0  -1 10380.6 644.760   1
  -4   0  -1 7687.53 376.420   1
  -4   0  -1 11188.7 634.470   1
   4   0   1 12730.4 522.060   1
   4  -4   0 2082.01 252.820   1
  -4   4   0 2961.73 348.410   1
   4  -4   0 3521.50 339.540   1
   4  -4   0 2049.97 216.580   1
   4  -4   0 3060.68 242.790   1
   0   1  -8 40305.6 1321.18   1
   0  -1   8 40755.9 1681.73   1
   0   1  -8 38718.3 1691.39   1
   0  -1   8 46262.5 1924.17   1
   4  -2   3 21367.5 854.300   1
  -4   2  -3 21290.4 818.610   1
   4  -2   3 27970.5 1049.98   1
   4  -2   3 21928.7 877.590   1
   4  -2   3 19923.3 724.420   1
   4  -2   3 17735.7 958.260   1
   2  -5  -2 3874.97 269.760   1
   2  -5  -2 5805.07 476.800   1
  -2   5   2 5683.44 500.100   1
  -1  -4  -2 69347.2 3305.43   1
   1   4   2 68386.1 3136.39   1
   4  -4   1 15520.8 530.240   1
   4  -4   1 19414.3 789.400   1
   4  -4   1 20444.0 817.890   1
  -4   4  -1 17463.0 947.520   1
   4  -4   1 13860.8 744.820   1
   0   5  -4 4757.78 343.040   1
   0   5  -4 5421.98 367.240   1
   0  -5   4 5709.08 405.480   1
  -4   1   4 3461.22 281.520   1
   4  -1  -4 4330.48 343.300   1
   4  -1  -4 6832.12 573.790   1
   4  -1  -4 4124.22 314.480   1
  -4   1   4 3834.16 317.070   1
   4  -1  -4 3890.26 310.890   1
  -4   3   3 1708.08 354.560   1
   4  -3  -3 1540.96 152.520   1
  -4   3   3 881.310 126.390   1
   4  -3  -3 1139.67 252.120   1
   4  -3  -3 1716.90 208.890   1
  -4   3   3 1380.53 166.460   1
  -3   3   5 3858.47 313.740   1
   3  -3  -5 4139.13 411.980   1
  -3   3   5 2762.98 241.140   1
  -3   3   5 4324.20 451.510   1
   1   3  -7 4872.31 431.540   1
   1   3  -7 5967.23 350.420   1
   1   3  -7 5036.06 597.790   1
   1   3  -7 7331.59 325.720   1
  -1  -3   7 6360.28 493.300   1
  -1  -3   7 5760.39 393.170   1
  -1  -3   7 5802.72 418.670   1
  -4   3  -3 207.590 54.8000   1
   4  -3   3 306.380 73.8600   1
  -4   3  -3 211.460 58.4600   1
   4  -3   3 294.860 129.470   1
   4  -3   3 264.900 71.1200   1
  -2   2  -7 921.870 109.550   1
   2  -2   7 1128.06 157.120   1
   2  -2   7 1079.39 113.800   1
   2  -2   7 929.550 121.300   1
  -3   5   1 79935.9 3923.81   1
   3  -5  -1 61335.7 1883.62   1
   3  -5  -1 54036.1 1815.21   1
   3  -5  -1 66217.9 3168.91   1
   3  -5  -1 61123.3 1847.75   1
  -1  -1   8 14544.9 528.630   1
   1   1  -8 16015.1 835.580   1
   1   1  -8 13421.0 941.220   1
  -1  -1   8 13781.9 981.860   1
  -1  -1   8 17459.4 688.930   1
  -1  -1   8 13661.3 947.540   1
   1   1  -8 14150.5 545.150   1
  -1   5  -5 66743.4 3078.85   1
   1  -5   5 54409.8 1823.25   1
   1  -5   5 76725.8 3522.27   1
  -1   5  -5 63034.6 2932.18   1
  -1   5   2 11358.8 460.200   1
   1  -5  -2 12031.0 624.870   1
   0   2  -8 1882.47 316.370   1
   0   2  -8 3080.13 273.450   1
   0  -2   8 3060.99 238.450   1
   0  -2   8 2419.44 205.180   1
   0   2  -8 3466.66 347.580   1
   0  -2   8 3426.28 406.500   1
   4  -4  -1 11190.7 429.430   1
  -4   4   1 13436.6 734.140   1
  -4   4   1 9938.66 469.470   1
   4  -4  -1 12267.8 616.210   1
   4  -4  -1 7703.62 403.110   1
  -4   2   4 10048.6 450.030   1
   4  -2  -4 10306.5 420.100   1
  -4   2   4 12455.9 722.750   1
   4  -2  -4 10248.7 382.420   1
   4  -2  -4 9396.68 459.120   1
  -4   2   4 10336.8 431.300   1
  -4   2   4 12814.4 661.730   1
  -3   5  -3 15184.1 559.760   1
   3  -5   3 11609.6 755.820   1
  -3   5  -3 13981.7 838.250   1
   3  -5   3 12943.5 456.950   1
  -3   5  -3 17270.3 706.710   1
   3  -5   3 17042.4 784.570   1
  -3  -1   6 2532.79 208.110   1
  -3  -1   6 2707.69 234.730   1
   3   1  -6 2712.36 227.170   1
   3   1  -6 2367.66 215.690   1
   3   1  -6 1573.05 176.940   1
   1   0  -8 46225.5 1599.92   1
  -1   0   8 49752.1 1561.12   1
  -1   0   8 40126.5 1839.25   1
  -3   4  -5 12637.1 553.050   1
  -3   4  -5 6461.26 747.230   1
   3  -4   5 10424.4 477.760   1
   3  -4   5 8628.48 373.330   1
   3  -4   5 10791.9 454.230   1
  -3   4  -5 8036.85 346.960   1
   3  -4   5 9701.14 422.450   1
   3  -2  -6 67736.9 3218.45   1
  -3   2   6 50645.1 1634.69   1
  -3   2   6 66851.6 3110.23   1
  -3   2   6 86299.7 4316.10   1
  -4   4  -2 7414.55 583.380   1
  -4   4  -2 8773.82 442.960   1
   4  -4   2 8556.39 486.910   1
   4  -4   2 7767.03 527.430   1
   4  -4   2 9211.22 428.320   1
   4  -4   2 7699.13 315.040   1
   2   2  -7 18367.0 721.240   1
   2   2  -7 24129.9 867.540   1
  -2  -2   7 25191.6 850.780   1
   1  -2  -7 59412.6 2014.73   1
  -1   2   7 64383.0 3195.95   1
   0  -5  -1 42350.3 1434.47   1
   0   5   1 46717.6 1476.34   1
   1  -3  -6 13713.9 707.150   1
  -1   3   6 13743.8 648.430   1
   0   0   8 8799.65 352.530   1
   0   0  -8 8798.22 394.180   1
   0   0   8 11706.5 817.430   1
   2  -1   7 1280.28 185.600   1
  -2   1  -7 1766.30 194.730   1
   2  -1   7 1517.77 156.760   1
  -3  -2   5 21961.9 808.360   1
   3   2  -5 19119.1 706.470   1
   3   2  -5 16898.7 687.390   1
   3   2  -5 19044.8 708.870   1
  -3  -2   5 18821.5 702.270   1
   3   2  -5 18756.1 762.640   1
  -2   3  -7 57060.6 1851.14   1
   2  -3   7 50892.9 1621.82   1
   2  -3   7 45121.2 1489.31   1
   4   0  -4 1121.51 147.880   1
  -4   0   4 1047.35 123.460   1
   4   0  -4 1288.89 149.700   1
  -4   0   4 1282.62 139.520   1
   4   0  -4 1616.13 189.990   1
   4  -1   3 49891.9 1677.27   1
  -4   1  -3 34096.9 1183.60   1
  -4   1  -3 50143.6 1952.91   1
   4  -1   3 36665.8 1200.26   1
   2  -5   5 704.320 115.670   1
  -2   5  -5 84.0700 131.280   1
  -2   5  -5 592.890 103.830   1
   2  -5   5 874.460 101.260   1
   2  -3  -6 160667. 7437.70   1
  -2   3   6 179434. 8263.46   1
  -2   3   6 171092. 8009.28   1
   3   2   2 1731.77 185.100   1
  -3  -2  -2 2061.50 268.630   1
   3   2   2 1647.40 141.670   1
   3  -4  -4 9842.91 557.990   1
  -3   4   4 7614.15 377.550   1
  -3   4   4 10684.0 676.930   1
   2   3  -6 5862.32 419.710   1
   2   3  -6 5159.43 395.880   1
  -2  -3   6 5455.17 424.750   1
   2   3  -6 4867.30 397.780   1
   1   2   6 92.2800 95.3900   1
  -1  -2  -6 26.0000 91.2100   1
  -1  -2  -6 -70.470 172.460   1
   0  -4  -4 3572.96 324.990   1
   0   4   4 3553.95 295.370   1
  -3   0  -5 2587.12 284.150   1
   3   0   5 3196.13 251.190   1
  -3   0  -5 2385.16 404.970   1
   3   0   5 2361.24 223.210   1
  -3   0  -5 2237.10 294.800   1
   1   2  -8 1283.05 269.630   1
   1   2  -8 1377.66 148.340   1
  -1  -2   8 1525.17 165.830   1
   1   2  -8 1264.36 222.260   1
  -1  -2   8 1275.50 126.480   1
   2   4  -2 29202.0 995.820   1
   2   4  -2 33403.2 1115.10   1
   2   4  -2 28061.2 1058.92   1
   1   4  -6 4211.89 341.700   1
  -1  -4   6 3750.22 317.870   1
   1   4  -6 3262.84 294.590   1
  -1  -4   6 3699.15 290.080   1
   1   4  -6 4389.14 373.800   1
  -4   0  -2 93514.2 4407.11   1
  -4   0  -2 110660. 5415.85   1
   4   0   2 134052. 6140.43   1
   1  -2   8 218.360 82.7600   1
  -1   2  -8 44.1400 91.1500   1
  -1   2  -8 173.160 65.6800   1
  -1   2  -8 259.000 120.430   1
   1  -2   8 318.270 113.300   1
   1  -4   7 1377.43 229.390   1
  -1   4  -7 2684.36 224.370   1
   1  -4   7 2557.73 216.060   1
   1  -4   7 2651.81 203.340   1
  -1   4  -7 2596.25 210.820   1
  -4   4   2 4362.07 384.080   1
  -4   4   2 5037.77 537.980   1
   4  -4  -2 4203.24 309.530   1
  -4   4   2 3137.55 285.150   1
   4  -4  -2 4043.88 356.450   1
  -1  -1  -7 118062. 5580.55   1
  -1  -1  -7 111469. 5147.63   1
   1   1   7 156834. 7311.21   1
   3  -2   6 16319.5 787.570   1
   3  -2   6 14938.4 572.820   1
  -3   2  -6 13542.8 552.350   1
   3  -2   6 11632.5 482.650   1
   2  -2  -7 7550.42 446.090   1
  -2   2   7 7000.39 572.380   1
  -2   2   7 8050.93 438.790   1
   4   1  -1 625.830 112.370   1
   4   1  -1 554.070 95.3100   1
  -4  -1   1 463.820 92.2100   1
  -4  -1   1 556.600 119.370   1
   0  -5   5 4986.59 349.270   1
   0   5  -5 6113.43 277.220   1
   0   5  -5 6164.95 253.340   1
  -4  -1   2 273.760 119.140   1
   4   1  -2 285.810 73.4200   1
   4   1  -2 254.140 76.8800   1
   4   1  -2 328.120 77.3600   1
   1  -1   8 54274.3 2198.50   1
  -1   1  -8 41428.8 1857.42   1
  -3  -1  -4 12045.3 597.330   1
   3   1   4 17743.8 702.400   1
  -3  -1  -4 12945.0 636.820   1
   3   1   4 15267.5 535.130   1
   2   4  -1 1331.63 124.240   1
  -2  -4   1 1195.09 176.290   1
   2   4  -1 1089.89 112.140   1
   2   4  -3 12029.4 491.790   1
   2   4  -3 12424.3 464.390   1
   2   4  -3 10015.2 550.700   1
   3  -5  -2 15700.4 539.740   1
   3  -5  -2 17915.3 791.320   1
   3  -5  -2 16498.6 597.000   1
  -3   5   2 17183.5 873.380   1
   0   4  -7 6541.35 311.560   1
   0  -4   7 7285.72 332.820   1
   0   4  -7 7693.18 488.080   1
   0  -4   7 6138.38 428.190   1
   0   4  -7 6624.89 301.920   1
   0  -4   7 7686.51 292.800   1
   3  -3   6 26.9700 73.1400   1
   3  -3   6 -72.650 108.320   1
  -3   3  -6 11.2600 79.7800   1
  -3   3  -6 82.7800 61.0700   1
   3  -3   6 97.2100 69.4300   1
  -2  -3  -3 5453.13 472.230   1
   2   3   3 5100.23 360.670   1
  -3   5  -4 29307.0 989.600   1
   3  -5   4 30935.9 1202.12   1
  -3   5  -4 30151.2 1083.64   1
   3  -5   4 29042.5 940.920   1
  -3   5  -4 22857.4 1153.49   1
  -4   4  -3 28731.2 1000.10   1
  -4   4  -3 22644.2 1231.96   1
  -4   4  -3 19403.8 712.700   1
  -2  -1  -6 22389.7 897.360   1
   0  -3   8 9966.82 366.750   1
   0   3  -8 9808.14 443.760   1
   0  -3   8 9558.38 382.750   1
   0   3  -8 7850.05 745.690   1
   0   3  -8 8227.10 401.430   1
  -2   5   3 6215.91 410.430   1
   2  -5  -3 5952.68 469.420   1
   4   1   0 7396.55 317.030   1
   4   1   0 8899.54 484.900   1
  -4  -1   0 7630.13 468.320   1
  -4  -1   0 7671.63 433.710   1
   4  -3  -4 40576.5 1501.02   1
  -4   3   4 30477.4 1051.74   1
   4  -3  -4 25150.8 1626.96   1
   4  -3  -4 32597.7 1075.94   1
  -4   3   4 31108.9 1075.66   1
  -4   3   4 39184.0 1602.12   1
   0  -2  -7 679.610 183.390   1
   0   2   7 789.200 194.760   1
  -4   1   5 22768.6 1057.50   1
  -4   1   5 19205.4 677.570   1
   4  -1  -5 18930.9 733.740   1
  -4   1   5 18291.7 700.660   1
   4  -1  -5 20262.5 696.250   1
   4  -1  -5 20733.7 749.340   1
   4   1  -3 15133.7 601.610   1
   4   1  -3 15646.5 609.420   1
   4   1  -3 12897.3 544.430   1
  -4  -1   3 13826.1 559.330   1
   4  -2   4 8132.28 417.420   1
   4  -2   4 8203.52 421.570   1
  -4   2  -4 6485.79 390.180   1
   4  -2   4 7667.29 336.570   1
   4  -2   4 11441.8 549.600   1
   4  -2   4 6847.13 524.120   1
   2  -4  -5 34596.1 1406.64   1
  -2   4   5 30695.5 1184.03   1
   4  -3   4 11333.5 482.680   1
   4  -3   4 9165.25 418.530   1
  -4   3  -4 8744.92 379.450   1
  -4   3  -4 6274.45 298.610   1
   4  -3   4 8131.86 392.190   1
   4  -3   4 8623.87 582.700   1
   4  -3   4 6132.56 486.490   1
   1  -1  -8 24771.1 999.730   1
  -1   4   5 42651.4 1450.60   1
   1  -4  -5 43172.1 1666.75   1
  -1  -4  -3 5572.67 517.150   1
   1   4   3 6102.25 313.740   1
  -1  -5   2 6572.05 369.300   1
   1   5  -2 6390.05 274.640   1
   3   3  -2 92.7700 101.420   1
  -3  -3   2 145.530 94.6700   1
   3   3  -2 97.3100 96.9100   1
  -2   0   8 4573.60 503.290   1
   2   0  -8 5227.24 405.470   1
  -2   0   8 5654.98 401.980   1
  -2   0   8 3791.89 428.550   1
   2   4   0 64324.3 2959.95   1
  -2  -4   0 51405.6 1717.21   1
   3   0  -7 25290.5 932.090   1
  -3   0   7 21244.2 762.570   1
   3   0  -7 24360.6 1268.83   1
  -3   0   7 25788.0 1222.68   1
   2   4  -4 24875.1 821.690   1
   2   4  -4 20821.5 719.790   1
   2   4  -4 22843.9 918.920   1
   1  -3   8 10922.8 430.410   1
   1  -3   8 12486.1 471.210   1
  -1   3  -8 7420.34 340.440   1
  -1   3  -8 5406.22 620.500   1
  -1   3  -8 10764.5 460.970   1
   3  -1   6 17751.2 627.760   1
  -3   1  -6 20088.9 926.340   1
  -3   1  -6 21314.2 818.420   1
   3  -1   6 21248.3 776.510   1
  -1  -3  -5 33824.4 1291.17   1
   1   3   5 45011.0 1535.60   1
   1  -5   6 25428.8 900.280   1
  -1   5  -6 25485.3 852.460   1
   1  -5   6 28351.6 910.990   1
   1  -5   6 23408.5 966.870   1
  -1   5  -6 32628.0 1071.21   1
  -1   5   3 674.410 144.680   1
   1  -5  -3 669.110 171.580   1
  -2  -2  -5 27772.5 1007.46   1
   2   2   5 31276.9 1062.60   1
  -2  -2  -5 37852.6 1487.68   1
   0   3   6 755.960 148.150   1
   0  -3  -6 815.290 164.940   1
   3   3  -1 18610.2 658.510   1
  -3  -3   1 14913.8 639.070   1
  -3  -3   1 15055.9 700.730   1
   3   3  -1 15168.3 709.020   1
   1   5  -3 33613.7 1070.79   1
   1   5  -3 32794.9 1071.51   1
   0   5   2 72637.0 3374.01   1
   0  -5  -2 53073.8 1774.25   1
   2   1  -8 12291.5 524.490   1
   2   1  -8 8871.68 592.890   1
  -2  -1   8 13588.2 542.950   1
  -2  -1   8 12704.6 471.300   1
  -3   1   7 2011.52 192.220   1
   3  -1  -7 2126.51 216.180   1
  -3   1   7 2553.74 403.130   1
  -3   1   7 1526.78 149.520   1
  -3   1   7 2138.01 188.720   1
   4  -2  -5 15399.0 609.620   1
  -4   2   5 22415.8 1112.21   1
  -4   2   5 17433.2 753.810   1
  -4   2   5 17265.2 621.860   1
   4  -2  -5 16260.2 681.160   1
  -4   2   5 15711.5 633.380   1
   4  -2  -5 17014.1 600.070   1
   1   5  -1 8408.68 334.810   1
  -1  -5   1 7602.48 403.660   1
   3   3  -3 11925.5 505.130   1
   3   3  -3 13612.8 515.120   1
   3   3  -3 14346.6 653.990   1
   3   3  -3 15594.6 594.910   1
  -3  -3   3 10535.7 509.680   1
  -2   0  -7 374.010 82.7300   1
   2   0   7 560.570 118.730   1
  -2   0  -7 523.900 307.600   1
  -2   0  -7 585.490 107.870   1
   2   0   7 566.220 103.270   1
  -4   0   5 1200.54 126.110   1
  -4   0   5 1180.86 136.300   1
   4   0  -5 1220.44 138.910   1
   4   0  -5 1051.76 119.900   1
   4   0  -5 1214.95 160.690   1
   2  -6   2 13771.0 468.290   1
  -2   6  -2 15043.8 604.860   1
   2  -6   2 13928.2 589.810   1
  -4   4   3 3716.88 489.570   1
  -4   4   3 2924.68 281.350   1
   4  -4  -3 2806.54 214.840   1
   4  -4  -3 2780.46 224.000   1
  -4   4   3 2147.91 219.500   1
   4  -4  -3 3438.68 330.400   1
   2  -6   1 6926.67 272.690   1
   2  -6   1 6294.04 359.100   1
   2  -6   1 5546.55 380.100   1
  -2   6  -1 5501.71 438.860   1
  -2   4  -7 5402.05 660.570   1
   2  -4   7 8074.68 506.900   1
   2  -4   7 12182.0 470.740   1
   2  -4   7 10356.0 431.160   1
  -2   4  -7 11396.9 483.830   1
   1   0   8 13639.8 520.360   1
  -1   0  -8 12422.2 908.430   1
  -1   0  -8 10500.5 477.920   1
   1   0   8 11427.9 741.230   1
   0   1   8 2393.55 317.530   1
   0  -1  -8 1339.72 230.110   1
   0  -1  -8 3295.61 328.070   1
   0  -1  -8 3667.08 651.860   1
   3   2  -6 27090.8 1056.07   1
   3   2  -6 23838.6 833.820   1
  -3  -2   6 27563.7 956.910   1
   3   2  -6 27835.4 965.860   1
  -4  -1  -1 228.760 108.450   1
   4   1   1 167.910 83.7100   1
  -4  -1  -1 88.5100 68.4400   1
  -1   6  -2 6168.83 277.180   1
   1  -6   2 6233.97 271.870   1
   1  -6   2 5571.41 435.620   1
   1  -6   2 5712.52 384.320   1
   4   1  -4 962.690 142.110   1
  -4  -1   4 685.240 101.090   1
  -4  -1   4 934.830 146.180   1
   4   1  -4 610.390 100.620   1
   4   1  -4 994.340 120.770   1
   3  -3  -6 1670.10 213.210   1
  -3   3   6 2833.16 407.110   1
  -3   3   6 2432.03 218.650   1
   4  -5   1 10713.3 500.450   1
   4  -5   1 9343.16 277.860   1
   4  -5   1 10698.0 457.520   1
  -4   5  -1 10498.7 727.520   1
  -4   0  -3 57616.4 1750.72   1
   4   0   3 58599.8 1397.32   1
  -4   0  -3 49439.8 1309.05   1
   3   2   3 15897.3 555.010   1
  -3  -2  -3 15986.2 728.300   1
   3   2   3 17316.0 440.990   1
   4  -1   4 17187.6 475.480   1
   4  -1   4 13767.9 410.280   1
  -4   1  -4 18907.1 885.300   1
   4  -1   4 16060.1 619.280   1
   3   3   0 54716.2 1175.78   1
  -3  -3   0 45350.4 1159.89   1
  -3  -3   0 40641.4 1064.29   1
   3  -4   6 12509.4 400.820   1
   3  -4   6 13252.7 441.330   1
  -3   4  -6 10828.5 412.330   1
  -3   4  -6 9981.76 331.770   1
  -2   6  -3 10988.9 416.240   1
  -2   6  -3 12057.3 376.280   1
   2  -6   3 12049.2 335.340   1
   1   5  -4 6988.85 233.960   1
   1   5  -4 7677.57 270.230   1
   2  -1  -8 5483.34 376.720   1
  -2   1   8 6103.60 248.030   1
  -2   1   8 6560.34 503.660   1
   2  -5   6 6912.29 297.680   1
   2  -5   6 8820.55 275.320   1
   2  -5   6 5862.77 400.820   1
  -2   5  -6 8185.17 297.850   1
   1  -6   1 830.930 89.8800   1
  -1   6  -1 1131.03 122.560   1
   1  -6   1 811.160 144.810   1
   4  -5   0 56517.9 1184.73   1
   4  -5   0 66480.5 1656.92   1
  -4   5   0 86895.9 7375.28   1
   4  -5   0 71545.1 1676.22   1
   3   1  -7 2490.17 262.200   1
  -3  -1   7 3034.12 223.720   1
   3   1  -7 2862.07 230.280   1
   1   5   0 23994.6 679.680   1
  -1  -5   0 31075.2 900.040   1
   1   5   0 30291.1 701.010   1
  -2   6   0 2529.87 234.030   1
   2  -6   0 2303.41 161.640   1
   2  -6   0 3016.61 183.100   1
   2  -6   0 2492.66 209.410   1
   3  -5  -3 13907.4 452.690   1
  -3   5   3 12629.3 661.970   1
   3  -5  -3 13982.7 583.890   1
   3  -5  -3 12359.2 343.440   1
  -1   6  -3 2070.36 210.940   1
   1  -6   3 1743.23 175.470   1
   1  -6   3 1648.78 128.410   1
  -1   6  -3 1629.25 214.180   1
   3   3  -4 6438.51 283.240   1
   3   3  -4 4379.52 356.300   1
   3   3  -4 4156.72 313.390   1
   3   3  -4 4235.02 267.470   1
  -3  -3   4 3993.92 329.370   1
  -1  -3   8 733.960 189.400   1
  -1  -3   8 706.690 82.8500   1
   1   3  -8 431.440 128.240   1
   1   3  -8 596.650 105.260   1
  -1  -3   8 561.540 98.7800   1
   1   3  -8 734.960 262.630   1
   1   3  -8 717.950 132.450   1
   0  -5   6 7882.21 251.220   1
   0   5  -6 7355.35 220.720   1
   0   5  -6 8129.42 301.310   1
   0  -5   6 7206.88 320.740   1
  -4   4  -4 10271.7 364.540   1
   4  -4   4 13004.6 481.010   1
   4  -4   4 9928.63 316.400   1
  -4   4  -4 10283.8 359.470   1
   2   4   1 14396.3 371.510   1
  -2  -4  -1 11219.2 482.610   1
   3  -5   5 16104.1 584.170   1
   3  -5   5 20358.4 491.160   1
  -3   5  -5 19516.7 535.540   1
  -4   5  -2 14689.3 948.900   1
   4  -5   2 15876.5 444.420   1
   4  -5   2 18954.1 745.830   1
   4  -5   2 15019.0 522.900   1
   2   4  -5 2509.42 188.230   1
   2   4  -5 2799.69 253.810   1
   2   4  -5 2867.96 191.660   1
   2   3  -7 5830.75 412.670   1
   2   3  -7 7438.16 303.870   1
   2   3  -7 5577.32 325.340   1
  -2  -3   7 4916.21 294.130   1
  -3   4   5 3848.33 504.470   1
  -3   4   5 3157.75 253.880   1
   3  -4  -5 3703.55 335.390   1
  -1  -4   7 40694.1 859.530   1
   1   4  -7 39242.9 1089.99   1
  -1  -4   7 37937.3 857.130   1
   1   4  -7 36078.6 808.450   1
  -4   5   1 64565.3 1867.61   1
   4  -5  -1 60161.2 1540.63   1
   4  -5  -1 52590.3 1402.27   1
   4  -5  -1 45994.8 958.230   1
  -1   6   0 87634.7 7212.48   1
   1  -6   0 55465.6 1398.66   1
   3  -2  -7 12629.5 500.100   1
  -3   2   7 15683.5 501.890   1
  -3   2   7 11766.8 632.600   1
   2   2  -8 59671.5 1333.01   1
  -2  -2   8 57567.1 1247.42   1
   2   2  -8 60371.9 1516.63   1
  -2   2  -8 14262.6 448.840   1
   2  -2   8 14682.6 417.260   1
   0   1  -9 2070.88 355.000   1
   0   1  -9 3542.64 288.150   1
   0  -1   9 3117.56 447.810   1
   0   1  -9 2378.85 299.380   1
   0  -1   9 1967.01 254.130   1
   0  -1   9 3654.27 229.600   1
  -3   6  -1 29213.1 1035.44   1
   3  -6   1 25535.5 768.900   1
   3  -6   1 24631.2 573.680   1
   2  -6   4 5018.81 271.630   1
  -2   6  -4 6940.76 264.010   1
  -2   6  -4 5408.36 382.220   1
  -1   6  -4 4803.36 285.590   1
   1  -6   4 4435.47 248.880   1
  -1   6  -4 4953.43 277.190   1
  -1   6  -4 5606.10 467.180   1
   5  -2  -1 1663.29 153.290   1
   5  -2  -1 2604.32 309.300   1
   0  -4  -5 424.680 140.360   1
   0   4   5 429.200 112.250   1
  -4   3   5 59742.9 1301.30   1
  -4   3   5 59971.1 1371.40   1
   4  -3  -5 92978.2 7666.33   1
  -4   3   5 84318.7 7020.95   1
  -3   6  -2 3908.20 455.330   1
   3  -6   2 2767.56 211.230   1
   3  -6   2 1447.96 223.090   1
   3  -6   2 2867.71 171.700   1
   5  -2   0 17362.1 703.700   1
   5  -2   0 15080.2 533.790   1
  -2  -3  -4 22984.0 854.840   1
   2   3   4 20506.9 504.920   1
   0   2  -9 27370.5 1123.97   1
   0   2  -9 28692.0 791.530   1
   0  -2   9 35289.3 813.970   1
   0   2  -9 29412.2 972.090   1
   0  -2   9 35119.8 885.380   1
   1   1  -9 -16.530 119.150   1
   1   1  -9 26.1400 101.190   1
  -1  -1   9 -15.780 204.680   1
  -1  -1   9 60.7000 99.6600   1
  -1  -1   9 92.7700 97.5700   1
   1   1  -9 11.5700 107.410   1
   2  -5  -4 2778.44 295.290   1
  -2   5   4 3124.28 314.840   1
  -3  -3  -1 942.340 155.950   1
  -3  -3  -1 648.570 109.150   1
   3   3   1 845.130 95.5600   1
   2  -6  -1 46831.4 947.130   1
  -2   6   1 58178.5 1439.88   1
   2  -6  -1 48119.7 1244.39   1
   3   1   5 210.170 86.2100   1
  -3  -1  -5 62.0100 149.010   1
  -3  -1  -5 132.990 73.7300   1
   3   1   5 181.030 63.1300   1
  -4   1   6 1117.47 116.500   1
   4  -1  -6 1068.90 263.200   1
  -4   1   6 1057.74 305.770   1
   4  -1  -6 994.480 134.980   1
  -4   1   6 796.280 114.840   1
   4  -3   5 14660.2 719.000   1
   4  -3   5 20620.9 580.350   1
  -4   3  -5 23212.8 687.600   1
   4  -3   5 21467.1 671.050   1
   1   5  -5 21662.5 521.760   1
  -1  -5   5 27358.0 626.310   1
   1   5  -5 22993.0 562.880   1
  -3   0  -6 35029.6 1014.61   1
  -3   0  -6 31532.1 855.560   1
   3   0   6 37273.2 931.900   1
  -4  -1  -2 6384.02 291.150   1
  -4  -1  -2 8636.36 465.890   1
   4   1   2 9029.88 297.390   1
   4  -5   3 5497.17 303.490   1
  -4   5  -3 5582.80 381.510   1
   4  -5   3 5835.65 431.200   1
  -4   5  -3 3689.05 445.960   1
   2  -3   8 11195.5 377.050   1
  -2   3  -8 10818.5 414.940   1
   2  -3   8 10105.7 381.110   1
   4  -2   5 1025.48 127.310   1
  -4   2  -5 786.640 98.2000   1
   4  -2   5 848.220 100.130   1
   4  -2   5 1412.54 209.770   1
   4  -2   5 809.310 107.380   1
   4  -2   5 685.670 227.850   1
   5  -3   0 44324.6 970.430   1
   1  -4   8 6636.45 257.040   1
   1  -4   8 7495.92 237.190   1
   1  -4   8 6441.85 475.980   1
  -1   4  -8 5061.84 627.240   1
  -1   4  -8 8766.17 303.710   1
  -1   4  -8 6484.44 267.490   1
  -1   3   7 2378.90 295.390   1
   1  -3  -7 2424.76 296.730   1
   3  -6   0 7088.67 361.090   1
   3  -6   0 7997.56 236.790   1
   3  -6   0 5975.11 516.680   1
  -3   6   0 7532.58 509.720   1
   4   1  -5 17225.9 547.740   1
  -4  -1   5 21411.3 575.270   1
   5  -2  -2 2150.10 178.990   1
   5  -2  -2 3215.79 353.430   1
   5  -2  -2 2344.05 240.550   1
   1   5   1 33348.0 775.830   1
  -1  -5  -1 34368.2 1049.91   1
   5  -3  -1 11660.9 559.690   1
   5  -3  -1 8539.43 432.880   1
  -5   3   1 8679.94 341.930   1
  -5   3   1 13658.9 732.120   1
   5  -3  -1 9685.69 312.460   1
  -5   3   1 11142.9 591.490   1
   2  -3  -7 61930.1 1702.71   1
  -2   3   7 58779.4 1458.70   1
  -2   3   7 72950.0 2114.77   1
   0  -5  -3 312.710 164.200   1
   0   5   3 640.410 110.110   1
   3   3  -5 35680.2 825.850   1
   3   3  -5 31865.5 798.710   1
   3   3  -5 27139.1 881.130   1
   0   4  -8 240.330 89.5000   1
   0  -4   8 223.470 93.9200   1
   0   4  -8 175.880 91.3000   1
   0  -4   8 176.610 59.7900   1
   0  -4   8 174.070 102.490   1
   0   4  -8 279.620 80.4600   1
   0   4  -8 328.340 217.410   1
   4  -4  -4 1462.55 193.770   1
  -4   4   4 865.050 104.240   1
   4  -4  -4 829.120 96.1600   1
  -4   4   4 1653.36 308.110   1
   4  -4  -4 1270.14 117.980   1
  -4   4   4 1010.81 142.340   1
  -3   2  -7 6412.58 290.410   1
   3  -2   7 6097.48 364.060   1
   3  -2   7 5923.08 532.820   1
   3  -2   7 5813.10 378.700   1
   2  -1   8 15919.9 831.960   1
   2  -1   8 14910.9 445.640   1
  -2   1  -8 16035.5 527.370   1
   1   0  -9 12804.4 480.150   1
  -1   0   9 13652.4 426.550   1
  -1   0   9 10625.8 883.750   1
  -1   2   8 30827.8 1176.59   1
   1  -2  -8 27025.6 990.910   1
   5  -2   1 45226.6 1229.53   1
   5  -2   1 37514.1 973.230   1
   3  -3   7 7707.17 285.070   1
   3  -3   7 6275.57 282.430   1
  -3   3  -7 7935.34 349.810   1
  -1  -4  -4 24907.3 792.430   1
  -3   6  -3 20897.5 531.130   1
   3  -6   3 20670.8 500.170   1
  -3   6  -3 24234.5 985.180   1
   1  -5   7 56417.7 1278.92   1
  -1   5  -7 56362.4 1237.25   1
  -1   5  -7 49019.9 1011.08   1
   1  -5   7 51381.7 1024.90   1
   4  -5  -2 296.520 67.5900   1
  -4   5   2 148.880 81.4100   1
   4  -5  -2 483.120 137.570   1
  -4   5   2 -153.93 279.890   1
   4  -5  -2 304.510 91.5200   1
  -4   0   6 21533.0 564.670   1
  -4   0   6 14439.4 1172.22   1
   4   0  -6 18351.1 538.000   1
  -4   0   6 19153.5 568.900   1
  -5   1   1 8968.96 614.060   1
   5  -1  -1 8020.04 364.860   1
   5  -1  -1 8964.76 492.950   1
   1  -5  -4 13248.0 675.150   1
   5  -3   1 32181.1 1100.75   1
   5  -3   1 38062.2 864.020   1
   1   2   7 382.420 125.890   1
  -1  -2  -7 533.080 124.470   1
  -1  -2  -7 496.020 151.770   1
  -1  -2   9 16654.1 450.770   1
  -1  -2   9 14903.5 447.110   1
   1   2  -9 21659.8 849.890   1
   1   2  -9 15233.5 436.860   1
   1   2  -9 18256.8 970.390   1
   1  -6  -1 14632.5 540.850   1
  -1   6   1 17149.5 548.860   1
   4  -2  -6 7374.72 387.220   1
  -4   2   6 6725.41 317.220   1
  -4   2   6 7945.08 311.060   1
  -4   2   6 9361.80 634.740   1
  -4   2   6 5514.60 421.210   1
   0  -6   2 20594.4 588.010   1
   0   6  -2 21273.7 491.010   1
   0   6  -2 23842.6 679.850   1
   4   2  -2 16342.8 522.980   1
  -4  -2   2 14177.0 503.200   1
   4   2  -2 20357.8 519.410   1
  -4  -2   2 20051.6 679.870   1
   0   0   9 878.550 126.380   1
   0   0  -9 874.730 143.350   1
   0   0  -9 255.910 78.6200   1
   0   0   9 701.590 237.880   1
  -5   1   2 7667.86 565.030   1
   5  -1  -2 7985.34 452.390   1
   5  -1  -2 7833.68 427.070   1
   5  -1   0 38725.9 968.930   1
  -5   1   0 33397.3 1219.12   1
   5  -1   0 36189.4 1117.65   1
   5  -3  -2 23933.0 618.890   1
  -5   3   2 26689.2 1024.13   1
  -5   3   2 25937.3 826.080   1
   5  -3  -2 19585.2 695.220   1
  -5   3   2 21117.9 606.070   1
  -2   4   6 9055.27 546.690   1
   2  -4  -6 8762.21 545.860   1
   4   2  -1 569.770 98.2500   1
   4   2  -1 415.650 111.070   1
  -4  -2   1 386.620 101.010   1
  -4  -2   1 456.130 121.060   1
   2   4   2 6410.62 219.570   1
  -2  -4  -2 7132.85 479.850   1
   0   6  -3 8519.15 274.680   1
   0  -6   3 7051.85 216.110   1
   0   6  -3 7173.51 219.270   1
   2  -2  -8 2186.70 241.490   1
   2  -2  -8 1450.49 330.250   1
  -2   2   8 2635.69 395.990   1
   2   4  -6 6797.28 376.010   1
  -2  -4   6 8149.37 359.190   1
   2   4  -6 8292.62 311.140   1
   2   4  -6 9245.06 312.840   1
  -1   2  -9 1546.64 182.730   1
  -1   2  -9 2771.38 217.130   1
   1  -2   9 3694.51 234.990   1
   1  -2   9 3253.66 268.370   1
   0   6  -1 83934.2 6940.48   1
   0   6  -1 46934.6 1033.57   1
   0  -6   1 46872.4 1217.31   1
   3   2  -7 12701.9 491.980   1
   3   2  -7 10532.2 365.560   1
  -3  -2   7 10702.6 368.100   1
  -4   0  -4 41724.7 1126.44   1
  -4   0  -4 42059.3 1329.54   1
   4   0   4 45348.2 1154.64   1
   4   0   4 53598.4 1176.92   1
   4   2  -3 86986.9 7115.17   1
   4   2  -3 82961.1 1896.88   1
  -4  -2   3 76318.1 1725.83   1
   4   2  -3 99829.8 8180.17   1
   1   1   8 33964.2 1057.63   1
  -1  -1  -8 41226.5 1767.76   1
  -1  -1  -8 31185.3 1024.93   1
  -1  -1  -8 31247.4 921.730   1
   3  -6  -1 3155.33 198.400   1
   3  -6  -1 2884.39 244.030   1
   3  -6  -1 2948.17 199.460   1
  -3   6   1 3054.81 337.640   1
   1  -6   5 15713.6 411.520   1
  -1   6  -5 15698.1 430.870   1
   5  -2  -3 12141.7 703.830   1
   5  -2  -3 8206.08 359.570   1
  -5   2   3 8666.18 324.640   1
  -5   2   3 9662.02 440.920   1
   5  -2  -3 7604.65 281.000   1
  -4   4  -5 46746.7 1114.41   1
   4  -4   5 56699.6 1342.06   1
   4  -4   5 49813.2 1153.75   1
   1  -4  -6 7782.10 457.630   1
  -1   4   6 10844.6 556.100   1
   3  -5  -4 46685.3 1296.08   1
  -3   5   4 44745.8 1461.92   1
  -2  -1  -7 20809.6 858.120   1
  -2  -1  -7 21793.9 708.360   1
   2   1   7 19886.0 651.690   1
  -2   6  -5 5997.77 526.790   1
   2  -6   5 6296.76 225.450   1
   2  -6   5 4236.47 318.520   1
  -2   6  -5 6828.52 444.200   1
  -3   0   8 4732.83 293.060   1
   3   0  -8 3603.37 395.120   1
  -3   0   8 5592.91 516.010   1
  -3   0   8 4522.59 299.890   1
   3   0  -8 3467.30 265.320   1
   3   2   4 18238.5 497.670   1
  -3  -2  -4 18473.3 909.520   1
   3   2   4 13529.8 484.000   1
   0   3  -9 399.290 108.930   1
   0  -3   9 335.410 69.4200   1
   0   3  -9 279.360 87.7900   1
   0   3  -9 -112.80 157.770   1
   0  -3   9 336.560 97.6400   1
   0  -5   7 601.160 127.500   1
   0   5  -7 415.510 69.3500   1
   0   5  -7 423.340 113.520   1
   0  -5   7 430.650 64.8600   1
   1  -1   9 37293.6 1473.42   1
  -4   1  -5 16218.4 574.040   1
   4  -1   5 14507.1 510.520   1
  -4   1  -5 18077.3 884.480   1
   4  -1   5 15384.5 458.400   1
   4  -1   5 18909.1 515.830   1
  -1  -3  -6 3801.04 369.990   1
   1   3   6 3858.14 260.620   1
   3  -5   6 40984.8 1110.87   1
   3  -5   6 48486.9 1001.24   1
   3  -5   6 51717.2 1197.15   1
  -2  -2  -6 23607.4 938.800   1
   5  -3   2 10943.9 547.550   1
   5  -3   2 18195.7 960.220   1
   5  -3   2 11478.8 362.890   1
  -3   1  -7 4353.08 355.270   1
   3  -1   7 2363.03 266.300   1
   3  -1   7 4901.99 305.120   1
  -3   1  -7 4226.79 488.730   1
   2  -5   7 431.060 106.850   1
   2  -5   7 158.460 86.2800   1
   2  -5   7 478.270 100.290   1
  -2   5  -7 430.950 97.0000   1
  -4   5  -4 296.700 157.030   1
   4  -5   4 155.320 90.4600   1
   4  -5   4 463.590 61.0100   1
  -4   5  -4 667.560 119.010   1
  -4   5  -4 400.570 73.4600   1
   4  -5   4 672.360 119.880   1
   5  -1  -3 48112.0 1535.89   1
   5  -1  -3 41287.9 957.520   1
   5  -1  -3 34672.0 960.260   1
  -5   1   3 38575.8 1054.38   1
  -2   6   2 71877.8 1697.72   1
   2  -6  -2 72805.1 1735.20   1
   5  -2   2 1842.17 264.080   1
   5  -2   2 1472.06 158.600   1
   5  -2   2 2145.71 196.960   1
   4   2   0 12815.4 584.590   1
  -4  -2   0 14188.6 511.720   1
   4   2   0 14786.8 436.070   1
  -3   6  -4 65084.1 2017.97   1
   3  -6   4 53546.0 1066.11   1
  -3   6  -4 60326.5 1256.62   1
  -5   1  -1 3726.53 437.740   1
   5  -1   1 3900.17 301.330   1
   5  -1   1 3170.31 355.000   1
   5  -4   0 5750.92 420.360   1
   5  -4   0 6380.26 439.180   1
  -5   4   0 5988.62 714.360   1
  -5   4   0 5906.93 590.350   1
   5  -4   0 4604.74 261.980   1
   0  -6   4 108.290 54.1600   1
   0   6  -4 66.7000 66.8300   1
   0  -6   4 32.4800 90.2500   1
   0   6  -4 100.830 51.2700   1
  -3   1   8 6925.19 284.680   1
   3  -1  -8 7957.13 378.220   1
  -3   1   8 9791.72 636.270   1
  -3   1   8 7362.32 295.270   1
  -3   1   8 8943.38 319.820   1
   3   3   2 95555.8 7809.35   1
  -3  -3  -2 87455.9 7292.69   1
   3  -4   7 38855.9 874.900   1
   3  -4   7 31779.0 802.120   1
  -3   4  -7 33208.2 896.810   1
   0  -2  -8 10359.4 507.970   1
   0   2   8 10385.3 611.450   1
   1   5  -6 82605.9 1921.63   1
  -1  -5   6 75087.7 1465.50   1
  -1  -5   6 95368.7 7825.62   1
   1   5  -6 104071. 8504.87   1
   1   5  -6 85094.7 6959.79   1
   2  -4   8 36905.7 844.190   1
  -2   4  -8 39391.4 913.220   1
   5  -4   1 13140.0 554.690   1
   5  -4   1 8103.45 456.110   1
  -5   4  -1 10600.0 386.190   1
   5  -4   1 9752.80 286.090   1
  -5   4  -1 12298.8 801.000   1
  -1   3  -9 18854.5 578.650   1
   1  -3   9 20610.5 534.160   1
  -1   3  -9 21211.3 584.570   1
   0  -3  -7 10408.0 556.880   1
   0   3   7 11483.9 510.930   1
   5  -4  -1 13337.4 443.370   1
   5  -4  -1 14976.0 583.920   1
   5  -4  -1 11556.9 485.280   1
   5  -4  -1 11435.8 842.510   1
  -5   4   1 15422.0 873.070   1
   0   6   0 35447.4 834.000   1
   0  -6   0 27421.3 763.420   1
   2   0  -9 7583.27 634.390   1
  -2   0   9 9114.71 325.660   1
   2   0  -9 7789.98 396.690   1
  -2   0   9 8275.41 575.180   1
   5  -3  -3 326.440 67.1500   1
  -5   3   3 407.790 77.2700   1
   5  -3  -3 350.830 84.0300   1
  -5   3   3 468.780 103.840   1
  -5   3   3 682.500 293.260   1
  -5   3   3 454.280 152.670   1
   4   2  -4 38340.6 946.860   1
   4   2  -4 44764.0 1028.70   1
   4   2  -4 36005.7 954.030   1
  -4  -2   4 40933.1 995.040   1
  -2  -1   9 13106.7 913.480   1
   2   1  -9 20495.5 618.380   1
  -1  -5  -2 1389.28 163.030   1
   1   5   2 2037.60 175.160   1
   3   1  -8 589.600 84.3900   1
   3   1  -8 805.690 139.690   1
  -3  -1   8 495.840 81.7000   1
   4   1   3 29754.7 681.770   1
   4   1   3 23898.5 710.140   1
  -4  -1  -3 27315.6 981.220   1
  -1   1   9 62039.6 1344.01   1
  -1   1   9 85358.2 7250.80   1
   1  -1  -9 57157.8 1387.27   1
   3   3  -6 10019.6 316.990   1
   4  -5  -3 3671.43 339.760   1
   4  -5  -3 3315.42 209.220   1
   4  -5  -3 3070.37 210.860   1
  -4   5   3 4311.57 484.700   1
  -3   3   7 20258.0 624.340   1
   3  -3  -7 25177.8 931.210   1
  -3   3   7 30006.3 1270.47   1
   2   3  -8 1796.75 226.900   1
  -2  -3   8 3575.99 241.180   1
   2   3  -8 3855.63 277.230   1
   2   3  -8 5450.25 351.740   1
   4   1  -6 11653.2 425.540   1
  -4  -1   6 12198.5 407.350   1
  -4  -1   6 8863.29 326.920   1
  -1  -4   8 37435.8 904.620   1
   1   4  -8 35069.7 865.000   1
  -1  -4   8 42945.5 937.220   1
  -2   0  -8 2677.32 247.190   1
  -2   0  -8 2379.45 233.330   1
   2   0   8 2362.21 180.170   1
  -2   0  -8 3902.75 499.610   1
   2   0   8 3179.43 313.280   1
  -3   4   6 3380.91 417.740   1
   3  -4  -6 3228.27 330.610   1
  -3   4   6 2758.48 225.820   1
   1  -6  -2 1640.75 199.530   1
  -1   6   2 1680.94 151.360   1
   5   0  -1 16724.9 509.960   1
   5   0  -1 13159.6 453.380   1
  -5   0   1 12377.1 471.860   1
  -5   0   1 19594.6 822.980   1
   3  -6  -2 2762.72 256.640   1
   3  -6  -2 3379.38 372.190   1
  -3   6   2 3654.45 416.010   1
   3  -6  -2 3307.80 320.840   1
   5   0  -2 2756.41 286.010   1
   5   0  -2 2014.12 378.960   1
  -5   0   2 1730.88 219.080   1
  -5   0   2 2376.92 274.910   1
  -5   2   4 11204.8 453.150   1
   5  -2  -4 11145.1 429.970   1
   5  -2  -4 14306.3 940.750   1
  -5   2   4 16357.4 847.460   1
  -5   2   4 12699.3 587.570   1
   5  -2  -4 12890.7 582.350   1
   5  -4   2 46122.6 1335.66   1
   5  -4   2 37526.4 1424.64   1
  -5   4  -2 54764.9 2167.02   1
   5  -4   2 43371.5 1402.62   1
   5  -4   2 58098.4 1802.56   1
  -5   4  -2 45950.2 1365.71   1
  -1  -3   9 51674.1 1450.57   1
   1   3  -9 46301.4 1342.61   1
  -1  -3   9 47318.4 1362.00   1
   1   3  -9 57423.2 1773.96   1
  -4   3   6 36801.4 1474.87   1
  -4   3   6 23992.0 865.410   1
   4  -3  -6 36688.2 1269.75   1
   5  -4  -2 3153.81 382.830   1
   5  -4  -2 2445.26 272.950   1
   5  -4  -2 3272.79 528.530   1
   5  -4  -2 2649.15 261.120   1
  -5   4   2 3486.80 487.900   1
   4   2   1 7318.19 317.130   1
  -4  -2  -1 4766.54 497.160   1
  -4  -2  -1 6228.46 658.290   1
  -4   4   5 11703.7 841.300   1
  -4   4   5 7404.18 347.410   1
   4  -4  -5 11136.0 605.720   1
   5  -1  -4 34442.3 1186.82   1
  -5   1   4 39327.2 1212.90   1
   5  -1  -4 32578.3 1089.54   1
   5  -1  -4 43353.2 1689.89   1
  -5   1   4 36982.2 1220.34   1
   0   6  -5 33357.4 1031.15   1
   0  -6   5 30900.8 947.960   1
   0   6  -5 33883.7 1015.20   1
   4  -3   6 37723.6 1167.89   1
   4  -3   6 45975.7 1343.67   1
  -4   3  -6 44689.6 1411.34   1
   4  -3   6 46108.6 1484.44   1
   4  -3   6 34716.4 1152.39   1
   5  -1   2 280.110 107.180   1
  -5   1  -2 416.640 239.580   1
   5  -1   2 500.820 189.630   1
   2  -5  -5 2854.16 357.260   1
  -2   5   5 3042.41 396.290   1
   5  -3   3 10179.7 421.450   1
  -5   3  -3 6457.46 399.260   1
   5  -3   3 7761.25 463.130   1
   5  -3   3 7103.80 472.400   1
   5  -3   3 6615.49 513.890   1
  -4   1   7 1017.71 309.580   1
   4  -1  -7 724.560 252.000   1
  -4   1   7 762.800 123.940   1
   4  -1  -7 572.140 126.290   1
   0   5   4 359.600 83.5500   1
   0  -5  -4 525.890 171.960   1
   1   0   9 30797.3 1559.91   1
  -1   0  -9 23542.3 979.240   1
  -1   0  -9 28060.3 974.600   1
   5   0   0 782.310 105.090   1
   5   0   0 928.780 133.770   1
  -1   6  -6 51818.1 1502.34   1
   1  -6   6 49430.8 1377.08   1
  -1   6  -6 50123.6 1432.02   1
   4  -6   1 17241.6 704.140   1
   4  -6   1 15689.9 514.470   1
  -4   6  -1 18825.9 1102.51   1
   0  -1  -9 -183.02 313.620   1
   0   1   9 298.850 257.250   1
   0  -1  -9 185.330 154.190   1
  -2   1   9 531.310 125.120   1
  -2   1   9 381.700 229.690   1
   2  -1  -9 391.060 108.830   1
   2   3   5 6631.76 386.260   1
  -2  -3  -5 6815.08 448.880   1
   2   5  -2 366.210 70.3800   1
  -2  -5   2 468.330 134.820   1
  -4   2  -6 948.010 134.050   1
   4  -2   6 948.430 127.080   1
   4  -2   6 934.550 176.030   1
   4  -2   6 845.380 216.830   1
   4  -2   6 816.970 109.770   1
   4  -2   6 477.750 189.160   1
   2   5  -3 3805.55 339.840   1
   2   5  -3 4811.19 435.440   1
   5   0  -3 28161.1 1137.21   1
   5   0  -3 37283.2 1193.77   1
  -5   0   3 33745.6 1103.68   1
   5  -2   3 23792.7 878.190   1
   5  -2   3 30290.7 1093.00   1
   5  -2   3 27496.5 993.200   1
  -2  -4  -3 34020.5 1260.86   1
   2   4   3 30066.8 910.490   1
   3  -6   5 37502.2 1064.88   1
   3  -6   5 30506.7 1007.99   1
  -3   6  -5 41307.4 1735.70   1
  -3   6  -5 45891.6 1349.81   1
  -4   6  -2 33237.4 1510.40   1
   4  -6   2 25372.3 760.590   1
   4  -6   2 28265.7 999.150   1
   0  -6  -1 14281.2 658.940   1
   0   6   1 15214.0 540.620   1
   2   2  -9 13409.9 514.410   1
  -2  -2   9 14381.6 518.580   1
   2   2  -9 17525.6 748.130   1
  -2  -2   9 15647.6 583.720   1
   2  -6   6 5070.13 439.110   1
   2  -6   6 4388.87 458.960   1
  -2   6  -6 6462.89 484.080   1
  -2   6  -6 4574.79 418.730   1
  -4   6   0 69144.6 3456.97   1
   4  -6   0 64457.7 1969.94   1
   4  -6   0 50089.4 1406.02   1
  -4   0   7 14636.0 522.130   1
   4   0  -7 14986.5 829.080   1
   4   0  -7 12577.9 485.580   1
  -3   2   8 45315.4 1351.71   1
   3  -2  -8 36910.7 1292.42   1
  -3   2   8 41436.8 1318.18   1
  -3   2   8 46064.9 1822.72   1
   2   4  -7 98.8100 66.0500   1
   2   4  -7 40.1500 73.1300   1
  -2  -4   7 82.5500 81.8100   1
   2   4  -7 63.2700 86.3200   1
  -4  -2   5 2709.67 282.340   1
   4   2  -5 2847.52 286.730   1
   4   2  -5 2471.44 268.320   1
  -4  -2   5 2559.02 280.140   1
   4   2  -5 2273.53 252.560   1
   4   2  -5 2758.39 269.730   1
   0   4   6 22595.8 896.950   1
   0  -4  -6 13463.4 738.700   1
   3   4  -2 3108.26 301.180   1
  -3  -4   2 3002.27 348.200   1
   3   4  -2 2304.86 254.670   1
  -3  -1  -6 25721.7 947.450   1
   4  -5   5 5669.47 546.840   1
   4  -5   5 7007.25 251.730   1
  -4   5  -5 4558.30 673.160   1
  -4   5  -5 9268.30 461.210   1
  -4   5  -5 7963.07 325.540   1
  -2  -5   1 2751.51 327.590   1
   2   5  -1 2304.33 222.280   1
   2   5  -1 1756.90 185.980   1
   3   4  -3 22986.9 767.180   1
   3   4  -3 29709.8 902.990   1
   3   4  -3 35347.9 1044.67   1
  -5   3   4 8531.54 363.240   1
   5  -3  -4 8023.10 351.550   1
  -5   3   4 9396.90 555.560   1
  -5   3   4 11479.3 704.420   1
   5  -3  -4 8850.66 340.860   1
   5  -3  -4 8138.14 433.240   1
  -5   3   4 7459.05 387.420   1
   1  -5   8 33271.3 971.570   1
   1  -5   8 35923.8 1094.78   1
  -1   5  -8 33721.7 1028.81   1
  -1   5  -8 42672.2 1270.76   1
   1  -5   8 30909.5 1221.44   1
   1  -5  -5 88888.9 4118.84   1
  -1   5   5 80924.3 3685.92   1
  -1  -4  -5 57415.2 1883.56   1
   1   4   5 76391.2 3443.07   1
  -2   6   3 16690.7 664.480   1
   2  -6  -3 19569.9 822.660   1
   2   5  -4 7176.90 336.530   1
   2   5  -4 5965.68 517.560   1
  -3  -4   1 4249.47 481.440   1
   3   4  -1 3691.67 330.450   1
   4  -4   6 34030.7 1125.07   1
   4  -4   6 33317.3 1058.94   1
   4  -4   6 23434.5 859.540   1
  -4   4  -6 24134.6 810.940   1
  -3   0  -7 52110.1 1745.10   1
   3   0   7 34471.8 1486.36   1
   3   0   7 51693.2 1499.38   1
  -3   0  -7 35635.9 1255.33   1
  -4   2   7 -262.98 242.690   1
  -4   2   7 240.140 104.190   1
   4  -2  -7 59.6700 117.610   1
  -4   2   7 123.320 84.4500   1
  -5   4  -3 24030.7 785.370   1
   5  -4   3 25419.1 997.950   1
   5  -4   3 22167.8 1073.54   1
  -1   4  -9 28263.4 877.760   1
  -1   4  -9 25907.5 845.270   1
   1  -4   9 27189.2 845.140   1
   1  -4   9 31371.9 924.370   1
  -1   4  -9 19294.9 1154.89   1
   0   4  -9 5683.67 506.390   1
   0   4  -9 4479.45 716.530   1
   0   4  -9 5610.24 518.290   1
   0  -4   9 5692.26 502.400   1
   0   4  -9 3296.47 436.090   1
   0  -4   9 7226.77 556.210   1
   2  -2   9 6262.56 570.580   1
   2  -2   9 4012.57 440.600   1
  -2   2  -9 5517.51 532.340   1
  -5   0  -1 5657.89 586.450   1
   5   0   1 7482.21 377.700   1
  -5   0  -1 7096.55 475.020   1
  -4   0  -5 28713.3 1098.31   1
  -4   0  -5 41262.7 1757.23   1
   4   0   5 31405.8 1049.68   1
   3   3   3 981.720 139.530   1
  -3  -3  -3 1254.36 208.780   1
   5  -4  -3 6842.10 734.130   1
  -5   4   3 12103.4 719.050   1
   5  -4  -3 10964.2 408.270   1
   5  -4  -3 13244.8 679.960   1
  -5   4   3 10880.8 504.250   1
   4  -6   3 8835.52 383.530   1
   4  -6   3 10747.7 359.360   1
   4  -6   3 5341.65 598.380   1
  -4   6  -3 12013.7 899.520   1
   3  -5  -5 7059.49 434.160   1
  -3   5   5 7602.92 503.460   1
  -4   6   1 25829.0 1269.39   1
   4  -6  -1 16268.6 504.070   1
   4  -6  -1 23668.2 924.560   1
   4  -6  -1 22094.2 711.010   1
  -1  -5   7 6310.48 575.610   1
   1   5  -7 5731.54 568.630   1
  -1  -5   7 7678.27 338.750   1
   1   5  -7 8006.29 325.020   1
   1   5  -7 6363.59 365.320   1
  -3  -2   8 24772.9 795.910   1
   3   2  -8 21162.1 752.130   1
   3   2  -8 23570.5 816.710   1
   3   4  -4 20534.4 659.690   1
   3   4  -4 25391.4 783.420   1
   3   4  -4 18249.2 765.380   1
  -3   3  -8 8190.54 414.010   1
   3  -3   8 8399.63 353.100   1
   3  -3   8 9822.82 478.710   1
  -2   3  -9 18784.8 680.310   1
   2  -3   9 19587.3 641.340   1
   2  -3   9 21245.5 781.160   1
  -5   0   4 82362.2 3698.30   1
   5   0  -4 63253.3 1903.45   1
   5   0  -4 78677.0 3566.05   1
   5   0  -4 71654.4 3228.45   1
  -5   0   4 68914.8 3104.31   1
   3  -2   8 4444.80 416.050   1
  -3   2  -8 4587.66 453.860   1
   3  -2   8 4017.64 447.580   1
   4  -5  -4 -93.820 163.450   1
   4  -5  -4 9.62000 90.7800   1
   4  -5  -4 -70.210 94.0600   1
  -4   5   4 -53.440 359.350   1
  -3   5  -7 49565.8 1484.90   1
   3  -5   7 47213.8 1341.19   1
   3  -5   7 44844.3 1349.70   1
   5  -5   0 13127.2 458.980   1
  -5   5   0 12194.7 580.090   1
   5  -5   0 12764.7 604.860   1
   5  -5   0 14686.8 710.680   1
  -5   5   0 12912.1 805.020   1
   0  -5   8 14510.3 520.500   1
   0   5  -8 14718.6 470.610   1
   0   5  -8 13096.8 450.150   1
   0  -5   8 16473.1 524.340   1
   2  -3  -8 27477.6 1032.21   1
  -2   3   8 26969.9 1307.34   1
   5  -5   1 13234.5 632.630   1
  -5   5  -1 13232.4 800.890   1
   5  -5   1 14381.4 493.900   1
   5  -5   1 14567.2 682.720   1
  -5   5  -1 17717.5 685.660   1
  -1  -5  -3 802.470 196.050   1
   1   5   3 491.330 104.490   1
  -1   3   8 5399.90 632.780   1
   1  -3  -8 3983.87 463.840   1
   3   2   5 509.620 114.090   1
   3   2   5 364.950 67.0000   1
  -3  -2  -5 603.720 184.900   1
   0  -2  10 4308.94 395.940   1
   0   2 -10 2040.79 326.830   1
   0   2 -10 2764.95 371.350   1
   0  -2  10 3258.27 329.830   1
   0   2 -10 3253.43 313.220   1
   0   1 -10 11156.0 529.660   1
   0  -1  10 10377.7 812.920   1
   0   1 -10 7918.06 578.020   1
   0  -1  10 5958.42 659.790   1
   2   5   0 20424.7 662.630   1
  -2  -5   0 21220.2 825.780   1
   4   2   2 1974.28 217.880   1
  -4  -2  -2 2023.10 290.270   1
  -4  -2  -2 1808.61 239.830   1
   1   1 -10 2737.19 392.570   1
  -1  -1  10 2267.28 295.040   1
  -1  -1  10 3209.94 309.660   1
   1   1 -10 2740.75 284.130   1
  -1  -1  10 1279.15 338.370   1
   3   3  -7 12513.9 498.960   1
   3   3  -7 9115.53 458.230   1
   3   3  -7 12509.5 478.600   1
  -3  -3   7 14688.0 550.170   1
   3  -6  -3 4047.28 475.800   1
  -3   6   3 2791.80 379.670   1
   0   6  -6 46644.4 1363.80   1
   0   6  -6 45946.8 1284.75   1
   0  -6   6 49006.3 1404.47   1
   5  -2  -5 50543.5 1415.97   1
  -5   2   5 50667.8 1582.91   1
   5  -2  -5 51956.8 1594.86   1
  -5   2   5 58163.3 1716.83   1
   5  -2  -5 53519.9 1561.70   1
  -5   2   5 68575.7 3335.25   1
   5  -1  -5 6557.82 373.570   1
   5  -1  -5 10230.4 610.540   1
  -5   1   5 7941.34 359.620   1
   5  -1  -5 7488.91 410.950   1
  -5   1   5 6338.19 413.880   1
   5  -1  -5 7866.99 305.890   1
   4  -1   6 83.6600 84.6300   1
  -4   1  -6 149.060 106.750   1
   4  -1   6 158.230 74.5200   1
  -4   1  -6 -3.0800 291.590   1
   4  -1   6 84.8500 81.5400   1
  -4  -1  -4 13630.5 737.670   1
   4   1   4 8958.79 419.060   1
   4   1   4 11109.1 394.750   1
   1  -6  -3 4570.85 497.080   1
  -1   6   3 3568.59 347.020   1
   2  -4  -7 2551.47 398.030   1
  -2   4   7 2403.15 313.850   1
  -3  -4   0 3650.91 439.110   1
   3   4   0 3040.47 289.290   1
   1   6  -2 708.150 109.380   1
  -1  -6   2 721.070 155.520   1
  -5   1  -3 1449.61 402.410   1
   5  -1   3 317.380 212.210   1
   5  -1   3 524.820 91.9400   1
  -5   1  -3 302.520 75.1900   1
   5  -1   3 525.430 106.300   1
   5  -1   3 396.390 78.3500   1
   2  -5   8 2795.90 254.950   1
  -2   5  -8 1550.66 420.510   1
   2  -5   8 1794.90 250.810   1
  -2   5  -8 3901.77 384.590   1
   2  -5   8 3498.36 346.340   1
   1   6  -3 24724.7 757.250   1
  -2   7  -2 3165.50 324.730   1
   2  -7   2 3033.78 347.070   1
   2  -7   2 3519.71 323.090   1
   2  -7   2 3778.18 353.400   1
   5  -5  -1 17027.0 720.300   1
   5  -5  -1 13915.9 482.160   1
  -5   5   1 15468.5 1039.18   1
   4   1  -7 19444.5 838.490   1
  -4  -1   7 19920.0 694.150   1
   4   1  -7 18321.3 677.700   1
   2   5  -5 293.670 77.4600   1
   2   5  -5 215.730 106.200   1
  -2   1  -9 24950.2 906.850   1
   2  -1   9 24993.9 810.500   1
  -2   1  -9 27193.3 1041.34   1
   2  -1   9 20725.2 1108.42   1
   5  -3   4 13707.9 610.230   1
   5  -3   4 7483.43 761.960   1
  -5   3  -4 10451.9 435.460   1
   5  -3   4 12162.9 550.740   1
   5  -3   4 13148.8 540.440   1
  -5   5  -2 2184.26 352.970   1
   5  -5   2 2203.92 267.380   1
   5  -5   2 2109.60 278.580   1
  -5   5  -2 2215.50 247.970   1
   5  -5   2 2194.26 216.430   1
   5  -5   2 766.650 130.460   1
  -1  -2  -8 9508.68 499.430   1
   1   2   8 11774.9 669.670   1
  -1  -2  -8 10023.0 557.540   1
   2  -7   1 243.500 133.940   1
  -2   7  -1 282.640 118.130   1
   2  -7   1 233.010 93.8200   1
   2  -7   1 320.570 81.2500   1
   2  -7   3 10952.1 384.510   1
  -2   7  -3 12817.2 549.950   1
   2  -7   3 12394.2 515.520   1
  -1   2   9 54913.3 2066.24   1
   1  -2  -9 57625.4 1965.42   1
   1  -2  -9 48725.2 2661.43   1
  -1  -2  10 87886.6 3890.94   1
   1   2 -10 69045.4 3296.12   1
  -1  -2  10 81542.6 3577.37   1
   1   2 -10 76021.0 3370.41   1
   0  -6  -2 29513.3 1100.12   1
   1  -4  -7 46629.2 1754.50   1
  -1   4   7 50739.4 1825.36   1
   1   0 -10 35523.5 1243.92   1
  -1   0  10 34898.5 1494.36   1
  -1   0  10 41755.4 1318.69   1
  -1  -6   1 15362.0 690.090   1
   1   6  -1 12136.3 409.600   1
  -4  -2   6 15789.4 581.990   1
   4   2  -6 14560.1 583.930   1
   4   2  -6 10963.7 443.450   1
   4   2  -6 8903.25 422.320   1
  -3   0   9 10132.2 715.340   1
  -3   0   9 10404.3 417.740   1
   3   0  -9 8502.27 421.650   1
  -3   0   9 10201.7 403.070   1
   3   0  -9 9741.29 778.740   1
  -4   6  -4 5048.46 597.240   1
   4  -6   4 4439.97 448.510   1
   4  -6   4 7376.55 267.590   1
   3   4  -5 26979.0 1035.42   1
   3   4  -5 36714.1 1112.88   1
   3   4  -5 38740.2 1198.78   1
   1   6  -4 34032.1 1032.84   1
   1   6  -4 31241.2 930.720   1
  -3   4  -8 10030.8 398.470   1
   3  -4   8 10561.2 394.770   1
   3  -4   8 10211.1 396.180   1
   5  -2   4 38959.6 1300.34   1
   5  -2   4 40264.7 1318.19   1
  -5   2  -4 30138.6 1025.94   1
   5  -2   4 37102.8 1630.16   1
   4  -6  -2 9776.55 352.020   1
   4  -6  -2 11139.8 632.590   1
   4  -6  -2 8796.16 354.560   1
  -4   6   2 11618.5 887.580   1
   1  -6   7 5690.01 491.460   1
  -1   6  -7 5232.40 465.270   1
  -1   6  -7 6341.96 344.990   1
   3  -6   6 8896.13 314.200   1
   3  -6   6 7413.10 442.880   1
  -3   6  -6 7287.51 292.220   1
  -3   6  -6 8952.49 697.670   1
  -2   2   9 161.480 233.250   1
   2  -2  -9 140.660 188.460   1
   2  -2  -9 285.750 121.600   1
   5   0   2 3820.83 369.100   1
  -5   0  -2 2329.76 317.530   1
  -5   0  -2 1628.56 210.190   1
  -2  -2  -7 51744.2 1642.24   1
   2   2   7 63298.1 1913.63   1
  -2  -2  -7 68737.9 3199.17   1
  -1  -3  -7 14912.6 737.210   1
   1   3   7 13369.5 528.310   1
  -2  -1  -8 313.480 109.830   1
  -2  -1  -8 380.870 162.050   1
  -2  -1  -8 678.840 454.000   1
   2   1   8 353.420 131.660   1
   3  -1   8 971.340 203.870   1
  -3   1  -8 1370.19 195.620   1
   3  -1   8 1623.60 195.520   1
  -1   7  -2 3714.04 361.460   1
   1  -7   2 3296.24 354.940   1
   1  -7   2 3410.82 308.430   1
   5   1  -2 16779.5 576.680   1
   5   1  -2 13811.4 560.400   1
  -5  -1   2 12265.8 514.490   1
  -5  -1   2 17030.0 679.730   1
   5  -4   4 7225.72 375.400   1
  -5   4  -4 10902.9 445.750   1
  -5   4  -4 8263.12 361.650   1
   5  -4   4 11065.4 397.350   1
   5  -4   4 11911.2 802.270   1
   5  -4   4 4746.09 612.080   1
   4   3  -2 39578.9 1167.18   1
  -4  -3   2 36967.0 1234.90   1
  -4  -3   2 32812.4 1306.31   1
   4   3  -2 35383.0 1215.09   1
   0   3 -10 525.080 169.190   1
   0   3 -10 1178.56 157.940   1
   0  -3  10 1307.56 159.320   1
   0  -3  10 1045.43 125.260   1
   0   3 -10 924.890 120.680   1
   0   0  10 8702.47 803.880   1
   0   0 -10 10736.8 507.840   1
   1  -2  10 9830.17 448.080   1
  -1   2 -10 6441.11 501.840   1
  -2   7   0 4808.74 485.340   1
   2  -7   0 5131.03 506.450   1
   2  -7   0 5264.35 463.570   1
   2  -4   9 131.480 93.4700   1
   2  -4   9 127.180 76.1400   1
  -2   4  -9 310.560 105.800   1
   5   1  -1 31231.2 1028.85   1
  -5   3   5 64.1700 101.410   1
  -5   3   5 21.5900 116.490   1
   5  -3  -5 111.480 65.8300   1
   5  -3  -5 188.340 105.080   1
  -5   3   5 -288.13 311.890   1
   5  -3  -5 149.790 70.8200   1
  -5   3   5 99.6900 76.7200   1
   1  -7   3 63558.6 1769.41   1
  -1   7  -3 64621.7 1839.07   1
   1  -7   3 69497.4 3059.01   1
   1  -7   3 68665.8 3151.01   1
   3  -7   2 15117.7 634.830   1
  -3   7  -2 14856.6 801.960   1
   3  -7   2 15021.8 512.250   1
   5  -5  -2 9569.15 507.540   1
  -5   5   2 12574.8 780.430   1
   5  -5  -2 10949.5 390.840   1
   5  -5  -2 13378.2 627.520   1
   2   3  -9 17542.5 625.560   1
  -2  -3   9 17447.0 587.750   1
   2   3  -9 23078.2 833.920   1
  -2  -3   9 22103.4 851.950   1
  -4   4   6 25112.8 1238.99   1
   4  -4  -6 23245.0 952.250   1
  -4   4   6 23206.1 858.730   1
  -1  -1  -9 10731.7 1064.61   1
  -1  -1  -9 10834.5 577.130   1
   1   1   9 11593.4 653.490   1
  -1  -1  -9 12394.1 565.460   1
   2  -6   7 9569.78 503.780   1
   2  -6   7 11570.3 387.220   1
   2  -6   7 9544.50 411.660   1
  -2   6  -7 11058.2 394.800   1
  -1  -4   9 19519.0 674.460   1
  -1  -4   9 17592.5 560.410   1
   1   4  -9 17179.5 609.190   1
   1   4  -9 19305.2 678.290   1
   5  -4  -4 7706.17 302.440   1
  -5   4   4 7592.54 413.810   1
  -5   4   4 10437.8 766.350   1
   5  -4  -4 9379.80 513.200   1
   5  -4  -4 7671.49 337.490   1
  -5   4   4 7042.07 426.400   1
   5  -4  -4 5487.52 811.120   1
   4   3  -3 5362.75 489.260   1
   4   3  -3 5140.95 474.470   1
   3  -1  -9 1484.77 210.540   1
  -3   1   9 1561.65 190.190   1
  -3   1   9 1521.45 353.220   1
  -3   1   9 1647.68 199.980   1
   3  -7   1 5866.95 549.600   1
   3  -7   1 6283.77 537.480   1
  -3   7  -1 9395.47 585.680   1
   3  -7   1 6245.06 545.060   1
   2  -7   4 35138.3 1043.51   1
  -2   7  -4 36002.4 1069.32   1
  -2   7  -4 28398.6 984.600   1
   5   0  -5 12287.0 487.510   1
  -5   0   5 16613.9 640.210   1
   5   0  -5 15071.9 625.820   1
   5   0  -5 12378.3 449.590   1
  -5   0   5 11926.9 506.380   1
  -5   0   5 13035.1 1059.65   1
   5   0  -5 13404.3 534.800   1
  -3  -1   9 535.010 95.5700   1
   3   1  -9 438.950 110.320   1
  -3  -1   9 290.940 132.440   1
  -3  -1   9 343.290 108.300   1
   3   1  -9 405.890 151.990   1
  -2  -5  -1 16806.7 704.820   1
   2   5   1 18143.8 584.510   1
   4  -3  -7 31356.2 1138.09   1
  -4   3   7 25401.4 833.720   1
  -4   3   7 38174.4 1523.23   1
   1  -7   1 25691.1 892.860   1
   4  -5   6 312.220 94.8500   1
   4  -5   6 150.540 69.3900   1
   4  -5   6 327.150 108.490   1
  -4   5  -6 125.140 83.1000   1
  -4  -3   1 17176.3 779.880   1
   4   3  -1 19518.3 832.040   1
   4   3  -1 24883.5 799.630   1
  -4  -3   1 20529.5 858.120   1
   5   1  -3 9530.79 397.090   1
   5   1  -3 8406.49 368.880   1
   5   1  -3 11143.1 429.560   1
  -5  -1   3 10260.3 440.990   1
   5  -5   3 45.8900 79.6700   1
  -5   5  -3 73.1300 78.1500   1
   5  -5   3 -1.1800 48.4800   1
   5  -5   3 -22.120 67.7800   1
  -5   5  -3 -28.530 216.480   1
   5  -5   3 4.96000 74.7200   1
  -2  -4  -4 15427.8 759.430   1
   2   4   4 22644.1 793.540   1
  -3   4   7 4044.33 557.670   1
   3  -4  -7 4710.84 532.900   1
  -3  -4  -1 3910.04 450.260   1
   3   4   1 4106.59 372.290   1
   2   4  -8 10937.5 405.940   1
   2   4  -8 10028.4 493.120   1
  -2  -4   8 11121.5 435.140   1
  -3   3   8 16965.9 909.000   1
  -3   3   8 14073.5 580.910   1
   3  -3  -8 15951.9 727.890   1
  -1  -6   0 21123.7 850.470   1
   1   6   0 15931.8 503.160   1
   3  -7   3 20845.7 773.870   1
   3  -7   3 16790.2 516.380   1
  -3   7  -3 24401.7 1002.44   1
   0   5   5 1481.53 183.570   1
   0  -5  -5 2009.62 287.570   1
  -1   1 -10 1738.87 347.420   1
  -1   1 -10 2487.28 351.300   1
   1  -1  10 2426.97 366.040   1
   1  -1  10 3487.67 549.820   1
  -1   1 -10 4407.66 440.340   1
   1  -1  10 4018.45 401.210   1
   4  -3   7 3887.72 384.190   1
  -4   3  -7 4920.77 487.720   1
   4  -3   7 4746.96 434.150   1
   4  -3   7 4002.63 406.970   1
   2  -6  -4 52302.6 1798.28   1
  -2   6   4 56449.3 2010.30   1
   0   3   8 33072.8 1324.53   1
   0  -3  -8 34220.7 1240.12   1
  -2   5   6 13482.0 803.570   1
   2  -5  -6 14523.0 784.620   1
  -5  -1   0 37677.3 1338.14   1
   5   1   0 35393.6 1165.18   1
   1   6  -5 11747.6 479.480   1
   1   6  -5 12189.8 407.870   1
   2   1 -10 8076.59 407.120   1
  -2  -1  10 9747.22 407.960   1
  -2  -1  10 7112.12 318.390   1
   2   1 -10 6415.06 537.240   1
  -1   7  -4 58171.6 1703.40   1
   1  -7   4 59301.4 1689.30   1
  -1   7  -4 68237.7 3111.83   1
   1  -7   4 48599.3 1353.77   1
  -3   7   0 15916.7 758.710   1
   3  -7   0 12270.9 436.920   1
   3  -7   0 13253.6 441.440   1
   3  -7   0 11805.0 600.770   1
  -4   1   8 78.4300 282.860   1
   4  -1  -8 -59.400 236.490   1
   4  -1  -8 111.420 112.250   1
  -4   1   8 172.990 106.020   1
   2   5  -6 1954.44 210.800   1
   2   5  -6 1682.04 179.110   1
   4   3  -4 12994.2 476.380   1
   4   3  -4 14473.4 555.490   1
   2   0 -10 49850.2 2190.46   1
   2   0 -10 61608.1 1877.00   1
  -2   0  10 69118.0 3345.43   1
   0  -2  -9 1014.33 228.430   1
   0   2   9 654.650 213.680   1
   4   0  -8 19219.1 697.910   1
   4   0  -8 19107.1 1042.24   1
  -4   0   8 20783.6 714.520   1
   4  -2   7 4406.85 423.770   1
  -4   2  -7 4948.83 483.450   1
   4  -2   7 4406.79 415.530   1
   4  -2   7 2507.25 473.800   1
   4  -2   7 7402.48 525.960   1
  -4  -2  -3 1860.93 285.580   1
   4   2   3 1281.40 145.570   1
   2   3   6 16080.7 632.350   1
  -2  -3  -6 11972.5 606.310   1
  -3  -3  -4 4316.45 513.820   1
   3   3   4 3495.21 332.180   1
   0   6  -7 30887.9 916.780   1
   0  -6   7 33023.7 977.400   1
   0   6  -7 33766.8 966.040   1
   1   3 -10 7109.56 407.750   1
  -1  -3  10 4752.23 427.670   1
  -1  -3  10 5843.95 525.550   1
   1   3 -10 5882.48 540.410   1
   1  -7   0 18643.7 719.330   1
   4   3   0 45234.0 1314.50   1
  -4  -3   0 44473.7 1584.96   1
   1   5  -8 12985.7 652.060   1
  -1  -5   8 16991.7 634.510   1
   1   5  -8 19444.5 654.150   1
  -1  -5   8 20306.1 697.160   1
   1   5  -8 18165.2 658.450   1
   5  -1  -6 10598.0 561.510   1
  -5   1   6 9840.90 406.770   1
  -5   1   6 8219.58 409.210   1
   5  -1  -6 8598.96 409.240   1
   5  -1  -6 7016.35 385.950   1
  -5  -1   4 11378.3 464.960   1
   5   1  -4 9293.29 436.920   1
   5   1  -4 14575.1 536.950   1
   5   1  -4 14235.4 552.280   1
  -4   5   5 56555.9 2124.64   1
   4  -5  -5 44154.3 1591.63   1
   3   4  -6 92973.6 4087.20   1
   3   4  -6 70746.7 3278.67   1
   3   4  -6 104442. 4548.28   1
   2  -7  -1 11442.4 583.660   1
   3  -6  -4 6269.94 615.490   1
  -3   6   4 6401.28 564.640   1
  -4   4  -7 1566.94 193.750   1
   4  -4   7 1464.13 179.100   1
   4  -4   7 947.560 121.440   1
   2   0   9 11826.5 672.460   1
  -2   0  -9 9994.05 526.430   1
   2   0   9 14037.0 528.750   1
  -2   0  -9 12670.3 830.580   1
  -2   0  -9 13567.0 642.090   1
  -5   1  -4 12524.7 549.630   1
   5  -1   4 16144.2 661.030   1
   5  -1   4 13002.6 504.000   1
   5  -1   4 16669.9 850.970   1
   5  -1   4 10097.8 762.950   1
   5  -2  -6 9212.40 425.480   1
  -5   2   6 14968.0 814.430   1
  -5   2   6 10532.1 499.290   1
   5  -2  -6 11925.1 562.400   1
  -5   2   6 14016.0 533.310   1
  -1   1  10 12345.4 492.360   1
   1  -1 -10 10328.3 518.130   1
  -1   1  10 8293.05 645.760   1
   4  -6   5 -66.450 64.1600   1
  -4   6  -5 86.6400 67.0000   1
   4  -6   5 37.5000 66.1100   1
  -4   6  -5 -9.8000 168.840   1
  -3   7  -4 79011.3 3767.40   1
  -3   7  -4 75210.8 3304.11   1
   3  -7   4 68896.1 3012.16   1
  -2   7  -5 13063.8 616.830   1
   2  -7   5 8116.58 301.100   1
  -2   7  -5 9631.91 373.470   1
  -4   6   3 27928.7 1392.65   1
   4  -6  -3 21702.4 697.450   1
   4  -6  -3 21692.8 617.510   1
   4  -6  -3 21891.0 865.090   1
  -1   5  -9 4089.39 276.710   1
   1  -5   9 4501.66 274.790   1
   1  -5   9 5270.89 289.720   1
   1  -5   9 2801.17 308.990   1
  -1   5  -9 5582.92 330.420   1
  -1   5  -9 2579.72 491.600   1
   1  -5  -6 28231.7 1190.23   1
  -1   5   6 31107.0 1206.12   1
   5  -5  -3 86187.9 4416.64   1
  -5   5   3 87343.2 4953.77   1
   5  -5  -3 80588.8 4111.42   1
  -5   5   3 58077.5 1672.09   1
   5  -5  -3 98192.1 5176.28   1
   1   5   4 9030.62 380.820   1
  -1  -5  -4 7948.82 536.420   1
  -3   5   6 41287.2 1574.65   1
   3  -5  -6 48303.1 1596.80   1
   1   4   6 33617.2 935.980   1
  -1  -4  -6 47977.9 1710.67   1
   5  -3   5 5014.16 371.100   1
   5  -3   5 4741.88 313.930   1
   5  -3   5 5477.77 378.320   1
   5  -3   5 4777.52 462.100   1
  -5   3  -5 5287.42 331.220   1
   4   0   6 20466.5 735.860   1
  -4   0  -6 32323.8 1577.28   1
   4   0   6 24976.6 781.620   1
   4   0   6 28187.7 812.110   1
  -4   0  -6 24157.7 932.320   1
  -3  -3   8 44972.3 1257.78   1
   3   3  -8 43099.7 1249.57   1
  -3  -1  -7 22709.6 931.260   1
   1  -6  -4 7493.34 416.170   1
  -5   0  -3 1478.71 194.590   1
  -5   0  -3 1446.52 163.790   1
  -5   0  -3 2150.27 419.300   1
   5   0   3 2427.33 187.080   1
   0   4   7 20782.3 712.200   1
   0  -4  -7 24834.2 1052.14   1
   2   2 -10 19846.5 705.680   1
  -2  -2  10 21633.0 662.720   1
   2   2 -10 20973.9 862.060   1
  -2  -2  10 21999.3 719.290   1
  -4   2   8 10062.5 664.980   1
  -4   2   8 11282.6 404.120   1
   4  -2  -8 9279.60 465.950   1
   0   6   3 25475.5 811.390   1
   0  -6  -3 20525.7 865.010   1
   5   1   1 26021.8 759.940   1
   5   1   1 26193.3 988.680   1
  -3   7   1 2849.70 361.600   1
   3  -7  -1 2632.67 253.340   1
   3  -7  -1 2593.37 176.320   1
   3  -7  -1 2493.07 163.890   1
  -1   7  -5 163.210 133.730   1
   1  -7   5 234.470 102.450   1
  -1   7  -5 279.820 107.100   1
   5  -5   4 40.9500 85.8800   1
  -5   5  -4 -12.810 79.9800   1
  -5   5  -4 79.5000 54.0000   1
   5  -5   4 171.840 66.8400   1
   5  -5   4 -28.650 51.0100   1
  -5   5  -4 -6.8600 213.920   1
  -3   2   9 17326.0 987.530   1
  -3   2   9 17566.8 658.510   1
  -3   2   9 16017.6 526.840   1
   3  -2  -9 15615.0 653.730   1
   4   2  -7 13919.0 508.180   1
   4   2  -7 9659.22 382.240   1
  -4  -2   7 13055.9 475.380   1
   4   2  -7 10402.0 468.730   1
  -1  -6  -1 19898.4 772.620   1
   1   6   1 22452.7 659.410   1
   3  -5   8 18642.7 628.670   1
   3  -5   8 18290.8 575.650   1
   4   3  -5 6386.48 296.850   1
   4   3  -5 3747.69 339.300   1
   4   3  -5 4493.44 266.990   1
   3   2  -9 122078. 6282.53   1
   3   2  -9 125232. 6397.61   1
  -3  -2   9 135137. 6886.62   1
  -4  -1  -5 29795.1 1192.60   1
   4   1   5 22420.7 791.240   1
   0   5  -9 5167.32 284.970   1
   0  -5   9 5813.86 342.250   1
   0  -5   9 7201.07 282.000   1
   0   5  -9 4292.06 585.270   1
   0   5  -9 6503.13 274.950   1
   2  -1 -10 28598.5 956.130   1
  -2   1  10 27910.1 1267.77   1
  -2   1  10 27337.0 806.570   1
  -2  -5  -2 52902.2 1722.91   1
   2   5   2 65859.7 3450.23   1
   2   5   2 51904.1 1318.43   1
   5  -4   5 889.410 137.240   1
  -5   4  -5 921.000 104.900   1
   5  -4   5 822.890 127.260   1
   5  -4   5 508.550 166.840   1
   5  -4   5 808.690 171.130   1
   4   1  -8 9176.72 524.110   1
  -4  -1   8 9414.10 349.070   1
   4   1  -8 8098.17 362.160   1
   1   6  -6 3294.08 203.770   1
   1   6  -6 3780.45 252.130   1
  -1  -6   6 2969.50 175.910   1
   5   0  -6 27044.5 832.380   1
  -5   0   6 23232.9 1435.68   1
   5   0  -6 31388.4 1002.10   1
   5   0  -6 32497.6 1103.84   1
  -5   0   6 24980.4 852.640   1
  -5   0   6 35089.5 1040.99   1
   1   0  10 5364.14 335.210   1
  -1   0 -10 4284.48 336.210   1
  -1   0 -10 3478.16 294.650   1
  -1   0 -10 1276.99 511.940   1
   1   0  10 4762.54 586.270   1
   5  -2   5 13114.7 471.050   1
   5  -2   5 14905.5 823.830   1
   5  -2   5 14549.0 490.860   1
   5  -2   5 12489.0 815.610   1
  -5   2  -5 10192.5 535.710   1
   5  -2   5 15780.6 642.250   1
  -3  -4  -2 49570.4 1636.94   1
   3   4   2 55204.6 1457.39   1
   3   2   6 11846.0 493.330   1
  -3  -2  -6 11189.0 675.670   1
  -3   6  -7 12691.9 811.840   1
  -3   6  -7 19310.9 625.890   1
   0  -4  10 3108.18 204.770   1
   0  -4  10 3917.68 244.880   1
   0   4 -10 4511.16 287.190   1
   0   4 -10 2232.14 412.940   1
   0   4 -10 3387.39 216.080   1
   0   1  10 338.340 252.430   1
   0  -1 -10 388.160 285.650   1
   0  -1 -10 724.490 136.710   1
   0   1  10 746.240 116.730   1
   5  -6   1 16620.3 512.030   1
  -5   6  -1 17469.0 1146.89   1
  -5   6  -1 16003.1 641.030   1
   5  -6   1 20825.4 823.380   1
  -3   0  -8 11801.8 525.630   1
  -3   0  -8 8851.25 543.790   1
   3   0   8 11371.8 556.210   1
  -3   0  -8 16170.8 952.620   1
   5  -4  -5 14137.6 505.260   1
  -5   4   5 21026.7 1087.06   1
   5  -4  -5 8748.63 1073.92   1
   5  -4  -5 18062.1 554.110   1
   5  -4  -5 15364.2 665.240   1
  -1   4 -10 33557.2 987.700   1
   1  -4  10 25888.6 763.930   1
   1  -4  10 31465.1 880.000   1
  -1   4 -10 25965.0 752.740   1
  -4  -3  -1 41394.1 1495.12   1
   4   3   1 34059.9 937.630   1
  -5   6   0 10422.7 772.270   1
   5  -6   0 8558.59 442.500   1
   5  -6   0 5895.33 352.970   1
   5  -6   0 5861.76 481.040   1
   1  -7  -1 16456.1 752.420   1
  -1   7   1 18656.2 592.710   1
   1  -6   8 2758.73 175.120   1
  -1   6  -8 2945.75 190.940   1
   1  -6   8 2403.90 183.780   1
  -1   6  -8 2372.05 180.130   1
   0  -7   2 30497.9 1008.28   1
   0   7  -2 28317.1 795.700   1
   0   7  -3 37939.8 1203.08   1
   0  -7   3 28770.9 866.360   1
   0   7  -3 28546.5 761.090   1
   5   1  -5 2607.31 196.650   1
  -5  -1   5 1960.49 172.290   1
   5   1  -5 1400.58 244.260   1
   5   1  -5 2285.49 202.950   1
   5   1  -5 1764.70 160.770   1
   5   1  -5 1506.31 159.440   1
   4  -1   7 29.0700 96.3500   1
  -4   1  -7 463.280 280.910   1
   4  -1   7 710.830 116.580   1
  -4   1  -7 630.200 128.470   1
   5  -3  -6 8067.21 426.010   1
  -5   3   6 8898.26 356.580   1
  -5   3   6 8220.55 584.370   1
  -5   3   6 6794.82 401.750   1
  -3   3  -9 1619.15 146.830   1
   3  -3   9 2202.43 175.680   1
   3  -3   9 1602.31 163.640   1
   2  -5   9 1359.66 265.840   1
  -2   5  -9 1561.18 322.160   1
   2  -5   9 2662.76 161.930   1
   2  -5   9 3347.20 238.280   1
  -2   5  -9 3431.31 251.340   1
  -5   6  -2 28433.9 938.770   1
   5  -6   2 23031.1 954.550   1
   5  -6   2 27423.7 897.230   1
   5  -6   2 19620.7 580.230   1
  -5   6  -2 19132.3 1121.47   1
  -4   7  -1 1447.61 304.180   1
   4  -7   1 947.850 106.760   1
   4  -7   1 983.440 169.870   1
   6  -3  -1 55541.4 2122.74   1
   6  -3  -1 44878.1 1279.10   1
   3  -7   5 105020. 5334.78   1
  -3   7  -5 110620. 5910.39   1
  -3   7  -5 93503.9 4780.57   1
  -4   7  -2 1841.76 366.370   1
   4  -7   2 1497.45 120.000   1
   4  -7   2 1757.99 212.330   1
   6  -3   0 31496.1 1447.80   1
   6  -3   0 21222.3 664.300   1
   2   5  -7 1935.50 164.400   1
   2   5  -7 1237.16 169.250   1
   2   5  -7 1619.52 141.860   1
   6  -2  -1 54058.9 1473.20   1
   6  -2  -1 69661.5 3700.10   1
  -3   2  -9 1061.61 124.020   1
   3  -2   9 1047.31 114.640   1
   3  -2   9 1447.60 235.590   1
   2  -7  -2 24152.8 840.700   1
  -2   7   2 25849.8 911.000   1
   2  -2  10 18365.5 840.350   1
   2  -2  10 20405.4 660.760   1
  -2   2 -10 14607.2 533.370   1
   0   7  -1 -55.580 111.560   1
   0  -7   1 66.4600 102.050   1
   0   7  -4 2565.95 169.560   1
   0  -7   4 2297.36 142.140   1
   0   7  -4 2803.21 184.710   1
  -2   6  -8 14548.0 498.030   1
   2  -6   8 15254.2 526.210   1
   2  -3  10 2892.45 227.730   1
   2  -3  10 3176.08 207.430   1
  -2   3 -10 2492.18 187.080   1
   6  -2   0 62989.2 1889.67   1
   6  -2   0 62747.3 1718.15   1
  -5   6   1 4634.63 557.790   1
   5  -6  -1 2682.07 167.800   1
   5  -6  -1 4164.04 369.510   1
   6  -2  -2 68266.8 3817.52   1
   6  -2  -2 52222.4 1469.39   1
   4  -5   7 20189.0 617.790   1
   4  -5   7 22539.5 733.260   1
  -2   4   8 22838.5 1134.68   1
   2  -4  -8 25788.8 1070.16   1
   4  -7   0 386.870 86.6800   1
  -4   7   0 367.730 283.800   1
   4  -7   0 427.030 72.0400   1
   4  -7   0 524.420 149.590   1
   2  -7   6 12652.2 380.160   1
   2  -3  -9 20734.4 904.380   1
  -2   3   9 25268.1 1351.55   1
   6  -3  -2 42563.7 1836.64   1
   6  -3  -2 29804.5 854.180   1
   6  -3   1 7463.64 334.510   1
   6  -3   1 8801.36 518.880   1
   3   4  -7 26679.7 778.560   1
   3   4  -7 23514.3 697.860   1
  -3  -4   7 24939.7 844.150   1
   3   4  -7 21300.8 792.910   1
   4  -7   3 17.4600 107.070   1
   4  -7   3 128.010 92.2500   1
  -4   7  -3 519.330 238.140   1
  -3   7   2 3781.47 348.650   1
   3  -7  -2 2577.45 157.530   1
   3  -7  -2 3594.55 285.940   1
   1  -3  -9 752.640 318.950   1
  -1   3   9 2406.03 485.910   1
  -5  -1  -2 9853.94 583.820   1
   5  -5  -4 25084.2 711.660   1
   5  -5  -4 27931.9 1078.74   1
   5  -5  -4 22174.7 690.650   1
  -5   5   4 28388.0 1409.27   1
  -1   7  -6 535.740 165.070   1
  -1   7  -6 453.450 92.8400   1
  -1   7  -6 400.600 109.200   1
   1  -7   6 323.280 77.3300   1
   4  -4  -7 53883.3 1663.98   1
  -4   4   7 46761.4 1464.01   1
  -4   4   7 57715.4 2269.29   1
  -4   6  -6 1193.61 115.720   1
   4  -6   6 1230.42 113.690   1
  -4   6  -6 575.330 203.380   1
   4  -6   6 909.450 137.600   1
  -2  -4  -5 3510.79 358.180   1
   2   4   5 3517.37 249.630   1
  -5   6  -3 3338.77 411.440   1
   5  -6   3 4870.68 284.340   1
   5  -6   3 4903.39 426.890   1
   5  -6   3 5165.24 355.100   1
  -5   6  -3 5150.18 356.460   1
   3  -4   9 21193.7 642.530   1
   3  -4   9 29204.1 855.990   1
  -3   4  -9 29115.1 925.420   1
   4   3  -6 6738.98 387.550   1
   4   3  -6 10007.1 355.290   1
   4   3  -6 8663.42 368.150   1
   2  -6  -5 47888.9 1591.77   1
  -2   6   5 42034.2 1350.20   1
  -4  -2  -4 8352.77 545.910   1
   4   2   4 7816.09 288.300   1
   0  -2  11 3206.67 238.110   1
   0   2 -11 2386.19 197.730   1
   0   2 -11 1929.21 226.150   1
   0   2 -11 938.510 195.140   1
   0  -2  11 2671.28 187.390   1
   2   4  -9 4468.80 279.270   1
  -2  -4   9 4553.57 290.730   1
   2   4  -9 4471.91 318.580   1
   4  -6  -4 18703.3 823.170   1
  -4   6   4 23471.3 1323.77   1
   6  -4   0 9364.43 333.600   1
   0  -6   8 36315.9 985.910   1
   0   6  -8 35794.6 1003.59   1
   0   6  -8 43103.3 1149.25   1
   0  -6   8 30837.4 967.020   1
  -1  -1  11 11031.8 800.600   1
   1   1 -11 7157.28 556.180   1
  -1  -1  11 5902.18 476.640   1
  -1  -1  11 11378.8 440.490   1
   1   1 -11 8705.92 418.470   1
  -1   4   8 749.070 184.100   1
   1  -4  -8 1186.49 204.200   1
   6  -2   1 33289.7 1190.44   1
   6  -2   1 23278.3 803.380   1
  -6   4   1 9305.55 706.210   1
   6  -4  -1 7095.06 283.470   1
  -6   4   1 6321.81 357.770   1
   6  -4  -1 5895.57 459.210   1
   6  -4  -1 5657.65 375.010   1
  -6   4   1 5793.04 423.890   1
   0   1 -11 5203.37 598.690   1
   0   1 -11 10018.5 485.300   1
   0  -1  11 4849.93 567.740   1
   0  -1  11 7247.41 548.230   1
   0   1 -11 6680.44 559.210   1
   1   6   2 8992.01 376.290   1
  -1  -6  -2 7715.04 437.590   1
  -3   0  10 10314.3 438.140   1
   3   0 -10 9444.79 457.820   1
  -3   0  10 12730.1 897.490   1
   3   0 -10 7509.28 599.270   1
  -3   0  10 11932.5 443.920   1
   5  -1  -7 5579.81 402.760   1
  -5   1   7 5540.66 354.460   1
   5  -1  -7 6325.56 626.900   1
   5  -5   5 9346.52 425.860   1
  -5   5  -5 7841.91 357.340   1
  -5   5  -5 9943.19 384.820   1
   6  -2  -3 6401.08 396.250   1
   6  -2  -3 11239.8 450.330   1
   6  -2  -3 14370.7 823.240   1
  -4   3   8 16453.2 1003.18   1
   4  -3  -8 17587.3 759.850   1
  -4   3   8 18151.1 686.130   1
   1   4 -10 14297.4 535.540   1
  -1  -4  10 19326.0 572.820   1
   1   4 -10 16703.5 568.690   1
  -1  -4  10 17432.8 573.230   1
   0  -7   0 100.810 148.710   1
   0   7   0 170.340 90.4800   1
  -2  -3  10 2288.72 176.260   1
  -2  -3  10 3072.81 256.890   1
   2   3 -10 1449.07 169.590   1
   2   3 -10 2157.44 187.140   1
   1   2   9 23327.8 958.020   1
  -1  -2  -9 18258.5 918.060   1
   0   7  -5 31845.7 862.060   1
   0  -7   5 32333.7 857.150   1
  -2   1 -10 25692.8 966.710   1
   2  -1  10 18009.5 1151.96   1
  -2   1 -10 25826.8 928.630   1
   2  -1  10 27644.0 832.350   1
   5   2  -2 11137.4 435.300   1
  -5  -2   2 10168.0 559.140   1
   5   2  -2 7933.97 435.640   1
  -5  -2   2 6093.21 477.000   1
  -5   1  -5 17385.9 681.960   1
   5  -1   5 17668.9 690.710   1
   5  -1   5 16860.5 582.690   1
  -5   1  -5 23954.6 1168.11   1
   5  -1   5 23108.5 683.530   1
   6  -4   1 -220.31 218.430   1
   6  -4   1 145.380 94.7300   1
   1   2 -11 18966.7 900.720   1
  -1  -2  11 14684.2 932.880   1
  -1  -2  11 14035.2 536.390   1
   1   2 -11 20079.4 707.750   1
   0  -5  -6 7970.85 528.680   1
   0   5   6 11199.7 635.260   1
   5   0   4 247.630 79.5400   1
  -5   0  -4 337.730 522.250   1
  -5   0  -4 292.550 102.840   1
   5   0   4 226.800 76.0900   1
   5   0   4 281.190 89.8500   1
  -4   7   1 11995.5 868.590   1
   4  -7  -1 10821.1 388.460   1
   4  -7  -1 10245.6 342.370   1
   4  -7  -1 10738.4 521.490   1
   3  -6  -5 32010.0 1198.47   1
  -3   6   5 27782.5 1091.85   1
   2   2   8 17267.6 740.690   1
  -2  -2  -8 16985.8 759.820   1
  -6   1   1 9913.93 657.760   1
   6  -1  -1 8740.89 465.810   1
   6  -1  -1 11031.3 517.080   1
   6  -3  -3 22491.7 1124.14   1
  -6   3   3 16221.1 596.080   1
   6  -3  -3 15221.2 606.190   1
   6  -3  -3 15992.5 534.520   1
  -1  -3  -8 288.930 223.920   1
   1   3   8 -42.240 125.270   1
   5  -2  -7 51521.0 1531.67   1
  -5   2   7 54109.0 1485.59   1
  -5   2   7 55732.2 1919.55   1
  -5   6   2 9571.34 959.590   1
   5  -6  -2 6518.99 231.650   1
   5  -6  -2 7716.81 451.410   1
   5  -6  -2 7682.51 323.040   1
  -3  -3  -5 38545.0 1396.94   1
   3   3   5 33175.4 908.090   1
  -1  -6   7 3161.92 189.700   1
   1   6  -7 3202.69 201.930   1
   1   6  -7 3432.49 206.080   1
  -5  -2   3 5090.24 387.340   1
  -5  -2   3 3940.33 279.150   1
   5   2  -3 4125.62 316.620   1
   5   2  -3 5428.34 337.100   1
   6  -1  -2 12024.5 614.790   1
   6  -1  -2 16180.1 593.340   1
  -6   1   2 14089.0 796.670   1
   4  -3   8 35220.2 1111.06   1
   4  -3   8 25090.8 766.650   1
  -4   3  -8 29570.1 961.440   1
  -3  -5   3 17179.2 761.200   1
   3   5  -3 15259.5 469.510   1
  -4  -3  -2 18778.6 900.860   1
   4   3   2 14571.4 438.210   1
   3   1 -10 23418.1 1007.82   1
  -3  -1  10 30081.1 877.340   1
   3   1 -10 26146.0 848.380   1
  -3  -1  10 27804.0 853.530   1
  -4   5   6 11672.4 762.640   1
   4  -5  -6 9025.95 493.570   1
   1  -2 -10 7395.12 765.920   1
  -1   2  10 12135.3 881.750   1
   1  -2 -10 10254.7 579.600   1
  -1   7   2 3707.94 241.170   1
   1  -7  -2 4469.53 360.760   1
  -5  -2   1 2018.59 220.040   1
   5   2  -1 2834.94 258.830   1
   5   2  -1 3296.63 211.670   1
  -5  -2   1 3902.33 359.610   1
   2  -4  10 -67.620 97.4300   1
  -2   4 -10 7.86000 93.2000   1
   2  -4  10 140.680 76.6800   1
   3   5  -2 7637.06 268.060   1
   3   5  -2 5335.85 326.170   1
  -3  -5   2 9046.94 446.400   1
   1   5  -9 7095.20 273.950   1
  -1  -5   9 7914.69 312.580   1
  -1  -5   9 9838.72 365.790   1
   1   5  -9 9898.57 356.890   1
  -3   1  -9 17196.8 732.130   1
   3  -1   9 17330.7 565.150   1
   3  -4  -8 29.0700 143.460   1
  -3   4   8 304.430 252.740   1
   6  -3   2 179.710 145.190   1
   6  -3   2 158.380 99.2900   1
  -4   7  -4 -181.76 256.230   1
   4  -7   4 -43.600 69.8100   1
  -4   7  -4 48.6400 58.7700   1
   5   1  -6 1281.10 154.180   1
   5   1  -6 1681.22 186.790   1
   5   1  -6 1013.50 135.150   1
   5   1  -6 828.040 119.780   1
   5   1  -6 1692.28 165.220   1
  -5  -1   6 957.690 123.070   1
  -5  -1   6 1449.14 160.660   1
  -6   4   2 6211.66 323.900   1
   6  -4  -2 5659.37 404.660   1
   6  -4  -2 6305.22 397.390   1
  -6   4   2 7841.34 578.630   1
   6  -4  -2 6540.16 269.500   1
   2  -5  -7 20673.0 863.650   1
  -2   5   7 20338.5 911.950   1
   5  -3   6 358.410 190.480   1
   5  -3   6 415.790 91.0800   1
  -5   3  -6 289.960 88.7800   1
   5  -3   6 447.740 93.2000   1
   5  -3   6 362.610 75.4700   1
   5  -3   6 295.490 152.350   1
  -2  -5  -3 75107.2 4069.66   1
   2   5   3 55508.7 1458.84   1
   2  -2 -10 686.320 180.000   1
  -2   2  10 1145.00 168.950   1
  -2   2  10 573.850 245.000   1
   6  -1   0 19937.4 853.700   1
  -6   1   0 24073.9 1248.29   1
   6  -1   0 23893.5 867.530   1
   4   0  -9 58047.2 1666.77   1
   4   0  -9 49195.1 1774.47   1
  -4   0   9 69935.8 3613.97   1
  -2  -1  -9 9644.04 550.150   1
  -2  -1  -9 6084.47 475.980   1
   2   1   9 8655.64 493.360   1
  -2  -1  -9 13187.9 1040.91   1
   0  -6  -4 6365.12 411.400   1
   0   6   4 5122.02 330.110   1
   1   0 -11 975.580 178.560   1
  -1   0  11 1037.09 163.350   1
  -1   0  11 671.310 294.630   1
   2   6  -3 11423.7 362.870   1
  -2  -6   3 10371.2 503.770   1
   4  -1  -9 3145.98 295.490   1
  -4   1   9 3189.43 392.820   1
  -4   1   9 3549.30 239.460   1
   4  -1  -9 3396.58 540.130   1
   3  -1 -10 9915.96 475.720   1
  -3   1  10 12045.3 487.380   1
  -3   1  10 12840.0 819.010   1
  -3   1  10 12697.4 499.460   1
  -3  -4  -3 33239.7 1275.21   1
   3   4   3 27183.0 787.070   1
   0  -3  11 2126.56 165.800   1
   0  -3  11 1927.16 174.590   1
   0   3 -11 1910.95 193.480   1
   0   3 -11 1111.06 219.180   1
   0   3 -11 1727.12 196.150   1
   2   6  -2 9029.81 336.260   1
  -2  -6   2 10315.2 553.520   1
   4   2  -8 6645.31 303.860   1
  -4  -2   8 7987.51 329.990   1
   4   2  -8 6875.23 348.880   1
   3  -7   6 21028.7 615.710   1
  -3   7  -6 28415.3 1215.33   1
  -3   7  -6 22971.3 709.490   1
   3   5  -4 51136.7 1382.03   1
   3   5  -4 56104.1 1469.57   1
  -5   0   7 5019.94 591.220   1
   5   0  -7 7987.03 386.300   1
  -5   0   7 9782.76 409.840   1
   5   0  -7 8931.89 556.250   1
   1   5   5 22599.7 723.080   1
  -1  -5  -5 19386.7 818.200   1
   3  -3  -9 9970.31 532.370   1
  -3   3   9 11735.2 888.400   1
  -3   3   9 8946.90 449.670   1
   3  -3  -9 4175.64 675.800   1
  -4   4  -8 1665.01 143.820   1
   4  -4   8 1945.03 160.890   1
   4  -4   8 1344.70 120.050   1
   6  -1  -3 8801.99 389.150   1
  -6   1   3 9120.70 591.770   1
   6  -1  -3 9031.46 529.360   1
  -1   6   5 1157.77 165.790   1
   1  -6  -5 1467.17 277.390   1
   5  -4   6 31.5400 102.710   1
   5  -4   6 461.840 115.900   1
   5  -4   6 736.980 127.000   1
  -5   4  -6 622.030 104.220   1
   5  -4   6 424.160 93.8200   1
   5  -4   6 607.280 110.770   1
   3   5  -1 7112.14 281.150   1
  -3  -5   1 8889.55 514.410   1
   4  -2   8 11504.3 427.760   1
   4  -2   8 5753.34 768.050   1
  -4   2  -8 12505.9 522.920   1
   3   3  -9 6109.64 409.280   1
  -3  -3   9 4877.45 299.230   1
   3   3  -9 4390.37 314.180   1
   6  -4   2 10741.8 427.350   1
   6  -4   2 10381.3 703.820   1
  -5  -2   4 7368.14 362.530   1
   5   2  -4 9541.77 400.150   1
   5   2  -4 6923.96 365.750   1
   5   2  -4 8641.08 330.930   1
  -5   6  -4 9577.96 346.930   1
  -5   6  -4 9103.40 902.150   1
   2   6  -4 30834.0 821.860   1
   2   6  -4 30412.8 887.930   1
  -1   2 -11 11012.9 568.790   1
   6  -2   2 1842.43 206.870   1
   6  -2   2 1810.62 195.610   1
   2   3   7 6447.30 335.040   1
  -2  -3  -7 7513.69 487.090   1
   5   2   0 38379.9 1058.23   1
  -5  -2   0 41322.3 1351.32   1
  -5  -2   0 27004.3 1035.41   1
   5   2   0 31687.9 1101.96   1
  -5   4   6 1471.94 184.660   1
  -5   4   6 3015.52 396.190   1
   5  -4  -6 1931.12 217.090   1
  -1  -1 -10 32833.7 1677.51   1
   1   1  10 33653.2 1033.36   1
  -1  -1 -10 21840.0 995.820   1
   1   1  10 25295.4 1222.33   1
  -1  -1 -10 26304.1 1004.60   1
   2  -7  -3 18897.7 768.310   1
  -2   7   3 15762.1 700.110   1
  -6   2   4 5202.92 342.000   1
   6  -2  -4 5330.23 328.610   1
  -6   2   4 4101.78 336.840   1
   6  -2  -4 3989.75 313.280   1
   6  -2  -4 6664.28 503.800   1
   0   0  11 20672.1 664.610   1
   0   0  11 20557.5 1236.25   1
   0   0 -11 19329.0 689.300   1
   2   6  -1 15268.9 468.650   1
  -2  -6   1 13756.2 661.730   1
  -3   5   7 66743.7 3890.45   1
   3  -5  -7 56953.1 1759.89   1
   5  -2   6 20955.7 762.120   1
   5  -2   6 19387.0 641.840   1
  -5   2  -6 19485.3 679.570   1
   0  -3  -9 64921.7 3479.43   1
   0   3   9 62540.5 2078.38   1
   3  -6   8 6037.54 420.780   1
  -3   6  -8 6813.01 301.840   1
  -3   6  -8 2496.94 408.690   1
  -4   0  -7 2054.16 304.710   1
   4   0   7 2993.99 287.260   1
  -4   0  -7 4657.08 547.360   1
   4   0   7 4251.41 270.940   1
  -4   0  -7 2939.33 246.250   1
  -2  -5   8 4781.56 348.080   1
   2   5  -8 4941.18 305.460   1
   2   5  -8 3595.30 314.170   1
   2   5  -8 6334.71 277.200   1
  -4  -1  -6 15655.5 802.400   1
  -4  -1  -6 12238.1 701.710   1
   4   1   6 17165.4 754.510   1
   4   1   6 14601.5 422.210   1
   1  -5  10 4077.85 502.920   1
   1  -5  10 8908.54 287.710   1
   1  -5  10 6860.42 267.170   1
  -1   5 -10 6592.13 297.040   1
  -3   7   3 5914.66 483.320   1
   3  -7  -3 5961.61 432.250   1
   6  -1   1 33618.2 1199.98   1
   6  -1   1 30419.5 782.360   1
  -6   1  -1 38559.3 1455.73   1
   1  -3  11 13816.4 475.330   1
  -1   3 -11 11553.1 449.680   1
   1  -3  11 14336.5 418.240   1
  -1   3 -11 13944.7 463.910   1
  -2  -1  11 2019.99 195.690   1
   2   1 -11 1878.60 310.230   1
   2   1 -11 3321.39 277.370   1
  -2  -1  11 4455.96 317.760   1
   2  -7   7 1104.53 109.140   1
  -2   7  -7 1296.20 138.250   1
  -2   7  -7 1469.98 259.060   1
   1  -5  -7 28024.1 972.230   1
  -1   5   7 27844.9 1100.26   1
   0  -7  -1 7090.75 348.500   1
   5   1   3 25212.6 592.310   1
  -5  -1  -3 27871.8 1076.02   1
   0   7  -6 5140.21 305.770   1
   0  -7   6 4992.41 344.260   1
   0   7  -6 5884.89 230.080   1
   0  -7   6 4668.08 279.700   1
   4  -7  -2 30496.2 659.160   1
  -4   7   2 39003.7 1698.59   1
   4  -7  -2 35728.5 779.050   1
  -1   7  -7 2793.33 187.400   1
   1  -7   7 3185.75 215.690   1
  -1   7  -7 2648.14 212.400   1
  -1   7  -7 2304.79 353.620   1
   6  -4  -3 1281.40 161.760   1
  -6   4   3 2188.97 190.250   1
   6  -4  -3 2029.05 161.250   1
  -6   4   3 2309.77 757.150   1
   6  -4  -3 2210.33 235.720   1
   6  -3  -4 13077.1 383.750   1
   6  -3  -4 13066.2 524.920   1
  -6   3   4 10614.1 473.030   1
  -6   3   4 13008.3 442.600   1
  -6   3   4 19767.5 990.050   1
   6  -3  -4 14300.2 818.770   1
  -1  -3  11 691.510 93.5500   1
   1   3 -11 932.960 129.350   1
  -1  -3  11 962.820 126.770   1
   1   3 -11 730.850 158.140   1
   3   5  -5 55982.7 1186.75   1
   3   5  -5 53650.1 1113.15   1
   3  -5   9 33659.8 776.060   1
   3  -5   9 42419.7 956.500   1
  -3   5  -9 40354.6 963.990   1
  -1  -4  -7 7330.73 461.050   1
   1   4   7 9107.08 435.320   1
   4   1  -9 22160.9 647.630   1
   5  -3  -7 10029.1 416.100   1
  -5   3   7 11327.6 388.630   1
  -5   3   7 13931.2 861.050   1
  -1   1 -11 149.530 123.960   1
  -1   1 -11 -89.150 81.8400   1
   1  -1  11 247.880 211.690   1
  -1   1 -11 244.630 107.060   1
   1  -1  11 213.500 240.050   1
   1  -1  11 307.480 91.0200   1
   2   0 -11 41290.1 1755.39   1
   4   3  -7 1515.63 139.690   1
   4   3  -7 1631.04 155.730   1
  -4  -3   7 1841.73 197.270   1
   4   3  -7 836.790 123.940   1
  -6   5   0 7647.24 648.480   1
   6  -5   0 8092.99 284.170   1
   6  -5   0 5766.32 365.520   1
  -6   5   0 6703.81 328.450   1
   6  -5   0 9199.81 541.860   1
  -4   2   9 306.760 364.160   1
   4  -2  -9 136.940 97.9900   1
  -4   2   9 110.410 76.9500   1
  -4   2   9 171.000 107.940   1
  -1   6  -9 14429.6 410.170   1
   1  -6   9 16791.6 427.340   1
   1  -6   9 13435.0 403.200   1
   5  -6  -3 18637.8 731.310   1
   5  -6  -3 17220.0 502.610   1
  -5   6   3 24415.0 1225.55   1
   5  -6  -3 18461.4 450.530   1
   0   5 -10 4197.85 273.490   1
   0  -5  10 3766.80 244.210   1
   0   5 -10 3225.49 271.850   1
   0  -5  10 4060.98 276.410   1
   0   5 -10 2070.03 387.270   1
   4   4  -3 1955.22 177.380   1
   4   4  -3 3807.98 249.630   1
  -4  -4   3 4210.34 353.450   1
   5  -5  -5 50525.5 1355.52   1
   5  -5  -5 49127.4 985.790   1
   5  -5  -5 48560.8 1131.03   1
  -5   5   5 62313.2 2185.31   1
   0   2  10 -2.5500 218.040   1
   0  -2 -10 184.770 203.350   1
   0  -2 -10 263.540 345.720   1
   2   6  -5 29864.8 653.040   1
   2   6  -5 34556.2 786.960   1
  -4  -4   2 323.650 137.080   1
   4   4  -2 299.200 91.0100   1
  -3  -2  10 472.170 83.1000   1
  -3  -2  10 607.860 117.770   1
   3   2 -10 739.930 127.560   1
   3   2 -10 512.550 135.170   1
   6  -3   3 37.5900 127.380   1
   6  -3   3 83.5600 140.100   1
   6  -1  -4 11799.7 670.560   1
   6  -1  -4 11912.0 422.590   1
   6  -1  -4 10007.2 385.750   1
  -6   1   4 11416.2 592.750   1
   3   5   0 18044.1 436.860   1
  -3  -5   0 19798.1 743.780   1
  -4   7  -5 5399.79 350.250   1
  -4   7  -5 2974.87 438.000   1
   4  -7   5 4209.10 262.540   1
  -3  -4   8 30984.8 830.640   1
  -6   5  -1 39218.3 956.660   1
   6  -5   1 44173.9 1162.11   1
  -6   5  -1 49613.6 1619.27   1
   6  -5   1 43242.2 903.280   1
  -3  -1  -8 8055.22 463.790   1
  -3  -1  -8 18196.4 1161.66   1
   3   1   8 10343.9 441.570   1
  -3  -1  -8 11635.6 557.300   1
  -6   5   1 227.920 111.170   1
   6  -5  -1 197.500 92.1600   1
   6  -5  -1 317.130 110.540   1
  -6   5   1 270.830 278.930   1
   6  -5  -1 201.650 74.0000   1
   5   2  -5 19688.2 595.020   1
   5   2  -5 20466.8 584.680   1
   0  -4  -8 2600.36 328.990   1
   0   4   8 1952.47 235.910   1
   4  -6   7 28.0500 64.3600   1
   4  -6   7 122.510 74.6100   1
  -4   6  -7 -28.020 61.5900   1
  -3  -2  -7 7286.12 497.390   1
   3   2   7 9738.98 474.080   1
   6  -4   3 11463.5 665.130   1
   6  -4   3 16294.3 468.880   1
  -2   0 -10 1389.29 187.560   1
   2   0  10 842.160 240.360   1
  -2   0 -10 880.890 175.280   1
   2   0  10 1459.88 169.060   1
  -2   0 -10 649.370 284.680   1
  -1  -6  -3 1257.29 218.450   1
   1   6   3 948.710 136.210   1
  -2  -2  11 7644.57 312.410   1
   2   2 -11 7275.25 324.910   1
   2   2 -11 7917.14 511.430   1
  -2  -2  11 7356.30 301.970   1
   4   4  -4 166.630 113.870   1
   4   4  -4 140.830 86.5300   1
   2   6   0 21607.0 530.370   1
  -2  -6   0 28688.3 1028.72   1
   4   4  -1 11981.4 378.150   1
  -4  -4   1 12475.1 649.450   1
   5   2   1 10667.0 515.300   1
  -5   5  -6 2242.29 199.390   1
   5  -5   6 2847.85 216.270   1
   5  -5   6 2122.80 386.900   1
   4  -6  -5 27366.4 1006.45   1
  -4   6   5 28010.9 1547.52   1
   2  -6   9 11299.1 379.430   1
  -2   6  -9 13331.0 393.190   1
  -2   8  -2 13860.7 424.420   1
   2  -8   2 14527.5 357.780   1
   2  -8   2 13627.5 479.350   1
   2  -8   2 14352.2 403.520   1
   6   0  -2 4991.78 509.930   1
   6   0  -2 6175.70 290.930   1
  -6   0   2 5891.42 582.780   1
  -3   2  10 42172.7 948.300   1
   3  -2 -10 38022.2 1041.79   1
   4  -5   8 12957.8 388.390   1
  -4   5  -8 13149.8 475.800   1
   4  -5   8 13112.6 449.660   1
  -1   1  11 4891.91 678.310   1
  -1   1  11 7125.18 304.280   1
   1  -1 -11 5258.99 442.070   1
  -2   8  -3 16418.1 518.240   1
   2  -8   3 20118.1 517.510   1
   2  -8   3 18985.0 451.650   1
   2  -8   3 16985.0 526.180   1
   6   0  -1 1161.49 222.740   1
   6   0  -1 1559.26 156.540   1
  -6   0   1 2386.70 480.820   1
   4   3   3 16303.9 465.270   1
  -4  -3  -3 18847.3 779.450   1
   6  -5   2 16856.5 431.210   1
  -6   5  -2 21551.6 1203.44   1
   1  -7  -3 2265.16 290.060   1
  -1   7   3 1756.03 164.790   1
   4  -1   8 31.7200 109.400   1
  -4   1  -8 162.260 141.960   1
   4  -1   8 115.100 73.5400   1
   6  -2   3 38178.8 975.640   1
   6  -2   3 38067.3 1099.66   1
  -1  -6   8 955.410 84.7700   1
  -1  -6   8 1351.98 164.630   1
   1   6  -8 1163.37 104.360   1
   1   6  -8 1035.46 113.600   1
  -1  -7   3 38346.4 975.910   1
   1   7  -3 38839.0 773.170   1
   4   2   5 7354.89 268.320   1
  -4  -2  -5 8663.10 571.210   1
   2  -5  10 2980.59 230.100   1
   2  -5  10 2879.22 194.020   1
  -2   5 -10 3104.09 239.200   1
   5   1  -7 12792.2 514.600   1
   5   1  -7 12863.5 466.180   1
  -5  -1   7 14189.2 476.350   1
   5  -6   5 12974.2 324.040   1
  -5   6  -5 10667.1 929.200   1
   0   4 -11 23317.3 684.360   1
   0   4 -11 25766.3 699.050   1
   0  -4  11 28159.8 666.780   1
   0   4 -11 22168.7 1204.92   1
  -6   1  -2 74355.8 1702.99   1
   6  -1   2 65879.0 817.630   1
   6  -1   2 61516.0 1912.07   1
   6  -5  -2 272.450 110.560   1
   6  -5  -2 103.270 53.6400   1
  -6   5   2 491.840 302.390   1
  -1  -7   2 73054.4 1346.16   1
   1   7  -2 65669.5 607.890   1
   2  -8   1 1050.14 96.8900   1
   2  -8   1 1133.73 163.760   1
  -2   8  -1 1228.42 145.090   1
   0  -6   9 39998.4 839.090   1
   0   6  -9 40387.6 892.130   1
   0  -6   9 38140.6 903.140   1
   0   6  -9 37719.6 777.420   1
   3  -8   2 14837.4 379.300   1
   3  -8   2 12713.3 497.590   1
   3  -8   2 12560.3 375.920   1
  -3   8  -2 12319.0 566.430   1
  -6   2   5 140.540 97.6800   1
   6  -2  -5 51.5600 75.5600   1
   6  -2  -5 101.810 48.6900   1
  -6   2   5 218.430 74.4200   1
   6  -2  -5 143.440 59.5400   1
   6  -2  -5 320.190 219.260   1
   6   0  -3 10545.5 404.970   1
   6   0  -3 7895.59 488.170   1
  -6   0   3 10084.5 707.760   1
  -6   0   3 9005.39 462.750   1
   3   0   9 1110.31 128.180   1
   3   0   9 1039.38 170.250   1
  -3   0  -9 1433.03 175.930   1
  -3   0  -9 1035.17 325.840   1
   5   0   5 1725.93 143.190   1
   5   0   5 1433.93 144.730   1
  -5   0  -5 2564.13 470.140   1
  -5   0  -5 1395.61 194.650   1
   5   0   5 1414.81 178.780   1
   1  -4  11 7144.23 309.710   1
   1  -4  11 7960.51 291.850   1
  -1   4 -11 9578.59 376.640   1
  -1   4 -11 7464.83 310.350   1
   3   5  -6 15437.9 486.980   1
   3   5  -6 13222.0 474.950   1
  -3   7  -7 338.730 93.2300   1
  -3   7  -7 360.110 179.870   1
   3  -7   7 235.900 61.9200   1
   5  -1  -8 4396.63 345.400   1
  -5   1   8 6202.38 283.460   1
   5  -1  -8 4840.94 446.050   1
   2  -6  -6 6587.38 484.360   1
  -2   6   6 5760.60 499.760   1
   1   7  -4 140.140 87.0000   1
  -5   7  -1 2474.02 554.270   1
   5  -7   1 2343.12 166.450   1
   5  -7   1 2632.48 288.850   1
  -3   8  -3 23280.3 764.560   1
   3  -8   3 20635.2 478.130   1
   3  -8   3 24181.5 713.030   1
  -6   0   0 2922.26 529.140   1
   6   0   0 1911.31 170.600   1
  -3   8  -1 35557.7 1042.81   1
   3  -8   1 38851.3 782.400   1
   3  -8   1 34915.3 966.940   1
   3  -8   1 37970.5 880.410   1
   2  -1 -11 560.730 162.580   1
  -2   1  11 726.810 330.380   1
  -2   1  11 156.960 136.250   1
   2  -8   4 500.520 67.6700   1
   2  -8   4 621.460 110.060   1
   2  -8   4 555.670 99.8200   1
  -2   8  -4 589.310 139.300   1
  -6   4   4 20394.5 734.080   1
   6  -4  -4 22357.9 736.960   1
   6  -4  -4 28491.4 664.290   1
  -6   4   4 32934.7 1364.89   1
   6  -4  -4 24366.1 608.910   1
  -6   4   4 28766.5 721.240   1
   2   4   6 333.670 198.000   1
  -2  -4  -6 200.490 212.880   1
   3  -3  10 6255.97 301.870   1
   3  -3  10 7448.63 281.650   1
  -3   3 -10 6413.78 272.570   1
   2   6  -6 13738.6 382.290   1
   2   6  -6 15581.1 502.030   1
   5  -1   6 19665.9 682.680   1
   5  -1   6 21686.8 596.730   1
  -5   1  -6 27051.0 1110.30   1
  -5   1  -6 22414.3 790.110   1
   5  -7   2 3523.13 306.740   1
  -5   7  -2 2801.85 541.650   1
   5  -7   2 2550.50 171.960   1
   4   4  -5 3306.27 222.340   1
   4   4  -5 3520.96 270.240   1
  -4   4   8 35141.7 1569.34   1
   4  -4  -8 34291.7 1181.89   1
  -4  -4   0 6123.15 369.880   1
   4   4   0 4705.99 295.970   1
  -2  -5  -4 7429.89 398.140   1
   2   5   4 7722.18 301.880   1
   2   4 -10 10814.1 416.210   1
   2   4 -10 10490.0 417.740   1
  -2  -4  10 13944.5 572.330   1
  -2  -4  10 12009.4 400.050   1
   5  -7   0 132.350 58.8800   1
   5  -7   0 163.460 122.760   1
  -5   7   0 503.870 403.250   1
   0  -7  -2 18470.8 708.290   1
  -3  -4  -4 13542.6 728.110   1
   3   4   4 11163.4 354.950   1
   3   5   1 189.280 79.6300   1
  -3  -5  -1 5.48000 170.260   1
  -4   7   3 13687.1 990.700   1
   4  -7  -3 8337.08 237.750   1
   4  -7  -3 11228.9 511.260   1
   0   7  -7 9880.48 317.900   1
   0   7  -7 8875.89 323.180   1
   0  -7   7 7954.83 232.570   1
   0  -7   7 8682.24 334.100   1
   6  -1  -5 92.3300 65.3500   1
  -6   1   5 92.2900 89.3700   1
   6  -1  -5 76.6000 78.1700   1
   6  -1  -5 105.000 63.9600   1
   6  -1  -5 139.130 165.890   1
  -3   6   6 10947.5 572.520   1
   3  -6  -6 13621.2 657.020   1
  -1  -7   1 3367.29 279.770   1
   1   7  -1 5365.66 401.860   1
   1   7  -1 2961.08 203.030   1
   6  -3  -5 9471.64 280.820   1
  -6   3   5 7814.00 408.960   1
   6  -3  -5 12136.3 534.580   1
   6  -3  -5 8382.28 308.430   1
  -6   3   5 15107.7 786.650   1
  -6   3   5 11690.8 408.860   1
   1   0  11 2271.93 399.370   1
   1   0  11 2549.33 210.900   1
  -1   0 -11 2153.59 260.720   1
  -5   2   8 28429.5 757.220   1
  -5   2   8 31129.4 1330.56   1
   5  -2  -8 26694.4 829.870   1
   3  -2  10 4478.33 448.960   1
   3  -2  10 6759.65 290.340   1
  -3   2 -10 6682.61 334.980   1
   0  -1 -11 12654.8 569.240   1
   0   1  11 15269.0 504.070   1
   0   1  11 11961.5 955.220   1
  -5   0   8 2889.76 234.660   1
   5   0  -8 2334.97 245.400   1
   5   0  -8 2311.32 219.290   1
  -2   8   0 2089.65 221.420   1
   2  -8   0 2321.82 263.090   1
   5   2  -6 6992.29 294.000   1
   5   2  -6 5131.08 362.440   1
   1  -8   3 23936.8 519.660   1
  -1   8  -3 28776.9 760.340   1
   1  -8   3 24516.0 729.910   1
   6  -5   3 23985.1 764.720   1
   6  -5   3 19065.4 524.390   1
  -2   4   9 62848.8 2080.89   1
   2  -4  -9 67834.2 1278.85   1
   6   0  -4 7628.46 327.550   1
  -6   0   4 9241.71 787.290   1
   6   0  -4 6037.28 424.570   1
   6   0  -4 9095.17 379.160   1
  -1   8  -2 16536.3 490.050   1
   1  -8   2 12537.4 486.820   1
  -2   7   4 8764.80 565.140   1
   2  -7  -4 8536.61 518.160   1
   0  -6  -5 16916.5 635.170   1
   0   6   5 14412.5 485.600   1
  -4   5   7 13339.4 920.560   1
   4  -5  -7 12357.1 573.070   1
  -3  -3  -6 28210.9 1005.96   1
   3   3   6 23909.6 641.810   1
   5  -3   7 136.200 60.8200   1
   5  -3   7 -24.340 69.6400   1
   5  -3   7 -3.3700 154.360   1
   5  -3   7 69.0600 71.0700   1
  -5   3  -7 70.9500 78.0500   1
   3  -8   4 44515.9 941.330   1
   3  -8   4 43318.6 1051.73   1
  -3   8  -4 34858.9 1085.27   1
   5  -6  -4 7446.80 301.560   1
  -5   6   4 11833.0 978.950   1
   5  -6  -4 9973.50 599.850   1
   5  -6  -4 7511.43 227.830   1
   3  -8   0 13217.5 364.710   1
   3  -8   0 11894.5 483.630   1
   3  -8   0 13401.4 430.890   1
  -3   8   0 13573.0 769.190   1
   2   6   1 24640.1 803.500   1
   2   6   1 21576.2 485.920   1
  -2  -6  -1 23905.3 856.990   1
   6  -3   4 1306.08 160.590   1
   6  -3   4 1615.32 179.750   1
   1   7  -5 396.300 112.220   1
   1   7  -5 418.880 100.950   1
  -4   7  -6 11201.5 348.410   1
   4  -7   6 13091.6 340.320   1
  -4   7  -6 8685.60 839.700   1
   3  -7  -4 2673.61 289.890   1
  -3   7   4 2734.85 410.070   1
   3  -4  10 3368.52 248.460   1
   3  -4  10 3278.22 239.440   1
  -3   4 -10 2533.03 206.750   1
  -5   7  -3 6733.18 790.830   1
   5  -7   3 6449.18 217.330   1
   5  -7   3 7992.37 428.970   1
   2  -3  11 143.720 130.630   1
  -2   3 -11 40.4400 111.190   1
   2  -3  11 1.12000 108.430   1
   4   2  -9 35886.3 884.440   1
   4   2  -9 41980.8 1118.83   1
  -4  -2   9 34698.3 874.670   1
   1   5 -10 261.490 79.6200   1
   1   5 -10 211.660 101.080   1
  -1  -5  10 206.210 119.290   1
  -1  -5  10 284.980 79.4000   1
   5  -4   7 3268.48 240.420   1
  -5   4  -7 3610.45 295.060   1
   5  -4   7 3674.36 266.250   1
   2  -2  11 14844.3 652.140   1
  -2   2 -11 17357.4 604.220   1
   2  -2  11 20642.5 596.080   1
  -5  -1  -4 14668.3 800.520   1
   5   1   4 12301.6 366.520   1
   6  -4   4 21767.8 661.350   1
   6  -4   4 26454.5 674.320   1
   6  -4   4 21860.2 976.680   1
  -2   3  10 17424.8 1097.90   1
   2  -3 -10 10602.1 1273.96   1
   2  -3 -10 17426.5 758.300   1
   4  -3  -9 6183.09 347.030   1
  -4   3   9 7518.11 301.490   1
  -4   3   9 9879.61 831.050   1
   6  -5  -3 13784.3 414.140   1
  -6   5   3 20186.0 1182.92   1
   6  -5  -3 15296.6 663.560   1
  -5  -2  -2 17741.4 947.660   1
   5   2   2 15297.7 455.470   1
   1  -7   8 2805.17 189.560   1
  -1   7  -8 3184.13 210.360   1
  -1   7  -8 2580.65 191.120   1
   2  -7   8 15623.3 373.900   1
  -2   7  -8 16683.8 455.100   1
   0  -5  -7 13280.3 691.330   1
   0   5   7 10418.1 532.900   1
   5  -7  -1 8590.46 259.980   1
   5  -7  -1 9034.50 487.210   1
   5  -7  -1 7436.30 265.800   1
  -5   7   1 12362.6 1164.81   1
   6   0   1 19275.5 542.660   1
  -6   0  -1 26612.1 1278.72   1
   1  -8   4 8432.57 296.960   1
  -1   8  -4 7167.78 357.830   1
   1  -8   4 6874.69 211.250   1
   1  -8   4 8438.09 392.760   1
  -2   8  -5 19479.1 536.890   1
  -2   8  -5 18289.2 631.200   1
   2  -8   5 16674.7 395.780   1
  -1  -4  11 30362.3 709.490   1
   1   4 -11 25656.3 662.100   1
  -1  -4  11 25005.1 650.780   1
   5  -4  -7 -77.260 153.770   1
  -5   4   7 144.790 296.910   1
  -4  -3   8 5348.35 372.770   1
   4   3  -8 5354.26 386.580   1
   4   3  -8 5692.04 232.240   1
   1  -8   1 4263.29 341.770   1
  -1   8  -1 5641.47 268.990   1
   2   3 -11 12589.0 490.830   1
   2   3 -11 8464.39 340.850   1
  -2  -3  11 10293.1 409.010   1
  -2  -3  11 9850.43 314.640   1
   2   5  -9 13043.8 436.860   1
  -2  -5   9 10749.8 381.520   1
   2   5  -9 10676.0 352.170   1
  -1   3  10 4336.77 712.070   1
   1  -3 -10 3385.12 415.840   1
  -1   6   6 21282.7 729.030   1
   1  -6  -6 24262.3 937.380   1
   1   5   6 46058.9 982.660   1
  -1  -5  -6 57674.6 1568.36   1
   4  -3   9 20770.3 560.540   1
  -4   3  -9 20979.7 700.430   1
   4  -3   9 21694.1 699.360   1
   1  -4  -9 43.3300 192.320   1
  -1   4   9 411.160 200.760   1
  -1  -7   0 16702.2 669.190   1
  -3   0  11 670.050 349.940   1
   3   0 -11 154.380 212.350   1
  -3   0  11 226.250 113.690   1
   3   0 -11 376.070 141.130   1
   3   3 -10 1207.17 185.640   1
  -3  -3  10 1979.74 175.550   1
   3   3 -10 1787.14 166.710   1
   4   0 -10 22721.2 789.310   1
   4   0 -10 23928.1 1250.02   1
  -4   0  10 29394.2 863.730   1
  -6   1  -3 54917.4 1955.25   1
   6  -1   3 48344.8 2007.10   1
   6  -1   3 56454.1 1516.56   1
   4   4  -6 305.910 121.260   1
   4   4  -6 312.980 110.490   1
  -5   5   6 35899.6 1493.33   1
   5  -5  -6 28647.7 1106.52   1
   2  -5  -8 4760.31 434.920   1
  -2   5   8 4138.60 452.930   1
   5  -2   7 10657.4 416.350   1
   5  -2   7 9758.06 383.610   1
  -5   2  -7 10624.0 487.230   1
   4  -4   9 21087.6 696.050   1
   4  -4   9 19054.2 605.950   1
  -4   4  -9 21293.4 724.180   1
  -3   4   9 2194.14 381.290   1
   3  -4  -9 2133.15 259.300   1
   4   4   1 30304.2 852.900   1
  -4  -4  -1 38738.7 1299.02   1
   3   1 -11 16757.4 771.090   1
  -3  -1  11 21787.7 699.310   1
   3   1 -11 18224.1 616.310   1
  -4   1  10 5530.17 520.850   1
   4  -1 -10 5227.63 710.850   1
  -4   1  10 5824.19 359.090   1
   4  -1 -10 5566.40 389.560   1
   6  -2   4 546.010 113.740   1
   6  -2   4 257.370 187.910   1
  -3   6  -9 3972.65 250.370   1
   3  -6   9 4179.11 271.710   1
   3  -6   9 3880.14 223.040   1
  -2  -2  -9 9537.98 590.980   1
   2   2   9 8639.60 482.280   1
   0  -2  12 3403.64 289.220   1
   0   2 -12 3367.72 231.530   1
   0   2 -12 3334.84 310.110   1
   0  -2  12 3953.68 245.630   1
   3   5  -7 28106.1 821.230   1
   3   5  -7 24316.3 745.550   1
  -6   6   0 13867.5 882.660   1
   6  -6   0 18780.5 842.870   1
   6  -6   0 13327.6 427.030   1
   6  -6   1 14183.0 436.450   1
  -6   6  -1 17809.6 1115.33   1
  -3  -4   9 6109.44 345.840   1
   3   4  -9 6810.05 394.600   1
   3   4  -9 6703.02 367.530   1
   1   3   9 8792.02 584.200   1
  -1  -3  -9 8652.08 605.340   1
  -2   4 -11 276.440 120.960   1
   2  -4  11 324.720 112.340   1
   2  -4  11 370.960 118.970   1
  -4   8  -2 5906.76 659.690   1
   4  -8   2 6463.10 341.990   1
   4  -8   2 6340.13 437.360   1
  -3   8  -5 2061.84 121.870   1
   3  -8   5 1755.71 106.550   1
  -3   8  -5 1889.46 248.860   1
  -1  -1  12 7936.51 434.520   1
  -1  -1  12 5217.82 446.370   1
   1   1 -12 4595.32 482.120   1
  -1  -1  12 7971.28 784.420   1
   1   1 -12 7481.72 460.180   1
   5  -6   6 11775.8 368.860   1
  -5   6  -6 12836.9 453.230   1
   2   6  -7 1695.81 117.370   1
   2   6  -7 1482.79 108.990   1
   2  -8  -1 -322.15 144.060   1
  -2   8   1 -5.5300 175.730   1
  -3   8   1 20637.2 986.730   1
   3  -8  -1 18346.9 723.430   1
   3  -8  -1 19240.6 540.720   1
   5  -7   4 16002.2 472.670   1
  -5   7  -4 11808.8 865.200   1
   5  -7   4 19828.5 658.820   1
   6  -2  -6 8042.84 642.920   1
   6  -2  -6 4478.45 285.940   1
  -6   2   6 6834.81 404.330   1
   6  -2  -6 5091.24 338.520   1
   6  -2  -6 5733.07 322.420   1
   1   2  10 27493.6 1269.08   1
  -1  -2 -10 30794.9 1164.39   1
  -1  -2 -10 33589.5 2095.43   1
   1   6   4 2385.11 247.340   1
  -1  -6  -4 1458.13 223.510   1
   1  -8   5 3867.68 224.000   1
  -1   8  -5 3572.45 215.350   1
   1  -8   5 4056.40 251.250   1
  -1   8  -5 4453.66 360.710   1
  -4   8  -1 3468.35 569.140   1
   4  -8   1 3586.71 213.190   1
   4  -8   1 3511.87 289.670   1
   4  -8   1 3772.70 208.770   1
   6   0  -5 19576.3 662.180   1
  -6   0   5 21764.1 1384.25   1
   6   0  -5 16507.1 588.790   1
  -5   3   8 7362.45 685.260   1
  -5   3   8 8528.36 448.260   1
   5  -3  -8 6490.84 451.320   1
  -5  -3   2 3390.55 307.540   1
   5   3  -2 3411.21 228.820   1
  -4   2  -9 10850.9 496.920   1
   4  -2   9 12159.9 446.020   1
   4  -2   9 9879.50 520.830   1
   3  -1  10 17757.6 624.050   1
  -3   1 -10 14853.2 637.480   1
   3  -1  10 10000.7 755.730   1
   6  -4  -5 27044.3 935.410   1
  -6   4   5 31024.7 951.680   1
   6  -4  -5 31699.1 869.220   1
  -6   4   5 35944.6 1470.26   1
   1   2 -12 1399.25 157.920   1
  -1  -2  12 1264.13 147.410   1
  -1  -2  12 1041.00 123.080   1
   1   2 -12 853.770 177.400   1
   1   7  -6 171.120 80.1100   1
   1   7  -6 73.6200 74.7900   1
  -5  -3   3 23.2000 132.150   1
   5   3  -3 157.560 97.3500   1
   2  -1  11 27852.2 1272.12   1
  -2   1 -11 35808.1 1196.61   1
   2  -1  11 35205.1 1020.87   1
   0  -1  12 1185.95 207.810   1
   0  -1  12 1401.47 146.590   1
   0   1 -12 1247.16 171.730   1
   0  -1  12 687.140 256.440   1
   0   1 -12 684.010 190.140   1
  -4  -1  -7 12662.6 672.920   1
   1  -8   0 21678.8 859.820   1
  -1   8   0 21465.1 694.140   1
  -4  -3  -4 3208.75 351.260   1
   4   3   4 2698.81 175.150   1
  -5   5  -7 15398.0 586.530   1
   5  -5   7 15279.0 561.420   1
   5  -5   7 12296.5 392.060   1
  -4   6  -8 1635.60 127.660   1
   4  -6   8 1603.95 148.530   1
   4  -6   8 1506.16 100.170   1
   3  -5  -8 4589.69 469.320   1
  -3   5   8 4551.34 636.510   1
  -1   7   4 1213.77 276.750   1
   1  -7  -4 335.360 179.200   1
  -4   8  -3 10539.6 960.280   1
   4  -8   3 10571.3 458.800   1
   4  -8   3 9594.15 328.280   1
   6  -5   4 20691.6 1196.30   1
   6  -5   4 21580.5 672.660   1
   6  -5   4 23003.1 775.690   1
   6  -6  -1 25191.7 1016.57   1
  -6   6   1 24280.0 1436.44   1
   6  -6  -1 23294.5 717.390   1
  -3  -5  -2 3038.87 378.990   1
   3   5   2 4124.70 242.380   1
  -5   7   2 4592.96 675.530   1
   5  -7  -2 2062.73 137.280   1
   5  -7  -2 2357.98 157.940   1
   5  -7  -2 2316.81 250.480   1
  -6   6  -2 13609.2 1035.96   1
   6  -6   2 16522.0 512.530   1
   6  -6   2 17252.6 627.340   1
   2   3   8 3469.85 251.140   1
  -2  -3  -8 4775.01 428.240   1
  -3   1  11 6511.59 650.500   1
  -3   1  11 5568.52 338.110   1
   3  -1 -11 4078.52 302.090   1
   6  -1  -6 6608.76 563.090   1
   6  -1  -6 5271.98 296.870   1
   6  -1  -6 4581.26 340.350   1
   6  -1  -6 4042.50 271.610   1
  -6   1   6 5939.21 369.200   1
  -1   6 -10 9153.13 350.780   1
   1  -6  10 7038.93 358.800   1
   1  -6  10 7003.80 403.520   1
  -1   6 -10 6562.70 365.560   1
   3  -3 -10 4917.87 389.820   1
  -3   3  10 4545.60 495.150   1
   5   1  -8 169.190 103.050   1
  -5  -1   8 244.840 106.300   1
   5   1  -8 196.790 134.310   1
   4   0   8 73.1800 102.380   1
  -4   0  -8 391.630 306.290   1
  -4   0  -8 215.170 127.450   1
   4   0   8 77.7800 81.4300   1
   4   1 -10 10614.7 425.730   1
  -4  -1  10 12155.3 433.160   1
   4   1 -10 10815.0 593.130   1
  -4   6   6 8204.53 872.160   1
   4  -6  -6 6523.30 537.620   1
  -2  -1 -10 3919.73 382.210   1
   2   1  10 3309.48 351.370   1
   2   1  10 4632.52 309.890   1
  -2  -1 -10 3144.00 516.630   1
   1  -2 -11 19276.5 1150.81   1
  -1   2  11 22509.4 1396.13   1
  -1   2  11 27843.6 929.280   1
   1  -2 -11 21381.3 875.420   1
   1   6  -9 753.430 94.5700   1
  -1  -6   9 1121.64 121.010   1
  -1  -6   9 1088.13 132.000   1
   1   6  -9 531.370 79.8900   1
  -5  -3   1 778.710 156.150   1
   5   3  -1 332.770 111.180   1
   6   0   2 38242.2 1063.74   1
  -6   0  -2 57079.6 2247.30   1
  -2   2  11 5442.29 621.750   1
  -2   2  11 7919.09 448.160   1
   2  -2 -11 6877.28 444.420   1
   0  -3  12 6375.15 346.670   1
   0  -3  12 6231.21 386.110   1
   0   3 -12 4242.17 304.400   1
   0   3 -12 5910.28 349.500   1
   5   3  -4 1435.62 150.470   1
   4  -8   0 1652.75 208.530   1
   4  -8   0 1459.03 110.980   1
   4  -8   0 1457.31 110.440   1
  -4   8   0 1787.84 259.330   1
  -2   8  -6 14431.7 624.240   1
  -2   8  -6 12102.4 404.800   1
   2  -8   6 10690.2 357.740   1
   1  -5  11 1747.30 145.390   1
  -1   5 -11 1347.71 130.620   1
   1  -5  11 1449.75 133.100   1
  -1   5 -11 2082.42 161.140   1
  -4   7   4 51180.1 2168.40   1
   4  -7  -4 50291.3 1671.34   1
   3  -5  10 14312.0 485.550   1
  -3   5 -10 15621.7 588.160   1
   3  -5  10 15381.3 543.800   1
   1  -5  -8 57229.3 1954.51   1
  -1   5   8 54015.8 1855.74   1
   0  -7  -3 20452.0 984.160   1
   0   7   3 23547.7 719.820   1
   0  -7   8 18987.6 608.890   1
   0   7  -8 18985.5 612.680   1
   0   7  -8 21561.1 622.350   1
  -6   3   6 7110.24 585.940   1
   6  -3  -6 5244.85 298.130   1
   6  -3  -6 4083.88 292.460   1
  -6   3   6 5584.64 349.840   1
   6  -3  -6 4924.15 364.430   1
   6   1  -2 9125.89 342.340   1
  -6  -1   2 9784.53 565.800   1
   6  -5  -4 20120.6 570.060   1
  -6   5   4 32405.3 1669.63   1
   6  -5  -4 19185.1 612.300   1
   6  -5  -4 22860.0 995.010   1
  -5  -2   7 24515.0 788.320   1
   5   2  -7 23524.6 795.140   1
   5   2  -7 23487.3 792.970   1
   3  -7   8 30.7500 70.5000   1
  -3   7  -8 111.570 87.6400   1
  -3   7  -8 151.750 137.640   1
  -2  -6  -2 22586.7 859.190   1
   2   6   2 20674.2 625.860   1
  -1   0  12 3828.20 288.310   1
   1   0 -12 2632.90 262.590   1
   1   0 -12 2015.48 363.750   1
  -1   0  12 2423.41 415.360   1
  -1   0  12 1827.36 424.710   1
   0  -5  11 13824.4 453.830   1
   0   5 -11 13937.2 485.590   1
   0  -5  11 13275.2 439.590   1
   0   5 -11 13044.1 494.700   1
  -6  -1   3 25264.8 898.310   1
   6   1  -3 26939.2 847.900   1
  -6  -1   1 2230.81 287.870   1
   6   1  -1 2247.70 182.080   1
  -1  -4  -8 45127.9 1687.69   1
   1   4   8 37501.7 1139.07   1
  -1  -7  -1 25188.6 988.270   1
   1   7   1 28361.5 879.460   1
  -4   2  10 7573.58 453.720   1
   4  -2 -10 6132.34 454.830   1
  -4   2  10 6993.68 731.690   1
   3   2 -11 457.130 138.020   1
  -3  -2  11 439.410 128.090   1
   3   2 -11 855.070 139.710   1
   4  -8   4 23866.1 830.750   1
   4  -8   4 21401.8 630.120   1
  -4   8  -4 25933.4 1512.37   1
  -4  -2  -6 10705.1 691.030   1
   4   2   6 10700.1 387.380   1
   2  -6  10 25992.4 794.370   1
  -2   6 -10 25141.7 792.060   1
   2  -6  10 27481.8 795.070   1
  -4   5  -9 1080.87 125.080   1
   4  -5   9 1086.70 129.080   1
   4  -5   9 1253.11 128.030   1
   5   0   6 4271.92 281.980   1
  -5   0  -6 6069.90 768.000   1
  -5   0  -6 2871.65 305.850   1
   5   0   6 3095.48 238.190   1
  -1   2 -12 8408.79 485.880   1
   1  -2  12 6327.72 474.440   1
  -5  -2  -3 7957.90 642.560   1
   5   2   3 7132.73 366.660   1
   6  -3   5 11349.0 546.840   1
   6  -6  -2 2306.27 269.690   1
   6  -6  -2 1430.99 107.910   1
  -6   6   2 2420.59 499.250   1
  -6   4  -5 15534.7 537.440   1
   6  -4   5 16828.6 544.930   1
   6  -4   5 12972.6 696.200   1
   4  -7   7 14862.1 449.630   1
  -4   7  -7 15256.5 495.540   1
  -5   6   5 1281.95 495.680   1
   5  -6  -5 1192.70 184.320   1
   6  -6   3 30997.3 1018.94   1
   6  -6   3 25812.7 757.100   1
  -6   6  -3 23140.3 1449.70   1
   0  -6  10 24797.8 713.290   1
   0  -6  10 28217.1 873.880   1
   0   6 -10 27246.9 815.610   1
   0   6 -10 27436.5 755.290   1
   0  -3 -10 16102.7 826.180   1
   0   3  10 11184.0 724.920   1
  -1  -1 -11 7239.22 543.560   1
   1   1  11 8105.43 847.430   1
   1   1  11 10150.3 424.880   1
  -1  -1 -11 8906.21 760.990   1
   1   3 -12 44307.1 1427.39   1
  -1  -3  12 48786.4 1324.86   1
   1   3 -12 46062.6 1328.64   1
  -1  -3  12 44647.5 1200.27   1
   1  -8   6 300.990 66.5600   1
   1  -8   6 344.450 82.1600   1
  -1   8  -6 272.380 89.4600   1
  -1   8  -6 403.760 121.110   1
   2   1 -12 455.500 139.080   1
  -2  -1  12 346.540 85.6800   1
   2   1 -12 337.760 146.600   1
  -2  -1  12 560.870 140.960   1
  -5  -3   0 414.150 146.290   1
   5   3   0 237.740 101.100   1
   3   2   8 -67.570 93.4500   1
  -3  -2  -8 -102.60 218.500   1
  -1   3 -12 3291.32 236.280   1
   1  -3  12 3863.88 290.880   1
   1  -3  12 3633.38 238.600   1
  -1   3 -12 3277.42 296.180   1
   4   4  -7 3196.44 253.410   1
   4   4  -7 3070.97 202.710   1
  -3  -1  -9 16801.4 1170.36   1
  -3  -1  -9 11857.8 562.080   1
   2   5   5 4667.85 325.630   1
  -2  -5  -5 3362.23 373.680   1
   5  -1  -9 15320.8 617.250   1
   5  -1  -9 15267.5 774.600   1
  -5   1   9 18142.7 656.470   1
   0   8  -3 19877.7 750.000   1
   0  -8   3 17404.5 675.000   1
   3   4   5 28298.2 860.770   1
  -3  -4  -5 24816.9 1128.34   1
  -3   8  -6 8015.26 449.670   1
   3  -8   6 6084.99 307.320   1
  -3   8  -6 4323.04 397.590   1
   5   3  -5 5769.45 348.200   1
   5   3  -5 4464.95 281.140   1
   5  -7   5 25926.3 717.030   1
  -5   7  -5 25655.2 735.510   1
   0   0 -12 25006.3 905.880   1
   0   0  12 29627.0 886.930   1
   0   0  12 23542.6 1484.68   1
   4   4   2 39359.3 1052.08   1
  -4  -4  -2 51625.1 1789.60   1
   3  -8  -2 26511.5 978.980   1
  -3   8   2 19614.3 1027.06   1
   1  -8  -1 16023.0 712.330   1
  -1   8   1 15341.5 554.580   1
   4  -8  -1 16645.5 544.740   1
   4  -8  -1 17826.8 502.940   1
   4  -8  -1 16526.2 657.400   1
  -4   8   1 15416.7 1045.21   1
   0  -8   2 6505.10 427.380   1
   0   8  -2 5919.03 352.040   1
   6   1   0 6245.94 382.340   1
  -6  -1   0 5475.62 459.470   1
  -5   1  -7 33428.1 1375.50   1
   5  -1   7 32828.9 1286.99   1
   5  -1   7 30721.5 870.370   1
  -5   1  -7 28932.2 1016.69   1
   5  -1   7 32426.9 961.550   1
   0   4   9 1007.89 224.720   1
   0  -4  -9 1292.92 257.720   1
   3  -7  -5 1790.81 222.520   1
  -3   7   5 725.050 253.150   1
  -2   7   5 21733.5 941.920   1
   2  -7  -5 24242.9 997.960   1
  -2   8   2 9690.23 467.850   1
   2  -8  -2 8557.13 522.650   1
   6  -1   4 518.720 266.050   1
   6  -1   4 1009.05 116.690   1
  -6   1  -4 542.770 261.370   1
   2  -6  -7 7195.93 558.330   1
  -2   6   7 6603.17 632.150   1
   0   8  -4 60870.5 1583.47   1
   0  -8   4 60613.9 1630.26   1
   0   8  -4 64351.8 2602.89   1
   2   0 -12 21504.1 1304.88   1
  -2   0  12 31426.3 1597.96   1
  -6   0   6 17204.1 649.120   1
  -6   0   6 10285.3 781.620   1
   6   0  -6 13052.2 529.990   1
   1   7  -7 499.830 103.780   1
   1   7  -7 600.810 91.7900   1
   5   1   5 34.1600 57.8100   1
  -5  -1  -5 -13.390 126.220   1
   4  -1   9 14654.2 509.990   1
  -4   1  -9 14540.7 671.390   1
  -5   0   9 1867.68 147.210   1
   5   0  -9 1405.85 143.450   1
   5   0  -9 1941.06 237.540   1
   5  -7  -3 3144.20 194.960   1
   5  -7  -3 3832.98 356.540   1
  -5   7   3 4968.65 697.990   1
   5  -7  -3 3187.80 219.180   1
   1  -7   9 187.680 72.7000   1
  -1   7  -9 111.230 96.6500   1
  -1   7  -9 190.440 79.8100   1
   1  -1  12 9299.78 626.200   1
   1  -1  12 11972.2 994.720   1
   2  -5  11 3080.78 194.410   1
  -2   5 -11 3172.17 248.770   1
   2  -5  11 3308.90 249.690   1
   3  -6  -7 7086.47 582.850   1
  -3   6   7 6811.43 604.720   1
   2   2 -12 6.55000 101.800   1
   2   2 -12 -145.01 119.120   1
  -2  -2  12 -10.640 59.1000   1
  -2  -2  12 98.5400 98.0700   1
   0  -2 -11 308.030 408.010   1
   0  -2 -11 176.250 198.670   1
   0   2  11 36.4600 278.050   1
   3   5  -8 926.420 112.300   1
   3   5  -8 735.100 96.5700   1
  -2   7  -9 10667.3 422.170   1
   2  -7   9 10937.4 364.040   1
  -2  -4  -7 2917.25 312.750   1
   2   4   7 3187.36 250.750   1
   5  -2  -9 27930.4 983.590   1
  -5   2   9 32443.7 975.530   1
  -5   2   9 31938.6 1457.39   1
   4   3  -9 4773.98 310.340   1
   4   3  -9 3400.61 227.700   1
  -4  -3   9 3789.27 259.300   1
   2   6  -8 16621.0 533.660   1
   2   6  -8 19903.6 586.380   1
   6  -2   5 6027.48 346.770   1
   6  -2   5 7711.76 566.980   1
   0  -6  -6 26037.6 1037.60   1
   2   4 -11 10260.2 417.330   1
   2   4 -11 7170.49 419.450   1
  -2  -4  11 7734.09 424.770   1
  -2  -4  11 10536.8 512.890   1
   0  -8   1 7533.48 459.270   1
   0   8  -1 6651.43 376.570   1
  -6   5  -5 5962.07 344.130   1
   6  -5   5 7379.14 424.870   1
   6  -5   5 4812.98 535.250   1
   3  -2 -11 21107.3 803.330   1
  -3   2  11 20896.9 1181.16   1
  -3   2  11 23333.4 729.960   1
  -4   4   9 41188.5 1934.03   1
   4  -4  -9 37378.1 1344.82   1
  -4   8  -5 729.890 104.220   1
   4  -8   5 1048.60 109.620   1
  -4   8  -5 702.910 252.130   1
   5  -3   8 -35.540 80.5000   1
  -5   3  -8 -25.850 86.2400   1
  -2   0 -11 8368.38 548.370   1
   2   0  11 6988.87 676.040   1
   2   0  11 9545.65 428.240   1
   5  -4   8 14301.3 539.930   1
   5  -4   8 11227.1 421.130   1
  -5   4  -8 12993.2 547.020   1
   0  -4  12 10470.7 402.070   1
   0  -4  12 9043.25 345.410   1
   0   4 -12 8083.83 470.350   1
   0   4 -12 6992.99 443.050   1
  -4  -2  10 16357.3 558.750   1
   4   2 -10 14027.2 537.200   1
   4   2 -10 11902.7 507.840   1
  -3  -6   3 47664.7 1456.35   1
   3   6  -3 42944.1 1113.73   1
   6   0   3 65027.6 2429.32   1
  -6   0  -3 84187.5 3680.33   1
   4  -5  -8 11658.3 670.660   1
  -4   5   8 13148.8 1069.37   1
   6  -4  -6 22269.4 639.110   1
   6  -4  -6 18887.6 661.220   1
  -6   4   6 30006.0 1437.93   1
   6  -4  -6 22191.1 863.350   1
   6  -2  -7 455.990 277.700   1
   6  -2  -7 137.880 90.0300   1
  -6   2   7 268.260 88.9400   1
   0   8  -5 18909.2 579.690   1
  -2   8  -7 867.320 97.8900   1
  -2   8  -7 689.420 174.610   1
   2  -8   7 824.250 93.8200   1
   6  -6  -3 6387.23 360.650   1
  -6   6   3 7380.39 746.280   1
   6  -6  -3 6310.88 456.980   1
   6  -6  -3 6015.84 304.560   1
  -5   6  -7 8866.57 372.470   1
   5  -6   7 7470.98 382.950   1
   2   5 -10 43346.0 1199.61   1
   2   5 -10 32974.0 1006.46   1
  -2  -5  10 35910.4 1044.32   1
   6  -6   4 9193.08 437.640   1
   6  -6   4 6603.04 346.860   1
  -3  -3  -7 645.040 214.770   1
   3   3   7 57.9700 193.120   1
   3   5   3 7580.90 433.600   1
   3   5   3 5140.51 285.740   1
  -3  -5  -3 6514.46 541.720   1
   3   6  -2 54765.9 1373.41   1
  -3  -6   2 55740.7 1771.11   1
  -3  -6   4 13417.2 574.800   1
   3   6  -4 12147.5 397.240   1
   3   0  10 6520.59 609.300   1
   3   0  10 8459.80 432.830   1
  -3   0 -10 10152.3 770.040   1
  -3   0 -10 7792.92 502.170   1
   5  -4  -8 1101.86 151.270   1
  -5   4   8 1175.11 433.550   1
  -6   1   7 5005.96 340.280   1
   6  -1  -7 3830.74 306.670   1
   6  -1  -7 4525.93 375.480   1
   6   1  -5 23827.7 728.700   1
   6   1  -5 27164.6 888.330   1
   1  -4  12 47156.7 1266.76   1
  -1   4 -12 43754.7 1228.94   1
   1  -4  12 50318.2 1357.35   1
  -1   4 -12 48026.6 1385.52   1
  -5  -3  -1 4770.42 484.590   1
   5   3   1 3404.69 215.490   1
  -5   5   7 -567.77 382.260   1
   5  -5  -7 918.090 194.230   1
   1   5 -11 508.560 107.290   1
  -1  -5  11 558.480 94.9100   1
   1   5 -11 579.220 125.410   1
  -1  -5  11 470.970 121.680   1
   6   1   1 1589.35 132.680   1
  -6   5   5 1955.82 328.380   1
   6  -5  -5 2115.03 273.300   1
   6  -5  -5 2070.61 102.680   1
   6  -5  -5 2015.24 151.960   1
  -1   1  12 2244.91 434.440   1
   1  -1 -12 2064.10 262.240   1
  -1   1  12 2429.68 227.320   1
  -3   3 -11 16834.3 671.220   1
   3  -3  11 20161.6 626.570   1
   3  -3  11 17210.0 748.590   1
   5   3  -6 18722.0 610.580   1
   5   3  -6 15604.0 514.720   1
   1   7   2 5089.29 324.070   1
  -1  -7  -2 4735.43 367.100   1
   7  -3  -1 1846.08 161.550   1
   7  -3  -1 2522.45 336.040   1
   4  -8  -2 24035.5 954.040   1
   4  -8  -2 23244.7 633.670   1
  -4   8   2 18386.6 1188.48   1
   4  -8  -2 21823.2 697.430   1
   2   6   3 14215.4 509.560   1
  -2  -6  -3 13898.6 771.340   1
  -1   8  -7 311.590 131.890   1
   1  -8   7 175.400 83.2600   1
  -1   8  -7 238.940 101.830   1
   1  -6  -7 37876.3 1462.17   1
  -1   6   7 37077.4 1460.21   1
  -3  -4  10 2722.28 342.190   1
   3   4 -10 2525.42 205.610   1
   3   4 -10 2216.90 186.120   1
   1   6   5 3593.38 235.820   1
  -1  -6  -5 3807.11 373.000   1
   5   2  -8 38190.7 1159.53   1
   4   3   5 6543.77 345.760   1
  -4  -3  -5 8559.19 642.290   1
   4   3   5 3869.23 321.330   1
   7  -3   0 14227.9 840.570   1
   7  -3   0 13392.8 504.260   1
   1   5   7 37068.8 1167.05   1
  -1  -5  -7 42971.2 1627.49   1
  -2  -7   3 1425.60 187.550   1
   2   7  -3 955.900 92.1700   1
   4   5  -3 43.0200 93.0300   1
  -4  -5   3 -1.1500 146.770   1
  -3  -6   1 2951.98 326.120   1
   3   6  -1 2252.84 145.400   1
   2  -1 -12 37472.2 1266.01   1
  -2   1  12 41354.8 1904.88   1
  -2   1  12 45222.7 1299.66   1
   0  -8   0 419.020 160.350   1
   0   8   0 542.250 138.760   1
   4  -7  -5 49089.5 1529.92   1
  -4   7   5 51858.8 1844.73   1
   0   5   8 5735.98 429.130   1
   0  -5  -8 6316.74 573.020   1
   1  -7  -5 462.370 188.570   1
  -1   7   5 600.670 166.710   1
   3   6  -5 5890.07 313.060   1
   3   6  -5 6504.09 365.370   1
   4  -3 -10 588.810 163.630   1
  -4   3  10 736.760 140.610   1
  -4   3  10 521.870 410.810   1
   7  -3  -2 -5.5300 80.2100   1
   7  -3  -2 -199.24 214.570   1
  -6   3   7 753.280 399.430   1
  -6   3   7 976.830 122.030   1
   6  -3  -7 683.160 135.590   1
  -3   4 -11 4298.73 319.040   1
   3  -4  11 5106.80 317.370   1
   3  -4  11 4492.43 300.220   1
   0   7   4 2453.99 208.950   1
   0  -7  -4 3222.52 324.840   1
  -5   2  -8 12886.9 515.590   1
   5  -2   8 17522.2 621.740   1
   3   3 -11 20930.3 648.320   1
  -3  -3  11 21468.9 652.720   1
   0   7  -9 34298.3 943.940   1
   0  -7   9 35187.3 1006.16   1
  -1   8   2 6058.96 354.390   1
   1  -8  -2 6377.34 470.690   1
   3  -2  11 15221.6 505.630   1
   3  -2  11 14224.8 754.290   1
  -3   2 -11 12849.2 590.460   1
   4   5  -2 1742.24 123.270   1
  -4  -5   2 2297.40 264.520   1
  -2   4  10 25307.2 1460.94   1
   2  -4 -10 23384.5 982.400   1
   5  -5   8 23329.3 614.510   1
   5  -5   8 27515.7 772.840   1
  -5   5  -8 28720.0 798.860   1
   2   7  -4 35218.2 813.770   1
  -2  -7   4 37017.0 1184.16   1
   5   1  -9 49985.4 1186.27   1
  -5  -1   9 60324.7 4978.64   1
   5   1  -9 77386.9 6476.21   1
   3  -6  10 6125.14 214.570   1
   3  -6  10 5918.91 289.560   1
  -3   6 -10 6394.74 294.280   1
  -2  -7   2 623.980 171.420   1
   2   7  -2 630.300 105.000   1
  -5   7  -6 29816.1 765.120   1
   5  -7   6 24669.0 594.060   1
  -3   8  -7 453.530 160.560   1
   3  -8   7 190.980 83.7800   1
  -3   8  -7 379.130 103.300   1
   4   5  -4 6468.18 262.400   1
  -4  -5   4 7121.63 383.310   1
   5  -8   1 13354.3 575.550   1
  -5   8  -1 18908.2 1483.42   1
   5  -8   1 11506.2 355.310   1
   5  -8   2 7634.49 279.700   1
  -5   8  -2 10537.7 1122.83   1
   5  -8   2 10083.8 494.610   1
   7  -4  -1 605.270 248.590   1
   7  -4  -1 607.830 85.5400   1
   7  -4   0 10646.5 657.470   1
   7  -4   0 7583.27 308.970   1
   3  -8  -3 5662.56 397.960   1
  -3   8   3 4456.63 435.260   1
   4  -6   9 3219.07 191.580   1
  -4   6  -9 4421.75 273.040   1
   4  -6   9 4546.12 262.770   1
   7  -2  -1 8486.08 503.060   1
   7  -2  -1 6261.65 307.610   1
   1   4 -12 6277.38 291.790   1
   1   4 -12 8545.21 408.820   1
  -1  -4  12 6410.64 249.090   1
  -1  -4  12 6230.63 285.150   1
   4   4  -8 78.0900 74.6300   1
   4   4  -8 327.850 136.080   1
   4  -3  10 10869.8 481.360   1
   4  -3  10 10660.1 400.020   1
  -4   3 -10 11774.4 529.630   1
  -5  -2  -4 3497.20 363.230   1
   5   2   4 3528.66 216.030   1
   0   8  -6 4183.81 380.160   1
   0   8  -6 5372.75 251.020   1
   0  -8   6 4299.12 173.810   1
   6  -7   1 7487.31 418.050   1
   6  -7   1 5489.36 218.420   1
  -6   7  -1 5594.10 704.130   1
   1   6 -10 952.430 111.230   1
  -1  -6  10 585.660 108.980   1
   1   6 -10 915.910 103.600   1
  -1  -6  10 715.760 119.060   1
  -2  -3  12 2566.62 168.660   1
   2   3 -12 3020.42 255.870   1
   2   3 -12 2362.08 167.190   1
  -5   3   9 5175.73 569.280   1
   5  -3  -9 5124.93 298.590   1
  -5   3   9 6124.40 269.230   1
  -6   4  -6 14993.5 507.680   1
   6  -4   6 17782.6 729.100   1
   7  -2  -2 194.060 170.160   1
   7  -2  -2 533.740 112.800   1
   4   0 -11 11535.3 667.000   1
   4   0 -11 15359.8 639.730   1
   3  -7   9 4317.05 182.530   1
  -3   7  -9 4616.59 236.970   1
   4   4   3 9184.79 313.650   1
  -4  -4  -3 10215.4 651.810   1
   4  -6  -7 4089.70 492.540   1
  -4   6   7 4693.09 455.580   1
   7  -3   1 11540.7 577.850   1
   7  -3   1 11498.4 472.480   1
  -1   0 -12 205.140 179.870   1
   1   0  12 15.4300 137.200   1
   1   0  12 140.710 216.310   1
   2  -8  -3 16534.9 747.220   1
  -2   8   3 12359.6 611.060   1
   6  -7   0 61876.9 5198.67   1
  -6   7   0 47872.5 2142.48   1
   6  -7   0 39459.8 933.450   1
   4  -4  10 -83.590 86.8100   1
   4  -4  10 51.4100 93.7600   1
  -4   4 -10 178.850 117.990   1
   2  -3  12 4311.55 243.680   1
  -2   3 -12 3574.19 261.880   1
   2  -3  12 5471.17 324.780   1
   6  -3   6 15503.2 509.590   1
   1   7  -8 421.040 100.620   1
  -1  -7   8 421.000 64.2400   1
   1   7  -8 387.310 73.6400   1
  -4   7  -8 4335.82 225.690   1
   4  -7   8 4668.43 198.080   1
  -6   0   7 17226.1 584.830   1
   6   0  -7 15142.9 597.560   1
   6   0  -7 19000.1 790.160   1
   5  -8   0 24987.7 604.220   1
   5  -8   0 26372.5 682.350   1
   5  -8   0 27244.0 901.380   1
   7  -2   0 5173.16 342.530   1
   7  -2   0 4116.49 416.310   1
   7  -4  -2 8000.55 746.440   1
   7  -4  -2 8382.50 317.870   1
   5  -7  -4 1122.26 225.330   1
   5  -7  -4 711.280 91.8000   1
   5  -7  -4 657.450 124.680   1
  -5   7   4 1838.50 491.480   1
  -4   8  -6 2003.97 417.190   1
   4  -8   6 2423.72 141.510   1
  -4   8  -6 2692.09 174.700   1
   0   1  12 832.370 173.580   1
   0  -1 -12 509.500 188.910   1
   0   1  12 481.470 261.860   1
  -6   7  -2 3989.22 559.280   1
   6  -7   2 5509.56 370.150   1
   6  -7   2 3899.93 209.200   1
   7  -4   1 7100.87 302.120   1
   7  -4   1 6917.52 510.510   1
  -5   8  -3 11806.0 1009.39   1
   5  -8   3 11097.5 336.810   1
   5  -8   3 12450.7 549.770   1
   2  -3 -11 2705.47 479.000   1
   2  -3 -11 3961.56 354.410   1
  -2   3  11 3464.77 522.810   1
   5  -6  -6 23647.1 888.120   1
  -5   6   6 25405.7 1503.56   1
   2  -5  -9 8464.84 534.180   1
  -2   5   9 7104.88 723.200   1
  -4  -5   1 9426.49 512.040   1
   4   5  -1 7722.53 257.330   1
   7  -3  -3 15193.8 953.180   1
   7  -3  -3 12282.4 394.850   1
   2   7  -5 4149.97 386.880   1
   2   7  -5 4073.73 225.370   1
  -2   2 -12 4391.35 281.940   1
   2  -2  12 3795.90 342.000   1
   2  -2  12 6092.74 298.920   1
   4  -1 -11 47576.4 1358.40   1
  -4   1  11 50479.4 1230.20   1
   4  -1 -11 46910.9 1841.30   1
  -4   1  11 57180.4 5021.76   1
  -2  -7   1 23013.2 888.870   1
   2   7  -1 16194.6 434.540   1
  -4  -1  -8 23311.8 1356.63   1
  -4  -1  -8 15414.6 746.940   1
   4   1   8 19343.8 892.710   1
   1  -4 -10 619.920 283.690   1
  -1   4  10 1509.24 344.200   1
  -1   6 -11 1108.99 122.570   1
   1  -6  11 1456.53 112.610   1
  -1   6 -11 2314.42 184.470   1
   1  -6  11 1159.54 133.600   1
   4   5  -5 3133.18 205.620   1
   4   5  -5 3409.12 203.200   1
  -3   4  10 147.830 398.800   1
   3  -4 -10 477.150 225.360   1
   6   1  -6 21701.1 601.640   1
   6   1  -6 18639.9 616.390   1
   6  -6  -4 4136.79 374.690   1
   6  -6  -4 4467.26 407.380   1
  -6   6   4 5029.27 590.690   1
   6  -6  -4 3883.16 243.440   1
  -3   0  12 3348.04 477.550   1
  -3   0  12 2902.76 211.860   1
   3   0 -12 1974.57 291.440   1
   3   0 -12 3384.38 270.250   1
   7  -2  -3 8354.05 338.150   1
   7  -2  -3 8275.00 578.540   1
   6   1   2 10524.6 386.670   1
   6  -1   5 3015.24 199.690   1
   6  -1   5 2222.51 370.590   1
  -6   1  -5 3059.18 369.550   1
   3   6   0 842.090 108.190   1
  -3  -6   0 1034.53 179.740   1
  -3  -1  12 732.050 112.240   1
   3   1 -12 758.760 169.450   1
   3   1 -12 928.780 121.620   1
   6  -6   5 9947.67 328.470   1
  -6   6  -5 11051.2 350.230   1
   1  -3 -11 30955.4 1084.31   1
   1  -3 -11 23089.0 2143.74   1
  -1   3  11 40961.7 1953.81   1
   6  -7  -1 41580.6 1237.81   1
   6  -7  -1 29512.1 711.930   1
  -6   7   1 39661.7 1949.66   1
   3   6  -6 1047.94 115.040   1
   3   6  -6 1513.75 119.600   1
   4   1 -11 54.7600 91.8000   1
   4   1 -11 -176.68 140.860   1
  -4  -1  11 195.800 89.5800   1
   3  -5  -9 6716.33 461.460   1
  -3   5   9 7904.80 733.730   1
   5   3   2 4524.25 178.680   1
  -5  -3  -2 5708.50 482.370   1
   4  -2  10 25382.3 719.390   1
   4  -2  10 25786.0 1042.60   1
   2   2  10 1738.02 207.780   1
  -2  -2 -10 3499.89 636.770   1
  -2  -2 -10 1582.01 218.470   1
  -6   5  -6 2614.81 189.540   1
   6  -5   6 2781.63 187.920   1
   5   0   7 9362.71 901.500   1
   5   0   7 15488.2 491.930   1
   5   0   7 16931.7 532.790   1
  -5   0  -7 24950.5 1464.85   1
  -5   0  -7 15289.6 661.610   1
   3   5  -9 792.540 129.280   1
  -3  -5   9 738.510 117.300   1
   3   5  -9 740.520 94.8800   1
   2  -4  12 27665.4 751.020   1
  -2   4 -12 22063.4 661.870   1
   2  -4  12 23190.8 717.090   1
   5   3  -7 25430.7 710.970   1
   5   3  -7 26343.4 667.920   1
   2   6  -9 22761.6 638.960   1
   2   6  -9 30484.2 774.690   1
   7  -2   1 1183.35 157.480   1
   7  -2   1 995.220 175.270   1
  -4   0  -9 498.970 160.150   1
   4   0   9 917.660 133.840   1
   4   0   9 267.420 130.830   1
  -4   0  -9 999.120 366.150   1
  -6   7  -3 1934.90 362.030   1
   6  -7   3 2607.44 154.450   1
   6  -7   3 3404.77 259.170   1
  -6   0  -4 16841.2 1126.32   1
   6   0   4 13687.5 436.790   1
  -1  -3 -10 931.320 203.320   1
   1   3  10 1070.11 177.640   1
   0  -8  -1 184.870 107.820   1
   0   8   1 199.700 138.760   1
   4   2   7 8623.83 386.060   1
  -4  -2  -7 13754.0 833.170   1
   5  -8  -1 18416.9 471.850   1
   5  -8  -1 19970.6 801.140   1
  -5   8   1 27672.3 1876.99   1
   5  -8  -1 17412.4 506.340   1
   2  -8   8 15413.9 428.740   1
  -2   8  -8 8257.10 1063.87   1
  -2   8  -8 17913.7 558.800   1
   7  -4  -3 2484.86 513.830   1
   7  -4  -3 2228.16 151.210   1
   2   3   9 11754.6 489.040   1
  -2  -3  -9 14292.6 653.490   1
  -3   7   6 1425.32 262.690   1
   3  -7  -6 1914.66 241.040   1
   7  -3   2 8009.45 339.250   1
   7  -3   2 10665.7 641.610   1
  -6  -2   2 50403.2 1505.76   1
   6   2  -2 51040.2 4221.43   1
   7  -4   2 3763.94 335.990   1
   7  -4   2 3240.25 234.460   1
  -5   8  -4 18404.3 1283.84   1
   5  -8   4 21784.4 711.700   1
   5  -8   4 18940.6 486.250   1
   7  -5   0 3978.33 241.230   1
  -3   5 -11 564.840 122.310   1
   3  -5  11 992.280 138.070   1
   3  -5  11 603.640 120.770   1
  -6  -2   3 16400.7 686.210   1
   6   2  -3 15245.2 443.590   1
   3   4   6 17081.5 500.020   1
  -3  -4  -6 21656.8 985.100   1
  -4   8   3 2400.71 380.540   1
   4  -8  -3 3298.22 269.050   1
   2   5   6 8580.36 359.380   1
  -2  -5  -6 8611.48 564.900   1
   0   6 -11 2863.44 177.920   1
   0   6 -11 2261.34 156.960   1
   0  -6  11 2345.14 169.160   1
   0  -6  11 2604.80 163.500   1
  -2   7   6 16057.3 878.520   1
   2  -7  -6 17320.8 706.200   1
   3  -1  11 1920.46 177.370   1
   3  -1  11 1267.71 300.860   1
  -3   1 -11 2064.80 212.980   1
  -5  -1  -6 1132.05 193.830   1
  -5  -1  -6 1854.26 673.220   1
   5   1   6 1136.96 107.540   1
  -7   5   1 4356.30 512.620   1
   7  -5  -1 3810.58 235.130   1
  -4   5 -10 1658.04 150.910   1
   4  -5  10 1529.97 143.050   1
   4  -5  10 1711.03 154.660   1
  -2   6 -11 18936.8 571.920   1
   2  -6  11 19791.3 581.370   1
   2  -6  11 24796.1 629.770   1
   6  -2   6 1213.18 224.020   1
   6  -2   6 1404.80 125.060   1
   4   5   0 6599.96 250.120   1
  -4  -5   0 6670.94 379.640   1
   1  -5  12 -0.4300 105.290   1
  -1   5 -12 -149.42 115.530   1
  -1   5 -12 51.7300 111.340   1
   1  -5  12 110.620 101.440   1
   0  -2  13 1948.87 209.180   1
   0   2 -13 1875.14 243.510   1
   0  -2  13 3441.62 224.280   1
   0   2 -13 2885.51 242.840   1
  -1   5   9 6715.31 634.640   1
   1  -5  -9 9417.98 647.360   1
  -1  -2 -11 20966.0 1455.86   1
   1   2  11 17415.8 903.060   1
  -1  -2 -11 26587.8 1013.24   1
   2   7  -6 6378.18 275.000   1
   2   7  -6 6039.03 263.800   1
   1  -7  10 415.740 131.700   1
  -1   7 -10 273.960 104.710   1
   1  -7  10 394.900 81.4000   1
  -1   7 -10 454.530 95.5200   1
  -3   3  11 4940.87 291.450   1
   3  -3 -11 3354.40 305.490   1
  -3   3  11 3059.32 483.960   1
   3  -9   2 6888.06 321.270   1
   3  -9   2 6923.81 237.480   1
  -3   9  -2 6389.84 419.910   1
   3  -9   2 7438.19 374.210   1
   7  -5   1 5830.20 226.270   1
   7  -5   1 5513.33 646.040   1
   7  -1  -2 746.150 183.590   1
  -7   1   2 548.480 202.690   1
   7  -1  -2 413.120 126.410   1
   2  -9   3 18330.8 501.150   1
  -2   9  -3 18280.6 580.380   1
   2  -9   3 19030.2 495.000   1
   2  -9   3 19334.5 631.210   1
   0   5 -12 9730.66 351.920   1
   0   5 -12 10155.5 352.640   1
   0  -5  12 12151.4 363.840   1
   0  -5  12 8864.84 317.020   1
   7  -3  -4 101.890 264.290   1
   7  -3  -4 320.020 79.1700   1
  -1  -7  -3 8800.04 460.380   1
   1   7   3 11316.2 416.700   1
  -5   1  10 1687.98 163.360   1
   5  -1 -10 1540.71 149.900   1
   5  -1 -10 2401.05 385.760   1
   3  -9   3 8152.12 277.010   1
  -3   9  -3 7517.18 441.810   1
   3  -9   3 8331.72 276.810   1
   3  -9   3 9183.85 454.990   1
  -7   1   1 4620.91 380.300   1
   7  -1  -1 5059.70 306.930   1
   7  -1  -1 4468.17 308.220   1
  -1  -1  13 4584.96 541.910   1
   1   1 -13 3451.61 420.590   1
  -1  -1  13 4847.34 376.700   1
  -1  -1  13 7676.23 321.720   1
   1   1 -13 6507.36 334.700   1
  -1  -2  13 7038.83 345.110   1
  -1  -2  13 9618.43 375.720   1
   1   2 -13 9067.79 370.920   1
   1   2 -13 7526.64 474.130   1
   6  -4  -7 17914.2 734.390   1
  -6   4   7 19829.3 649.370   1
  -6   4   7 21306.4 1112.28   1
   6   2  -1 15033.0 425.540   1
  -6  -2   1 18005.7 852.180   1
   3  -1 -12 214.530 207.480   1
  -3   1  12 894.450 379.130   1
  -3   1  12 358.690 152.140   1
   3  -1 -12 351.250 161.450   1
   6  -5  -6 1048.72 157.070   1
  -6   5   6 1615.07 414.280   1
   2  -9   2 14632.8 577.260   1
  -2   9  -2 13118.1 427.550   1
   2  -9   2 12242.8 341.240   1
   2   7   0 1430.39 151.460   1
   2   7   0 1159.49 112.500   1
  -2  -7   0 1315.81 170.590   1
  -1   8  -8 7088.55 296.230   1
   1  -8   8 6663.11 233.350   1
  -1   8  -8 8268.05 312.300   1
   0   8  -7 18969.3 471.300   1
   0  -8   7 19107.6 543.340   1
   0  -8   7 19520.8 492.400   1
   0   8  -7 22875.4 629.630   1
   3   5   4 96.1900 70.0900   1
  -3  -5  -4 21.8800 152.700   1
   3   5   4 -96.710 158.820   1
   7  -2  -4 14633.4 468.220   1
   2  -1  12 14962.1 1023.07   1
  -2   1 -12 15216.2 628.270   1
   2  -1  12 21566.8 655.270   1
   4   3 -10 3485.26 238.150   1
  -4  -3  10 4326.03 246.970   1
   4   3 -10 2794.32 220.570   1
   4   5  -6 3918.29 280.170   1
   4   5  -6 3908.20 214.730   1
   6  -2  -8 2065.14 195.710   1
  -6   2   8 3063.92 223.900   1
   6  -2  -8 2443.35 471.840   1
  -2   7 -10 22758.5 641.860   1
   2  -7  10 21169.2 521.660   1
   2  -7  10 23785.7 753.110   1
  -6  -2   4 13333.4 539.930   1
   6   2  -4 14389.4 479.140   1
  -6   1   8 11363.5 405.360   1
   6  -1  -8 10023.7 757.310   1
   6  -1  -8 8176.70 350.120   1
   5  -1   8 4136.81 399.980   1
  -5   1  -8 5337.00 381.390   1
   5  -1   8 5976.73 598.660   1
   6  -7  -2 7069.55 230.620   1
   6  -7  -2 10002.5 487.190   1
  -6   7   2 11312.1 1066.26   1
   6  -7  -2 7261.92 271.300   1
   3   2 -12 5590.82 324.420   1
  -3  -2  12 7664.11 310.320   1
   3   2 -12 7495.91 366.990   1
  -4   2  11 220.150 369.780   1
   4  -2 -11 594.860 161.100   1
  -4   2  11 357.800 105.940   1
  -1  -4  -9 622.930 269.400   1
   1   4   9 -166.73 172.080   1
  -5   0  10 2135.72 189.630   1
   5   0 -10 1607.83 180.660   1
   5   0 -10 2199.68 270.380   1
  -5   6  -8 7093.63 293.440   1
   5  -6   8 6997.50 265.390   1
  -2  -1 -11 152.610 188.980   1
  -2  -1 -11 354.370 331.460   1
   2   1  11 100.560 155.770   1
   2   1  11 29.2500 119.210   1
   0  -1  13 261.630 126.040   1
   0  -1  13 159.830 169.280   1
   0   1 -13 152.880 143.630   1
   0  -1  13 207.970 249.770   1
   0   1 -13 182.200 137.020   1
  -3   9  -1 6848.24 503.460   1
   3  -9   1 7583.66 308.030   1
   3  -9   1 6294.54 358.210   1
   3  -9   1 6588.61 231.020   1
   2  -9   4 11207.8 340.730   1
   2  -9   4 12514.0 349.140   1
  -2   9  -4 10766.2 387.850   1
   2  -9   4 12972.6 530.180   1
   7  -1  -3 13302.6 587.620   1
   7  -1  -3 9773.81 406.190   1
   1  -8  -3 20044.2 851.820   1
  -1   8   3 21252.9 715.680   1
   7  -5  -2 18042.7 526.830   1
   0   3 -13 2233.59 198.960   1
   0   3 -13 3008.77 236.160   1
   0  -3  13 3074.41 199.070   1
   0  -3  13 2923.64 225.040   1
  -7   1   0 12926.2 726.500   1
   7  -1   0 10021.9 564.500   1
   7  -1   0 13040.8 511.280   1
   3  -9   4 11654.4 319.180   1
   3  -9   4 10904.7 457.070   1
   3  -9   4 9690.43 291.360   1
  -3   9  -4 12249.4 734.110   1
   1   8  -3 3442.16 256.080   1
   1   8  -3 3196.40 181.060   1
  -1  -8   3 3729.67 303.130   1
  -5  -4   3 4899.95 417.450   1
   5   4  -3 4140.28 397.710   1
   2  -2 -12 79.4600 184.500   1
  -2   2  12 524.270 168.310   1
  -2   2  12 -17.390 309.170   1
  -2   6   8 3151.73 338.790   1
   2  -6  -8 3958.59 370.550   1
  -2   9  -1 7580.67 391.450   1
   2  -9   1 8177.05 399.020   1
   1  -2 -12 21086.4 872.540   1
  -1   2  12 26554.0 791.470   1
  -1   2  12 22278.6 1667.79   1
  -2  -6  -4 4182.28 538.350   1
   2   6   4 4478.69 230.430   1
  -5   7  -7 8523.53 350.900   1
   5  -7   7 7622.20 287.400   1
  -3  -2  -9 141.270 193.860   1
   3   2   9 130.570 124.350   1
   3   6   1 10873.4 354.370   1
  -3  -6  -1 11627.4 638.210   1
  -3   6   8 6225.66 532.060   1
   3  -6  -8 6900.93 484.850   1
   5   4  -2 15853.3 473.100   1
  -5  -4   2 21911.9 897.370   1
   6  -7   4 1032.17 98.8100   1
   6  -7   4 1648.87 169.470   1
  -6   7  -4 613.290 227.550   1
   1   8  -4 1568.77 111.780   1
  -1  -8   4 2129.94 231.460   1
   7  -2   2 4933.41 366.470   1
   7  -2   2 6112.97 344.530   1
  -3   8  -8 2101.21 159.280   1
  -3   8  -8 2461.20 312.760   1
   3  -8   8 2106.98 147.330   1
   7  -5   2 10698.4 366.560   1
   7  -5   2 9875.86 874.310   1
   5   2  -9 2414.03 206.120   1
  -5  -2   9 3599.69 246.770   1
   5   2  -9 3370.05 244.140   1
   5  -2 -10 27169.3 1634.08   1
   5  -2 -10 28756.3 987.050   1
  -5   2  10 38067.2 975.150   1
  -5   2  10 34962.3 1512.95   1
   3   6  -7 274.560 111.200   1
   3   6  -7 330.140 121.470   1
  -1  -8   2 7731.15 445.500   1
   1   8  -2 7754.82 265.930   1
   1   8  -2 11281.4 403.580   1
   3  -8  -4 2209.20 301.600   1
  -3   8   4 2047.61 315.640   1
   0  -6  -7 6738.85 503.760   1
   0   6   7 4998.63 338.230   1
   5   4  -4 20271.2 504.310   1
  -5  -4   4 19848.6 766.930   1
  -4   8  -7 7629.78 295.960   1
   4  -8   7 6034.74 209.130   1
  -4   8  -7 3957.88 590.460   1
   6   2   0 4814.92 239.310   1
  -5   4  -9 2792.63 307.240   1
   5  -4   9 2583.25 276.170   1
   5  -4   9 2641.22 268.020   1
   5  -8  -2 17856.2 511.990   1
  -5   8   2 23947.4 1602.47   1
   5  -8  -2 22567.2 866.060   1
   5  -8  -2 19934.5 466.920   1
   7  -4  -4 9147.12 911.270   1
   7  -4  -4 8788.87 325.150   1
  -7   4   4 12111.1 816.250   1
  -3  -1 -10 3240.99 377.730   1
  -3  -1 -10 3532.43 590.880   1
   3   1  10 4384.88 256.640   1
   3   1  10 3527.87 447.170   1
  -2  -5  11 15648.6 444.510   1
   2   5 -11 15428.6 441.840   1
   7  -4   3 12322.0 416.190   1
   7  -4   3 9366.46 581.290   1
   5  -8   5 21106.0 630.680   1
  -5   8  -5 16718.9 1295.00   1
   5  -8   5 19988.9 454.360   1
   4   2 -11 720.980 149.140   1
  -4  -2  11 852.090 153.910   1
   4   2 -11 511.380 159.030   1
  -5   5   8 321.330 432.100   1
   5  -5  -8 -49.420 188.580   1
  -6  -1   7 663.130 141.880   1
   6   1  -7 1171.88 196.020   1
   6   1  -7 802.980 130.090   1
  -5   3  -9 417.550 114.120   1
   5  -3   9 631.110 189.120   1
   5  -3   9 167.940 96.3600   1
  -2  -4  -8 17049.9 949.930   1
   2   4   8 11398.0 426.300   1
   4   4  -9 4512.96 249.130   1
   4   4  -9 3955.18 372.160   1
  -4  -4   9 4219.93 398.270   1
   1   0 -13 1204.22 239.200   1
  -1   0  13 1344.81 209.200   1
  -1   0  13 667.290 263.440   1
   1   0 -13 931.810 271.120   1
  -1   0  13 339.550 218.840   1
  -1  -3  13 12803.0 430.570   1
  -1  -3  13 12756.0 416.340   1
   1   3 -13 11770.3 449.580   1
   6   1   3 1355.17 165.640   1
   4  -7  -6 22775.8 939.970   1
  -4   7   6 23135.6 1283.63   1
   7  -3   3 9417.80 437.120   1
   7  -3   3 8057.95 377.940   1
   6   2  -5 22743.9 653.040   1
   6   2  -5 20811.1 547.710   1
  -2   8   4 177.940 173.160   1
   2  -8  -4 626.260 203.250   1
   0  -3 -11 35920.9 3034.09   1
   0  -3 -11 37184.4 3530.14   1
   0   3  11 25311.4 1248.75   1
  -3   9   0 9020.22 658.310   1
   3  -9   0 9499.89 499.540   1
   3  -9   0 8692.98 262.750   1
   2  -9   5 6529.13 200.880   1
  -2   9  -5 7361.48 376.130   1
   2  -9   5 6143.36 239.010   1
   2  -9   5 6224.91 294.460   1
  -6   3   8 10563.7 696.670   1
   6  -3  -8 9035.20 459.880   1
  -6   3   8 9863.90 384.040   1
   5  -4  -9 6932.11 406.210   1
  -5   4   9 9077.49 384.340   1
  -5   4   9 7000.52 665.090   1
   1   7  -9 1399.14 168.610   1
   1   7  -9 1979.76 203.230   1
   4  -1  10 18469.8 1194.80   1
   4  -1  10 26081.0 703.740   1
  -4   1 -10 21516.2 888.140   1
   2   4 -12 14430.0 504.970   1
  -2  -4  12 12972.8 425.590   1
   2   4 -12 10428.6 371.130   1
   5  -7  -5 8694.17 573.510   1
  -5   7   5 11216.9 973.590   1
   0   7   5 1260.30 173.110   1
   0  -7  -5 1552.02 248.670   1
   7  -1  -4 3290.99 347.250   1
   7  -1  -4 4232.77 292.740   1
   4   4   4 5855.08 219.600   1
  -4  -4  -4 8146.40 538.930   1
  -5  -4   1 16412.6 731.660   1
   5   4  -1 17245.7 489.520   1
   6  -6  -5 28600.0 686.580   1
   6  -6  -5 24966.4 725.870   1
  -6   6   5 27708.3 1508.73   1
   6  -6  -5 30308.2 2590.50   1
   0   7 -10 391.350 92.4900   1
   0  -7  10 309.710 79.1100   1
   0   7 -10 289.930 109.720   1
   2   1 -13 7967.91 343.260   1
   2   1 -13 5313.61 478.960   1
  -2  -1  13 9071.11 325.160   1
   1   8  -5 2033.69 201.960   1
   1  -2  13 5310.76 359.190   1
  -1   2 -13 6210.42 307.640   1
   1  -2  13 6028.51 280.120   1
   6   0  -8 15445.1 722.420   1
  -6   0   8 16097.6 501.690   1
   6   0  -8 14883.3 551.090   1
   0  -4 -10 60370.3 5026.57   1
   0   4  10 48005.1 4157.62   1
   4  -5  -9 12273.4 623.440   1
  -4   5   9 13391.4 894.670   1
   2  -5  12 11923.7 358.380   1
  -2   5 -12 13460.0 477.500   1
   2  -5  12 13834.0 450.800   1
  -4  -5  -1 22692.7 881.280   1
   4   5   1 21273.3 485.560   1
  -5  -2  -5 28776.8 1177.67   1
   5   2   5 29427.9 2377.22   1
   6  -6   6 456.480 93.2800   1
  -6   6  -6 549.490 98.7700   1
   4   3   6 7519.43 422.060   1
  -4  -3  -6 8602.03 642.470   1
   1  -3  13 13075.8 410.340   1
   1  -3  13 12697.4 428.020   1
  -1   3 -13 9971.14 354.210   1
  -1  -6  -6 522.190 221.250   1
   1   6   6 307.950 111.280   1
   7  -1   1 9460.11 541.860   1
  -7   1  -1 11297.4 701.760   1
   7  -1   1 10469.2 389.060   1
   4  -4 -10 12825.1 551.860   1
  -4   4  10 13045.0 819.430   1
  -4   9  -2 6523.67 679.200   1
   4  -9   2 6319.30 242.260   1
   4  -9   2 7781.89 239.740   1
   4  -9   2 7943.27 396.570   1
  -3   9  -5 13628.7 586.490   1
   3  -9   5 11661.9 338.710   1
   3  -9   5 13202.7 485.330   1
  -5  -3  -3 18413.6 748.610   1
   5   3   3 19187.0 472.740   1
   2   7  -7 21098.1 630.880   1
   2   7  -7 20837.5 495.010   1
   0   8   2 1211.24 187.010   1
   0  -8  -2 778.410 149.490   1
  -7   5   3 11890.0 862.160   1
   7  -5  -3 11522.1 413.900   1
   1  -7  -6 128.760 145.110   1
  -1   7   6 -88.970 165.470   1
   6  -4   7 13367.0 449.320   1
  -6   4  -7 8137.47 405.830   1
   6  -4   7 9554.06 451.590   1
  -1  -1 -12 11945.9 577.940   1
   1   1  12 14054.2 485.870   1
   1   1  12 10004.1 926.730   1
  -1  -8   1 1849.50 239.180   1
   1   8  -1 2625.25 283.820   1
   2  -9   0 11830.3 487.180   1
  -2   9   0 11094.4 558.640   1
  -3  -3  -8 3849.06 485.960   1
   3   3   8 3258.32 333.170   1
   7  -2  -5 12413.8 366.500   1
   7  -2  -5 9925.54 357.720   1
   7  -2  -5 16235.6 843.160   1
   3   4 -11 148.560 136.780   1
  -3  -4  11 252.000 118.640   1
   3   4 -11 -106.10 89.3900   1
  -1   9  -3 7612.38 372.000   1
   1  -9   3 4902.63 331.790   1
   5   4  -5 15165.8 471.190   1
   5   4  -5 18927.0 543.350   1
   7  -3  -5 1994.64 466.010   1
   7  -3  -5 1876.52 183.590   1
   7  -3  -5 1510.83 176.250   1
  -4   9  -3 16915.6 1230.56   1
   4  -9   3 14273.9 360.070   1
   4  -9   3 19992.8 672.730   1
  -2  -7  -1 1172.39 193.670   1
   2   7   1 1757.06 185.250   1
   2   7   1 2796.86 302.880   1
  -5  -1  10 16658.8 498.650   1
   5   1 -10 14291.3 631.780   1
   5   1 -10 13344.1 479.960   1
   5   3  -8 28086.4 691.700   1
   5   3  -8 28417.3 733.830   1
  -4   9  -1 5895.39 597.730   1
   4  -9   1 7513.74 414.230   1
   4  -9   1 7388.61 234.750   1
   4  -9   1 6785.89 264.600   1
  -6   7   3 18015.4 1382.75   1
   6  -7  -3 16844.7 703.800   1
   6  -7  -3 13892.1 353.290   1
   6  -7  -3 11651.5 355.750   1
  -1  -5  12 2803.08 284.820   1
   1   5 -12 2634.42 275.580   1
   1   5 -12 2167.46 240.140   1
  -1  -5  12 2761.50 284.090   1
   1  -9   2 123.520 124.360   1
  -1   9  -2 287.050 140.410   1
   4   5  -7 506.960 132.400   1
   4   5  -7 476.630 102.090   1
   2   2 -13 43.7800 135.300   1
   2   2 -13 105.540 109.930   1
  -2  -2  13 -23.670 110.120   1
   5  -5   9 11152.1 404.610   1
   5  -5   9 12476.0 418.140   1
  -5   5  -9 12826.7 480.440   1
   6  -3   7 21517.9 756.200   1
   1  -9   4 2877.35 305.150   1
  -1   9  -4 4190.32 436.900   1
  -2   0  13 10997.5 418.650   1
   2   0 -13 5631.27 644.290   1
   2   0 -13 11187.5 522.280   1
  -2   0  13 8198.95 731.050   1
   4  -7   9 15438.4 404.110   1
  -4   7  -9 15536.1 459.350   1
   0   0 -13 18131.8 1047.90   1
   0   0  13 25599.7 1554.96   1
   0   0  13 42989.9 3480.22   1
   0   0 -13 36547.5 3030.23   1
   7  -5   3 2614.91 266.870   1
   7  -5   3 1967.53 446.500   1
   5  -6  -7 19368.9 883.620   1
  -5   6   7 20974.9 1272.02   1
  -3   7 -10 13255.7 411.650   1
   3  -7  10 15069.4 520.910   1
   3  -7  10 15510.1 392.520   1
  -1   6   8 12070.8 717.900   1
   1  -6  -8 8364.37 577.210   1
  -4   8   4 12111.6 817.610   1
   4  -8  -4 13166.5 611.310   1
   1   6 -11 5478.77 247.940   1
  -1  -6  11 4912.59 260.450   1
   1   6 -11 3935.53 366.840   1
  -1  -6  11 5475.43 285.020   1
   0  -4  13 6143.73 249.620   1
   0  -4  13 5792.37 235.370   1
   0   4 -13 4204.83 383.600   1
   0   4 -13 6047.96 293.290   1
  -3   2  12 3704.09 653.080   1
  -3   2  12 4587.13 289.520   1
   3  -2 -12 4319.89 295.820   1
   7  -6   0 331.370 85.8500   1
  -7   6   0 220.090 313.230   1
  -6   1  -6 2053.52 373.890   1
   6  -1   6 1087.88 289.400   1
   6  -1   6 977.700 122.080   1
   4  -6  10 6335.98 224.900   1
   4  -6  10 7122.52 296.860   1
  -4   6 -10 6348.55 291.740   1
   0  -8   8 3207.74 315.690   1
   0   8  -8 3108.30 295.610   1
   0  -8   8 2345.89 222.690   1
   0   8  -8 2996.93 283.900   1
   6   2   1 5708.42 258.180   1
  -5   2  -9 335.210 136.100   1
   5  -2   9 439.000 186.240   1
   0  -2 -12 1048.06 244.630   1
   0  -2 -12 1308.69 414.050   1
   0   2  12 1777.18 247.020   1
   0   2  12 1012.94 287.400   1
   6   0   5 5723.91 207.720   1
   1   5   8 9104.16 515.520   1
  -1  -5  -8 6890.23 470.300   1
  -7   6  -1 461.610 288.640   1
   7  -6   1 533.780 102.430   1
  -6   5  -7 467.540 92.0100   1
  -4   9  -4 12433.2 983.830   1
   4  -9   4 9394.04 273.250   1
   4  -9   4 12117.2 483.400   1
   1  -1  13 6896.57 331.850   1
  -1   1 -13 6587.90 386.550   1
   1  -1  13 4955.12 446.020   1
   1  -1  13 2595.94 502.410   1
  -5  -4   0 3833.17 484.050   1
   5   4   0 2374.10 224.520   1
  -3   6 -11 998.240 156.480   1
   3  -6  11 910.560 151.550   1
   3  -6  11 1129.62 137.010   1
  -6   7  -5 1465.89 415.220   1
   6  -7   5 2255.63 220.070   1
   6  -7   5 2575.45 272.430   1
  -2   8  -9 14493.3 421.240   1
   2  -8   9 16005.2 415.990   1
   1   8  -6 731.890 113.660   1
   1   8  -6 800.540 133.250   1
   7  -2   3 402.070 154.370   1
   7  -2   3 833.530 136.440   1
   4  -6  -8 1644.07 301.570   1
  -4   6   8 2613.23 517.650   1
   1  -9   1 286.290 148.800   1
  -1   9  -1 90.9000 122.120   1
  -7   6   1 2345.87 416.540   1
   7  -6  -1 2121.48 214.580   1
   4  -9   0 12955.6 440.900   1
  -4   9   0 12697.2 730.360   1
   4  -9   0 13037.7 348.130   1
   4  -9   0 11549.8 470.790   1
   3   3 -12 8149.58 369.510   1
   3   3 -12 9236.98 435.920   1
  -3  -3  12 10323.4 378.390   1
  -3   0 -11 1995.09 314.700   1
   3   0  11 1581.43 206.950   1
   2  -9   6 3235.11 286.960   1
  -2   9  -6 5050.21 230.420   1
   2  -9   6 5219.28 235.990   1
  -2   9  -6 5411.43 336.300   1
   3  -9  -1 27617.2 948.570   1
  -3   9   1 28267.3 1168.10   1
   2   0  12 8900.45 779.270   1
   2   0  12 15254.9 511.910   1
  -2   0 -12 14124.0 646.240   1
   3   5 -10 6247.42 251.540   1
   3   5 -10 7339.58 288.380   1
  -3  -5  10 7277.78 337.140   1
   2   6 -10 2931.27 291.670   1
  -2  -6  10 2188.37 255.190   1
   2   6 -10 2299.60 236.640   1
  -7   0   2 22342.1 1346.35   1
   7   0  -2 14141.8 752.720   1
   7   0  -2 19841.5 612.050   1
   1  -9   5 2008.11 202.570   1
  -1   9  -5 1947.47 222.430   1
   1  -9   5 2150.47 233.280   1
   6   2  -6 7388.80 308.480   1
   6   2  -6 7455.60 323.120   1
   7  -1  -5 8192.15 590.260   1
   7  -1  -5 4834.22 222.100   1
   1  -4  13 17140.9 483.230   1
  -1   4 -13 15595.9 507.840   1
   1  -4  13 17569.1 533.050   1
   5  -3 -10 15632.7 644.140   1
  -5   3  10 19752.0 593.720   1
  -5   3  10 19210.5 1296.03   1
   0   5   9 5165.33 505.580   1
   0  -5  -9 7178.27 554.570   1
  -3   3 -12 5255.34 309.780   1
   3  -3  12 6248.67 286.300   1
   3  -3  12 3196.39 363.710   1
   3   6   2 5396.20 260.420   1
   3   6   2 4107.68 368.760   1
  -3  -6  -2 5308.86 363.910   1
   5  -8  -3 2571.28 329.650   1
   5  -8  -3 1929.39 192.140   1
   5  -8  -3 2294.41 239.710   1
  -5   8   3 3508.49 563.830   1
  -1  -8   0 2184.48 265.100   1
   1   8   0 2271.52 250.540   1
   1  -8   9 21050.8 500.310   1
  -1   8  -9 19649.8 485.520   1
  -1   8  -9 30410.6 2461.93   1
   7   0  -1 10868.5 732.400   1
   7   0  -1 12931.7 460.870   1
  -7   0   1 16307.5 1007.93   1
   7  -4  -5 4586.62 187.930   1
   7  -4  -5 3652.87 357.370   1
  -7   4   5 6107.04 588.050   1
  -4   3  11 292.350 152.360   1
   4  -3 -11 690.300 196.720   1
  -4   3  11 1326.72 405.770   1
  -7   0   3 16456.2 1067.97   1
   7   0  -3 16684.0 542.580   1
   7   0  -3 14070.8 616.070   1
   7  -4   4 17017.1 504.090   1
   7  -4   4 15504.8 695.090   1
   3   6  -8 266.310 102.030   1
   3   6  -8 87.7400 111.550   1
   1   7   4 16825.9 518.160   1
  -1  -7  -4 12209.7 657.200   1
   5   4  -6 5757.93 241.030   1
   5   4  -6 7650.28 332.510   1
   7  -1   2 2358.73 393.710   1
  -7   1  -2 3177.22 465.000   1
   7  -1   2 2756.50 295.580   1
   5  -8   6 1092.48 130.570   1
  -5   8  -6 989.700 118.970   1
   7  -6   2 3742.43 349.790   1
   3  -9   6 1048.67 139.240   1
  -3   9  -6 1160.06 217.010   1
  -3   9  -6 1323.14 160.620   1
   2  -9  -1 22844.3 865.990   1
  -2   9   1 32321.4 2819.06   1
   7  -5  -4 22266.8 578.750   1
  -7   5   4 31894.5 2950.74   1
   7  -5  -4 24987.3 565.030   1
   3  -4  12 1360.10 167.300   1
  -3   4 -12 1243.17 164.190   1
   3  -4  12 1309.73 185.520   1
  -6   5   7 5434.40 642.740   1
   6  -5  -7 5773.44 432.970   1
   7  -3   4 11226.1 706.050   1
   7  -3   4 11645.5 755.950   1
  -4   3 -11 17567.4 1038.16   1
   4  -3  11 14719.1 846.710   1
   4  -3  11 14110.3 843.040   1
  -1   8   4 31033.5 2847.61   1
   1  -8  -4 21186.5 1336.60   1
   4  -4  11 529.000 111.960   1
   4  -4  11 343.720 96.9000   1
  -4   4 -11 409.260 121.890   1
   4   0 -12 4213.57 540.550   1
  -4   0  12 6896.22 471.980   1
   4   0 -12 4337.24 379.530   1
   6  -2   7 1696.09 248.750   1
   7  -6  -2 5594.72 369.790   1
  -7   6   2 6965.52 785.700   1
   1  -1 -13 2453.53 347.720   1
  -1   1  13 2147.16 462.330   1
  -1   1  13 3822.35 314.820   1
  -1  -4  13 264.490 119.920   1
   1   4 -13 250.480 126.690   1
   1   4 -13 118.770 121.990   1
  -1  -4  13 246.890 68.5800   1
   3   5   5 329.080 119.250   1
  -3  -5  -5 352.650 164.890   1
   2  -4 -11 27761.6 2564.95   1
  -2   4  11 21516.9 1581.85   1
   6  -4  -8 14833.5 936.500   1
  -6   4   8 21705.0 1229.70   1
  -6   4   8 20811.2 1510.08   1
   3  -7  -7 19002.3 1218.82   1
  -3   7   7 13336.9 1120.41   1
  -1   6 -12 2832.13 255.550   1
   1  -6  12 1745.38 175.130   1
   1  -6  12 2070.44 227.160   1
  -1   6 -12 2103.23 230.150   1
   4   5   2 5791.42 360.210   1
  -4  -5  -2 6235.75 527.200   1
   2   3 -13 14728.8 870.900   1
  -2  -3  13 17397.2 973.340   1
   2   3 -13 11313.9 785.840   1
   4  -9   5 9605.71 550.930   1
   4  -9   5 11596.3 722.970   1
  -4   9  -5 10899.7 1227.69   1
   6  -8   1 3781.11 241.400   1
  -6   8  -1 4598.57 793.550   1
   6  -8   1 5675.54 456.300   1
  -3   2 -12 10041.1 674.740   1
   3  -2  12 8150.44 635.030   1
   3  -2  12 9560.80 588.620   1
   7   0   0 9364.07 729.900   1
   7   0   0 12685.6 749.950   1
  -7   0   0 19722.2 1475.02   1
   4   1   9 1574.93 207.660   1
  -4  -1  -9 1225.18 230.700   1
   4   1   9 310.460 88.2400   1
  -4  -1  -9 1965.60 604.210   1
  -5   0  -8 6671.16 748.950   1
  -5   0  -8 4269.15 389.690   1
   5   0   8 4637.71 339.800   1
   6  -1  -9 14163.9 910.730   1
  -6   1   9 16885.0 973.770   1
   6  -1  -9 12847.3 972.200   1
  -4   8  -8 4581.01 310.050   1
   4  -8   8 3780.27 240.380   1
   2   7  -8 12833.8 747.140   1
   2   7  -8 11779.6 660.720   1
   7  -2  -6 29747.5 2797.09   1
   7  -2  -6 23008.7 1235.01   1
   6   1  -8 1924.43 248.360   1
  -6  -1   8 2403.91 265.080   1
   6   1  -8 1662.54 182.750   1
   7   0  -4 5627.14 429.090   1
   7   0  -4 3771.14 318.190   1
  -7   0   4 4444.84 592.910   1
   6  -8   2 2947.03 289.040   1
   6  -8   2 2575.27 267.850   1
  -6   8  -2 1974.78 586.270   1
   5   1   7 782.610 125.360   1
   5   1   7 343.990 144.780   1
  -5  -1  -7 1258.04 211.820   1
  -5  -1  -7 1380.87 705.690   1
   1  -9   0 799.560 149.250   1
  -1   9   0 749.910 133.630   1
  -2   1  13 26233.4 1909.60   1
  -2   1  13 34262.1 3032.14   1
   2  -1 -13 28135.5 2520.62   1
   5  -7   8 4144.55 265.800   1
  -5   7  -8 3583.26 263.050   1
   7  -5   4 769.050 128.050   1
   7  -5   4 488.010 167.610   1
   2  -7  -7 14539.4 1004.41   1
  -2   7   7 12009.5 1024.10   1
   6  -2  -9 375.480 297.530   1
  -6   2   9 380.660 133.400   1
   6  -2  -9 387.740 120.790   1
   6   1   4 3365.23 251.840   1
  -6  -1  -4 7773.61 903.560   1
  -2   5  10 12497.0 1125.14   1
   2  -5 -10 16488.2 1111.29   1
  -4   9   1 137.650 193.940   1
   4  -9  -1 91.6300 143.690   1
   4  -9  -1 246.770 90.3800   1
   3  -8   9 9616.60 541.370   1
  -3   8  -9 7107.99 435.600   1
  -3  -4  -7 5165.11 595.240   1
   3   4   7 6929.80 507.380   1
   1  -7  11 5377.16 382.120   1
   1  -7  11 5369.77 319.180   1
  -1   7 -11 7875.74 490.070   1
  -1   7 -11 5145.92 355.220   1
   6  -8   0 10353.5 769.120   1
   6  -8   0 8245.70 476.870   1
  -6   8   0 12570.8 1372.76   1
   6  -7  -4 16179.0 944.600   1
  -6   7   4 22532.8 1688.12   1
   6  -7  -4 18430.7 1001.58   1
   6  -7  -4 20743.5 1352.99   1
   2   5   7 3158.91 237.900   1
  -2  -5  -7 4634.00 427.000   1
   1  -9   6 2123.58 227.920   1
  -1   9  -6 1818.32 227.900   1
   1  -9   6 1930.76 186.640   1
  -1   9  -6 2166.66 207.440   1
   2   7   2 471.860 147.530   1
  -2  -7  -2 434.870 185.250   1
   4  -1 -12 19559.1 1535.68   1
   4  -1 -12 22726.0 1328.86   1
  -4   1  12 22219.1 1643.79   1
  -4   1  12 27735.8 2471.61   1
   7  -3  -6 2301.94 524.180   1
   7  -3  -6 3534.85 243.510   1
   4   1 -12 7067.85 592.530   1
   4   1 -12 8496.93 588.880   1
  -4  -1  12 9821.08 604.300   1
   3  -8  -5 4307.14 442.010   1
  -3   8   5 3213.11 368.410   1
  -4  -2  -8 36548.2 3359.80   1
   4   2   8 48303.3 4326.29   1
  -5  -4  -1 511.460 176.650   1
   5   4   1 414.850 104.430   1
   5  -6   9 9422.38 595.360   1
   5  -6   9 8712.08 544.040   1
  -5   6  -9 10243.4 645.240   1
   2   6   5 6445.40 491.640   1
  -2  -6  -5 3811.99 452.780   1
   4   5  -8 10378.6 641.750   1
   4   5  -8 11629.0 688.100   1
   4   3 -11 1870.21 238.170   1
  -4  -3  11 1929.34 230.060   1
   4   3 -11 1873.63 214.990   1
   7  -6   3 5325.58 341.920   1
   0   8   3 6636.33 447.310   1
   0  -8  -3 8437.56 654.730   1
   1   8  -7 18362.7 1016.50   1
   1   8  -7 23435.8 1266.00   1
   6   2   2 510.980 111.320   1
   0   6 -12 1482.23 165.740   1
   0  -6  12 1468.60 175.910   1
   0  -6  12 1020.21 120.710   1
   0   6 -12 1451.25 179.110   1
  -3   5  10 -241.65 409.880   1
   3  -5 -10 814.870 271.590   1
  -6   6   6 5060.22 764.040   1
   6  -6  -6 5458.24 494.340   1
   2  -3  13 -128.30 124.750   1
   2  -3  13 -34.710 120.600   1
  -2   3 -13 -73.790 133.740   1
  -3   4  11 5272.09 746.780   1
   3  -4 -11 4512.87 429.170   1
  -2   7 -11 3796.65 291.960   1
   2  -7  11 3422.15 284.170   1
   2  -7  11 3341.07 220.000   1
  -6   8  -3 516.180 283.160   1
   6  -8   3 131.590 90.6300   1
   6  -8   3 53.2200 79.8300   1
   6  -6   7 297.240 111.560   1
  -6   6  -7 212.290 79.4700   1
   5   2 -10 5766.20 412.670   1
  -5  -2  10 5253.91 369.280   1
   5   2 -10 3801.94 303.340   1
   5   3   4 7361.02 443.420   1
  -5  -3  -4 7111.11 705.640   1
  -2   3  12 1637.19 481.710   1
  -2   3  12 2210.44 267.070   1
   2  -3 -12 2086.05 298.090   1
   1  -4 -11 6644.09 534.850   1
  -1   4  11 5971.96 693.980   1
  -4   2 -11 16854.3 1038.00   1
   4  -2  11 15926.9 1161.98   1
   4  -2  11 16336.3 946.800   1
   4   4 -10 17870.7 1007.33   1
   4   4 -10 28526.2 2524.09   1
  -4  -4  10 22736.9 1268.22   1
   3   1 -13 4241.84 319.260   1
  -3  -1  13 4879.41 334.280   1
   3   1 -13 3867.92 373.590   1
   2  -9   7 11289.0 646.640   1
  -2   9  -7 8296.70 727.770   1
  -2   9  -7 12308.3 715.630   1
   5  -7  -6 25236.9 1515.46   1
  -5   7   6 28357.4 2917.88   1
  -3   9   2 243.910 199.710   1
   3  -9  -2 815.340 184.180   1
   2  -8  -5 7372.56 540.120   1
  -2   8   5 8735.66 622.820   1
  -4   0 -10 539.810 189.050   1
  -4   0 -10 853.930 412.550   1
   4   0  10 789.610 153.120   1
  -4   5 -11 4462.97 333.010   1
   4  -5  11 4544.37 312.620   1
   4  -5  11 5013.51 362.470   1
   1   7 -10 6443.92 396.280   1
  -1  -7  10 9113.63 597.110   1
   1   7 -10 8946.04 516.490   1
   5  -1 -11 558.850 212.660   1
   5  -1 -11 578.250 126.150   1
  -5   1  11 911.720 138.260   1
   3   0 -13 1967.85 233.370   1
   3   0 -13 1737.15 319.690   1
  -3   0  13 2074.42 247.600   1
  -3   0  13 1653.71 386.250   1
   2  -6  12 15068.5 852.370   1
   2  -6  12 13164.1 781.330   1
  -2   6 -12 14544.0 868.170   1
  -1   0 -13 2700.65 283.980   1
   1   0  13 3227.15 285.160   1
   1   0  13 1987.56 438.640   1
   7  -1  -6 13094.6 896.470   1
   1   8   1 12841.7 749.820   1
  -1  -8  -1 11971.7 874.680   1
   2  -2  13 5862.97 392.890   1
  -2   2 -13 4791.88 400.100   1
   2  -2  13 3022.86 340.540   1
   6   0  -9 15943.1 1027.34   1
  -6   0   9 18425.3 1053.31   1
   6   0  -9 11631.3 689.030   1
   5   0 -11 7337.43 572.910   1
  -5   0  11 15456.4 898.810   1
   5   0 -11 12573.3 818.170   1
   6   2  -7 4225.71 298.080   1
   6   2  -7 5254.74 345.140   1
   5   3  -9 7579.74 472.440   1
  -5  -3   9 7011.50 498.910   1
   5   3  -9 6446.69 459.760   1
   3  -5  12 2225.71 238.860   1
  -3   5 -12 1811.72 229.090   1
   3  -5  12 1478.48 184.730   1
   6  -8  -1 8746.98 508.910   1
  -6   8   1 16003.5 1666.81   1
   6  -8  -1 11845.6 853.290   1
   6  -8  -1 10187.4 564.470   1
  -7   6   3 4767.70 674.690   1
   7  -6  -3 4446.55 279.310   1
   7  -6  -3 3971.24 273.380   1
   4   4   5 2557.86 310.730   1
   4   4   5 1413.71 168.040   1
  -4  -4  -5 1885.24 323.240   1
  -6   7  -6 1462.43 162.660   1
   6  -7   6 1539.95 172.910   1
  -7   0  -1 5238.74 653.580   1
   7   0   1 4031.66 307.400   1
   7   0   1 2479.95 408.810   1
   5   4  -7 13898.2 776.630   1
   5   4  -7 17679.9 1002.12   1
   7  -2   4 9917.12 705.330   1
   7  -2   4 10737.9 667.060   1
   0   1  13 2047.36 509.300   1
   0   1  13 2683.40 251.670   1
   0  -1 -13 2579.48 329.290   1
   5  -1   9 319.170 117.770   1
  -5   1  -9 368.660 130.820   1
   5  -1   9 -452.91 284.300   1
   5  -9   2 5989.75 364.560   1
   5  -9   2 7564.64 570.360   1
  -5   9  -2 8171.74 914.050   1
   2   3  10 48496.0 4297.57   1
  -2  -3 -10 70352.1 6316.75   1
   7   0  -5 4184.25 369.290   1
  -7   0   5 3125.83 480.670   1
   2  -4  13 20198.4 1143.43   1
  -2   4 -13 20030.8 1188.43   1
   2  -4  13 22182.8 1235.64   1
   7  -1   3 26.8700 279.810   1
   7  -1   3 169.680 91.1800   1
  -7   1  -3 7.46000 356.120   1
  -4   7   7 565.190 278.080   1
   4  -7  -7 81.0000 214.340   1
  -2  -2 -11 144.750 190.590   1
   2   2  11 100.830 214.090   1
  -2  -2 -11 790.210 608.250   1
   0   8  -9 889.060 125.780   1
   0   8  -9 607.170 112.300   1
   0  -8   9 600.260 80.0300   1
   0  -8   9 763.410 127.450   1
  -1   3  12 15461.2 1361.18   1
   1  -3 -12 8472.76 1105.56   1
   1  -3 -12 13588.3 927.740   1
   5  -9   1 15720.8 848.490   1
   5  -9   1 19406.9 1194.53   1
   5  -9   1 14771.5 833.850   1
  -5   9  -1 20583.4 1585.01   1
  -3   9  -7 8852.29 516.570   1
   3  -9   7 8894.41 516.750   1
  -3   9  -7 8993.49 768.210   1
   6  -3  -9 1267.41 204.750   1
  -6   3   9 1428.54 177.270   1
  -6   3   9 1490.39 415.280   1
   0  -9   3 7963.52 574.850   1
   0   9  -3 5984.81 402.070   1
  -5  -2  -6 10011.7 761.410   1
   5   2   6 7188.23 432.140   1
   5   2   6 4992.69 476.120   1
   1  -5  13 2534.96 255.870   1
   1  -5  13 2020.49 224.740   1
  -1   5 -13 2060.70 233.310   1
   6   3  -3 12629.7 706.920   1
  -6  -3   3 19112.8 1258.94   1
   0   5 -13 3492.77 270.510   1
   0  -5  13 2992.03 210.330   1
   0   5 -13 2725.29 209.980   1
   0  -5  13 3156.22 227.360   1
  -1  -3 -11 989.190 285.910   1
   1   3  11 1149.19 265.040   1
  -2   9   2 709.510 184.490   1
   2  -9  -2 949.080 167.590   1
   0  -7  -6 15165.7 984.500   1
   0   7   6 24707.7 1663.11   1
   1  -5 -10 2439.68 370.100   1
  -1   5  10 1240.96 302.950   1
  -4   8   5 4095.63 593.450   1
   4  -8  -5 5108.36 482.950   1
   4  -9   6 9642.65 545.680   1
  -4   9  -6 8287.36 484.120   1
  -4   9  -6 10658.4 1076.22   1
  -5   9  -3 382.700 463.110   1
   5  -9   3 816.700 161.510   1
   5  -9   3 657.620 92.1200   1
   0  -7  11 1110.10 131.610   1
   0   7 -11 1059.82 129.920   1
   0  -7  11 906.920 134.760   1
   0   7 -11 1619.66 182.810   1
   6   3  -2 13338.9 755.980   1
   0  -9   4 12967.3 836.550   1
   0   9  -4 9883.62 627.350   1
  -5   8   4 -646.52 463.250   1
   5  -8  -4 -79.750 138.880   1
  -7   5   5 20570.2 1582.78   1
   7  -5  -5 11135.4 658.010   1
   7  -5  -5 18210.3 996.860   1
   7  -4  -6 318.050 85.7900   1
  -7   4   6 1528.69 406.220   1
   6  -4   8 2159.89 252.540   1
   5  -5  -9 80.4400 201.110   1
  -5   5   9 -22.330 390.080   1
  -3  -7   3 4590.40 428.240   1
   3   7  -3 3632.63 247.660   1
  -1   9   1 375.750 115.810   1
   1  -9  -1 654.530 198.210   1
   7  -4   5 5158.29 367.530   1
  -3   6   9 1479.55 368.730   1
   3  -6  -9 1541.81 301.150   1
  -2  -5  12 5982.37 381.520   1
   2   5 -12 5857.08 379.580   1
   2   5 -12 7186.45 466.960   1
   5  -8   7 2917.45 196.870   1
  -5   8  -7 4053.48 277.890   1
   0  -9   2 12848.1 808.980   1
   0   9  -2 16499.5 940.460   1
   2  -6  -9 1430.84 284.460   1
  -2   6   9 2015.84 385.120   1
   3   7  -4 909.060 122.840   1
  -3  -7   4 1144.89 197.250   1
   6  -8   4 4333.28 359.870   1
   6  -8   4 3382.37 225.010   1
  -6   8  -4 2772.90 513.870   1
  -3  -6  -3 1053.63 241.610   1
   3   6   3 719.150 117.680   1
   3   6   3 1748.40 268.490   1
  -5   4 -10 14741.7 909.280   1
   5  -4  10 13498.0 787.330   1
   5  -4  10 11896.4 711.860   1
  -6  -3   4 830.790 168.030   1
   6   3  -4 849.990 133.440   1
  -3   1 -12 1656.83 283.730   1
   3  -1  12 1846.84 233.650   1
   3  -1  12 1260.06 299.380   1
   0  -6  -8 572.440 254.690   1
   0   6   8 376.370 173.670   1
   3   2 -13 2651.35 261.830   1
   3   2 -13 2638.54 290.080   1
  -3  -2  13 2829.31 242.140   1
   5  -2 -11 2345.60 279.930   1
  -5   2  11 2285.54 443.910   1
   5  -2 -11 1911.89 488.050   1
  -5   2  11 2481.54 266.660   1
  -3   3  12 684.470 418.580   1
   3  -3 -12 685.460 198.280   1
  -3   3  12 667.390 195.080   1
  -4   9   2 106.180 189.410   1
   4  -9  -2 603.660 190.640   1
  -4   2  12 11561.4 742.690   1
   4  -2 -12 8418.08 638.010   1
  -4   2  12 9909.24 1037.69   1
  -4  -3  -7 18522.6 1304.03   1
   4   3   7 11974.0 735.020   1
   3   6  -9 1979.90 215.610   1
   3   6  -9 1117.55 131.950   1
   1  -9   7 9766.59 589.560   1
   1  -9   7 9047.04 516.360   1
   4   6  -3 9027.21 509.610   1
  -4  -6   3 13332.3 941.760   1
  -1  -4 -10 2256.62 351.630   1
   1   4  10 1669.84 322.610   1
   5  -9   0 11372.6 621.550   1
   5  -9   0 12772.2 826.920   1
   5  -9   0 10960.5 637.510   1
  -5   9   0 13886.5 1140.84   1
   7  -6   4 569.410 92.7800   1
   7  -6   4 424.660 247.070   1
  -4  -2  12 662.230 133.620   1
   4   2 -12 233.810 125.020   1
   4   2 -12 629.720 133.320   1
  -3  -7   2 25227.9 1536.40   1
   3   7  -2 28786.9 2523.56   1
   1  -7  -7 2639.31 322.090   1
  -1   7   7 3420.25 409.200   1
   4   6  -4 20594.3 1128.82   1
  -4  -6   4 29935.1 2711.33   1
  -1  -6  -7 5677.38 498.160   1
   1   6   7 4708.78 406.580   1
   5  -3  10 2859.63 280.280   1
   5  -3  10 3219.81 252.080   1
  -5   3 -10 3105.05 312.950   1
  -3   1  13 2025.60 244.550   1
   3  -1 -13 1364.64 232.100   1
  -3   1  13 713.650 397.130   1
   3  -1 -13 1044.05 304.360   1
   6   3  -1 21484.8 1178.60   1
   6  -3   8 2489.41 281.850   1
  -6   0  -6 5781.58 651.710   1
   6   0   6 3531.32 250.630   1
   0  -9   5 28888.4 2585.71   1
   0   9  -5 21882.6 1287.95   1
  -5   4  10 13153.4 1092.48   1
  -5   4  10 19079.8 1107.13   1
   5  -4 -10 13158.9 896.440   1
  -1  -2 -12 12309.6 849.600   1
  -1  -2 -12 13923.8 1372.54   1
   1   2  12 17965.6 1062.19   1
   1   2  12 10148.4 986.370   1
   7  -3   5 3681.84 339.780   1
   4  -7  10 12103.9 738.440   1
   4  -7  10 13628.4 759.180   1
  -4   7 -10 12674.9 735.900   1
  -6   5  -8 43.1900 71.0000   1
   6  -5   8 1.91000 85.8200   1
   5   1 -11 9535.48 639.680   1
   5   1 -11 8123.75 522.130   1
  -5  -1  11 10670.3 637.440   1
   2  -8  10 194.240 83.8400   1
  -2   8 -10 372.110 109.510   1
   0   2 -14 3156.65 281.160   1
   0  -2  14 2566.72 305.260   1
   0  -2  14 3593.63 271.200   1
   3   2  10 1512.67 233.910   1
  -3  -2 -10 2528.19 575.880   1
  -3  -2 -10 2330.18 327.070   1
   7  -7   1 2953.22 205.520   1
  -7   7  -1 3485.33 567.660   1
   6  -8  -2 2234.47 227.080   1
   6  -8  -2 2456.39 348.850   1
  -6   8   2 3594.59 701.410   1
   6  -8  -2 2053.53 202.130   1
   3   7  -5 299.530 75.9100   1
  -3  -7   5 380.040 118.330   1
   6  -1   7 328.800 310.410   1
   5  -9   4 5468.36 412.390   1
  -5   9  -4 5028.70 756.210   1
   5  -9   4 4165.09 254.740   1
  -4  -6   2 562.670 163.940   1
   4   6  -2 654.940 124.840   1
   7  -5   5 465.690 103.280   1
  -1  -2  14 15380.4 902.580   1
   1   2 -14 11980.6 745.790   1
   1   2 -14 11863.5 815.500   1
   7  -7   0 1509.96 164.350   1
  -7   7   0 1255.86 384.480   1
  -3  -4  12 -118.44 93.0000   1
   3   4 -12 34.6000 137.120   1
   3   4 -12 -20.130 107.370   1
   5   4   2 156.290 89.0600   1
  -5  -4  -2 362.150 211.590   1
   5  -6  -8 5779.77 522.320   1
  -5   6   8 6889.33 741.200   1
  -2  -4  -9 250.240 286.350   1
   2   4   9 184.890 254.270   1
  -4  -5  -3 11475.5 854.290   1
   4   5   3 9590.45 541.030   1
  -1  -1  14 2435.27 329.390   1
   1   1 -14 1629.53 307.280   1
  -1  -1  14 4355.31 330.480   1
   1   1 -14 3880.16 310.770   1
  -2   1 -13 6285.60 496.950   1
   2  -1  13 5421.82 405.940   1
   2  -1  13 2752.93 404.700   1
   1  -8  10 8683.89 497.560   1
  -1   8 -10 7907.15 495.170   1
  -1   8 -10 9343.98 550.160   1
   1   8  -8 19640.5 1119.00   1
   1   8  -8 23072.6 1256.11   1
   7  -2  -7 9644.54 836.080   1
   0  -9   1 8095.31 593.030   1
   0   9  -1 9383.46 598.360   1
   5  -5  10 13161.5 745.550   1
   5  -5  10 11552.4 690.420   1
  -5   5 -10 11350.6 743.220   1
   4  -5 -10 11459.8 859.340   1
  -4   5  10 13127.5 1324.67   1
   2   1  12 1455.15 306.330   1
  -2  -1 -12 1523.86 356.630   1
   2   1  12 1876.31 245.250   1
  -2  -1 -12 1713.43 250.060   1
   2   7  -9 253.330 112.790   1
   2   7  -9 89.6000 62.9400   1
   6   3  -5 5849.26 395.980   1
  -6  -3   5 5568.23 436.930   1
   2   4 -13 6603.24 450.520   1
  -2  -4  13 6954.60 438.750   1
   2   4 -13 8633.67 558.050   1
  -4  -6   5 7873.33 536.340   1
   4   6  -5 7730.07 452.970   1
   7   0   2 1935.02 393.410   1
   7   0   2 2690.29 218.410   1
  -7   0  -2 4046.86 577.550   1
   3  -7  11 3784.56 317.360   1
  -3   7 -11 4465.80 326.060   1
   3  -7  11 4061.22 277.790   1
   0  -3  14 2637.20 286.330   1
   0  -3  14 4441.20 313.690   1
   0   3 -14 3617.35 300.220   1
  -2  -6  11 13756.4 830.020   1
   2   6 -11 16337.8 930.760   1
   2   6 -11 11657.9 709.890   1
  -7   7  -2 4766.34 595.530   1
   7  -7   2 4559.47 281.490   1
   3   5 -11 11112.6 637.210   1
  -3  -5  11 14853.0 894.440   1
   3   5 -11 13693.8 848.820   1
  -6   7   5 13071.2 1287.08   1
   6  -7  -5 9553.28 709.040   1
  -1  -7  -5 221.130 228.060   1
   1   7   5 165.090 121.460   1
   7  -6  -4 2968.29 231.310   1
   7  -6  -4 3446.35 218.680   1
  -7   6   4 4306.62 630.760   1
   6   2   3 118.400 62.3500   1
  -7   7   1 -229.40 281.340   1
   7  -7  -1 95.4500 82.7800   1
   7   1  -2 4254.03 590.510   1
   7   1  -2 8529.37 536.790   1
  -1  -6  12 1200.51 157.730   1
   1   6 -12 1039.22 139.250   1
   1   6 -12 1767.42 197.190   1
  -1  -6  12 1439.01 175.050   1
   2   7   3 3768.09 257.650   1
  -2  -7  -3 3465.91 368.150   1
   3   1  11 7262.35 688.640   1
   3   1  11 11910.2 728.340   1
  -3  -1 -11 11910.2 1090.08   1
  -3  -1 -11 9575.42 755.330   1
  -3  -7   1 41937.7 3807.31   1
   3   7  -1 36775.3 3198.35   1
   3   3   9 -6.1100 116.520   1
  -3  -3  -9 284.580 235.690   1
   2  -2 -13 822.080 227.950   1
  -2   2  13 1579.78 244.700   1
  -2   2  13 321.640 346.210   1
   7  -3  -7 3691.22 484.640   1
   7   0  -6 1277.98 190.790   1
   7   1  -3 11216.1 620.510   1
   7   1  -3 7873.21 784.800   1
   0  -1  14 2882.63 602.240   1
   0  -1  14 3379.13 389.460   1
   0   1 -14 5885.72 401.310   1
   0  -1  14 6458.10 393.610   1
   4  -1  11 7579.98 757.190   1
   4  -1  11 8333.31 531.840   1
  -4   1 -11 6991.41 483.020   1
   4  -4 -11 3863.92 410.500   1
  -4   4  11 3842.01 629.870   1
   1  -8  -5 3714.08 376.300   1
  -1   8   5 3507.93 361.840   1
  -5   9   1 3814.58 592.080   1
   5  -9  -1 4730.52 292.650   1
   5  -9  -1 4197.07 244.950   1
   5  -9  -1 5507.50 462.090   1
   4   5  -9 17494.0 944.750   1
   4   5  -9 14570.7 769.810   1
  -2   9  -8 685.220 192.020   1
   2  -9   8 559.910 84.3900   1
  -2   9  -8 531.030 125.030   1
   2  -5  13 8632.14 467.870   1
   2  -5  13 11428.0 627.500   1
  -2   5 -13 11761.5 682.810   1
   6   1  -9 4609.28 335.270   1
  -6  -1   9 4826.64 339.240   1
   6   1  -9 3979.45 294.540   1
  -4   6 -11 12640.0 736.730   1
   4  -6  11 13211.1 740.270   1
   4  -6  11 12015.3 618.200   1
  -1   2  13 6462.86 427.000   1
  -1   2  13 4941.76 748.740   1
   1  -2 -13 3837.86 414.630   1
   3  -9  -3 9997.06 749.160   1
  -3   9   3 6765.14 671.530   1
  -4  -6   1 31206.5 2760.73   1
   4   6  -1 25057.6 2111.40   1
   1   5 -13 383.360 116.100   1
  -1  -5  13 346.810 122.970   1
   1   5 -13 456.220 128.860   1
  -1  -8  -2 19988.9 1190.43   1
   1   8   2 24150.3 2055.34   1
  -6   5   8 607.080 312.850   1
   6  -5  -8 1113.47 204.030   1
  -2  -8   3 10720.6 748.240   1
   2   8  -3 9049.89 477.170   1
   6   3   0 26816.9 2266.18   1
   4  -8   9 14547.3 728.930   1
  -4   8  -9 16218.8 854.260   1
  -2  -8   4 1888.80 259.250   1
   2   8  -4 1311.16 160.930   1
   7   1  -1 2665.72 298.850   1
  -6  -1  -5 4267.50 736.620   1
   6   1   5 1997.02 207.830   1
   0   9  -6 19522.0 979.280   1
   0   9  -6 18631.0 931.820   1
   0   9  -6 19196.9 1260.27   1
   7  -1  -7 18001.5 1097.30   1
  -1  -3  14 3500.72 252.280   1
   1   3 -14 2156.86 290.770   1
   1   3 -14 3422.51 261.520   1
   5   4  -8 11205.5 632.920   1
   5   4  -8 16357.7 871.610   1
   6  -8   5 21958.3 1070.17   1
   6  -8   5 31343.4 2662.27   1
   3   7  -6 355.210 110.540   1
   3   7  -6 396.950 97.2200   1
  -4   6   9 5828.18 777.190   1
   4  -6  -9 5539.38 486.410   1
   0   4  11 6652.97 702.580   1
   0  -4 -11 9478.71 679.510   1
  -1   6   9 4197.32 487.750   1
   1  -6  -9 3472.55 357.050   1
   6   2  -8 9621.01 551.610   1
   6   2  -8 11395.0 651.910   1
   0   8   4 3340.63 250.460   1
   0  -8  -4 3761.07 356.890   1
   7   1  -4 487.160 146.540   1
  -5   2 -10 4628.82 352.580   1
   5  -2  10 4561.20 300.810   1
   5  -2  10 6000.77 594.950   1
   0  -3 -12 468.960 501.700   1
   0   3  12 237.310 321.140   1
   0  -3 -12 -253.40 209.520   1
   5  -9   5 7060.93 470.770   1
   5  -9   5 6675.67 379.270   1
  -5   9  -5 7651.70 903.520   1
  -5   7  -9 -99.990 100.710   1
  -4   9  -7 3446.97 236.040   1
   4  -9   7 3889.88 238.030   1
  -2  -8   2 17227.1 993.290   1
   2   8  -2 14639.0 745.440   1
   3  -6  12 1511.97 204.230   1
   3  -6  12 1180.98 143.460   1
  -3   6 -12 1382.10 203.300   1
  -3  -5  -6 1003.20 295.120   1
   3   5   6 1337.31 178.500   1
  -7   7  -3 444.980 368.510   1
   7  -7   3 561.100 88.0800   1
   7  -1   4 -154.51 242.570   1
   7  -1   4 259.810 103.690   1
  -7   1  -4 173.740 339.790   1
   2   1 -14 1330.46 202.880   1
  -2  -1  14 1879.31 235.790   1
   2   1 -14 683.250 195.750   1
   6  -7   7 6517.65 359.360   1
  -6   7  -7 5301.89 319.590   1
   3  -8  10 12621.8 632.810   1
  -3   8 -10 12732.7 693.410   1
  -2  -8   5 5139.17 366.770   1
   2   8  -5 5705.08 330.160   1
   6  -2   8 352.010 191.000   1
   4   6  -6 1344.77 171.720   1
   4   6  -6 1500.60 175.100   1
   1   5   9 8612.17 632.870   1
  -1  -5  -9 10549.0 756.250   1
  -6   4   9 904.380 459.270   1
  -6   4   9 2258.04 259.730   1
   6  -4  -9 1760.15 258.270   1
   1   0 -14 2647.16 452.870   1
  -1   0  14 2923.73 528.960   1
  -1   0  14 2313.69 424.710   1
  -1   0  14 4951.19 357.310   1
   1   0 -14 4142.55 348.970   1
  -3   9  -8 15614.0 825.400   1
   3  -9   8 12624.6 645.430   1
  -1   9   2 16793.6 915.550   1
   1  -9  -2 16317.5 954.830   1
   7  -7  -2 49.9900 50.6200   1
   7  -7  -2 0.56000 73.8600   1
  -7   7   2 612.910 481.260   1
   7  -2   5 30740.1 2672.86   1
   0  -9   0 2443.23 302.460   1
   0   9   0 3466.11 278.830   1
  -6   6   7 571.460 323.820   1
   6  -6  -7 202.720 182.380   1
   1  -3  14 9747.92 568.170   1
  -1   3 -14 8424.96 518.260   1
   1  -3  14 9721.41 585.290   1
   6  -1 -10 18286.3 981.750   1
  -6   1  10 24033.0 2039.16   1
   6  -1 -10 18870.3 1341.08   1
  -3   8   6 627.080 199.320   1
   3  -8  -6 1313.62 233.210   1
   2  -9  -3 72.9400 175.020   1
  -2   9   3 -105.39 153.060   1
  -5   3  11 5505.45 390.110   1
  -5   3  11 5143.86 758.220   1
   5  -3 -11 4567.94 367.700   1
  -1   2 -14 6759.21 436.660   1
   1  -2  14 7121.47 465.060   1
   1  -2  14 7771.48 540.700   1
   6   3  -6 66.3300 86.1700   1
   6   3  -6 122.080 130.690   1
   3   3 -13 2625.39 308.140   1
  -3  -3  13 2612.25 283.460   1
   3   3 -13 2010.52 253.680   1
   6  -6   8 102.870 109.970   1
  -6   6  -8 86.5000 83.0600   1
   5   3   5 8045.62 443.000   1
  -5  -3  -5 12470.5 978.860   1
  -5  -5   3 32645.6 2819.01   1
   5   5  -3 29039.9 2434.46   1
   6  -8  -3 2276.04 258.450   1
   6  -8  -3 2561.92 353.690   1
   6  -8  -3 2684.85 257.530   1
  -6   8   3 3604.99 633.760   1
   2   2 -14 6308.29 457.710   1
  -2  -2  14 9257.08 543.800   1
   2   2 -14 7835.93 488.390   1
   7  -6   5 1908.91 204.910   1
  -4   9   3 2962.49 384.450   1
   4  -9  -3 3481.90 332.950   1
   7   1   0 11386.2 601.470   1
   7  -5  -6 3346.03 213.320   1
  -7   5   6 5230.32 652.800   1
  -1   9  -8 8015.11 459.130   1
   1  -9   8 6049.52 325.030   1
   1  -9   8 7028.45 400.860   1
   6  -2 -10 796.370 243.620   1
  -6   2  10 1104.72 166.640   1
   6  -2 -10 824.040 153.560   1
  -1  -1 -13 3650.20 317.860   1
   1   1  13 4160.49 295.120   1
   1   1  13 3271.27 550.620   1
   3  -7  -8 6513.52 536.000   1
  -3   7   8 5117.20 725.530   1
   5   5  -4 21219.5 1058.92   1
  -5  -5   4 23268.2 2030.44   1
   3   7   0 1321.96 146.230   1
  -3  -7   0 2320.32 340.940   1
   2   6   6 20548.9 1120.23   1
  -2  -6  -6 20920.2 1252.74   1
   0  -4  14 11500.2 629.190   1
   0  -4  14 11469.8 628.110   1
   0   4 -14 10725.5 632.980   1
  -5  -5   2 21565.4 1228.62   1
   5   5  -2 15147.6 774.000   1
   5   3 -10 17616.5 923.170   1
   5   3 -10 13077.1 696.090   1
  -5  -3  10 15054.3 821.260   1
   5  -8  -5 130.260 222.750   1
  -5   8   5 -114.15 397.490   1
   5  -7  -7 21510.0 1316.87   1
  -5   7   7 17378.5 1476.66   1
   5   1   8 4428.87 378.060   1
  -5  -1  -8 9912.32 760.230   1
   5   1   8 9587.74 584.130   1
  -5  -1  -8 15300.9 1546.05   1
   4   6   0 253.470 117.530   1
  -4  -6   0 257.630 160.160   1
  -3   2  13 3790.99 301.460   1
  -3   2  13 3729.89 599.710   1
   3  -2 -13 3066.07 303.520   1
   0   8 -10 218.880 75.1800   1
   0  -8  10 333.790 93.9800   1
   0   8 -10 395.130 96.8800   1
  -7   4   7 6121.68 706.560   1
   2   0 -14 13845.7 845.210   1
   2   0 -14 7089.95 748.890   1
  -2   0  14 16309.8 899.080   1
  -2   0  14 12034.5 1155.68   1
   2   8  -1 13179.4 725.230   1
  -2  -8   1 11382.8 747.170   1
   2   8  -1 9364.91 500.920   1
   0   5  10 1462.65 353.020   1
   0  -5 -10 1938.86 389.750   1
   5  -6  10 1246.55 182.960   1
   5  -6  10 1221.54 166.000   1
  -5   6 -10 1318.42 197.460   1
   1   7 -11 5449.14 336.390   1
   1   7 -11 6765.25 374.050   1
  -1  -7  11 7892.62 522.380   1
   2  -8  -6 4058.64 397.940   1
  -2   8   6 3491.40 455.250   1
   7  -4   6 1080.49 171.250   1
   7   1  -5 567.320 171.530   1
  -7  -1   5 -31.350 385.670   1
   4   4 -11 5889.28 354.790   1
   4   4 -11 8752.01 528.790   1
  -4  -4  11 9275.07 554.040   1
   2  -7  -8 1317.56 283.520   1
  -2   7   8 1269.60 290.680   1
  -5   8  -8 375.440 115.870   1
   5  -8   8 233.000 89.0200   1
  -1   7 -12 5030.46 340.340   1
   1  -7  12 5569.70 327.350   1
   1  -7  12 5320.62 355.600   1
   5   0   9 16507.0 915.260   1
  -5   0  -9 16923.3 1220.57   1
  -5   0  -9 12369.2 772.020   1
   5  -9  -2 20602.1 1032.70   1
   5  -9  -2 20249.3 1172.86   1
   5  -9  -2 16462.2 859.230   1
  -5   9   2 15821.2 1364.91   1
   5   2 -11 5562.46 401.160   1
  -5  -2  11 6417.09 401.330   1
   5   2 -11 5341.82 379.010   1
   6   3   1 16755.4 852.070   1
  -6   0  10 5933.29 376.340   1
   6   0 -10 3302.16 295.260   1
   6   0 -10 4578.80 356.140   1
  -4   3  12 792.840 305.820   1
   4  -3 -12 1464.38 252.700   1
  -4   3  12 1675.27 239.090   1
   2   8  -6 6600.97 364.020   1
   2   8  -6 5095.47 309.860   1
   0   0  14 2888.38 492.140   1
   0   0 -14 5215.96 408.280   1
   0   0  14 5355.49 350.680   1
   0   0  14 4208.94 679.360   1
   0   9  -7 456.830 92.3300   1
   0   9  -7 720.820 110.420   1
   0   9  -7 299.650 107.790   1
  -3   0 -12 1411.97 282.810   1
   3   0  12 1593.32 229.480   1
   7   0   3 5710.91 386.170   1
  -7   0  -3 7458.05 763.770   1
   7   0   3 1605.27 396.900   1
  -3  -4  -8 1360.61 333.480   1
   3   4   8 675.790 140.790   1
   4   4   6 1363.24 185.150   1
  -4  -4  -6 1200.64 247.470   1
   5   5  -5 11555.7 614.190   1
  -5  -5   5 15790.0 952.190   1
   3   6   4 735.380 162.550   1
  -3  -6  -4 682.450 270.610   1
   3   7  -7 9111.09 499.340   1
   3   7  -7 10799.5 592.500   1
   4   3 -12 16275.6 854.400   1
  -4  -3  12 23256.8 1982.22   1
   4   3 -12 23871.9 2066.29   1
   1  -6  13 1870.60 196.340   1
   1  -6  13 1639.40 199.700   1
  -1   6 -13 2008.97 240.670   1
  -2  -5  -8 4542.79 397.400   1
   2   5   8 4088.23 339.810   1
   5   4   3 15252.7 779.030   1
  -5  -4  -3 16070.4 1047.90   1
   1  -4  14 45.6100 104.540   1
  -1   4 -14 22.9300 96.4500   1
   1  -4  14 -75.390 91.3900   1
  -4   8   6 7610.12 752.350   1
   4  -8  -6 10098.7 759.510   1
   3  -3  13 195.260 183.830   1
   3  -3  13 388.450 128.800   1
  -3   3 -13 388.600 109.860   1
   7  -5   6 5932.99 390.800   1
  -4   4 -12 672.790 155.580   1
   4  -4  12 669.520 145.180   1
   4  -4  12 449.800 145.090   1
   0  -2 -13 384.610 170.480   1
   0   2  13 1011.77 177.450   1
   0   2  13 708.750 446.650   1
   3 -10   3 953.900 149.330   1
   3 -10   3 773.120 98.2100   1
   3 -10   3 1166.46 190.260   1
  -3  10  -3 819.010 208.610   1
   7  -6  -5 30425.5 2582.99   1
  -7   6   5 41908.7 3801.24   1
   7  -6  -5 32498.5 2713.22   1
   3   6 -10 5432.49 344.820   1
   3   6 -10 3284.42 220.450   1
   7  -7   4 2993.43 201.790   1
   1   8  -9 5942.75 376.960   1
   1   8  -9 7699.25 433.350   1
   8  -4  -1 3311.88 227.220   1
   8  -4  -1 2762.86 425.410   1
   8  -3  -1 13223.7 747.790   1
   8  -3  -1 14030.6 937.060   1
   7   0  -7 13854.7 772.090   1
   3 -10   2 984.070 132.140   1
   3 -10   2 761.010 178.350   1
  -3  10  -2 857.870 208.200   1
   4   0 -13 6416.89 441.580   1
  -4   0  13 8741.88 500.920   1
   4   0 -13 5664.09 570.200   1
   1  -1  14 6796.19 669.820   1
   1  -1  14 10262.5 584.670   1
  -1   1 -14 9040.42 572.370   1
   4  -3  12 495.570 111.840   1
   4  -3  12 887.780 210.010   1
  -4   3 -12 578.110 118.870   1
   2  -7  12 1041.60 128.410   1
   2  -7  12 986.880 169.900   1
  -2   7 -12 901.220 155.740   1
   4   1  10 2617.55 292.860   1
  -4  -1 -10 3785.38 655.950   1
  -4  -1 -10 2361.46 314.570   1
  -5  -5   1 1670.75 246.680   1
   5   5  -1 1483.23 168.730   1
  -2   0 -13 5586.29 468.470   1
   2   0  13 6030.84 423.320   1
  -3   4 -13 13506.7 801.750   1
   3  -4  13 15077.3 807.430   1
   3  -4  13 8045.60 480.720   1
   7  -3   6 9746.60 631.880   1
  -4  -2  -9 19084.4 1238.61   1
   4   2   9 11734.4 677.510   1
  -4  -2  -9 18093.1 1487.83   1
   8  -4   0 3950.55 429.560   1
   8  -4   0 4082.01 277.300   1
  -7   7   3 2463.35 648.340   1
   7  -7  -3 1954.71 219.550   1
   7  -7  -3 2339.92 235.360   1
   8  -3  -2 8905.62 672.190   1
   8  -3  -2 8179.76 473.930   1
   4   6  -7 22158.6 1116.19   1
   4   6  -7 21360.8 1084.34   1
   5  -9   6 12698.2 651.400   1
   5  -9   6 13993.5 785.840   1
   1   4 -14 956.770 151.860   1
  -1  -4  14 1015.88 153.760   1
   1   4 -14 872.910 147.770   1
   3 -10   4 905.820 120.660   1
   3 -10   4 1195.29 187.230   1
   3 -10   4 986.630 151.650   1
  -3  10  -4 1574.73 305.200   1
   6  -8   6 8532.25 446.540   1
   6  -8   6 10633.1 620.770   1
   7   1   1 11529.4 614.080   1
  -7  -1  -1 15544.2 1342.58   1
   8  -3   0 10184.6 612.720   1
   8  -3   0 14547.1 994.740   1
   0   6 -13 1916.88 216.950   1
   0  -6  13 1669.15 180.610   1
   0  -6  13 2038.05 228.380   1
   8  -4  -2 10553.1 876.330   1
   8  -4  -2 13158.9 715.700   1
  -4  -5  -4 20197.9 1283.19   1
   4   5   4 18339.2 939.890   1
   4   5   4 22319.5 1913.77   1
  -5  -2  -7 938.170 223.050   1
   5   2   7 291.550 120.940   1
   2 -10   3 2710.17 315.910   1
  -2  10  -3 2572.72 267.930   1
  -4   7   8 588.140 428.890   1
   4  -7  -8 -224.36 245.130   1
   7  -2  -8 17685.6 1212.10   1
   2   3 -14 20760.5 1109.53   1
  -2  -3  14 27071.3 2283.11   1
   2   3 -14 15353.8 907.020   1
   4   1 -13 464.270 149.770   1
  -4  -1  13 999.630 150.700   1
   4   1 -13 911.060 171.250   1
   6   2   4 3352.03 239.130   1
   0  -9  -1 15020.7 876.090   1
   0   9   1 19677.5 1053.03   1
  -6   3  10 567.900 146.010   1
   6  -3 -10 274.170 240.180   1
  -6   3  10 336.940 307.960   1
   6  -3 -10 366.440 149.040   1
   2   7 -10 1272.67 164.060   1
   2   7 -10 1123.63 127.910   1
   2  -4 -12 6168.57 536.380   1
  -2   4  12 6618.40 835.480   1
   3 -10   1 2846.56 295.770   1
  -3  10  -1 2574.46 407.420   1
   2  -5 -11 9535.22 755.390   1
  -2   5  11 8934.76 1086.19   1
   2 -10   4 1617.85 178.780   1
   2 -10   4 1641.28 216.670   1
  -2  10  -4 1222.86 174.580   1
   6   3  -7 572.790 115.600   1
   6   3  -7 662.580 116.580   1
   0  -7  -7 9398.54 691.870   1
   0   7   7 6702.14 499.310   1
   2 -10   2 11214.4 680.380   1
  -2  10  -2 10154.0 626.960   1
   6  -4   9 1808.63 212.280   1
  -6   7   6 555.270 528.710   1
   6  -7  -6 687.260 235.620   1
   0   7 -12 967.380 140.310   1
   0  -7  12 539.730 89.4600   1
   0  -7  12 500.720 115.930   1
   0   7 -12 734.460 124.520   1
   5   0 -12 822.530 148.580   1
   5   0 -12 121.370 218.150   1
  -5   0  12 543.740 115.750   1
  -1  -8  -3 23426.1 2063.16   1
   1   8   3 28764.4 2449.61   1
   5  -1 -12 961.960 175.100   1
  -5   1  12 1503.08 217.920   1
   5  -1 -12 616.140 259.050   1
  -4   1  13 16399.7 903.540   1
   4  -1 -13 12708.7 793.460   1
   4  -1 -13 10829.0 942.330   1
  -4   1  13 13375.0 1210.64   1
   8  -4   1 2855.01 245.540   1
   8  -4   1 2573.69 368.470   1
  -2   9  -9 1483.50 178.260   1
  -2   9  -9 1672.10 321.250   1
   2  -9   9 1154.27 139.550   1
  -2  -8   0 13507.2 908.820   1
   2   8   0 10271.7 549.570   1
   2   8   0 17536.0 997.470   1
   3  -2  13 1438.81 212.180   1
  -3   2 -13 1348.04 208.790   1
   3  -2  13 640.950 174.800   1
   8  -3  -3 11216.3 850.460   1
   8  -3  -3 12439.8 683.090   1
  -3   9   4 3517.79 467.280   1
   3  -9  -4 4578.42 379.340   1
   5   5  -6 1844.50 198.220   1
   5   5  -6 1234.00 165.770   1
  -3   5  11 2407.25 516.730   1
   3  -5 -11 2025.91 366.980   1
   4  -5  12 12387.9 696.270   1
  -4   5 -12 12152.2 698.640   1
   4  -5  12 8981.01 545.890   1
  -2  -7  -4 10424.3 756.760   1
   2   7   4 10891.9 618.340   1
   5   4  -9 8928.69 508.020   1
   5   4  -9 13036.0 730.430   1
  -6   0  -7 3916.19 648.010   1
   7  -1  -8 7024.20 579.010   1
   2  -6  13 5323.96 329.390   1
   2  -6  13 5358.20 356.590   1
  -2   6 -13 4683.45 323.560   1
   3   7   1 14596.0 880.660   1
   3   7   1 10446.8 537.510   1
  -3  -7  -1 12393.8 944.910   1
   7  -3  -8 5950.93 662.510   1
   7   1  -6 4160.46 302.810   1
  -5   1 -10 6183.12 458.290   1
   5  -1  10 8541.41 514.550   1
   5  -1  10 5020.28 535.160   1
  -4   9  -8 7792.82 460.900   1
   4  -9   8 7602.82 422.420   1
  -2   8 -11 806.890 114.980   1
   2  -8  11 948.670 120.600   1
  -6   9  -2 2467.25 615.560   1
   6  -9   2 1508.70 163.190   1
   6  -9   2 1674.61 235.190   1
   1  -1 -14 -9.7300 225.640   1
  -1   1  14 -215.31 231.350   1
  -1   1  14 64.6000 200.980   1
   8  -3   1 860.540 260.010   1
   8  -3   1 584.650 231.190   1
   8  -5   0 536.230 222.740   1
   8  -5   0 413.720 93.4100   1
  -4  10  -2 6425.27 790.010   1
   4 -10   2 7804.55 450.080   1
   4 -10   2 7923.11 512.610   1
   4 -10   2 7684.59 401.420   1
   2   8  -7 5725.54 368.120   1
   2   8  -7 6970.27 396.160   1
  -6   9  -1 10292.7 1267.87   1
   6  -9   1 7386.50 410.570   1
   6  -9   1 7394.55 557.600   1
   3 -10   5 9046.80 490.820   1
   3 -10   5 8836.55 472.080   1
  -3  10  -5 9692.35 663.320   1
   3 -10   5 9848.01 614.760   1
   4   5 -10 12799.3 689.350   1
   4   5 -10 11087.2 633.690   1
   4 -10   3 9913.44 611.620   1
   4 -10   3 11308.8 575.460   1
  -4  10  -3 9331.79 900.080   1
   4 -10   3 11456.6 614.840   1
   4   6   1 8094.43 441.000   1
  -4  -6  -1 8955.83 617.750   1
   8  -5  -1 382.860 97.8000   1
   8  -5  -1 86.3500 261.520   1
   6  -5   9 2885.05 301.980   1
   8  -2  -2 197.080 186.820   1
   8  -2  -2 541.850 131.890   1
   8  -2  -1 15711.0 931.920   1
   8  -2  -1 21818.8 1336.33   1
   8  -4  -3 11359.5 656.740   1
   8  -4  -3 16000.9 1160.22   1
  -6   8   4 4138.03 851.270   1
   6  -8  -4 2810.50 322.120   1
   6  -8  -4 3721.32 413.400   1
   6  -8  -4 2683.51 245.850   1
  -1   8 -11 16233.8 892.200   1
  -1   8 -11 24368.1 1322.50   1
   1  -8  11 18474.9 1025.32   1
  -3   4  12 10784.1 1125.29   1
   3  -4 -12 12130.7 863.700   1
  -5   5  10 -888.77 409.720   1
   5  -5 -10 866.800 183.960   1
   4   0  11 3316.28 366.130   1
  -4   0 -11 2922.14 368.350   1
   6   2  -9 200.100 123.700   1
   6   2  -9 105.230 93.4300   1
  -6  -2   9 243.920 119.940   1
   1  -9  -3 12312.9 817.480   1
  -1   9   3 10432.6 751.630   1
   2  -1 -14 8757.04 654.410   1
  -2   1  14 10222.0 635.590   1
   2  -1 -14 5180.52 652.920   1
  -2   1  14 6058.77 778.490   1
   5   5   0 575.210 123.510   1
  -5  -5   0 509.080 177.450   1
   4  -2  12 9975.75 819.190   1
   4  -2  12 9863.86 647.300   1
  -4   2 -12 7784.98 527.400   1
   6  -3   9 4229.43 339.250   1
  -2  10  -5 789.730 147.570   1
   2 -10   5 1161.09 132.300   1
   2 -10   5 1011.65 150.270   1
   2 -10   5 1303.93 165.350   1
  -2  10  -1 6539.60 452.810   1
   2 -10   1 6699.28 514.170   1
   1   9  -3 4875.80 399.140   1
  -1  -9   3 3806.66 348.090   1
   1   9  -3 2952.19 289.850   1
   1   9  -4 4346.81 365.730   1
  -1  -9   4 4297.12 352.620   1
   1   9  -4 3670.65 478.160   1
   6  -1   8 3322.77 478.930   1
  -3   5 -13 239.600 141.320   1
   3  -5  13 82.2900 128.520   1
   3  -5  13 169.680 123.890   1
   4  -7  11 9240.14 528.290   1
  -4   7 -11 12636.8 765.900   1
   4  -7  11 14594.7 861.040   1
  -4  -3  -8 15177.6 1074.83   1
   4   3   8 12311.2 794.330   1
   2   5 -13 13180.7 787.010   1
  -2  -5  13 13876.3 808.630   1
   2   5 -13 12520.6 745.850   1
  -7   1  -5 6016.77 632.330   1
   7  -1   5 4413.51 520.700   1
   7  -6   6 3911.71 279.390   1
  -3  -1  14 18179.8 1058.36   1
   3   1 -14 14365.6 879.970   1
   3   1 -14 9848.80 741.420   1
   8  -5   1 212.330 221.540   1
   8  -5   1 67.9500 87.2200   1
  -6   9  -3 1819.87 564.990   1
   6  -9   3 2065.92 205.170   1
   6  -9   3 3445.81 506.480   1
  -4  10  -1 7377.45 814.410   1
   4 -10   1 10433.7 585.060   1
   4 -10   1 9974.99 697.270   1
   4 -10   1 9084.45 560.190   1
   6   1 -10 97.1400 115.440   1
   6   1 -10 138.060 187.610   1
  -6  -1  10 104.720 123.010   1
  -3   9  -9 15519.5 880.020   1
   3  -9   9 14246.0 783.360   1
   1  -7  -8 11345.8 875.580   1
  -1   7   8 8145.30 783.440   1
   8  -2  -3 3307.47 348.920   1
   8  -2  -3 4039.41 471.610   1
   6  -9   0 1524.61 168.690   1
  -6   9   0 1737.88 655.550   1
   6  -9   0 1420.48 159.900   1
   6  -9   0 1803.15 270.240   1
   5  -9  -3 3424.73 517.230   1
  -5   9   3 3196.39 676.490   1
   1   7   6 750.220 119.800   1
  -1  -7  -6 388.780 167.490   1
   8  -2   0 11805.6 786.830   1
   8  -2   0 11599.9 724.170   1
   4 -10   4 1832.86 182.430   1
  -4  10  -4 1134.75 330.050   1
   4 -10   4 2439.33 290.800   1
   4 -10   4 2076.41 201.940   1
   6   3   2 10413.4 593.770   1
   2  -3  14 2497.28 263.970   1
   2  -3  14 1749.97 217.660   1
  -2   3 -14 1850.72 210.740   1
   4  -9  -4 4356.05 393.690   1
  -4   9   4 3661.23 622.050   1
   8  -5  -2 2203.33 368.340   1
   8  -5  -2 1788.60 191.790   1
   5  -4  11 5399.06 369.130   1
   5  -4  11 4654.57 328.250   1
  -5   4 -11 5295.46 394.130   1
   1  -9   9 6347.56 401.070   1
  -1   9  -9 2719.87 456.530   1
  -1   9  -9 6619.98 397.910   1
   3 -10   0 1884.01 236.050   1
  -3  10   0 1742.98 307.750   1
   1  -4 -12 3659.14 543.310   1
  -1   4  12 5377.45 772.720   1
   1  -4 -12 2441.54 766.380   1
   1   6   8 11230.0 783.270   1
  -1  -6  -8 10524.8 854.090   1
  -6  -1  -6 10076.5 1101.28   1
   6   1   6 4846.26 314.830   1
   5  -6  -9 29515.2 3766.83   1
  -5   6   9 26866.8 1974.36   1
  -2   9   4 1071.15 207.510   1
   2  -9  -4 1737.58 243.480   1
   3   7  -8 12830.6 696.900   1
   3   7  -8 12347.7 708.910   1
   0   9  -8 923.860 233.560   1
   0   9  -8 1968.73 188.920   1
   0   9  -8 2303.08 236.520   1
   3  -6 -10 8383.45 676.750   1
  -3   6  10 9722.41 1044.42   1
   0  -6  -9 415.540 252.180   1
   0   6   9 -56.310 225.060   1
   1  -8  -6 9098.17 738.010   1
  -1   8   6 7322.08 642.100   1
   6  -7   8 4584.06 286.910   1
  -6   7  -8 5438.97 359.680   1
  -4   8 -10 12316.1 732.090   1
   4  -8  10 9473.24 528.890   1
   3   0 -14 361.360 130.790   1
  -3   0  14 31.6100 111.280   1
   3   0 -14 153.420 186.260   1
   5   1 -12 22889.0 1479.63   1
  -5  -1  12 23686.3 1319.75   1
   5   1 -12 19264.0 1100.89   1
   2   6 -12 4566.65 334.920   1
  -2  -6  12 3921.31 285.400   1
   2   6 -12 3721.00 286.670   1
   2  -3 -13 468.400 212.790   1
  -2   3  13 714.850 371.800   1
  -2   3  13 1173.61 219.070   1
   7  -7   5 7429.35 453.800   1
   8  -4   2 2704.63 309.020   1
   8  -4   2 3227.92 425.010   1
  -1  -9   2 1676.67 228.150   1
   1   9  -2 2606.19 288.490   1
   0   8   5 167.170 158.600   1
   0  -8  -5 -43.220 190.030   1
  -1  -9   5 946.480 180.780   1
   1   9  -5 505.470 142.340   1
   1   9  -5 998.330 128.530   1
  -7   8  -1 3286.55 684.270   1
   7  -8   1 4091.30 278.020   1
  -3  -5  12 4700.78 370.400   1
   3   5 -12 5376.17 350.360   1
   3   5 -12 4013.91 312.010   1
  -5   2  12 622.460 151.110   1
   5  -2 -12 576.150 176.690   1
   5  -2 -12 218.460 374.870   1
  -5   2  12 249.190 429.770   1
  -2  -3 -11 11813.4 830.120   1
  -2  -3 -11 16171.0 1572.67   1
   2   3  11 6900.96 683.740   1
   0  -5  14 5452.95 355.180   1
   0  -5  14 6547.27 429.970   1
   0   5 -14 6177.83 407.680   1
   2  -6 -10 4469.28 474.550   1
  -2   6  10 3645.73 696.060   1
   7  -2   6 18274.9 1236.07   1
   8  -3  -4 14224.9 919.940   1
   4   2 -13 8272.06 572.290   1
  -4  -2  13 10723.0 651.780   1
   4   2 -13 8985.03 657.690   1
  -1   5 -14 675.040 145.520   1
   1  -5  14 332.690 129.810   1
   1  -5  14 546.420 107.020   1
  -7   5   7 872.290 456.910   1
   7  -8   0 6511.14 406.390   1
  -7   8   0 7766.62 886.400   1
  -5   4  11 25010.6 1389.33   1
  -5   4  11 19178.6 1468.67   1
   5  -4 -11 20925.8 1277.43   1
   1  -5 -11 6700.83 643.750   1
  -1   5  11 4639.29 708.210   1
   7  -7  -4 3747.94 270.620   1
   7  -7  -4 4854.55 303.120   1
  -7   7   4 4998.79 798.070   1
   7   1   2 8405.54 530.740   1
  -7  -1  -2 12977.4 1211.78   1
   5  -3  11 3528.20 500.700   1
   5  -3  11 3913.78 292.630   1
  -5   3 -11 4169.74 319.660   1
   7  -8   2 7998.62 482.560   1
  -7   8  -2 7681.20 799.210   1
  -3  -4  13 186.720 115.400   1
   3   4 -13 -36.360 143.920   1
   3   4 -13 139.220 116.440   1
  -6   5   9 7270.18 972.290   1
  -6   5   9 8297.88 552.500   1
   6  -5  -9 7075.23 551.320   1
   2  -4  14 3363.08 462.420   1
  -2   4 -14 2956.94 330.760   1
   2  -4  14 2116.89 254.050   1
  -2   2 -14 1812.72 248.530   1
   2  -2  14 2031.33 256.330   1
   2  -2  14 1117.30 199.730   1
   4   6  -8 9281.35 542.100   1
   4   6  -8 8749.42 532.210   1
   2   2  12 351.570 210.870   1
   2   2  12 653.140 151.990   1
  -2  -2 -12 644.620 436.200   1
  -2  -2 -12 548.280 207.290   1
   5  -5  11 10690.6 651.640   1
   5  -5  11 11428.9 671.790   1
  -5   5 -11 10353.9 689.900   1
   3  -7  12 923.350 168.040   1
  -3   7 -12 412.140 137.750   1
   3  -7  12 301.370 105.410   1
   7   0   4 431.190 113.880   1
  -7   0  -4 1844.07 520.830   1
   7   0   4 -508.89 378.740   1
   8  -3   2 1479.44 229.680   1
   8  -3   2 997.230 209.710   1
   1   0  14 -266.24 279.940   1
   1   0  14 -312.96 163.760   1
  -1   0 -14 478.430 210.640   1
  -3  -2  14 2423.48 269.570   1
   3   2 -14 2231.96 316.790   1
   3   2 -14 2092.50 264.480   1
   3 -10   6 11623.6 735.740   1
   3 -10   6 9555.65 542.860   1
   3 -10   6 9699.66 570.550   1
  -3  10  -6 12743.9 918.590   1
   5   5  -7 767.930 141.240   1
   5   5  -7 908.930 155.500   1
   8  -4  -4 11800.8 1047.38   1
   5  -9   7 1163.07 125.280   1
  -5   9  -7 1519.29 175.160   1
   1   3  12 9727.00 971.860   1
  -1  -3 -12 18823.4 1711.91   1
  -1  -3 -12 15162.8 1081.44   1
   8  -5   2 6505.14 537.090   1
   8  -5   2 6369.82 402.460   1
  -5   7 -10 152.250 101.550   1
   5  -7  10 -116.32 86.6100   1
   6  -9   4 7150.85 426.030   1
   6  -9   4 8574.22 593.060   1
  -6   9  -4 4968.61 628.260   1
   4 -10   0 12499.7 684.360   1
  -4  10   0 12646.5 980.260   1
   4 -10   0 14739.8 991.640   1
  -1   3  13 7288.11 512.130   1
  -1   3  13 3031.29 578.390   1
   1  -3 -13 5232.52 472.610   1
   2 -10   6 673.150 85.0500   1
   2 -10   6 1179.25 182.240   1
   2 -10   6 993.520 136.360   1
  -2  10  -6 1007.08 174.610   1
  -6   6   8 2072.77 530.660   1
   6  -6  -8 3033.15 381.030   1
   1   6 -13 7300.21 466.090   1
   1   6 -13 5261.49 360.710   1
  -1  -6  13 5089.08 351.230   1
   2 -10   0 11573.2 761.830   1
  -2  10   0 18270.2 1308.26   1
   8  -2  -4 2935.73 405.410   1
   8  -2   1 33422.0 4191.76   1
   8  -2   1 27161.0 1557.26   1
  -4   2  13 18159.5 1048.72   1
   4  -2 -13 15940.4 972.390   1
  -4   2  13 13146.8 1136.44   1
   6  -9  -1 4567.06 291.960   1
   6  -9  -1 4984.44 440.790   1
   6  -9  -1 4008.63 298.290   1
  -6   9   1 7359.92 882.370   1
   4 -10   5 1844.59 255.030   1
   4 -10   5 1722.89 182.390   1
  -4  10  -5 1971.64 466.880   1
   1 -10   3 6389.00 479.650   1
  -1  10  -3 9882.81 602.720   1
   0   1  14 12027.7 1209.38   1
   0   1  14 18490.0 1071.78   1
   0  -1 -14 17207.0 1060.04   1
  -5   8   6 837.080 427.610   1
   5  -8  -6 1530.89 286.480   1
   8  -5  -3 467.990 110.380   1
   8  -5  -3 550.170 341.170   1
   7  -6  -6 9879.42 633.940   1
  -7   6   6 15615.5 1551.15   1
   7   2  -3 1419.79 188.180   1
  -2  -8  -1 9530.19 670.320   1
   2   8   1 11555.5 716.490   1
   7   0  -8 2618.99 304.810   1
   3  -8  11 15863.2 862.430   1
  -3   8 -11 12748.9 715.090   1
   1   4  11 -47.790 196.950   1
  -1  -4 -11 -65.090 210.530   1
  -7   4   8 4754.98 672.620   1
  -1  10  -4 13540.2 864.740   1
   1 -10   4 8327.46 605.160   1
   7   2  -2 -0.8500 109.070   1
  -5  -3  -6 14074.2 973.270   1
   5   3   6 12053.1 946.110   1
   5   3   6 12865.1 752.470   1
   6  -6   9 8880.70 530.070   1
   0   9   2 11031.9 655.070   1
   0  -9  -2 11117.2 830.160   1
  -7   8   1 8534.25 1103.15   1
   7  -8  -1 6402.32 410.370   1
   7  -4   7 392.840 157.780   1
  -1  -9   1 230.250 165.230   1
   1   9  -1 150.630 95.4000   1
  -4   5  11 27105.3 2063.35   1
   4  -5 -11 21871.1 1323.48   1
  -2  -4 -10 1043.65 323.660   1
   2   4  10 1108.62 230.890   1
   6  -8   7 7413.72 433.490   1
  -6   8  -7 6551.09 418.460   1
  -5  -4  -4 12961.6 1002.68   1
   5   4   4 8911.33 521.490   1
   3  -3 -13 3126.90 393.910   1
  -3   3  13 4054.21 346.110   1
  -3   3  13 2953.71 627.240   1
  -1  -9   6 4730.82 358.740   1
   1   9  -6 4055.91 249.750   1
   3  -8  -7 352.930 178.710   1
  -3   8   7 -216.98 165.190   1
  -5   8  -9 646.810 116.230   1
   5  -8   9 687.030 105.600   1
   6   4  -3 2792.03 286.070   1
  -3   1 -13 1928.05 266.060   1
   3  -1  13 1098.99 299.850   1
   3  -1  13 2217.27 254.220   1
  -3  -5  -7 7280.29 569.890   1
   3   5   7 9445.29 633.180   1
   6   3  -8 6655.82 441.490   1
   6   3  -8 6387.87 442.770   1
   7  -8   3 5096.14 324.740   1
  -7   8  -3 3618.68 771.610   1
  -3  -2 -11 8791.18 731.360   1
  -3  -2 -11 9098.01 1116.76   1
   3   2  11 6786.99 615.990   1
  -1  10  -2 171.310 112.470   1
   1 -10   2 370.750 156.900   1
   7   1  -7 13144.9 794.780   1
   4  -6  12 23108.8 1283.68   1
  -4   6 -12 22497.8 1286.26   1
   4  -6  12 15152.8 870.170   1
   0  -8  11 195.010 89.6800   1
   0   8 -11 53.0500 105.050   1
   0   8 -11 71.0400 102.440   1
   1   8 -10 15569.2 866.110   1
   1   8 -10 13305.5 765.800   1
   7   2  -4 1048.10 175.910   1
  -2  -4  14 4584.11 316.010   1
   2   4 -14 4555.37 312.850   1
   2   4 -14 4523.66 383.550   1
   6   4  -4 871.660 124.420   1
   2   8  -8 3834.42 249.580   1
   2   8  -8 4070.94 280.710   1
  -6   4  10 957.950 436.150   1
   6  -4 -10 1296.40 205.440   1
  -6   4  10 1954.77 230.010   1
   7  -5   7 1561.55 204.550   1
  -5  -5  -1 15522.6 1084.38   1
   5   5   1 19035.9 1025.63   1
   5   3 -11 2794.20 320.760   1
   5   3 -11 3162.10 316.260   1
  -5  -3  11 3925.67 318.250   1
   6   4  -2 7430.50 450.310   1
   6  -2   9 14760.9 1085.10   1
  -6   1  11 6862.43 477.300   1
   6  -1 -11 5189.45 408.560   1
   6  -1 -11 5495.79 600.580   1
   8  -6   0 6193.82 689.280   1
   8  -6   0 8186.84 510.430   1
  -3   1  14 -376.50 338.200   1
   3  -1 -14 273.870 291.460   1
  -3   1  14 -69.350 140.320   1
   3  -1 -14 322.680 147.970   1
  -3  10   1 730.450 253.890   1
   3 -10  -1 47.4900 161.330   1
   8  -1  -2 2622.84 296.230   1
   8  -1  -2 3465.88 503.940   1
   3   3  10 8764.33 593.010   1
  -3  -3 -10 14814.5 1072.03   1
   7   2  -1 -30.120 121.240   1
   1 -10   5 8680.69 641.920   1
  -1  10  -5 10605.7 646.270   1
   3   7   2 17130.7 1078.88   1
  -3  -7  -2 11170.7 818.930   1
   3   7   2 9959.56 598.650   1
   3   6   5 273.030 126.080   1
  -3  -6  -5 -109.86 195.030   1
  -4   6  10 10196.7 946.090   1
   4  -6 -10 13038.0 1046.32   1
   4   6   2 1170.50 149.180   1
  -4  -6  -2 1364.00 261.710   1
   8  -6  -1 3974.00 279.850   1
   8  -1  -1 12811.4 826.460   1
   8  -1  -1 8483.96 634.650   1
   8  -4   3 4947.28 366.560   1
   8  -4   3 5432.30 482.420   1
   5  -7  -8 16713.7 1176.20   1
  -5   7   8 14982.8 1572.05   1
   8  -6   1 10626.0 949.560   1
   8  -6   1 11547.3 672.430   1
   1   5 -14 7695.93 497.810   1
  -1  -5  14 8679.17 535.500   1
   1   5 -14 9938.16 612.770   1
  -1  -2 -13 7287.93 821.660   1
   1   2  13 9635.90 639.220   1
   1   2  13 6904.86 837.010   1
  -1  -2 -13 7300.98 628.730   1
   8  -1  -3 147.310 176.040   1
   3   6 -11 1784.19 206.530   1
   3   6 -11 1311.64 167.100   1
   8  -3  -5 2679.04 280.670   1
   8  -3  -5 2366.30 408.020   1
   4  -4 -12 4315.10 393.380   1
  -4   4  12 4768.49 369.070   1
  -4   4  12 3016.30 508.520   1
  -2  -6  -7 23918.9 1595.31   1
   2   6   7 15111.0 908.710   1
   1   7 -12 11000.9 647.460   1
   1   7 -12 12791.8 727.290   1
  -1  -7  12 11381.5 705.480   1
   2  -8  -7 14201.6 1012.22   1
  -2   8   7 10139.0 907.650   1
   7  -3   7 7629.35 600.040   1
  -6   2  11 3263.23 352.730   1
   6  -2 -11 2800.68 330.060   1
   6  -2 -11 2455.57 461.790   1
   1   2 -15 2237.84 271.840   1
  -1  -2  15 3291.28 355.250   1
   6   4  -5 2540.04 254.990   1
   4  -1  12 19146.4 1013.91   1
  -4   1 -12 18953.3 1086.43   1
   0   2 -15 2339.20 276.470   1
   0  -2  15 2215.37 274.580   1
   0  -2  15 2642.25 294.090   1
   4   4 -12 3666.87 397.000   1
  -4  -4  12 4092.06 438.900   1
   4   4 -12 4431.77 375.140   1
  -1   6  10 8800.49 861.140   1
   1  -6 -10 9982.04 767.050   1
   5  -2  11 1757.42 220.670   1
  -5   2 -11 2214.92 289.070   1
   5  -2  11 2324.20 370.120   1
   6   2   5 14434.2 735.350   1
   4  -8  -7 5942.37 504.230   1
  -4   8   7 4199.33 644.930   1
   6   0 -11 1259.47 229.730   1
   6   0 -11 1158.15 204.370   1
  -6   0  11 1491.88 199.220   1
   1 -10   1 265.870 175.950   1
  -1  10  -1 106.100 110.280   1
  -2   5 -14 8722.86 497.750   1
   2  -5  14 7732.88 443.880   1
   2  -5  14 8911.64 502.090   1
  -3  -1 -12 2759.17 353.270   1
   3   1  12 3051.26 342.450   1
  -3  -1 -12 3779.10 605.650   1
   8  -5   3 10608.2 721.930   1
   8  -5   3 11183.4 611.020   1
   3  -6  13 633.650 119.860   1
   3  -6  13 918.870 188.590   1
  -3   6 -13 518.650 157.460   1
  -1  -8  -4 12106.2 861.510   1
   1   8   4 11267.5 628.320   1
   2   1  13 1462.72 219.630   1
  -2  -1 -13 1606.82 270.620   1
   7  -2  -9 14170.0 912.350   1
   6  -9   5 3892.21 424.820   1
   6  -9   5 3117.85 304.180   1
   6   4  -1 6836.68 373.490   1
   5 -10   2 2319.54 233.720   1
   5 -10   2 2740.85 339.220   1
   5 -10   2 1737.56 196.220   1
  -5  10  -2 3865.41 692.460   1
  -6   8   5 5725.10 1051.55   1
   6  -8  -5 5336.83 490.400   1
   7  -8  -2 501.080 94.4800   1
   7  -8  -2 461.880 103.470   1
  -7   8   2 1337.13 500.680   1
   4 -10  -1 19023.6 1045.80   1
  -4  10   1 16691.7 1137.83   1
  -4  -5  -5 12991.4 1021.23   1
   4   5   5 13882.1 729.440   1
   7   2  -5 756.160 173.550   1
  -2   1 -14 341.180 166.880   1
   2  -1  14 220.130 144.110   1
   2  -1  14 199.370 194.950   1
   3  -7  -9 2046.09 325.510   1
  -3   7   9 1817.92 358.850   1
  -1  -1  15 16721.0 893.280   1
   1   1 -15 13009.1 756.030   1
   8  -2  -5 208.900 177.360   1
   8  -2   2 18944.7 1083.98   1
   8  -2   2 22677.9 1152.56   1
   0   3 -15 8327.71 505.280   1
   0  -3  15 9663.93 555.250   1
   6  -9  -2 4778.47 275.790   1
  -6   9   2 5095.72 948.990   1
   6  -9  -2 3981.16 409.350   1
   6  -9  -2 4620.61 376.070   1
  -2   9 -10 404.960 126.660   1
   2  -9  10 388.910 108.450   1
   4   4   7 3348.98 386.560   1
  -4  -4  -7 3063.41 465.340   1
   5   2 -12 9235.06 570.120   1
  -5  -2  12 12546.9 683.580   1
   5   2 -12 10137.0 593.200   1
  -4  10  -6 517.910 307.250   1
   4 -10   6 725.860 159.670   1
   4 -10   6 558.080 105.020   1
   5 -10   3 -25.550 74.3800   1
   5 -10   3 -48.270 146.780   1
  -5  10  -3 85.7300 458.180   1
   5 -10   3 -130.29 77.2900   1
   8  -1   0 3775.37 438.940   1
   8  -1   0 5265.15 364.510   1
   5  -6  11 874.250 161.920   1
   5  -6  11 819.400 162.540   1
  -5   6 -11 734.940 137.620   1
   8  -6  -2 8326.54 454.690   1
  -8   6   2 11376.3 981.350   1
   8  -5  -4 -12.080 337.740   1
   8  -5  -4 390.710 121.250   1
   8  -3   3 140.710 207.040   1
   5   4 -10 107.420 108.250   1
   5   4 -10 -20.860 134.490   1
  -3   9   5 788.790 263.700   1
   3  -9  -5 1614.39 282.160   1
  -4   9  -9 6128.18 365.530   1
   4  -9   9 4773.60 262.480   1
   6   3   3 186.620 96.6400   1
   2   7 -11 757.890 127.830   1
   2   7 -11 1097.09 166.000   1
   7  -8   4 6702.16 343.070   1
   5  -9  -4 2104.70 301.510   1
  -5   9   4 1431.47 480.410   1
   1   5  10 9805.89 828.810   1
  -1  -5 -10 14568.9 1057.22   1
  -5   3  12 9969.12 924.840   1
  -5   3  12 13695.8 794.170   1
   5  -3 -12 10478.1 685.620   1
  -6   7   7 566.120 379.830   1
  -2  10  -7 2052.29 210.130   1
   2 -10   7 2190.50 214.890   1
   2 -10   7 2123.83 222.220   1
  -2  10  -7 2086.76 279.640   1
   7  -7   6 5849.04 324.430   1
   3   7  -9 24482.7 1149.72   1
   3   7  -9 25080.7 1814.46   1
   8  -6   2 2463.11 434.150   1
   8  -6   2 2734.31 276.610   1
   5 -10   1 201.290 72.2800   1
   5 -10   1 210.050 142.370   1
   5 -10   1 210.460 84.3600   1
  -5  10  -1 -160.34 374.240   1
   8  -4  -5 11288.3 871.870   1
   8  -4  -5 10837.4 555.020   1
  -5  -1  -9 10513.1 1043.58   1
  -5  -1  -9 8833.58 616.690   1
   5   1   9 9466.62 544.480   1
   1   9   0 314.130 132.440   1
  -1  -9   0 202.870 172.120   1
   3 -10   7 21537.6 1026.82   1
  -3  10  -7 19304.1 916.800   1
  -3  10  -7 21403.0 1200.32   1
  -2  10   1 14197.8 931.150   1
   2 -10  -1 16883.7 992.440   1
   0   9  -9 18189.9 880.690   1
   0   9  -9 19649.7 946.900   1
   7  -1  -9 3671.00 467.770   1
   1   9  -7 10906.0 541.960   1
   1   9  -7 11506.4 602.860   1
   7   2   0 765.640 152.480   1
   8  -1  -4 -84.540 194.270   1
  -1   9   4 13279.0 844.490   1
   1  -9  -4 8424.67 643.720   1
  -1  10  -6 12670.3 775.700   1
   1 -10   6 10104.6 577.220   1
   1 -10   6 7697.64 397.980   1
  -2   2  14 7490.54 1021.14   1
  -2   2  14 9935.28 588.860   1
   2  -2 -14 7502.35 548.450   1
  -7  -1  -3 24086.7 1938.26   1
   7   1   3 12177.4 628.570   1
  -3  -3  14 -112.13 91.0500   1
   3   3 -14 371.020 110.670   1
   3   3 -14 142.960 170.760   1
  -1   7 -13 5937.61 361.080   1
   1  -7  13 5729.48 331.470   1
   1  -7  13 5677.12 364.290   1
   1   3 -15 1262.70 241.370   1
  -1  -3  15 1469.41 200.920   1
   2  -7  -9 2597.29 397.160   1
  -2   7   9 2010.71 396.420   1
   0  -4 -12 6295.34 538.780   1
   0   4  12 5466.67 601.000   1
   7  -6   7 6314.70 367.270   1
  -7   7   5 6512.55 912.960   1
   7  -7  -5 4117.00 408.330   1
   7  -7  -5 5591.26 304.060   1
   2   7   5 8064.59 520.270   1
  -2  -7  -5 7553.86 622.420   1
   5   5  -8 776.800 139.690   1
   5   5  -8 893.570 149.650   1
   0  -1  15 403.750 179.090   1
   0   1 -15 658.770 208.930   1
   0  -1  15 877.680 201.430   1
   7  -3  -9 15906.7 1331.10   1
  -1   2  14 16068.9 874.950   1
  -1   2  14 9249.88 1082.81   1
   1  -2 -14 11434.9 807.640   1
  -6  -2  10 3551.95 400.850   1
   6   2 -10 3165.48 348.660   1
   6   2 -10 2991.07 372.540   1
   5 -10   4 2064.92 280.740   1
   5 -10   4 2032.98 210.250   1
  -5  10  -4 2083.46 505.330   1
  -4  -3  13 13768.8 740.680   1
   4   3 -13 15363.3 870.130   1
   4   3 -13 10707.8 623.520   1
   4   6  -9 1625.71 192.840   1
   4   6  -9 1304.20 167.980   1
  -5   0 -10 2359.21 533.340   1
   5   0  10 4394.81 422.400   1
  -5   0 -10 3358.36 414.120   1
   4   5 -11 11781.0 618.610   1
  -4  -5  11 12561.2 717.170   1
   4   5 -11 12360.5 627.340   1
  -4   9   5 5541.83 536.520   1
   4  -9  -5 7993.16 603.300   1
  -1   9 -10 5106.91 334.720   1
   1  -9  10 5014.95 314.130   1
  -3  -4  -9 8366.32 771.320   1
   3   4   9 6215.52 437.770   1
   7  -1   6 8314.34 739.400   1
  -6  -4   6 5276.86 423.480   1
   6   4  -6 4021.70 390.870   1
   0   3  13 915.060 357.560   1
   0  -3 -13 844.180 252.330   1
   0  -3 -13 -41.500 444.150   1
  -5  -2  -8 89.5700 523.920   1
  -5  -2  -8 188.450 218.600   1
   5   2   8 284.150 134.400   1
   2   5   9 3479.71 490.830   1
  -2  -5  -9 2245.25 322.150   1
   3  -9  10 4076.57 381.030   1
  -3   9 -10 4851.19 308.010   1
  -2  -8  -2 1747.38 315.030   1
   2   8   2 1455.72 183.830   1
  -5  10   0 1360.90 353.770   1
   5 -10   0 1630.57 184.610   1
   5 -10   0 1107.12 241.860   1
   5 -10   0 1170.72 192.560   1
  -2  -1  15 -152.47 162.370   1
   2   1 -15 171.160 178.710   1
   2   1 -15 54.9300 126.530   1
   2  -7  13 1512.11 180.360   1
  -2   7 -13 1634.40 186.640   1
   2  -7  13 1611.26 171.760   1
  -4   7   9 456.630 374.280   1
   4  -7  -9 534.130 205.200   1
   6   4   0 5238.22 304.640   1
  -2   9   5 5839.39 492.670   1
   2  -9  -5 5844.57 421.870   1
  -1  10   0 25.6800 109.000   1
   1 -10   0 -5.9800 156.080   1
  -5   9  -8 2174.10 244.440   1
   5  -9   8 1709.35 181.970   1
   8  -1   1 17272.1 905.890   1
   8  -1   1 11959.1 762.330   1
  -8   6   3 1193.86 502.770   1
   8  -6  -3 182.810 88.9600   1
  -6   3  11 -321.50 450.940   1
   6  -3 -11 -192.13 263.600   1
  -6   3  11 -12.070 122.760   1
   6  -3 -11 74.3700 117.610   1
  -3  10   2 1815.78 334.960   1
   3 -10  -2 1779.94 275.880   1
   0   5  11 398.320 203.670   1
   0  -5 -11 1230.22 277.000   1
   2   2 -15 7599.20 458.540   1
   2   2 -15 7428.07 556.460   1
  -2  -2  15 8155.84 482.370   1
   7   2  -6 4864.16 307.100   1
  -6   0  -8 803.680 369.860   1
   5   5   2 1461.86 178.190   1
  -5  -5  -2 1443.66 285.330   1
   1  -3  15 1177.14 218.000   1
  -1   3 -15 974.000 170.210   1
   1  -3  15 948.950 165.280   1
   6  -4  10 3565.96 382.360   1
   1  -6  14 6975.32 383.300   1
   1  -6  14 8450.34 499.520   1
  -1   6 -14 6911.66 412.760   1
  -7   0  -5 -600.82 531.870   1
   7   0   5 -216.54 321.400   1
   0  -7  -8 10827.5 808.470   1
   0   7   8 6946.97 568.580   1
   0   4 -15 1927.87 239.310   1
   0  -4  15 2080.18 238.790   1
  -1   8 -12 8328.40 452.270   1
   1  -8  12 8393.45 457.020   1
   8  -6   3 1273.06 322.590   1
   8  -6   3 1548.60 183.220   1
  -6   7  -9 1989.10 222.500   1
   6  -7   9 2238.53 222.590   1
  -1   0  15 6230.86 869.460   1
  -1   0  15 7204.45 466.710   1
   1   0 -15 7505.93 549.290   1
   0  -9  -3 2658.61 331.830   1
   0   9   3 2144.28 240.720   1
   2  -8  12 3414.29 343.100   1
   2  -8  12 2404.26 271.250   1
  -2   8 -12 2268.11 232.870   1
   8  -4   4 4799.87 318.210   1
   0   7 -13 821.960 172.910   1
   0  -7  13 683.760 118.710   1
   0  -7  13 747.670 176.650   1
   7   1  -8 28214.4 2068.26   1
   2   8  -9 -81.250 105.390   1
   2   8  -9 -78.130 117.370   1
  -4  -2 -10 31703.5 3005.85   1
  -4  -2 -10 16397.6 973.100   1
   7  -8  -3 1352.53 130.100   1
   7  -8  -3 1656.51 202.660   1
  -7   8   3 2545.21 610.580   1
  -7   5   8 860.530 423.940   1
  -1   2 -15 15528.3 849.010   1
   1  -2  15 16805.3 860.030   1
   1  -2  15 13144.9 870.730   1
  -4   3  13 3249.26 773.720   1
   4  -3 -13 2965.50 391.080   1
  -4   3  13 3778.39 418.500   1
   8  -1  -5 3028.12 372.240   1
   7  -2   7 17933.6 1084.01   1
   6  -5  10 -234.85 127.470   1
   6   1 -11 3451.23 428.810   1
  -6  -1  11 2134.43 262.180   1
   6   1 -11 1736.12 233.920   1
   8  -3  -6 541.040 212.230   1
   6   3  -9 1768.76 217.250   1
   6   3  -9 1919.91 221.110   1
  -4  -7   4 1105.29 266.760   1
   4   7  -4 916.100 145.550   1
  -4   4 -13 3620.14 377.610   1
   4  -4  13 4264.74 375.630   1
   4  -4  13 4590.80 296.770   1
  -3   2  14 2802.01 364.090   1
  -3   2  14 2436.91 569.410   1
   3  -2 -14 2054.11 314.680   1
   0   6 -14 945.320 173.090   1
   0  -6  14 750.760 164.420   1
   8  -5   4 9858.07 539.990   1
  -4  -7   3 12603.8 770.530   1
   4   7  -3 12850.0 646.400   1
   4   1  11 912.180 218.210   1
  -4  -1 -11 601.730 422.030   1
  -4  -1 -11 396.300 213.530   1
   6   1   7 1896.60 459.850   1
   6  -9   6 5955.11 405.190   1
   6  -9   6 5011.28 282.740   1
   5 -10   5 2978.55 334.980   1
   5 -10   5 2490.21 262.740   1
   7   2   1 6654.37 389.770   1
   4 -10  -2 17311.8 1023.04   1
  -4  10   2 12543.3 1050.09   1
   7   0  -9 1866.50 338.570   1
   6  -8   8 4770.20 288.780   1
  -6   8  -8 6559.00 393.790   1
  -7   6   7 9758.68 1128.25   1
   1   1  14 353.430 198.280   1
  -1  -1 -14 -51.470 226.990   1
   0   8   6 4504.13 575.240   1
   0  -8  -6 3475.79 414.390   1
   7  -8   5 8259.64 442.310   1
  -1  10  -7 19073.5 1092.39   1
   1 -10   7 22067.7 1042.23   1
  -1  10  -7 23476.8 1109.24   1
   8  -2  -6 -57.540 142.170   1
   8  -2   3 9193.16 666.380   1
   8  -2   3 10939.0 622.140   1
   4   0 -14 669.190 192.880   1
  -4   0  14 757.600 191.860   1
   4   0 -14 508.060 186.220   1
   6  -9  -3 11278.1 763.950   1
  -6   9   3 13219.5 1182.48   1
   6  -9  -3 8458.81 499.000   1
   6  -9  -3 7661.79 410.230   1
   4  -8  11 1253.81 183.360   1
  -4   8 -11 933.020 147.800   1
   4 -10   7 2294.32 226.250   1
   3   8  -4 1621.31 196.840   1
  -3  -8   4 1849.91 237.030   1
   5   0 -13 207.710 143.920   1
  -5   0  13 -67.850 119.280   1
   5   0 -13 -127.35 175.530   1
   8  -5  -5 1044.61 165.070   1
   8  -5  -5 955.510 302.620   1
   4  -3  13 1279.28 275.770   1
   4  -3  13 1170.91 210.630   1
  -4   3 -13 1353.01 203.170   1
  -1  -7  -7 -81.300 224.110   1
   1   7   7 26.1900 165.460   1
  -2   0  15 -39.910 389.200   1
   2   0 -15 177.740 207.850   1
  -2   0  15 320.530 129.220   1
   2   0 -15 -18.050 137.020   1
   3   7   3 4793.59 299.550   1
  -3  -7  -3 3694.67 468.650   1
   3   0  13 964.650 224.680   1
  -3   0 -13 805.330 249.070   1
  -3  -8   3 789.760 200.540   1
   3   8  -3 713.270 141.730   1
   6  -1   9 1065.05 356.610   1
   1  -8  -7 2372.52 357.570   1
  -1   8   7 1432.22 357.840   1
   1   9   1 1634.07 211.220   1
  -1  -9  -1 1119.72 207.520   1
  -4  -7   5 5054.20 384.490   1
   4   7  -5 4272.77 330.000   1
  -4  -6  -3 20336.2 1245.90   1
   4   6   3 18373.1 893.070   1
   4   6   3 21464.2 1154.46   1
   6  -3  10 8179.96 594.830   1
   4   1 -14 939.760 196.740   1
   4   1 -14 185.650 164.630   1
  -4  -1  14 1001.44 181.570   1
   1   9  -8 15402.5 745.830   1
   1   9  -8 14506.1 725.250   1
   5  -1 -13 456.670 182.410   1
  -5   1  13 1027.33 202.390   1
   5  -1 -13 475.980 260.970   1
   1  -4  15 936.500 180.490   1
   1  -4  15 871.800 157.040   1
  -1   4 -15 630.830 153.030   1
   3  -3  14 5126.38 375.260   1
   3  -3  14 5784.80 378.440   1
  -3   3 -14 5269.10 385.740   1
   3  -4  14 19204.7 1001.41   1
  -3   4 -14 18867.0 1016.49   1
   3  -4  14 21542.1 1105.75   1
   4  -7  12 4020.46 395.120   1
  -4   7 -12 5354.11 401.710   1
   4  -7  12 5274.27 381.150   1
  -4  -7   2 8992.11 610.230   1
   4   7  -2 8418.72 448.960   1
  -5  10   1 4334.33 795.230   1
   5 -10  -1 5315.97 327.150   1
   5 -10  -1 5183.82 299.610   1
   5 -10  -1 5753.25 452.540   1
   8  -3   4 1463.01 229.930   1
  -5  -4  -5 2539.06 396.300   1
   5   4   5 1985.16 221.280   1
   5   4   5 2607.28 373.820   1
   2 -10   8 2536.81 260.060   1
   2 -10   8 2223.58 219.740   1
  -2  10  -8 3446.64 344.820   1
  -2  10  -8 3296.88 465.040   1
   1   4 -15 1702.89 219.870   1
  -1  -4  15 1995.86 238.500   1
  -3  -8   5 864.060 190.790   1
   3   8  -5 511.510 128.020   1
  -2  10   2 2983.97 405.850   1
   2 -10  -2 4635.72 456.120   1
  -5   8   7 13905.6 1273.76   1
   5  -8  -7 12135.6 869.250   1
  -8   7   0 18980.1 1328.58   1
   8  -7   0 17063.5 840.700   1
   8   0  -2 63.2900 192.480   1
   5  -5 -11 3717.59 479.780   1
  -5   5  11 3263.48 686.070   1
   8  -4  -6 8745.12 845.480   1
   8  -4  -6 8108.34 440.430   1
   0 -10   4 210.040 146.560   1
   0  10  -4 117.680 84.8800   1
   6   4  -7 481.460 122.390   1
   6   4  -7 422.010 123.460   1
  -2  -6  13 3908.73 427.050   1
   2   6 -13 4036.09 419.250   1
   2   6 -13 4125.50 430.580   1
  -7   4   9 14046.7 1175.11   1
   7  -4  -9 7908.65 709.060   1
   3 -10   8 27267.1 1939.33   1
  -3  10  -8 33020.8 2337.27   1
   0  10  -3 1089.01 187.600   1
   0 -10   3 859.250 197.540   1
   8  -7   1 12904.3 661.180   1
   5  -1  11 896.610 328.290   1
   5  -1  11 2069.10 244.190   1
  -5   1 -11 2196.30 309.640   1
   4  -5  13 13187.4 712.170   1
  -4   5 -13 12420.7 697.890   1
   4  -5  13 11340.6 632.810   1
  -4  -3  -9 2548.11 468.720   1
   4   3   9 1226.00 205.530   1
   1   8 -11 2968.66 296.210   1
   1   8 -11 4215.39 407.280   1
  -2  -3  15 12782.5 675.820   1
   2   3 -15 10026.7 582.760   1
   2   3 -15 7086.89 529.370   1
   0   0  15 4066.19 575.000   1
   0   0  15 8103.70 495.360   1
   0   0 -15 7322.71 506.770   1
   8   0  -3 5084.67 331.270   1
  -8   0   3 2936.79 562.050   1
   3   5 -13 14355.1 734.990   1
  -3  -5  13 12892.1 696.070   1
   3   5 -13 10973.5 581.750   1
  -5   6  10 4772.82 772.170   1
   5  -6 -10 6883.31 576.710   1
   7  -4   8 -55.100 141.660   1
  -3  -8   2 337.350 169.490   1
   3   8  -2 148.580 73.9600   1
   2  -6  14 7801.86 426.960   1
  -2   6 -14 8121.18 489.050   1
   2  -6  14 7980.91 475.580   1
  -5   8 -10 6599.37 390.180   1
   5  -8  10 5180.22 313.980   1
  -2   5  12 10220.4 1060.83   1
   2  -5 -12 12747.6 866.930   1
   0   2  14 1991.18 529.890   1
   0  -2 -14 1913.73 313.370   1
   0   2  14 2676.07 337.240   1
  -1   7   9 11006.7 855.610   1
   1  -7  -9 16149.4 1041.20   1
   7  -5   8 10766.0 582.220   1
   6  -5 -10 7654.32 606.100   1
  -6   5  10 12273.8 685.070   1
  -6   5  10 9546.02 928.770   1
   8  -1   2 11964.2 759.010   1
   8  -1   2 20542.3 1057.42   1
   2   0  14 12378.6 990.440   1
   2   0  14 34166.2 2476.60   1
  -2   0 -14 32688.5 2460.34   1
  -2  -5  14 8916.13 524.230   1
   2   5 -14 7550.88 456.090   1
   2   5 -14 10517.6 590.120   1
  -8   7   1 12210.6 1129.88   1
   8  -7  -1 10308.3 559.380   1
  -3   5  12 3264.48 602.420   1
   3  -5 -12 3608.45 497.090   1
   8   0  -1 2070.18 262.800   1
   8   0  -1 1100.67 294.100   1
  -8   0   1 2798.04 654.250   1
  -4   1  14 12451.3 1146.37   1
   4  -1 -14 9290.61 897.910   1
   4  -1 -14 12293.4 737.530   1
  -4   1  14 13534.1 768.240   1
   6  -6  -9 2444.76 370.670   1
  -6   6   9 3179.64 721.510   1
   6   4   1 3615.70 345.360   1
  -8   6   4 13398.5 1058.66   1
   8  -6  -4 10715.8 548.160   1
   8  -6  -4 8377.72 479.860   1
   1   6   9 9732.43 641.040   1
  -1  -6  -9 15325.0 1042.09   1
   1  -1  15 4879.24 479.470   1
   1  -1  15 7628.21 511.040   1
  -1   1 -15 8169.35 542.050   1
   0  10  -5 184.100 86.9700   1
   0 -10   5 233.020 115.560   1
   5   1 -13 9663.74 551.760   1
   5   1 -13 11608.2 794.180   1
  -5  -1  13 10810.5 598.590   1
   5  -7  11 199.030 115.050   1
  -5   7 -11 195.550 96.1500   1
   5  -7  11 317.830 89.7800   1
   2  -4 -13 1365.65 255.210   1
  -2   4  13 513.000 462.220   1
   1 -10  -1 669.900 190.300   1
  -1  10   1 350.620 131.910   1
  -5  -3  -7 11342.2 842.560   1
   5   3   7 6807.59 480.040   1
   0  10  -2 4385.66 395.670   1
   0 -10   2 3954.74 470.380   1
   6  -6  10 4934.86 299.730   1
   4   7  -6 4695.08 260.580   1
  -4  -7   6 5919.50 496.500   1
   7  -7   7 6170.71 332.980   1
   5   5  -9 1685.72 210.380   1
   5   5  -9 1316.19 142.820   1
   6  -8  -6 7550.44 646.070   1
  -6   8   6 8826.78 1104.22   1
   6   3   4 143.850 114.500   1
   8  -7   2 6677.18 373.280   1
   5  -4  12 2799.69 325.260   1
   5  -4  12 2134.34 245.400   1
  -5   4 -12 2151.96 252.700   1
   7   2  -7 9324.66 511.090   1
   0  -8  12 756.470 131.270   1
   0   8 -12 440.160 117.770   1
   0   8 -12 1112.98 191.140   1
   3   7 -10 10921.6 592.300   1
   3   7 -10 9764.60 498.950   1
   8  -6   4 8840.67 477.900   1
   7   1   4 9463.42 518.970   1
  -7  -1  -4 18707.9 1411.40   1
   5  -9  -5 6703.39 557.340   1
  -5   9   5 4792.24 813.700   1
   3  -8  12 13933.3 753.160   1
  -3   8 -12 13671.3 680.890   1
   3  -8  12 15473.5 1202.99   1
   8   0  -4 10668.9 882.880   1
   5   6  -4 2057.86 185.750   1
  -5  -6   4 2623.31 330.460   1
  -5  -6   3 5252.70 587.780   1
   5   6  -3 3607.62 320.090   1
  -3  -8   6 8719.43 781.170   1
   3   8  -6 7725.76 625.550   1
   0   9 -10 7330.59 597.180   1
   0  -9  10 6054.72 545.480   1
   0   9 -10 7812.28 633.610   1
  -4   0 -12 5799.44 604.200   1
   4   0  12 5327.68 510.710   1
   4   7  -1 2836.91 243.540   1
  -4  -7   1 3387.77 288.420   1
   3  -2  14 1639.55 295.790   1
   3  -2  14 2320.98 270.680   1
  -3   2 -14 2027.40 237.920   1
   8  -1  -6 2962.36 428.080   1
   0   6  10 299.000 222.900   1
   0  -6 -10 -75.650 273.690   1
  -3  -6  -6 1210.60 299.610   1
   3   6   6 1360.91 243.700   1
   5 -10   6 1325.10 163.910   1
   5 -10   6 1134.39 125.660   1
   3  -8  -8 884.010 231.590   1
  -3   8   8 836.190 258.070   1
  -7   7   6 12631.4 1530.79   1
   3  -6 -11 3100.95 454.040   1
  -3   6  11 2310.82 623.290   1
   3  -5  14 5087.23 465.680   1
   3  -5  14 5769.02 528.130   1
  -3   5 -14 5472.53 486.530   1
   5   3 -12 -223.18 111.640   1
  -5  -3  12 -13.640 120.340   1
   5   3 -12 21.7200 108.720   1
  -3   4  13 8686.92 747.730   1
  -3   4  13 7309.50 902.090   1
   3  -4 -13 8160.19 781.330   1
   3  -7  13 1855.07 177.630   1
   3  -7  13 1340.00 155.700   1
  -3   7 -13 1629.90 168.350   1
  -4   2 -13 1341.79 219.230   1
   4  -2  13 2027.46 229.720   1
   4  -2  13 1290.71 322.110   1
  -1  -8  -5 17025.7 1535.95   1
   1   8   5 14358.6 1194.72   1
   6   2   6 1446.90 233.200   1
   5  -2 -13 524.300 318.520   1
   5  -2 -13 165.450 158.140   1
  -5   2  13 667.710 158.110   1
  -5   2  13 145.110 486.280   1
  -3  -4  14 -125.25 114.360   1
   3   4 -14 4.75000 124.920   1
   3   4 -14 -108.14 115.340   1
   4   2 -14 9243.36 834.290   1
   4   2 -14 10896.3 896.550   1
  -4  -2  14 15194.6 1218.65   1
   5  -5  12 2669.95 288.340   1
  -5   5 -12 1905.55 219.520   1
   5  -5  12 1902.75 210.410   1
  -5   4  12 3540.92 766.730   1
   5  -4 -12 3398.21 284.800   1
  -5   4  12 4733.08 443.810   1
   3   6 -12 5668.80 495.190   1
  -3  -6  12 6142.17 561.550   1
   3   6 -12 9297.48 784.190   1
   8   0   0 1069.03 167.810   1
  -8   0   0 637.060 471.660   1
   8   0   0 284.450 215.220   1
   7  -3   8 3674.33 436.180   1
   7  -8  -4 841.860 124.880   1
   7  -8  -4 642.390 115.040   1
  -7   8   4 481.860 518.370   1
   8  -7  -2 2743.87 253.050   1
  -8   7   2 3553.06 642.570   1
  -4   9 -10 474.130 123.580   1
   4  -9  10 506.580 99.8400   1
   2  -6 -11 4448.80 539.100   1
  -2   6  11 3300.53 492.020   1
   3   8  -1 1417.92 150.780   1
  -3  -8   1 1829.96 296.840   1
  -5  -6   5 206.410 157.690   1
   5   6  -5 10.0500 64.5000   1
   4   6 -10 5175.18 457.340   1
   4   6 -10 6629.01 548.560   1
  -7   9  -1 2716.97 612.420   1
   7  -9   1 2359.65 204.670   1
   5   6  -2 9063.27 719.310   1
  -5  -6   2 8281.97 786.660   1
  -3  -5  -8 18189.4 1622.53   1
   3   5   8 14164.7 1142.06   1
   3 -10  -3 7059.52 726.700   1
  -3  10   3 3851.30 542.640   1
   7   2   2 8614.94 704.640   1
   5   4 -11 1511.96 164.230   1
  -5  -4  11 1943.36 220.040   1
   5   4 -11 1499.52 166.090   1
   5  -3  12 7769.45 745.420   1
   5  -3  12 7046.80 627.120   1
  -5   3 -12 7104.34 674.690   1
   2  -9  11 623.570 97.4900   1
  -2   9 -11 472.670 106.200   1
   2   8   3 378.710 163.070   1
  -2  -8  -3 374.810 204.280   1
   7  -9   2 2138.86 196.300   1
  -7   9  -2 2901.55 607.340   1
   7  -2 -10 1684.72 294.350   1
   1   6 -14 3843.58 339.750   1
  -1  -6  14 4663.03 421.720   1
   0  10  -6 2003.17 249.930   1
   0 -10   6 2163.35 237.800   1
   3  -9  -6 3517.80 431.060   1
  -3   9   6 2573.87 443.850   1
   1 -10   8 7869.16 675.950   1
  -1  10  -8 7802.40 759.390   1
   1 -10   8 7683.76 621.220   1
  -1  10  -8 9063.89 744.140   1
   1  -9  -5 13003.5 1132.16   1
  -1   9   5 10368.9 976.200   1
  -3  -1  15 8210.85 694.480   1
   3   1 -15 6943.85 598.540   1
   3   1 -15 4974.77 542.840   1
   4   5   6 6817.32 610.710   1
  -4  -5  -6 5263.60 627.700   1
  -6   4  11 655.440 464.400   1
  -6   4  11 950.640 179.380   1
   6  -4 -11 655.550 177.470   1
   0  -5  15 8410.54 694.250   1
   0   5 -15 7202.13 605.860   1
   7  -6   8 12447.0 996.710   1
   8  -4   5 10466.3 898.100   1
  -5  -5  -3 1065.14 225.430   1
   5   5   3 756.200 113.850   1
   0  10  -1 19744.9 1609.70   1
   0 -10   1 12677.2 1134.81   1
  -5   7   9 16327.1 1611.41   1
   5  -7  -9 13801.4 1229.02   1
  -6   1  12 3546.63 361.710   1
   6  -1 -12 2555.39 379.770   1
   6  -1 -12 3315.46 243.470   1
   7  -8   6 8813.65 705.120   1
   7  -1 -10 -276.69 149.790   1
   1  -1 -15 520.070 252.740   1
  -1   1  15 393.580 195.630   1
  -1   1  15 -117.22 375.350   1
  -5  10   2 3559.21 529.570   1
   5 -10  -2 4176.82 491.700   1
   2   9  -4 5852.50 478.750   1
  -2  -9   4 7573.11 742.760   1
   7  -9   0 4288.24 381.390   1
  -7   9   0 5177.49 1073.54   1
   7  -9   0 4035.67 337.140   1
   8  -5   5 12659.4 1063.67   1
   2  -1 -15 3618.03 412.530   1
   2  -1 -15 2004.47 384.680   1
  -2   1  15 2779.77 634.220   1
  -2   1  15 4211.38 434.810   1
   6  -2  10 3520.19 420.730   1
   6  -9   7 23633.3 561.480   1
   6  -9   7 20439.4 1571.30   1
   4 -10  -3 1596.19 272.810   1
  -4  10   3 1336.98 330.750   1
   6  -7  -8 -0.6200 167.320   1
  -6   7   8 -503.59 414.240   1
   2   3  12 2984.42 479.710   1
  -2  -3 -12 4840.27 541.510   1
  -2  -3 -12 6291.00 1107.10   1
   8  -7   3 2023.66 202.420   1
   2   7 -12 131.770 93.9400   1
   2   7 -12 111.090 90.1100   1
   8  -3  -7 1476.82 355.560   1
  -4   8   8 4336.50 670.850   1
   4  -8  -8 4486.36 536.360   1
   1  -4 -13 6589.55 670.050   1
  -1   4  13 5449.86 805.740   1
  -2  -9   3 10524.1 967.060   1
   2   9  -3 8220.52 663.940   1
   2   9  -3 9304.82 830.300   1
   1   7 -13 27076.3 500.170   1
   1   7 -13 22558.5 434.220   1
  -1  -7  13 26222.2 573.010   1
  -1   5 -15 3316.94 216.210   1
   1  -5  15 3705.27 357.210   1
   1  -5  15 3751.93 337.000   1
   8  -2  -7 233.950 185.520   1
   1  -5 -12 2214.22 305.420   1
  -1   5  12 2130.69 432.470   1
   8   0  -5 16187.7 1355.17   1
   2  -8  -8 7571.68 751.540   1
  -2   8   8 5018.95 724.780   1
   8  -2   4 3409.74 284.320   1
   2  -3  15 4967.57 489.320   1
   2  -3  15 5916.90 541.810   1
  -2   3 -15 5755.62 546.230   1
  -3   0  15 4140.00 400.700   1
   3   0 -15 2859.71 323.640   1
   3   0 -15 2315.31 333.300   1
   5  -9   9 8418.00 665.700   1
  -5   9  -9 9664.83 797.050   1
  -6   9   4 7163.74 1167.72   1
   6  -9  -4 8815.54 888.340   1
  -4  10  -8 3.41000 87.8100   1
   4 -10   8 170.810 63.4200   1
   2   8 -10 388.330 121.610   1
   2   8 -10 229.180 99.6400   1
   6 -10   2 10629.9 914.290   1
   6 -10   2 10005.9 802.210   1
  -6  10  -2 16954.5 2043.68   1
   6 -10   2 11410.8 889.030   1
   7  -9   3 5630.04 467.320   1
  -4   9   6 2453.90 524.530   1
   4  -9  -6 3597.21 474.340   1
   1  -9  11 4046.50 349.590   1
  -1   9 -11 4093.83 347.910   1
   4   7  -7 6088.37 516.230   1
   4   7  -7 5736.43 481.460   1
  -2  -6  -8 5339.79 672.400   1
   2   6   8 5204.28 514.460   1
   2   9  -5 946.280 124.410   1
  -2  -9   5 1662.27 234.160   1
   7   1  -9 3692.18 363.420   1
   8  -5  -6 3884.04 664.350   1
   8  -5  -6 4311.98 370.170   1
  -8   5   6 5736.34 827.420   1
   4  -6  13 11370.7 915.380   1
  -4   6 -13 18825.4 1536.36   1
   4  -6  13 18587.4 1490.46   1
   4   4 -13 5507.90 488.770   1
   4   4 -13 8207.13 693.550   1
  -4  -4  13 7381.00 635.610   1
   1   9   2 4378.68 416.460   1
  -1  -9  -2 2760.92 336.990   1
   2  -3 -14 3356.76 320.740   1
  -2   3  14 4000.38 403.050   1
  -2   3  14 3846.64 754.460   1
  -6   0  12 1896.09 233.250   1
   6   0 -12 1646.53 297.950   1
   6   0 -12 1256.51 200.250   1
   6   2 -11 140.130 111.970   1
  -6  -2  11 221.730 111.260   1
   6   2 -11 32.7100 95.9400   1
   7   3  -3 2513.82 234.690   1
   2   7   6 4709.89 427.820   1
  -2  -7  -6 6910.23 742.820   1
   3   8  -7 17671.6 1364.03   1
   1   9  -9 5053.38 432.220   1
   1   9  -9 5791.66 485.120   1
   3   2 -15 6655.75 656.050   1
   3   2 -15 7543.20 691.480   1
  -3  -2  15 9223.56 793.240   1
   6 -10   1 11012.7 881.260   1
   6 -10   1 13873.3 1182.78   1
  -6  10  -1 21949.0 1559.18   1
   6 -10   1 13337.7 1036.80   1
   6   4  -8 8566.46 701.190   1
   6   4  -8 10901.7 905.580   1
   4  -5 -12 9271.93 851.100   1
  -4   5  12 7943.21 1032.52   1
  -5  -6   6 1301.80 221.130   1
   5   6  -6 956.050 131.070   1
   0   9   4 449.160 139.630   1
   0  -9  -4 749.210 199.210   1
  -6   2  12 7315.81 635.140   1
   6  -2 -12 6767.07 830.150   1
   6  -2 -12 5575.00 508.560   1
  -2   4 -15 12020.1 1038.34   1
   2  -4  15 11110.1 916.240   1
   2  -4  15 13197.5 1076.73   1
  -6  10  -3 21399.4 1537.20   1
   6 -10   3 23070.5 732.790   1
   6 -10   3 17974.9 1401.04   1
  -5  -6   1 12068.3 1072.96   1
   5   6  -1 9882.23 782.470   1
   7  -1   7 10128.7 1024.10   1
   7  -3 -10 15938.0 1683.52   1
  -4  -7   0 6466.51 679.070   1
   4   7   0 6178.14 517.410   1
   2   4  11 14123.4 1268.83   1
  -2  -4 -11 21853.9 939.640   1
   2   9  -2 10908.8 1020.62   1
   2   9  -2 7089.66 589.940   1
  -2  -9   2 6664.55 691.220   1
   7   3  -4 3647.54 321.700   1
   7   3  -2 1708.07 177.340   1
  -2  -2 -13 534.940 406.180   1
  -2  -2 -13 1046.14 202.160   1
   2   2  13 1566.77 229.110   1
   4  -6 -11 7911.42 784.650   1
  -4   6  11 8525.55 1090.64   1
  -4  -4  -8 427.540 274.480   1
   4   4   8 227.520 163.060   1
  -4   2  14 10289.3 1302.64   1
   4  -2 -14 7520.34 923.970   1
   4  -2 -14 11122.9 1012.38   1
  -4   2  14 13035.2 1095.11   1
   8  -1   3 10042.5 920.990   1
   8  -1   3 14517.2 1166.21   1
   4   5 -12 8905.03 734.820   1
  -4  -5  12 9161.36 797.730   1
   4   5 -12 7358.30 644.520   1
   3  -9  11 2618.41 226.420   1
  -3   9 -11 2356.44 211.750   1
   6   3 -10 11076.8 901.480   1
   6   3 -10 9393.44 766.690   1
   8   0   1 109.710 380.700   1
   7  -9  -1 12675.5 982.040   1
  -7   9   1 17204.9 2045.60   1
   7  -9  -1 10527.5 844.240   1
   7   0   6 -97.700 407.750   1
  -7   0  -6 1182.77 480.850   1
  -2  10  -9 4035.34 358.430   1
   2 -10   9 3827.94 355.550   1
   8  -7  -3 15742.0 1221.85   1
  -8   7   3 19424.7 2045.22   1
   8  -7  -3 15944.0 1270.01   1
  -8   6   5 5065.67 684.510   1
   8  -6  -5 3287.20 141.410   1
  -1  -4 -12 9932.95 954.260   1
   1   4  12 4842.84 692.360   1
   8  -3   5 3410.21 255.130   1
   5   2 -13 11223.6 969.550   1
  -5  -2  13 12882.6 1054.37   1
   5   2 -13 14481.5 1218.52   1
   2 -10  -3 12587.0 1140.78   1
  -2  10   3 9452.22 914.450   1
  -2  -4  15 8398.20 704.000   1
   2   4 -15 7836.65 680.870   1
   2   4 -15 5722.05 529.610   1
   6   4   2 4059.90 349.780   1
  -2   9   6 8208.50 889.210   1
   2  -9  -6 10304.2 960.810   1
  -2   2 -15 281.670 159.750   1
   2  -2  15 630.950 177.050   1
   2  -2  15 533.360 193.520   1
   1   3  13 4288.75 602.090   1
  -1  -3 -13 5862.11 963.640   1
  -1  -3 -13 6648.44 722.620   1
  -3  -2 -12 14435.5 1341.49   1
   3   2  12 17727.7 1468.50   1
  -3  -2 -12 14230.6 1509.93   1
   3   3  11 -48.770 189.050   1
  -3  -3 -11 679.030 715.750   1
  -3  -3 -11 34.6400 261.930   1
   5  -6  12 -45.880 111.330   1
   5  -6  12 -26.490 97.2200   1
  -5   6 -12 -187.22 105.700   1
   3   8   0 1197.32 139.640   1
  -3  -8   0 1223.66 222.960   1
   3   8   0 1175.25 196.810   1
   8  -4  -7 5437.07 717.380   1
   1 -10  -2 990.440 193.380   1
  -1  10   2 1019.34 165.420   1
   0  10  -7 1926.13 284.700   1
   0 -10   7 4354.60 410.170   1
   2   9  -6 73.3800 99.8300   1
  -2  -9   6 41.6100 101.250   1
   3 -10   9 9208.62 737.890   1
  -3  10  -9 10553.2 848.650   1
   6 -10   0 7720.07 719.930   1
   6 -10   0 6567.52 521.290   1
   6 -10   0 8137.98 671.520   1
  -6  10   0 11894.3 1669.23   1
   3  -7 -10 22389.6 947.880   1
  -3   7  10 19987.0 1963.64   1
  -6   8  -9 2004.96 196.770   1
   6  -8   9 2294.42 207.600   1
  -3  -7  -4 2695.15 393.470   1
   3   7   4 2285.19 238.020   1
   8  -6   5 2854.80 260.030   1
  -4  -6  -4 13756.0 1237.61   1
   4   6   4 15555.4 1298.08   1
  -1   3  14 3298.77 516.240   1
   1  -3 -14 4533.40 524.020   1
  -1   3  14 5859.30 563.930   1
   3  -3 -14 9434.62 847.300   1
  -3   3  14 11899.4 988.560   1
  -3   3  14 9995.89 1489.97   1
   7   0 -10 3396.32 331.310   1
   1   0  15 -167.87 150.420   1
   1   0  15 244.280 260.190   1
  -1   0 -15 231.700 187.930   1
  -1  -5  15 4307.25 399.940   1
   1   5 -15 3248.04 179.470   1
   5 -10   7 4557.70 438.540   1
   5 -10   7 3775.36 328.660   1
   7   2  -8 1382.04 159.060   1
   6 -10   4 12894.3 1103.74   1
   6 -10   4 12188.9 958.410   1
   0  10   0 18184.2 1460.68   1
   0 -10   0 14981.7 1295.83   1
   7  -9   4 1807.71 166.970   1
  -7   6   8 14212.2 1591.94   1
  -7   5   9 1401.67 516.710   1
   7   3  -5 5482.04 458.760   1
   7   3  -1 684.820 121.760   1
   8  -1  -7 11507.8 1056.10   1
   3  -1  14 663.590 295.550   1
   3  -1  14 430.320 176.740   1
  -3   1 -14 625.990 209.170   1
   5  -2  12 8200.51 797.740   1
  -5   2 -12 6824.43 618.920   1
   5  -2  12 8514.53 749.460   1
  -5  -1 -10 9818.06 960.650   1
  -5  -1 -10 16086.2 1684.34   1
   5   1  10 12185.8 1022.36   1
   6  -7  10 6761.30 559.020   1
  -1   6  11 3508.82 527.140   1
   1  -6 -11 7335.68 779.980   1
  -4   4  13 -257.86 424.630   1
  -4   4  13 9.84000 183.310   1
   4  -4 -13 -481.49 204.170   1
   3  -6  14 372.760 91.9300   1
   3  -6  14 105.080 150.090   1
  -3   6 -14 227.430 145.610   1
   0  -1 -15 11314.4 998.420   1
   0   1  15 13065.1 1145.53   1
   8  -7   4 874.970 140.130   1
   3 -11   3 14425.2 1127.15   1
   3 -11   3 15394.3 1294.91   1
  -3  11  -3 12550.4 1131.03   1
   7  -2   8 6761.15 673.200   1
  -1   7 -14 18043.4 1424.71   1
   1  -7  14 19590.0 1552.95   1
   1  -7  14 20602.2 1609.01   1
   8   0  -6 8342.94 744.600   1
  -2  -9   1 11067.8 1003.92   1
   2   9  -1 16442.0 1313.99   1
   3  -1 -15 824.190 226.290   1
  -3   1  15 1244.10 211.600   1
   3  -1 -15 591.620 291.770   1
  -3   1  15 668.240 326.570   1
   3 -11   4 7956.64 695.510   1
   3 -11   4 6868.66 577.240   1
   3 -11   4 9365.10 750.500   1
  -3  11  -4 6953.63 741.740   1
  -2   7  10 1003.48 338.950   1
   2  -7 -10 1083.00 227.320   1
   5  -3 -13 5360.63 550.700   1
  -5   3  13 7479.83 683.530   1
  -5   3  13 4777.03 802.110   1
   3 -11   2 4674.06 495.580   1
  -3  11  -2 3840.15 489.730   1
  -5  -2  -9 -356.53 224.200   1
  -5  -2  -9 828.100 805.140   1
   5   6  -7 562.760 121.560   1
   4  -1  13 10243.7 875.280   1
   4  -1  13 6059.48 824.790   1
  -4   1 -13 7066.09 701.590   1
   5   5 -10 3620.37 335.440   1
   5   5 -10 3403.71 154.310   1
   4   3 -14 15213.5 1227.03   1
  -4  -3  14 16463.0 1342.93   1
   4   3 -14 11855.4 1003.90   1
   5   6   0 1110.66 131.180   1
  -5  -6   0 1342.41 259.400   1
  -6   0  -9 2483.36 607.970   1
  -6  -1  12 1739.88 207.730   1
   6   1 -12 2399.19 327.980   1
   6   1 -12 1271.15 210.540   1
   1   5  11 -155.75 208.550   1
  -1  -5 -11 1194.11 333.550   1
   1  -8  13 7628.82 625.090   1
   1  -8  13 6738.77 568.320   1
  -1   8 -13 6578.67 551.650   1
   2  -5  15 5440.90 490.730   1
   2  -5  15 4145.42 372.950   1
  -2   5 -15 4162.45 399.860   1
  -7   8   5 -278.28 506.240   1
   7   2   3 6871.96 571.740   1
  -7   9   2 19778.7 2018.50   1
   7  -9  -2 12995.7 1017.72   1
   7  -9  -2 11096.8 904.230   1
   4   7  -8 1777.08 193.500   1
   4   7  -8 1753.30 159.780   1
   5   4   6 11145.0 941.990   1
  -5  -4  -6 13812.3 1349.44   1
   5 -10  -3 10140.5 927.760   1
  -5  10   3 6567.37 842.610   1
  -6  -1  -8 15749.8 1600.41   1
  -4   7  10 -110.26 400.310   1
   4  -7 -10 -189.90 262.270   1
   0   8   7 654.330 179.990   1
   0  -8  -7 1473.76 233.110   1
   2  -8  13 576.720 119.370   1
   2  -8  13 547.980 135.540   1
  -2   8 -13 382.690 120.230   1
   7  -7   8 3251.26 147.480   1
  -1  10  -9 1735.11 187.220   1
   1 -10   9 1161.37 165.630   1
  -1  10  -9 453.420 110.830   1
  -3  -1 -13 8097.00 818.900   1
   3   1  13 8214.58 745.270   1
  -5   0 -11 5862.58 589.930   1
   5   0  11 6655.51 614.960   1
  -6  10   1 2835.80 951.380   1
   6 -10  -1 2441.37 252.500   1
   6 -10  -1 2652.31 339.560   1
   6 -10  -1 2403.53 210.000   1
   3   8  -8 15720.7 1227.56   1
   3   8  -8 13335.7 1063.05   1
  -7  -1  -5 35051.1 1900.91   1
   3   3 -15 191.160 127.840   1
  -3  -3  15 522.690 153.210   1
   3   3 -15 238.540 181.210   1
  -1  -2 -14 1712.25 291.910   1
   1   2  14 1981.30 301.280   1
   4 -11   3 727.570 97.6900   1
  -4  11  -3 264.510 248.100   1
   4 -11   3 652.770 70.1800   1
   4 -11   3 624.720 124.840   1
   6  -3 -12 2496.59 383.600   1
  -6   3  12 3098.87 439.590   1
   6  -3 -12 1548.57 438.230   1
  -6   3  12 3372.87 676.840   1
   6  -4  11 552.010 129.950   1
   3   4  10 5478.31 479.010   1
  -3  -4 -10 7158.14 621.370   1
   6   5  -3 2364.46 316.970   1
   1   8 -12 3800.53 492.710   1
   1   8 -12 2693.62 355.090   1
   6   3   5 222.370 86.0400   1
   6   5  -4 6676.59 400.630   1
   6  -5  11 1434.83 233.400   1
   2   9  -7 209.100 91.4600   1
  -2  -9   7 -105.85 149.690   1
  -1  -2  16 3891.18 527.620   1
   1   2 -16 2500.36 365.360   1
   3   7 -11 8021.83 463.110   1
   3   7 -11 5141.40 328.980   1
   4 -11   2 5039.80 304.340   1
   4 -11   2 5279.92 433.370   1
   4 -11   2 4960.27 348.660   1
  -4  11  -2 4385.86 569.850   1
  -3  11  -5 12288.0 913.670   1
   3 -11   5 11554.4 687.950   1
   3 -11   5 14021.0 864.550   1
   3 -11   5 12933.1 689.750   1
   2  -7  14 -138.44 109.250   1
  -2   7 -14 -30.810 105.460   1
   2  -7  14 54.1000 86.2700   1
  -2  -5 -10 731.390 217.340   1
   2   5  10 647.910 152.870   1
   4  -8  12 172.850 81.6500   1
  -4   8 -12 123.110 101.350   1
   0  -7  -9 1684.55 342.520   1
   0   7   9 1483.13 320.520   1
   5  -9  -6 3455.52 547.560   1
  -5   9   6 3210.32 729.920   1
  -8   0  -2 2172.44 501.600   1
   8   0   2 1167.28 263.940   1
   8   0   2 2008.27 286.250   1
   6 -10   5 4485.95 378.170   1
   6 -10   5 2897.50 374.700   1
  -5   8   8 8411.90 926.640   1
   5  -8  -8 10789.3 858.810   1
   8  -8   1 805.630 89.8100   1
  -8   8  -1 887.210 360.480   1
  -3  10   4 2088.01 411.540   1
   3 -10  -4 2664.14 453.170   1
   7   3  -6 10073.4 573.110   1
  -4  -7  -1 8276.69 728.330   1
   4   7   1 6546.47 391.390   1
   0   7 -14 2272.76 310.360   1
   0  -7  14 2050.83 285.420   1
   7  -8   7 1622.97 222.090   1
   7   3   0 -43.100 76.5100   1
   2 -11   3 -6.4000 153.270   1
  -2  11  -3 53.1300 106.100   1
  -7   7   7 7870.66 1109.66   1
   4 -11   4 115.980 113.340   1
   4 -11   4 204.790 76.7600   1
   4 -11   4 380.150 131.010   1
  -4  11  -4 297.510 265.950   1
   0   9 -11 7048.57 429.810   1
   0   9 -11 7366.54 439.490   1
   0  -9  11 6119.30 430.030   1
  -6   8   7 5849.45 788.650   1
   6  -8  -7 4629.97 461.820   1
   2   1  14 7084.91 524.270   1
  -2  -1 -14 5951.15 550.970   1
  -8   7   4 3676.58 796.430   1
   8  -7  -4 2987.99 381.570   1
   8  -7  -4 2205.31 296.330   1
   3 -11   1 2242.24 362.850   1
  -3  11  -1 989.620 246.600   1
   8  -8   0 6501.31 387.510   1
  -8   8   0 6555.49 919.290   1
   8   1  -3 14802.5 853.880   1
  -8  -1   3 13819.6 1554.19   1
   7  -4 -10 10131.7 1061.62   1
  -7   4  10 17588.8 1471.24   1
   0   2 -16 2687.48 370.170   1
   0  -2  16 2747.68 382.520   1
   2 -11   4 -11.300 137.690   1
  -2  11  -4 4.85000 122.570   1
   8   1  -2 19538.6 1088.68   1
  -8  -1   2 19779.2 1883.27   1
   7  -5   9 15355.9 860.150   1
   0  -3  16 3701.25 489.320   1
   0   3 -16 2319.23 335.520   1
   7  -4   9 1669.72 274.250   1
   1  -8  -8 827.590 236.260   1
  -1   8   8 1099.91 252.530   1
   8  -5   6 7818.25 479.480   1
  -1  -7  -8 7227.86 604.140   1
   1   7   8 5030.01 494.070   1
  -2   1 -15 1032.67 243.640   1
   2  -1  15 509.250 162.170   1
   2  -1  15 64.2700 226.840   1
  -6   9  -8 10063.1 581.100   1
   6  -9   8 6951.43 397.840   1
   6   5  -2 591.070 73.9700   1
   8  -4   6 5225.33 376.230   1
  -5   8 -11 1896.68 264.260   1
   5  -8  11 2039.72 274.850   1
   4 -10  -4 833.280 202.510   1
  -4  10   4 329.030 230.940   1
   7  -9   5 2221.88 284.750   1
   6   5  -5 4702.56 285.650   1
   1   1 -16 14559.5 913.640   1
  -1  -1  16 17868.8 1067.97   1
  -2  -8  -4 6605.52 601.810   1
   2   8   4 12224.1 781.440   1
   0   4  13 7831.95 1065.35   1
   0  -4 -13 11686.6 928.800   1
   0  -4 -13 9790.27 1527.96   1
   8  -8   2 445.220 90.6100   1
   0  10  -8 545.780 95.8100   1
   0  10  -8 438.810 77.5800   1
   0  10  -8 327.900 131.580   1
  -2  11  -2 143.600 129.890   1
   2 -11   2 123.180 145.280   1
   8  -2  -8 15.7500 207.990   1
   8  -2   5 339.160 199.940   1
   4   6 -11 2064.85 300.250   1
   4   6 -11 2716.92 366.660   1
  -5  -5  -4 -310.73 248.680   1
   5   5   4 22.1500 64.6500   1
   5   5   4 -67.130 160.460   1
   3   8   1 2261.77 347.760   1
   3   8   1 1613.00 219.250   1
  -3  -8  -1 1809.86 490.750   1
   6   4  -9 16921.6 919.820   1
   6   4  -9 12701.5 718.150   1
  -1  -3  16 390.460 160.590   1
   1   3 -16 -48.210 179.540   1
   4 -11   1 4528.70 413.850   1
  -4  11  -1 3616.46 600.060   1
   8  -3  -8 2796.75 453.010   1
   8   1  -4 14415.3 845.580   1
   6  -1  10 -77.200 306.350   1
  -6   9   5 4280.43 648.670   1
   6  -9  -5 5174.08 485.640   1
  -4  10  -9 1232.59 192.370   1
   4 -10   9 1094.86 164.870   1
   8  -8  -1 1001.42 152.310   1
  -8   8   1 1452.75 491.960   1
   8   1  -1 4164.38 721.210   1
  -8  -1   1 8637.83 1080.88   1
   8   1  -1 5939.61 360.550   1
  -2   2  15 11866.1 747.440   1
   2  -2 -15 11577.6 814.110   1
  -2   2  15 7145.85 1097.16   1
   2 -11   5 1105.16 215.620   1
  -2  11  -5 1274.61 211.300   1
   8  -5  -7 5232.71 770.940   1
  -8   5   7 7723.60 970.690   1
  -1  -9  -3 9310.46 707.400   1
   1   9   3 8285.08 568.590   1
   1  -6  15 4104.00 633.710   1
  -1   6 -15 3698.40 490.480   1
   1  -6  15 3287.48 421.220   1
   4   2  11 3117.25 454.010   1
  -4  -2 -11 2174.69 349.270   1
  -4  -2 -11 3258.09 780.110   1
   0 -10  -1 7845.83 626.140   1
   0  10   1 8951.48 536.220   1
   8  -1   4 5399.31 458.550   1
   2   9   0 18950.8 1026.43   1
  -2  -9   0 15613.3 995.170   1
   6  -3  11 3395.78 520.130   1
   1   9 -10 4844.91 327.190   1
   1   9 -10 5190.75 324.990   1
   4  -7  13 2230.81 292.520   1
   4  -7  13 2157.71 303.830   1
  -4   7 -13 2613.03 349.000   1
   4 -11   5 350.860 83.4700   1
  -4  11  -5 97.8800 245.240   1
   4 -11   5 441.210 64.8400   1
   4 -11   5 231.740 160.450   1
   8  -6  -6 803.020 72.5100   1
  -8   6   6 834.180 544.390   1
   6  -6 -10 6260.60 533.900   1
  -6   6  10 5511.87 873.640   1
   0   5  12 5936.95 759.430   1
   0  -5 -12 8514.18 770.950   1
   1   8   6 2076.53 335.000   1
  -1  -8  -6 2344.85 410.030   1
   0   6 -15 764.720 105.410   1
   0  -6  15 751.480 107.340   1
   4  -9  11 -61.090 85.0000   1
  -4   9 -11 -53.200 76.3000   1
  -2  -6  14 578.470 103.970   1
   2   6 -14 321.860 116.920   1
   2   6 -14 492.110 135.740   1
   6   4   3 4382.95 280.010   1
   8  -7   5 167.250 104.830   1
   0   8 -13 2306.52 313.110   1
  -5  -3  -8 978.920 273.630   1
   5   3   8 802.460 144.750   1
   3 -11   6 10943.4 660.390   1
  -3  11  -6 12690.4 1017.04   1
   3 -11   6 12785.2 683.540   1
   3 -11   6 11047.1 638.000   1
  -6  -2  -7 4265.60 760.770   1
   6   2   7 1445.03 308.650   1
   2   8 -11 508.460 107.200   1
   2   8 -11 642.220 86.9000   1
   1  -2 -15 3384.90 489.780   1
  -1   2  15 4722.48 357.850   1
  -1   2  15 2794.51 788.240   1
   5   0 -14 3923.94 527.790   1
   5   0 -14 3409.76 511.190   1
  -5   0  14 4788.20 353.630   1
   3   5 -14 1061.91 204.620   1
   3   5 -14 1117.17 185.240   1
  -3  -5  14 1080.60 208.280   1
   6  -6  11 4238.05 646.410   1
   0  -1  16 -177.41 176.010   1
   0   1 -16 -35.370 192.740   1
   6  -5 -11 8167.89 641.140   1
  -6   5  11 10812.7 724.110   1
  -6   5  11 11362.1 1149.72   1
   3   6   7 702.330 116.440   1
  -3  -6  -7 7.45000 235.480   1
   7   1 -10 8010.90 557.770   1
   0   3  14 50.7300 281.920   1
   0   3  14 393.580 223.160   1
   0  -3 -14 88.8000 256.610   1
  -1   9   6 3998.82 605.420   1
   1  -9  -6 5597.98 511.860   1
   8   0  -7 4587.04 390.270   1
   6   5  -1 216.840 82.8900   1
   5  -7  12 2838.28 367.910   1
  -5   7 -12 3969.00 526.110   1
   5  -7  12 4081.34 636.560   1
   5   4 -12 2198.68 316.850   1
  -5  -4  12 2830.51 397.930   1
   5   4 -12 3162.78 421.300   1
   7  -6   9 7026.63 428.910   1
   4   1  12 391.590 134.370   1
  -4  -1 -12 227.830 463.180   1
  -4  -1 -12 -96.430 186.260   1
   5   6  -8 1362.70 216.630   1
   5   6  -8 1458.95 208.920   1
   5  -6 -11 -298.92 244.620   1
  -5   6  11 -15.060 343.170   1
   5 -10   8 7986.12 463.480   1
  -5  10  -8 8807.30 521.710   1
  -1 -10   4 17116.4 1055.77   1
   1  10  -4 17221.7 1041.49   1
  -4   3  14 5991.87 471.160   1
   4  -3 -14 4258.29 740.760   1
  -4   3  14 4125.05 841.110   1
   8  -6   6 4587.08 317.250   1
  -3  11   0 104.910 249.970   1
   3 -11   0 -185.59 173.300   1
   4  -4  14 17126.1 963.690   1
  -4   4 -14 15117.5 881.160   1
   4  -4  14 13518.4 803.930   1
   8  -8   3 1003.59 143.610   1
  -2   9 -12 2235.27 291.520   1
   2  -9  12 2314.35 299.970   1
  -1  10   3 2953.39 482.380   1
   1 -10  -3 2214.49 360.980   1
  -5   9 -10 9842.66 578.350   1
   5  -9  10 8796.38 489.630   1
   6 -10  -2 560.360 86.0100   1
   6 -10  -2 863.020 227.040   1
   6 -10  -2 671.670 136.080   1
  -6  10   2 842.020 649.810   1
   2 -11   1 1780.13 288.220   1
  -2  11  -1 3850.83 661.630   1
  -7   9   3 5283.57 1048.26   1
   7  -9  -3 4153.28 623.270   1
   7  -9  -3 3346.92 456.520   1
   6   5  -6 3237.74 424.900   1
  -2  -1  16 5172.72 411.490   1
   2   1 -16 3812.57 546.990   1
   5   6   1 1857.05 244.970   1
  -5  -6  -1 1711.67 363.830   1
  -2  -2  16 4582.22 366.110   1
   2   2 -16 3952.60 548.950   1
   2 -10  10 4333.97 285.570   1
  -2  10 -10 4515.55 307.500   1
   7  -3   9 465.590 238.810   1
  -3   9   7 597.830 223.330   1
   3  -9  -7 896.740 256.240   1
  -4  -3 -10 4345.75 912.100   1
  -4  -3 -10 2101.39 374.730   1
  -2  10   4 1145.87 284.160   1
   2 -10  -4 719.420 193.690   1
   5  -5 -12 1160.12 254.050   1
  -5   5  12 796.600 389.470   1
  -5   5  12 1650.07 278.950   1
  -1 -10   3 8439.54 667.360   1
   1  10  -3 9608.70 595.690   1
   8   1  -5 10353.1 631.320   1
   0  -4  16 2287.74 323.130   1
   0   4 -16 2104.72 310.030   1
   5  -1 -14 3306.42 510.930   1
  -5   1  14 6271.98 453.690   1
   5  -1 -14 4396.51 394.700   1
   3   6 -13 6160.21 434.380   1
   3   6 -13 9391.94 573.240   1
  -3  -6  13 8551.68 570.290   1
   8  -3   6 1498.95 246.130   1
   3  -8  13 5052.09 317.370   1
   3  -8  13 4859.36 355.900   1
  -3   8 -13 4519.40 303.420   1
   5   3 -13 141.530 126.460   1
  -5  -3  13 147.090 146.800   1
   5   3 -13 -54.270 146.030   1
   8  -1  -8 13285.9 987.940   1
   7   2  -9 6664.47 429.910   1
   7  -2 -11 2142.71 482.080   1
   1  10  -5 7238.04 420.560   1
   1  10  -5 10155.6 731.430   1
  -1 -10   5 7843.61 580.540   1
   1  -7 -10 5212.08 456.860   1
  -1   7  10 2859.29 556.980   1
   4 -11   0 10308.2 716.240   1
  -4  11   0 7486.34 812.580   1
   7  -1 -11 7856.54 620.740   1
   8   1   0 478.640 136.920   1
   8   1   0 391.060 203.280   1
  -8  -1   0 52.6500 623.640   1
  -1   3 -16 951.220 215.870   1
   1  -3  16 1640.12 263.430   1
   1  -3  16 1216.90 213.250   1
  -8   8   2 2601.09 582.650   1
   8  -8  -2 2133.93 294.990   1
   8  -8  -2 2957.35 376.120   1
   4   0 -15 1086.34 215.770   1
  -4   0  15 1035.17 219.730   1
   4   0 -15 541.970 240.770   1
   0  -9  -5 491.540 230.980   1
   0   9   5 589.350 128.670   1
   9  -4  -1 2471.05 440.660   1
   9  -4  -1 2563.96 342.660   1
   2   9  -8 6945.32 401.760   1
   2   9  -8 5229.31 346.980   1
   2 -11   6 1265.63 178.640   1
   2 -11   6 1330.51 207.380   1
  -2  11  -6 1263.20 200.180   1
   7   3  -7 10842.8 657.000   1
  -4  -5  -7 13099.4 1063.22   1
   4   5   7 18140.2 1082.07   1
   8  -4  -8 2595.15 680.670   1
   7   3   1 550.430 97.6900   1
   6 -10   6 1376.53 195.410   1
   6 -10   6 2386.47 343.490   1
   3  -8  -9 12094.9 956.790   1
  -3   8   9 9507.01 1017.19   1
  -4  -1  15 8179.38 535.990   1
   4   1 -15 5479.58 462.900   1
   4   1 -15 4524.53 442.600   1
   3 -10  10 3045.34 403.760   1
  -3  10 -10 2515.07 342.530   1
  -4   3 -14 38.1500 149.170   1
   4  -3  14 95.5400 133.330   1
   4  -3  14 -185.87 218.890   1
  -5   1 -12 830.110 201.710   1
   5  -1  12 564.130 150.890   1
   5  -1  12 109.260 357.190   1
   1  -9  12 1324.89 192.680   1
  -1   9 -12 1146.85 166.280   1
   4  -9  -7 26986.0 4023.58   1
  -4   9   7 17388.5 1404.52   1
   9  -4  -2 283.460 205.350   1
  -5  -1  14 4263.46 332.430   1
   5   1 -14 4316.66 458.660   1
   5   1 -14 3538.73 490.670   1
  -2  -5  15 1307.44 214.640   1
   2   5 -15 1413.65 221.470   1
  -3   2  15 260.310 197.060   1
   3  -2 -15 -154.25 237.420   1
  -3   2  15 113.130 327.140   1
   1   6  10 2303.00 438.350   1
  -1  -6 -10 3002.68 478.120   1
  -6  -3  11 12065.3 748.800   1
   6   3 -11 8985.14 529.140   1
   6   3 -11 12743.5 754.830   1
   9  -4   0 7729.84 463.230   1
   9  -4   0 8564.74 746.660   1
  -6   7   9 314.460 521.520   1
   6  -7  -9 0.52000 200.090   1
   4   7  -9 206.850 86.8800   1
   4   7  -9 24.9700 127.160   1
   4  -5  14 1736.04 246.480   1
  -4   5 -14 2598.04 374.450   1
   4  -5  14 2679.23 385.790   1
   2   7 -13 2015.03 277.630   1
  -2  -7  13 1748.42 262.040   1
   2   7 -13 2429.74 324.970   1
   3   8  -9 19907.1 1054.94   1
   3   8  -9 21289.1 3129.33   1
  -1   0  16 7129.41 519.700   1
   1   0 -16 5445.97 489.280   1
   1  -2  16 4795.76 385.630   1
   1  -2  16 9157.73 571.000   1
  -1   2 -16 7931.22 559.320   1
   1  10  -2 12450.4 717.940   1
  -1 -10   2 15261.3 1048.17   1
   2  -6  15 1822.19 268.210   1
  -2   6 -15 1502.11 228.430   1
   2  -6  15 2029.77 291.180   1
   5 -11   3 2137.94 342.360   1
   5 -11   3 2158.49 297.440   1
  -5  11  -3 1936.48 530.930   1
   5 -11   3 2405.53 308.590   1
   4 -11   6 199.150 84.5300   1
   4 -11   6 290.980 107.900   1
   4 -11   6 119.710 57.0100   1
   5 -11   2 2696.90 358.640   1
   5 -11   2 2805.07 357.230   1
   5 -11   2 2554.79 405.730   1
  -5  11  -2 2194.28 572.360   1
   9  -3  -1 3541.16 535.020   1
   9  -3  -1 1608.07 247.020   1
  -3   4 -15 1890.43 284.770   1
   3  -4  15 2021.14 315.490   1
   3  -4  15 2018.51 315.910   1
   9  -3  -2 5373.56 468.090   1
   6   2 -12 3342.77 461.430   1
  -6  -2  12 4974.91 377.120   1
   6   2 -12 4232.15 650.460   1
   3   0  14 -30.300 354.440   1
  -3   0 -14 411.560 230.450   1
   3   0  14 -273.68 178.140   1
  -8   0  -3 8774.40 897.480   1
   8   0   3 4687.24 476.140   1
   8   0   3 7651.99 513.210   1
   9  -5  -1 6421.53 667.140   1
   9  -5  -1 7249.00 458.650   1
  -1  -4  16 1046.53 199.370   1
   1   4 -16 654.100 155.080   1
  -7   0  -7 775.350 368.670   1
   7   0   7 454.420 264.530   1
   5 -10  -4 8629.76 669.330   1
  -5  10   4 6324.49 779.170   1
  -3   3 -15 7319.45 500.200   1
   3  -3  15 6586.93 480.290   1
   3  -3  15 7900.82 530.840   1
  -3  -5  -9 11527.7 892.670   1
   3   5   9 7856.86 494.570   1
   7  -9   6 1029.06 143.160   1
  -8   7   5 1234.33 589.140   1
   8  -7  -5 2349.91 311.900   1
  -4  -6  -5 8745.08 745.870   1
   4   6   5 5440.15 373.910   1
  -1   4 -16 2428.21 350.110   1
   1  -4  16 2603.38 358.110   1
   7  -1   8 10692.4 955.700   1
  -1  -1 -15 -274.36 236.740   1
   1   1  15 97.6900 204.870   1
   9  -5   0 4228.42 765.570   1
   9  -5   0 5416.80 352.290   1
   3   7   5 8915.75 536.080   1
  -3  -7  -5 7884.29 616.810   1
   5  -4  13 79.7600 132.840   1
  -5   4 -13 172.530 147.610   1
   5  -4  13 23.1200 121.200   1
   4  -8  -9 4042.30 607.220   1
  -4   8   9 4355.32 713.050   1
   5  -7 -10 5751.51 560.970   1
  -5   7  10 5141.53 938.040   1
  -1 -10   6 14068.3 912.860   1
   1  10  -6 13295.1 721.750   1
   1  10  -6 12247.4 884.770   1
   3  -7  14 986.880 151.710   1
   3  -7  14 730.580 132.750   1
  -3   7 -14 715.620 104.950   1
   2   7   7 9877.96 643.660   1
  -2  -7  -7 15556.8 1116.02   1
   4   7   2 -106.29 103.430   1
  -4  -7  -2 213.440 219.050   1
   4   7   2 110.150 115.720   1
   7   2   4 12009.8 675.630   1
  -7  -2  -4 25916.8 4111.61   1
  -2   0  16 47.2600 188.710   1
   2   0 -16 157.910 209.550   1
  -2   0  16 208.020 394.330   1
  -2  -3  16 6433.88 428.090   1
   2   3 -16 6001.53 473.160   1
   3  -5 -13 317.240 263.690   1
  -3   5  13 248.590 472.620   1
  -3   9 -12 2960.11 379.780   1
   3  -9  12 4214.31 637.530   1
   9  -4  -3 982.430 268.280   1
   2  -5 -13 9003.90 763.600   1
  -2   5  13 7881.06 1008.30   1
   6  -8  10 4218.52 637.090   1
  -7   8   6 16377.8 1442.47   1
   9  -3   0 310.130 139.150   1
   9  -3   0 942.580 222.780   1
   5 -11   4 8707.61 602.350   1
   5 -11   4 7040.48 433.940   1
  -5  11  -4 7240.54 1049.33   1
   5 -11   4 8938.96 496.060   1
   6   5   0 4878.92 293.180   1
   9  -5  -2 3069.40 585.100   1
   1 -10  10 398.040 101.780   1
  -1  10 -10 692.840 92.9900   1
  -1  -7  14 5764.03 426.210   1
   1   7 -14 5247.52 387.850   1
  -6   4  12 554.120 426.830   1
  -6   4  12 -16.480 120.340   1
   6  -4 -12 -106.01 165.660   1
   7  -3 -11 6834.03 796.940   1
   5 -11   1 100.660 86.2700   1
  -5  11  -1 -319.21 385.840   1
   5 -11   1 111.900 81.6500   1
   5 -11   1 -244.14 145.360   1
   0   6  11 913.780 322.210   1
   0  -6 -11 1942.49 398.950   1
   9  -4   1 8940.03 829.500   1
   9  -4   1 8757.11 919.730   1
  -5   5 -13 2312.64 277.960   1
   5  -5  13 2548.45 291.600   1
   5  -5  13 3565.22 362.120   1
   6  -1 -13 5549.73 588.800   1
  -6   1  13 6174.76 606.730   1
   6  -1 -13 3708.35 475.180   1
   8  -8   4 42.4000 90.9300   1
   3 -11   7 6221.72 563.390   1
   3 -11   7 5879.03 553.510   1
   3 -11   7 6482.97 647.200   1
  -3  -4  15 743.070 163.470   1
   3   4 -15 1090.14 234.020   1
   3   4 -15 706.700 170.560   1
  -4   1  15 6020.76 1020.20   1
   4  -1 -15 5339.15 609.310   1
   4  -1 -15 4363.04 614.420   1
  -4   1  15 9457.11 905.780   1
  -1  11  -4 8806.18 815.950   1
   1 -11   4 11584.3 1135.07   1
   2  -9  -7 2571.47 351.270   1
  -2   9   7 1907.39 469.210   1
   9  -3  -3 2940.23 381.510   1
  -2  11   0 7720.07 809.320   1
   2 -11   0 9866.49 995.970   1
   4   5 -13 9964.00 904.900   1
  -4  -5  13 14125.2 1312.88   1
   4   5 -13 13142.0 1211.66   1
   2  -8  -9 1615.48 325.580   1
  -2   8   9 1462.83 322.450   1
   1 -11   3 4395.04 488.110   1
  -1  11  -3 5128.05 506.270   1
   2   9   1 1850.41 307.130   1
  -2  -9  -1 1736.71 376.010   1
   7   0 -11 4215.29 484.610   1
   0  10  -9 1293.82 352.930   1
   0  10  -9 3190.88 331.000   1
   0  10  -9 3232.40 320.110   1
   6   5  -7 17780.9 2448.66   1
  -3   6  12 874.500 434.570   1
   3  -6 -12 1174.42 335.130   1
   8   1  -6 500.310 136.180   1
  -5   4  13 6676.81 698.350   1
  -5   4  13 5186.80 997.280   1
   5  -4 -13 5638.27 584.920   1
   5   5 -11 618.850 148.800   1
   5   5 -11 399.210 134.700   1
   6  -2  11 3330.98 480.350   1
  -1  -6  15 1625.76 285.450   1
   1   6 -15 1462.18 253.170   1
   4   2 -15 6886.97 713.280   1
   4   2 -15 7621.64 727.270   1
  -4  -2  15 9437.63 895.580   1
   9  -5   1 7585.42 830.340   1
   9  -5   1 6929.24 641.910   1
  -5   2  14 1669.85 316.830   1
   5  -2 -14 726.790 368.580   1
  -5   2  14 985.800 515.860   1
   5  -2 -14 810.680 236.790   1
  -7   6   9 4052.66 768.890   1
   3   8   2 5620.40 558.000   1
  -3  -8  -2 5629.05 675.820   1
   6   0 -13 723.560 229.730   1
  -6   0  13 1025.89 227.160   1
   6   0 -13 1242.67 243.710   1
  -3  11   1 926.080 250.520   1
   3 -11  -1 724.550 205.780   1
   4   4 -14 6415.98 616.020   1
  -4  -4  14 8509.54 812.510   1
   4   4 -14 6528.16 653.910   1
   2   6   9 4114.66 538.220   1
  -2  -6  -9 3728.03 541.590   1
   4   0  13 8434.15 814.430   1
  -4   0 -13 9754.50 1001.96   1
  -8  -1  -1 -193.41 602.550   1
   8   1   1 278.220 106.380   1
   8   1   1 139.820 178.390   1
  -1  11  -5 4776.90 475.350   1
   1 -11   5 3825.33 420.390   1
  -2   4  14 -59.180 349.310   1
   2  -4 -14 -206.88 248.020   1
  -2   4  14 -115.37 215.380   1
   0 -10  -2 8608.86 941.140   1
   0  10   2 8150.54 802.780   1
  -8   8   3 2757.08 711.950   1
   8  -8  -3 1995.34 312.200   1
   8  -8  -3 2788.29 282.060   1
   2 -11   7 1233.72 201.400   1
  -2  11  -7 783.660 177.210   1
   2 -11   7 1296.65 234.460   1
   2 -11   7 1521.07 285.900   1
   7  -8   8 77.5900 95.0600   1
   3  -5  15 1799.38 298.550   1
  -3   5 -15 1481.05 262.430   1
   3  -5  15 1697.14 291.650   1
   4 -11  -1 11525.5 1163.10   1
  -4  11   1 8939.41 1081.05   1
   5  -3  13 4056.41 438.410   1
  -5   3 -13 3096.91 362.210   1
   5  -3  13 3771.33 459.350   1
   1  10  -1 1165.25 220.030   1
  -1 -10   1 1190.61 276.380   1
   2  -6 -12 8554.25 938.030   1
  -2   6  12 6392.19 1037.71   1
   0   2  15 2806.27 347.470   1
   0  -2 -15 2425.92 335.450   1
  -2   0 -15 7877.14 845.280   1
   2   0  15 9057.74 872.580   1
   2   0  15 3312.03 612.020   1
  -7   5  10 5826.15 1019.20   1
   0   0 -16 4108.36 481.550   1
   0   0  16 4318.98 470.820   1
   1 -11   2 17844.9 2536.63   1
  -1  11  -2 13401.7 1209.99   1
   4   4   9 1533.81 283.140   1
  -4  -4  -9 2547.09 431.670   1
  -4   2 -14 573.160 187.600   1
   4  -2  14 225.350 199.270   1
   4  -2  14 633.380 180.670   1
  -7  -1  -6 5031.38 836.750   1
  -6  10   3 830.750 538.920   1
   6 -10  -3 1027.92 263.320   1
   7  -7   9 3968.71 375.740   1
   3 -10  -5 8882.27 972.060   1
  -3  10   5 4890.69 703.440   1
   6  -2 -13 5974.76 636.740   1
  -6   2  13 7955.82 796.160   1
   6  -2 -13 4173.80 654.420   1
   9  -5  -3 2478.78 406.490   1
  -3   4  14 10339.9 1411.21   1
   3  -4 -14 12434.4 1242.42   1
  -3   4  14 18343.6 2559.20   1
   6  -7  11 5202.81 479.590   1
   8  -7   6 353.580 100.560   1
   9  -3   1 4927.52 498.810   1
   9  -3   1 6671.53 703.980   1
   5 -11   5 9310.77 837.390   1
   5 -11   5 14287.2 1355.49   1
   8  -5   7 1546.93 263.130   1
   6   4 -10 3323.10 345.640   1
   6   4 -10 3955.75 392.960   1
  -1   1 -16 4136.66 456.690   1
   1  -1  16 5175.51 550.340   1
   1  -1  16 3116.34 404.640   1
  -3   2 -15 3778.97 440.660   1
   3  -2  15 3619.37 393.790   1
   3  -2  15 1726.12 337.100   1
   6  -9   9 4483.12 412.540   1
   4 -10  -5 1676.75 362.200   1
  -4  10   5 1344.85 364.660   1
   7  -9  -4 5093.02 468.950   1
  -7   9   4 5826.97 1091.49   1
   5 -11   0 127.020 163.040   1
   5 -11   0 147.760 68.2600   1
  -5  11   0 397.040 377.840   1
   5   6  -9 5887.69 550.590   1
   5   6  -9 6525.07 641.620   1
  -1 -10   7 2109.38 363.120   1
   1  10  -7 1970.94 307.880   1
   1  10  -7 792.620 231.260   1
   9  -2  -2 3532.00 419.300   1
   9  -4  -4 848.800 260.460   1
   9  -3  -4 5494.40 668.510   1
   7  -2   9 4448.88 563.550   1
   4  -6  14 6358.91 624.490   1
   4  -6  14 4393.00 440.410   1
  -4   6 -14 4442.44 470.770   1
   8   0  -8 7075.89 757.490   1
   5   6   2 6369.09 584.600   1
  -5  -6  -2 8457.45 968.710   1
   8  -1   5 1286.51 344.210   1
   5   2 -14 3755.71 417.950   1
  -5  -2  14 7208.49 698.690   1
   5   2 -14 5909.36 600.760   1
   8  -4   7 4733.08 488.530   1
   6   3   6 267.430 189.260   1
   3   7 -12 6613.59 628.900   1
   3   7 -12 8490.35 788.190   1
   8  -2  -9 396.570 235.790   1
   8  -2   6 388.540 234.970   1
   9  -2  -1 5695.22 567.350   1
   0  -5  16 1430.70 255.080   1
   0   5 -16 1059.03 215.230   1
   7   3  -8 4256.23 432.520   1
   7   3   2 989.000 182.550   1
   9  -4   2 4829.26 510.860   1
   6 -10   7 475.640 112.900   1
   6 -10   7 691.060 156.450   1
  -7   7   8 7115.67 928.360   1
   4 -11   7 2319.32 241.520   1
   4 -11   7 2683.36 321.380   1
   2   9  -9 979.820 182.710   1
   2   9  -9 1109.90 201.790   1
   7 -10   2 131.510 98.9500   1
  -8   6   7 6205.47 834.170   1
   6  -9  -6 14111.8 1407.76   1
  -6   9   6 16286.1 2520.81   1
   9  -6   0 1811.94 457.710   1
   9  -6   0 2215.59 332.280   1
  -4  10 -10 402.690 106.420   1
   4 -10  10 239.780 73.1600   1
  -5   9   7 3940.68 604.280   1
   5  -9  -7 5263.66 634.030   1
  -7  10  -1 5051.64 995.820   1
   7 -10   1 3794.77 353.090   1
   7 -10   1 3403.21 338.030   1
   1 -11   6 1150.14 236.400   1
  -1  11  -6 1497.02 298.100   1
   9  -5   2 4512.22 435.370   1
   1   9   4 6817.01 663.220   1
  -1  -9  -4 11055.5 1144.71   1
   9  -6  -1 4181.99 679.220   1
   9  -6  -1 4738.85 448.080   1
   0   9 -12 10080.2 909.330   1
   0   9 -12 7654.87 709.080   1
   0  -9  12 7846.53 757.740   1
  -8   5   8 12817.3 1575.12   1
   8  -5  -8 8113.02 1054.82   1
   8  -3  -9 -432.12 203.880   1
   9  -2  -3 10457.9 1018.78   1
   3   1 -16 2271.89 320.450   1
  -3  -1  16 4348.63 454.250   1
   3   1 -16 3675.60 402.160   1
   5   4   7 10636.6 987.980   1
  -5   6 -13 156.570 122.610   1
   5  -6  13 182.280 126.320   1
   5  -6  13 224.670 98.6000   1
   1   9 -11 628.820 134.940   1
   1   9 -11 399.970 105.740   1
  -4   6  12 7881.28 1280.57   1
   4  -6 -12 8973.00 966.130   1
   6   4   4 4593.26 445.230   1
   5   5   5 159.000 153.220   1
   2   8   5 7349.24 693.490   1
  -2  -8  -5 7837.56 875.500   1
   4  -5 -13 1320.43 316.670   1
  -4   5  13 1553.41 315.740   1
  -4   5  13 943.230 485.100   1
  -2  -3 -13 1619.27 376.290   1
  -2  -3 -13 956.510 539.270   1
   2   3  13 1602.40 313.540   1
  -1   5 -16 2218.00 353.650   1
   1  -5  16 2437.12 265.480   1
  -6   8   8 1179.85 439.910   1
   6  -8  -8 2044.67 399.710   1
   1  -5 -13 1351.02 339.400   1
  -1   5  13 1051.89 430.220   1
   5 -10   9 11073.5 978.310   1
  -5  10  -9 11049.0 1003.05   1
   1   8 -13 3332.96 345.210   1
   1   8 -13 2086.30 310.460   1
   1 -11   1 8296.59 881.300   1
  -1  11  -1 6977.94 660.020   1
   7 -10   3 25.4800 82.3300   1
   9  -6   1 2121.00 441.000   1
   9  -6   1 3535.04 347.680   1
   3  -7 -11 9305.16 1022.79   1
  -3   7  11 8253.75 1170.99   1
   4   6 -12 7955.69 735.740   1
   4   6 -12 4017.49 397.820   1
   9  -2   0 516.770 162.790   1
   9  -2   0 74.7800 118.080   1
   8  -6   7 2311.73 280.440   1
   6   1 -13 2000.92 361.980   1
  -6  -1  13 1655.58 284.910   1
   6   1 -13 1117.94 205.940   1
  -1   4  14 2866.06 551.190   1
   1  -4 -14 3409.23 435.870   1
  -1   4  14 3396.75 374.080   1
  -2  -4 -12 16223.5 2599.27   1
  -2  -4 -12 8791.09 929.960   1
   2   4  12 5751.38 748.840   1
   6   5   1 13749.8 1217.22   1
  -7  10   0 2612.17 753.270   1
   7 -10   0 1698.28 278.960   1
   7 -10   0 2083.33 305.800   1
   8  -8   5 1564.25 253.090   1
   9  -6  -2 2562.79 478.500   1
   3   2 -16 1756.82 315.620   1
  -3  -2  16 1581.54 298.080   1
   3   2 -16 1148.73 253.660   1
   1 -10  -4 7653.70 796.340   1
  -1  10   4 5465.98 618.820   1
   2 -11  -1 5523.03 621.210   1
  -2  11   1 3920.68 496.410   1
   0   8   8 3450.04 471.400   1
   0  -8  -8 5237.97 589.300   1
  -3   0  16 3457.92 397.860   1
   3   0 -16 1283.72 278.660   1
   3   0 -16 2591.96 357.160   1
  -6  -1  -9 15029.2 1839.37   1
   8  -1  -9 21510.4 2998.31   1
   1  -8  14 555.190 127.200   1
   1  -8  14 1086.14 220.380   1
  -1   8 -14 1039.25 192.440   1
   8   1  -7 2468.21 312.340   1
  -2   1  16 5084.67 1016.86   1
  -2   1  16 11260.2 1075.53   1
   2  -1 -16 9232.44 947.650   1
  -5  -1 -11 13263.7 1540.55   1
   4   7 -10 603.310 144.790   1
   4   7 -10 190.890 129.880   1
   6   5  -8 6498.70 603.850   1
  -5   8   9 1396.91 647.170   1
   5  -8  -9 3191.95 499.670   1
  -2   3 -16 8331.58 827.990   1
   2  -3  16 9211.62 894.790   1
   2  -3  16 7186.15 694.710   1
   6   0  10 710.040 382.220   1
   7  -5  10 6035.85 571.490   1
  -2  -4  16 538.010 152.610   1
   2   4 -16 461.390 169.050   1
   3 -11   8 6284.67 572.040   1
   3 -11   8 7813.22 737.260   1
   3   8 -10 10589.1 946.330   1
   3   8 -10 8975.12 831.610   1
  -1   1  16 268.610 206.810   1
   1  -1 -16 -25.650 248.790   1
   1  10   0 347.930 123.530   1
  -1 -10   0 191.320 196.600   1
   7   2 -10 10142.2 980.260   1
   9  -5  -4 4577.52 661.570   1
   9  -5  -4 4751.25 451.250   1
   7  -9   7 4356.91 407.560   1
   9  -2  -4 7871.76 868.990   1
   7  -4 -11 4680.40 733.330   1
  -7   4  11 5338.71 909.630   1
  -5  -2 -10 3709.32 915.850   1
  -4   2  15 3997.59 794.300   1
   4  -2 -15 2635.12 492.980   1
  -4   2  15 5140.71 537.620   1
   4  -2 -15 3849.60 478.950   1
  -3  -3 -12 293.600 237.160   1
  -3  -3 -12 674.530 728.930   1
  -4  -8   4 4220.42 530.710   1
   4   8  -4 4236.24 409.910   1
   9  -3   2 9707.60 931.880   1
   2 -10  11 1804.82 290.940   1
  -2  10 -11 2124.76 318.830   1
   7   4  -3 8966.12 814.810   1
   2   8 -12 1325.45 229.700   1
   2   8 -12 721.590 138.110   1
   5 -11   6 9128.68 822.560   1
   5 -11   6 10828.2 1007.50   1
  -8   0  -4 18421.8 2716.41   1
   8   0   4 10490.5 1196.67   1
   2  -4  16 2723.66 300.260   1
  -2   4 -16 2768.10 302.900   1
   2  -4  16 2962.72 321.910   1
  -1   7 -15 5288.76 511.410   1
   1  -7  15 5828.44 566.630   1
  -2   8 -14 4064.78 391.120   1
   2  -8  14 4250.78 405.480   1
   2  -8  14 4266.00 431.880   1
  -2   3  15 8158.22 801.470   1
  -2   3  15 3356.31 683.670   1
   2  -3 -15 5269.01 612.560   1
   7  -4  10 2276.16 295.830   1
   7   4  -4 7962.25 719.160   1
  -2  10   5 700.120 245.030   1
   2 -10  -5 419.610 205.650   1
   8   1   2 601.990 141.460   1
   8   1   2 1297.13 364.560   1
  -8  -1  -2 498.090 871.890   1
  -1  -4 -13 2518.07 393.860   1
  -1  -4 -13 1888.25 818.330   1
   1   4  13 1135.36 307.670   1
   4  -8  13 1768.52 285.820   1
   4  -8  13 1330.66 237.810   1
  -4   8 -13 1282.21 224.870   1
   5 -11  -1 221.620 142.730   1
  -5  11   1 -270.34 414.330   1
  -5   8 -12 1427.03 242.100   1
   5  -8  12 1903.53 305.220   1
  -4  -8   3 3134.76 449.830   1
   4   8  -3 3197.43 318.050   1
   7   1 -11 6327.14 614.770   1
  -8   8   4 8292.77 1445.74   1
   8  -8  -4 4557.95 451.610   1
   8  -8  -4 5869.79 536.690   1
  -8   7   6 516.060 432.390   1
   2 -11   8 442.470 94.5800   1
   2 -11   8 451.830 131.990   1
   4   8  -5 803.560 155.220   1
  -4  -8   5 928.560 236.190   1
   8  -3   7 11953.2 1170.06   1
   1   5 -16 5832.80 580.600   1
  -1  -5  16 7549.96 722.010   1
  -3  -2 -13 10126.6 1014.64   1
  -3  -2 -13 7505.18 1160.97   1
   3   2  13 11519.1 1093.25   1
   5  -2  13 6154.55 754.360   1
   5  -2  13 6390.10 654.060   1
  -5   2 -13 5293.37 566.720   1
   2  -7 -11 -336.01 276.960   1
  -2   7  11 339.720 280.970   1
   9  -3  -5 8035.73 818.890   1
  -2  -2 -14 -50.380 240.870   1
   2   2  14 164.420 216.900   1
  -3  11   2 80.6800 225.000   1
   3 -11  -2 263.800 173.820   1
   9  -6   2 1465.26 240.610   1
   7 -10   4 -76.910 70.1900   1
  -4  11   2 3041.38 489.420   1
   4 -11  -2 5332.36 622.660   1
  -4  -3  15 10530.3 969.170   1
   4   3 -15 10210.1 958.930   1
   4   3 -15 9281.63 911.240   1
   2   9   2 9002.25 849.010   1
  -2  -9  -2 6868.41 803.920   1
   3  -6  15 3939.25 382.370   1
   3  -6  15 4724.14 473.230   1
  -3   6 -15 4789.28 479.500   1
   4  -7 -11 1348.09 359.230   1
  -4   7  11 1594.02 532.500   1
   6  -5  12 -55.760 147.690   1
   8  -9   1 111.200 85.7000   1
   9  -4  -5 796.000 292.110   1
  -1   6  12 871.850 395.060   1
   1  -6 -12 470.160 283.410   1
   6  -4  12 387.320 189.230   1
  -1  11  -7 5354.70 612.580   1
   1 -11   7 3397.63 394.120   1
   7   4  -2 1649.46 267.900   1
   4   7   3 865.060 221.510   1
  -4  -7  -3 634.610 217.730   1
   8  -4  -9 -34.200 316.230   1
   8   2  -3 5780.31 542.970   1
   1  10  -8 588.760 122.160   1
   1  10  -8 153.100 143.460   1
   6  -3 -13 3579.62 432.020   1
  -6   3  13 4263.20 475.110   1
  -6   3  13 2917.33 664.500   1
   6  -3 -13 2516.54 512.680   1
   4  -9  12 270.300 100.450   1
  -4   9 -12 288.420 106.850   1
   1   3  14 3954.80 470.530   1
  -1  -3 -14 3021.31 431.880   1
  -1  -3 -14 1633.38 589.360   1
   5  -9  11 6883.34 625.430   1
  -5   9 -11 6586.35 615.800   1
   5 -10  -5 17505.9 2500.43   1
  -5  10   5 13281.7 1460.25   1
  -3  10 -11 335.640 116.210   1
   3 -10  11 303.250 82.9500   1
   9  -2   1 546.680 147.660   1
   9  -2   1 714.840 188.370   1
  -1   8   9 787.760 229.200   1
   1  -8  -9 381.920 262.630   1
   9  -5   3 5548.71 540.580   1
  -7  10   1 6947.15 1505.43   1
   7 -10  -1 6222.40 864.660   1
   7 -10  -1 6299.28 566.290   1
  -1  -8  -7 913.000 236.390   1
   1   8   7 797.620 335.100   1
   7   4  -5 6202.04 848.500   1
  -4   4  14 1580.24 546.210   1
  -4   4  14 2147.47 353.560   1
   4  -4 -14 1784.19 315.180   1
  -8   9   0 2081.79 606.670   1
   8  -9   0 1396.40 212.810   1
   8  -9   2 2322.37 345.880   1
   9  -6  -3 3890.54 768.710   1
  -5   3  14 5896.33 828.340   1
   5  -3 -14 3395.69 607.700   1
  -5   3  14 4905.37 1333.71   1
   5  -3 -14 5284.65 767.160   1
   9  -4   3 4008.40 580.640   1
   8   2  -2 5511.75 776.240   1
  -1  -7  -9 8530.81 1233.34   1
   1   7   9 6526.28 1009.96   1
   0  10 -10 14103.0 1894.12   1
   0  10 -10 13850.4 1864.65   1
   0  10 -10 3623.78 922.330   1
   8   2  -4 5169.75 723.390   1
   7  -6  10 3582.35 528.820   1
   2  -2  16 2215.23 393.830   1
  -2   2 -16 3595.03 529.470   1
   2  -2  16 3990.90 587.430   1
   0  -7 -10 7156.59 1055.45   1
   0   7  10 4980.06 859.060   1
  -1   9   7 1269.66 302.140   1
   1  -9  -7 1194.57 289.280   1
  -3   3  15 3667.27 861.710   1
   3  -3 -15 4202.33 668.920   1
  -3   3  15 5799.52 845.130   1
   0   7 -15 6946.40 959.790   1
   0  -7  15 6496.76 895.150   1
  -6  -2  -8 5802.53 1146.74   1
   3   9  -4 2627.31 140.070   1
  -3  -9   4 2987.19 507.130   1
  -5  -7   4 289.120 156.460   1
   5   7  -4 349.620 118.240   1
   4   8  -2 5069.55 699.090   1
  -4  -8   2 4895.59 770.700   1
   0  -9  -6 1814.46 354.300   1
   0   9   6 1094.78 254.000   1
  -1  11   0 2166.14 347.230   1
   1 -11   0 2521.72 429.900   1
   5   4 -13 4551.03 671.020   1
  -5  -4  13 5436.77 791.000   1
   5   4 -13 5866.27 824.120   1
   3   4  11 408.420 175.730   1
  -3  -4 -11 787.250 323.790   1
   5   0  12 2729.33 647.120   1
  -4  -8   6 4615.67 727.150   1
   4   8  -6 4771.65 656.540   1
  -7  -2  -5 9500.97 1589.66   1
   2  -7  15 199.590 129.560   1
  -2   7 -15 192.390 99.4500   1
   2  -7  15 231.350 99.4400   1
   3   8   3 4796.70 691.340   1
  -3  -8  -3 4739.54 755.510   1
  -1  -5 -12 1786.84 383.800   1
   1   5  12 1235.52 294.660   1
  -1   3  15 3854.60 891.590   1
  -1   3  15 6906.56 1005.64   1
   1  -3 -15 5841.53 896.370   1
   5   7  -3 612.560 126.800   1
  -5  -7   3 736.620 200.640   1
  -3   1 -15 663.580 211.530   1
   3  -1  15 673.770 169.480   1
   3  -1  15 55.6700 290.900   1
  -3  -9   5 9609.95 1359.86   1
   3   9  -5 8216.73 1116.62   1
   2  -9  13 4356.18 606.570   1
  -2   9 -13 3570.40 505.940   1
   6 -10  -4 1372.13 326.750   1
  -6  10   4 1490.76 626.990   1
   0 -10  -3 661.100 248.700   1
   0  10   3 453.210 147.920   1
  -3  -9   3 4709.87 698.740   1
   3   9  -3 3960.99 546.080   1
   2   5  11 2503.94 500.260   1
  -2  -5 -11 4415.45 776.630   1
   5   7  -5 1186.29 196.400   1
  -5  -7   5 1265.83 275.130   1
   1 -10  11 193.930 80.7800   1
  -1  10 -11 109.810 115.870   1
  -6  -3  12 2922.61 460.620   1
   6   3 -12 2214.53 350.510   1
   6   3 -12 2536.35 208.080   1
  -3   9   8 2912.84 552.960   1
   3  -9  -8 3785.75 583.970   1
  -7   8   7 10605.1 1752.06   1
   0  -8  14 2929.39 445.110   1
   0   8 -14 3416.04 488.000   1
   6  -6 -11 11918.6 1680.59   1
  -6   6  11 11329.0 1821.58   1
  -6   6  11 17724.9 552.600   1
   9  -2  -5 10954.6 1533.43   1
   4 -11   8 1737.20 259.170   1
   4 -11   8 2267.06 366.640   1
   6 -11   2 4820.94 729.320   1
   6 -11   2 4156.53 570.090   1
  -6  11  -2 4708.17 1132.64   1
   6 -11   2 4317.89 602.870   1
  -3  -6  -8 3334.94 591.360   1
   3   6   8 2615.07 180.370   1
   4  -1  14 5936.83 862.230   1
   4  -1  14 4558.46 729.180   1
  -4   1 -14 7198.24 1063.13   1
   6  -1  11 4903.34 868.370   1
   3   3 -16 380.340 169.790   1
  -3  -3  16 92.0400 147.450   1
   3   3 -16 372.750 169.880   1
   7   4  -1 3797.25 532.190   1
   1   0  16 2277.01 389.470   1
   1   0  16 957.240 349.350   1
  -1   0 -16 2017.89 360.190   1
   6 -11   3 8339.08 1136.98   1
   6 -11   3 9766.13 1370.36   1
   6 -11   3 9168.78 1229.76   1
  -8   9   1 2435.72 680.550   1
   8  -9  -1 2216.42 329.030   1
   8  -9  -1 1606.81 252.230   1
  -5  -3  -9 4956.87 1162.99   1
   8  -9   3 1388.42 212.310   1
   8   2  -1 7769.09 1074.52   1
  -8  -2   1 10160.2 1857.32   1
   9  -1  -2 18934.8 516.330   1
   2  -5  16 3934.25 573.790   1
   2  -5  16 2328.16 354.450   1
  -2   5 -16 3827.61 554.220   1
   7  -1 -12 492.050 238.380   1
   7  -3  10 850.650 278.250   1
  -3   1  16 4971.10 1050.10   1
  -3   1  16 6515.81 937.220   1
   3  -1 -16 3292.64 604.500   1
   3  -1 -16 4556.85 692.090   1
  -7   9   5 4364.14 1013.17   1
   1  -9  13 2357.15 345.200   1
  -1   9 -13 2443.43 355.100   1
   6  -6  12 3570.64 528.140   1
  -4   9   8 7647.66 1249.80   1
   4  -9  -8 10776.0 1522.12   1
   8   2  -5 6270.80 894.830   1
   7   3  -9 10180.9 1390.56   1
   9  -1  -3 8394.80 1204.38   1
   7  -2 -12 -179.15 213.190   1
   8  -7   7 364.290 113.430   1
   7   3   3 3029.73 431.580   1
   5   6 -10 1534.30 241.900   1
   5   6 -10 2385.05 350.250   1
   3   6 -14 4615.33 664.510   1
   3   6 -14 3881.11 555.920   1
  -3  -6  14 4642.76 674.180   1
   6 -11   1 3208.13 525.090   1
   6 -11   1 2802.67 393.940   1
   6 -11   1 2443.76 358.280   1
  -6  11  -1 4263.32 908.620   1
  -4  -6  -6 4588.26 720.680   1
   4   6   6 4917.37 693.750   1
   6  -3  12 4514.29 698.600   1
   7   4  -6 5398.03 747.840   1
   0   1  16 3735.74 562.000   1
   0  -1 -16 2922.90 482.530   1
   3   7   6 7.19000 180.490   1
  -3  -7  -6 -123.84 242.110   1
   6 -10   8 609.710 156.610   1
   6 -10   8 932.810 161.720   1
   9  -6   3 341.010 117.360   1
   9  -1  -1 6776.67 945.030   1
  -2  -6  15 4330.22 607.670   1
   2   6 -15 3577.55 502.960   1
   7 -10   5 449.410 99.9600   1
  -5  -7   2 418.590 187.000   1
   5   7  -2 298.660 102.130   1
   5   6   3 7098.84 1015.93   1
   5   6   3 7262.05 993.150   1
   9  -5  -5 1323.12 365.750   1
   9  -7   0 -116.80 353.000   1
   9  -7   0 388.570 122.840   1
   4  -7  14 1946.46 314.800   1
   4  -7  14 1233.00 196.760   1
  -4   7 -14 1894.56 313.800   1
   4   5   8 134.600 122.210   1
  -4  -5  -8 76.6800 301.930   1
   2   9 -10 4070.64 584.920   1
   2   9 -10 5324.42 725.480   1
   5  -7  13 84.1000 87.4600   1
   5  -7  13 235.220 116.350   1
  -5   7 -13 137.140 122.980   1
  -6   5  12 2267.64 584.680   1
  -6   5  12 3292.56 506.520   1
   6  -5 -12 2005.55 372.980   1
  -3  -9   6 16655.7 782.620   1
   3   9  -6 15508.1 2076.73   1
   3   1  14 6908.09 1009.61   1
  -3  -1 -14 6236.88 944.220   1
   8   0  -9 5225.98 760.570   1
  -7   0  -8 19481.3 1145.69   1
   7   0   8 13538.5 2135.49   1
   3   9  -2 1205.00 204.920   1
   3   9  -2 1162.48 247.950   1
  -3  -9   2 1632.60 308.990   1
   3   5 -15 566.130 158.750   1
  -3  -5  15 461.400 175.150   1
   3   5 -15 381.330 145.420   1
   9  -3   3 2741.74 414.410   1
   7  -8   9 60.0500 93.7200   1
  -5  -3  14 501.780 155.880   1
   5   3 -14 269.930 159.280   1
   5   3 -14 182.390 138.190   1
   8  -8   6 2813.51 407.020   1
   5 -11   7 9429.33 1311.88   1
   5 -11   7 8793.29 1188.70   1
   6  -7 -10 1474.65 295.020   1
  -6   7  10 1173.09 429.870   1
   6 -11   4 4335.79 602.880   1
   6 -11   4 5315.75 781.160   1
  -5  -7   6 4409.32 695.630   1
   5   7  -6 3097.92 430.930   1
   5   5 -12 2483.83 386.790   1
   5   5 -12 2465.63 360.760   1
   6   5   2 7471.26 1014.86   1
   1  10   1 147.170 148.420   1
  -1 -10  -1 199.180 181.010   1
   9  -7   1 319.720 89.5200   1
   9  -7   1 57.3900 230.370   1
   9  -7  -1 1260.82 369.740   1
   9  -7  -1 1586.19 243.240   1
  -2  11   2 7712.56 1170.23   1
   2 -11  -2 12515.2 1776.66   1
  -4  -8   1 9710.85 1445.54   1
   4   8  -1 8266.75 1110.73   1
   2   7 -14 6359.50 876.620   1
  -2  -7  14 5264.12 752.970   1
   2   7 -14 4818.89 687.230   1
   3  -8  14 8189.04 1140.20   1
  -3   8 -14 6778.59 928.530   1
   3  -8  14 5625.22 770.130   1
   0  11  -4 394.330 153.370   1
   0 -11   4 470.070 156.950   1
   5 -11  -2 2852.45 460.420   1
  -5  11   2 2168.44 569.030   1
   7 -10  -2 11525.6 1546.10   1
  -7  10   2 14354.8 2357.70   1
   7 -10  -2 10194.9 1391.51   1
   6  -8  11 820.930 153.450   1
   6   2 -13 4702.67 685.760   1
  -6  -2  13 5441.08 784.470   1
   6   2 -13 3437.63 504.880   1
  -4  -2 -12 865.880 488.320   1
   4   2  12 2023.88 348.420   1
  -4  -2 -12 1228.69 309.750   1
   8   1  -8 9315.48 1303.74   1
   9  -2   2 1264.83 302.360   1
   9  -6  -4 13837.7 2129.47   1
   9  -6  -4 16792.4 404.150   1
  -4  -8   7 50.7900 129.550   1
   4   8  -7 177.610 84.5200   1
   6   4 -11 6308.38 881.050   1
   9  -1  -4 7774.41 1137.34   1
   9  -3  -6 6839.43 982.690   1
   1   2  15 3963.52 612.370   1
  -1  -2 -15 3730.68 640.830   1
   5  -6 -12 99.9500 208.720   1
  -5   6  12 -254.37 498.100   1
   6   5  -9 12290.5 1657.54   1
   7  -1   9 6482.98 1044.72   1
   0 -11   3 696.910 200.630   1
   0  11  -3 1483.43 263.060   1
   1 -11   8 184.590 139.950   1
  -1  11  -8 -103.27 179.660   1
   1  -6  16 2102.74 346.230   1
  -1   6 -16 1782.76 289.680   1
   3  -8 -10 3431.70 552.400   1
  -3   8  10 2558.06 532.530   1
   8  -1   6 1215.33 363.820   1
   0  11  -5 3341.54 492.680   1
   0 -11   5 3118.46 491.220   1
  -1  -2  17 3493.87 521.030   1
   1   2 -17 2424.75 401.030   1
   0  -6  16 209.680 138.710   1
   0   6 -16 290.960 137.450   1
   8  -5   8 -115.75 163.890   1
   6 -11   0 988.690 169.740   1
  -6  11   0 796.220 602.770   1
   6 -11   0 456.990 113.570   1
   6 -11   0 867.740 205.810   1
   5   0 -15 2594.57 343.860   1
  -5   0  15 4140.54 620.970   1
   5   0 -15 3716.50 566.140   1
   7   0 -12 3474.04 595.650   1
  -3   9 -13 241.750 105.180   1
   3  -9  13 270.030 96.7200   1
   3 -11   9 128.500 83.9100   1
  -3  11  -9 -163.23 71.3100   1
   9  -1   0 1534.15 307.320   1
   9  -1   0 1903.66 327.900   1
  -3  10   6 7287.70 1090.74   1
   3 -10  -6 10788.6 1536.20   1
   6  -9  10 1761.49 264.480   1
   4 -10  -6 3986.55 648.120   1
  -4  10   6 1910.55 421.910   1
   2   1  15 9679.45 1372.51   1
  -2  -1 -15 8848.90 1265.55   1
   8   1   3 1504.31 438.830   1
  -8  -1  -3 3893.69 848.090   1
   8   2   0 11820.1 1608.56   1
  -8  -2   0 15677.0 2549.14   1
   9  -4  -6 2777.34 611.440   1
   8  -9  -2 5035.89 710.460   1
   8  -9  -2 5898.04 801.360   1
  -8   9   2 7672.33 1381.22   1
  -4  -3 -11 18735.0 845.420   1
  -4  -3 -11 32282.9 2233.43   1
  -8   6   8 3330.70 786.720   1
   2   7   8 4537.22 733.230   1
  -2  -7  -8 5968.60 912.910   1
   8  -9   4 1759.62 266.080   1
   9  -5   4 1832.54 292.580   1
   0   4  14 565.820 382.340   1
   0  -4 -14 2119.95 423.090   1
  -2   9   8 7425.04 1202.98   1
   2  -9  -8 10297.9 1481.55   1
  -8   8   5 15693.1 2630.20   1
   8  -8  -5 10033.2 1343.87   1
   0  -3  17 5360.90 763.610   1
   0   3 -17 4287.26 641.660   1
   2 -11   9 2935.62 425.030   1
  -2  11  -9 2915.57 407.110   1
  -7   6  10 -22.410 544.040   1
   9  -7   2 514.940 105.570   1
   9  -7  -2 2583.22 581.650   1
  -5   5  13 2525.79 736.370   1
  -5   5  13 6569.79 944.260   1
   5  -5 -13 3974.83 630.700   1
   1  10  -9 113.440 108.350   1
   1  10  -9 340.180 95.1900   1
   8  -2   7 999.940 267.050   1
  -7  -1  -7 828.770 689.440   1
   0  -2  17 3253.66 493.880   1
   0   2 -17 3795.22 555.580   1
   1  -7 -11 8065.70 1277.66   1
  -1   7  11 5586.39 953.150   1
   7  -7  10 831.670 149.930   1
   0  -5 -13 9231.70 1347.91   1
   0   5  13 5256.51 941.440   1
   8  -4   8 4551.41 659.830   1
  -1  -3  17 2361.18 383.650   1
   1   3 -17 2126.17 346.690   1
   4  -8 -10 3577.54 613.250   1
  -4   8  10 1753.31 614.100   1
   2  -1  16 615.520 190.080   1
  -2   1 -16 521.540 169.910   1
   2  -1  16 97.7500 174.430   1
   6   4   5 2327.10 401.380   1
  -5  -7   1 3438.49 605.860   1
   6  -9  -7 2567.88 314.910   1
  -6   9   7 2472.10 763.740   1
   4 -10  11 3962.21 547.510   1
  -4  10 -11 5592.21 780.950   1
  -4  11   3 1581.81 396.220   1
   4 -11  -3 2588.16 311.450   1
   5 -10  10 3252.02 462.330   1
  -5  10 -10 3458.28 499.310   1
   1 -11  -1 111.170 129.490   1
  -1  11   1 -142.16 126.280   1
  -1  -9  -5 6130.04 967.850   1
   1   9   5 3639.44 564.910   1
   4   5 -14 2001.28 306.900   1
  -4  -5  14 2314.53 368.030   1
  -3  -9   7 9074.00 1270.47   1
   0  11  -2 8361.10 1164.34   1
   0 -11   2 7286.88 1048.51   1
  -8   5   9 8641.18 1401.20   1
   3 -11  -3 -88.200 140.780   1
  -3  11   3 271.290 157.900   1
   5  -1 -15 10331.5 1440.23   1
  -5   1  15 12415.4 1701.35   1
   4   1  13 1612.57 324.270   1
  -4  -1 -13 1313.99 316.270   1
  -5   7  11 513.270 349.030   1
   5  -7 -11 675.710 256.390   1
   6 -11   5 1687.04 282.390   1
   1   9 -12 41.1600 98.7700   1
  -5  -1  15 5321.35 766.640   1
   5   1 -15 4891.01 726.770   1
  -1  -1  17 2748.53 439.060   1
   1   1 -17 1942.68 373.920   1
   3   9  -1 123.300 156.400   1
  -3  -9   1 50.8300 175.620   1
   0  11  -6 5056.88 735.020   1
   0 -11   6 5701.40 844.790   1
   4   7 -11 134.790 124.450   1
   3   8 -11 1925.11 299.900   1
  -1  -6 -11 4658.70 786.520   1
   1   6  11 3353.26 643.710   1
   4  -4  15 2637.78 212.700   1
  -3  -5 -10 8244.72 1251.99   1
   3   5  10 4496.15 743.690   1
  -2   2  16 6300.18 912.770   1
  -2   2  16 3303.27 868.620   1
   2  -2 -16 4921.76 731.180   1
   4  -3 -15 3743.61 366.080   1
;
_shelx_hkl_checksum              81651
_olex2_date_sample_data_collection 06/07/2014
_olex2_submission_original_sample_id '2014lhb067, lhb4_067_05'
_olex2_submission_special_instructions 'No special instructions were received'
loop_
_space_group_symop_operation_xyz
'x, y, z'
'-x, -y, -z'
loop_
_atom_site_label
_atom_site_type_symbol
_atom_site_fract_x
_atom_site_fract_y
_atom_site_fract_z
_atom_site_U_iso_or_equiv
_atom_site_adp_type
_atom_site_occupancy
_atom_site_site_symmetry_order
_atom_site_calc_flag
_atom_site_refinement_flags_posn
_atom_site_refinement_flags_adp
_atom_site_refinement_flags_occupancy
_atom_site_disorder_assembly
_atom_site_disorder_group
Sr1 Sr 0.72286(4) 0.39605(3) 0.04057(2) 0.01680(15) Uani 1 1 d . . . . .
F1 F 0.1311(3) 0.4485(2) 0.32275(16) 0.0251(5) Uani 1 1 d . . . . .
F2 F 0.0069(3) 0.2196(3) 0.43296(17) 0.0268(5) Uani 1 1 d . . . . .
F3 F -0.0343(3) -0.0853(3) 0.34890(18) 0.0270(5) Uani 1 1 d . . . . .
F4 F 0.1930(3) 0.0679(3) 0.04424(16) 0.0224(4) Uani 1 1 d . . . . .
O1 O 0.3901(3) 0.4319(3) 0.08724(19) 0.0197(5) Uani 1 1 d . . . . .
O1W O 0.4348(4) 0.1955(3) -0.10444(19) 0.0202(5) Uani 1 1 d . . . . .
H1WA H 0.3319 0.2229 -0.1012 0.030 Uiso 1 1 d GR . . . .
H1WB H 0.4039 0.0984 -0.0945 0.030 Uiso 1 1 d GR . . . .
O2 O 0.0876(4) 0.4362(3) 0.0910(2) 0.0217(5) Uani 1 1 d . . . . .
O3 O -0.1290(4) -0.2969(3) 0.13589(19) 0.0211(5) Uani 1 1 d . . . . .
O4 O 0.1881(4) -0.2152(3) 0.1068(2) 0.0279(6) Uani 1 1 d . . . . .
O11 O 0.6512(4) 0.1369(3) 0.1230(2) 0.0252(6) Uani 1 1 d . . . . .
O12 O 0.6774(4) 0.3512(3) 0.2379(2) 0.0281(6) Uani 1 1 d . . . . .
O13 O 0.5952(5) 0.1207(4) 0.2815(2) 0.0294(6) Uani 1 1 d . . . . .
N11 N 0.6404(5) 0.2020(4) 0.2154(2) 0.0212(6) Uani 1 1 d . . . . .
C1 C 0.2211(5) 0.3880(4) 0.1147(3) 0.0183(7) Uani 1 1 d . . . . .
C2 C 0.1668(5) 0.2624(4) 0.1800(3) 0.0189(7) Uani 1 1 d . . . . .
C3 C 0.1154(5) 0.2981(4) 0.2785(3) 0.0200(7) Uani 1 1 d . . . . .
C4 C 0.0503(5) 0.1816(4) 0.3351(3) 0.0203(7) Uani 1 1 d . . . . .
C5 C 0.0285(5) 0.0250(4) 0.2909(3) 0.0210(7) Uani 1 1 d . . . . .
C6 C 0.0735(5) -0.0199(4) 0.1922(3) 0.0191(7) Uani 1 1 d . . . . .
C7 C 0.0429(5) -0.1932(4) 0.1411(3) 0.0200(7) Uani 1 1 d . . . . .
C8 C 0.1457(5) 0.1044(4) 0.1401(3) 0.0189(7) Uani 1 1 d . . . . .
N101 N 0.4763(5) 0.7537(4) 0.2934(3) 0.0255(7) Uani 1 1 d . . . . .
H101 H 0.4718 0.7666 0.2290 0.031 Uiso 1 1 calc R . . . .
C101 C 0.5808(6) 0.6693(5) 0.3225(3) 0.0266(8) Uani 1 1 d . . . . .
H10A H 0.6475 0.6243 0.2736 0.032 Uiso 1 1 calc R . . . .
C102 C 0.5912(6) 0.6481(5) 0.4226(3) 0.0320(9) Uani 1 1 d . . . . .
H102 H 0.6654 0.5892 0.4439 0.038 Uiso 1 1 calc R . . . .
C103 C 0.4913(7) 0.7146(5) 0.4925(3) 0.0315(9) Uani 1 1 d . . . . .
H103 H 0.4975 0.7017 0.5623 0.038 Uiso 1 1 calc R . . . .
C104 C 0.3827(6) 0.7993(5) 0.4606(3) 0.0305(8) Uani 1 1 d . . . . .
H104 H 0.3122 0.8435 0.5075 0.037 Uiso 1 1 calc R . . . .
C105 C 0.3790(6) 0.8185(5) 0.3594(3) 0.0279(8) Uani 1 1 d . . . . .
H105 H 0.3071 0.8779 0.3365 0.034 Uiso 1 1 calc R . . . .
loop_
_atom_site_aniso_label
_atom_site_aniso_U_11
_atom_site_aniso_U_22
_atom_site_aniso_U_33
_atom_site_aniso_U_23
_atom_site_aniso_U_13
_atom_site_aniso_U_12
Sr1 0.0151(2) 0.0141(2) 0.0193(2) 0.00237(14) 0.00399(14) 0.00371(15)
F1 0.0291(12) 0.0149(10) 0.0253(11) -0.0044(8) 0.0061(9) 0.0054(9)
F2 0.0308(12) 0.0257(11) 0.0184(10) -0.0007(9) 0.0080(9) 0.0062(10)
F3 0.0298(12) 0.0221(11) 0.0272(12) 0.0088(9) 0.0090(9) 0.0048(9)
F4 0.0232(11) 0.0214(10) 0.0208(10) 0.0021(8) 0.0079(8) 0.0069(9)
O1 0.0158(12) 0.0188(11) 0.0222(12) 0.0041(10) 0.0053(9) 0.0037(9)
O1W 0.0192(12) 0.0155(12) 0.0234(13) 0.0022(10) 0.0061(10) 0.0041(10)
O2 0.0172(12) 0.0232(13) 0.0256(13) 0.0074(11) 0.0056(10) 0.0072(10)
O3 0.0191(12) 0.0173(11) 0.0251(13) 0.0039(10) 0.0057(10) 0.0047(9)
O4 0.0223(14) 0.0203(13) 0.0389(15) 0.0002(11) 0.0100(12) 0.0077(11)
O11 0.0313(15) 0.0206(13) 0.0216(13) 0.0035(11) 0.0082(11) 0.0070(11)
O12 0.0350(15) 0.0199(13) 0.0287(14) 0.0032(11) 0.0065(11) 0.0106(11)
O13 0.0381(17) 0.0267(14) 0.0231(13) 0.0087(12) 0.0104(12) 0.0089(12)
N11 0.0195(15) 0.0206(15) 0.0223(15) 0.0022(12) 0.0035(12) 0.0072(12)
C1 0.0172(16) 0.0134(15) 0.0215(17) 0.0007(13) 0.0013(13) 0.0043(12)
C2 0.0156(16) 0.0136(16) 0.0228(17) 0.0005(13) 0.0025(13) 0.0018(12)
C3 0.0174(16) 0.0147(15) 0.0239(17) -0.0009(13) 0.0038(13) 0.0037(12)
C4 0.0192(17) 0.0230(17) 0.0147(15) -0.0007(13) 0.0038(12) 0.0056(14)
C5 0.0190(17) 0.0205(17) 0.0214(17) 0.0054(14) 0.0037(13) 0.0044(14)
C6 0.0161(16) 0.0173(16) 0.0210(17) 0.0010(13) 0.0031(13) 0.0045(13)
C7 0.0209(17) 0.0167(15) 0.0191(16) 0.0014(13) 0.0026(13) 0.0045(13)
C8 0.0163(16) 0.0189(16) 0.0178(16) 0.0015(13) 0.0034(12) 0.0037(12)
N101 0.0277(17) 0.0222(16) 0.0206(15) 0.0020(12) 0.0050(13) 0.0034(13)
C101 0.0223(18) 0.0208(17) 0.0286(19) -0.0019(15) 0.0055(15) 0.0020(14)
C102 0.032(2) 0.029(2) 0.033(2) 0.0084(17) 0.0014(17) 0.0093(17)
C103 0.036(2) 0.0266(19) 0.0246(19) 0.0040(16) 0.0054(16) 0.0041(17)
C104 0.031(2) 0.0244(18) 0.028(2) -0.0010(15) 0.0104(16) 0.0032(15)
C105 0.0225(18) 0.0248(18) 0.031(2) 0.0021(15) 0.0041(15) 0.0050(15)
loop_
_atom_type_symbol
_atom_type_description
_atom_type_scat_dispersion_real
_atom_type_scat_dispersion_imag
_atom_type_scat_source
C C 0.0033 0.0016 'International Tables Vol C Tables 4.2.6.8 and 6.1.1.4'
H H 0.0000 0.0000 'International Tables Vol C Tables 4.2.6.8 and 6.1.1.4'
F F 0.0171 0.0103 'International Tables Vol C Tables 4.2.6.8 and 6.1.1.4'
N N 0.0061 0.0033 'International Tables Vol C Tables 4.2.6.8 and 6.1.1.4'
O O 0.0106 0.0060 'International Tables Vol C Tables 4.2.6.8 and 6.1.1.4'
Sr Sr -1.5307 3.2498 'International Tables Vol C Tables 4.2.6.8 and 6.1.1.4'
loop_
_geom_angle_atom_site_label_1
_geom_angle_atom_site_label_2
_geom_angle_atom_site_label_3
_geom_angle
_geom_angle_site_symmetry_1
_geom_angle_site_symmetry_3
Sr1 Sr1 Sr1 116.023(12) 2_765 2_665
O1 Sr1 Sr1 33.85(5) 2_665 2_665
O1 Sr1 Sr1 35.62(5) . 2_665
O1 Sr1 Sr1 146.95(5) . 2_765
O1 Sr1 Sr1 84.48(5) 2_665 2_765
O1 Sr1 O1 69.47(8) . 2_665
O1 Sr1 O2 116.74(7) . 2_665
O1 Sr1 O11 93.04(8) . .
O1 Sr1 O12 71.70(8) . .
O1 Sr1 C1 24.29(8) 2_665 2_665
O1 Sr1 C1 93.03(8) . 2_665
O1W Sr1 Sr1 119.04(5) . 2_765
O1W Sr1 Sr1 67.45(5) . 2_665
O1W Sr1 O1 71.10(7) . 2_665
O1W Sr1 O1 72.17(8) . .
O1W Sr1 O2 94.02(7) . 2_665
O1W Sr1 O3 139.71(7) . 1_665
O1W Sr1 O11 82.93(8) . .
O1W Sr1 O12 114.39(8) . .
O1W Sr1 C1 83.30(8) . 2_665
O2 Sr1 Sr1 81.53(5) 2_665 2_665
O2 Sr1 Sr1 148.86(5) 1_655 2_665
O2 Sr1 Sr1 38.82(5) 1_655 2_765
O2 Sr1 Sr1 37.26(5) 2_665 2_765
O2 Sr1 O1 122.45(7) 1_655 2_665
O2 Sr1 O1 151.39(8) 1_655 .
O2 Sr1 O1 48.15(7) 2_665 2_665
O2 Sr1 O1W 134.88(8) 1_655 .
O2 Sr1 O2 76.08(8) 1_655 2_665
O2 Sr1 O3 79.23(8) 1_655 1_665
O2 Sr1 O11 147.68(8) 2_665 .
O2 Sr1 O11 83.42(8) 1_655 .
O2 Sr1 O12 85.58(8) 1_655 .
O2 Sr1 O12 151.36(9) 2_665 .
O2 Sr1 C1 98.80(8) 1_655 2_665
O2 Sr1 C1 23.94(8) 2_665 2_665
O3 Sr1 Sr1 73.23(5) 1_665 2_665
O3 Sr1 Sr1 71.21(5) 1_665 2_765
O3 Sr1 O1 81.18(8) 1_665 .
O3 Sr1 O1 71.50(7) 1_665 2_665
O3 Sr1 O2 71.43(8) 1_665 2_665
O3 Sr1 O11 129.02(8) 1_665 .
O3 Sr1 O12 83.78(8) 1_665 .
O3 Sr1 C1 68.25(8) 1_665 2_665
O4 Sr1 Sr1 65.36(6) 2_655 2_765
O4 Sr1 Sr1 118.52(6) 2_655 2_665
O4 Sr1 O1 95.35(8) 2_655 2_665
O4 Sr1 O1 134.85(8) 2_655 .
O4 Sr1 O1W 62.68(8) 2_655 .
O4 Sr1 O2 72.85(9) 2_655 1_655
O4 Sr1 O2 68.86(8) 2_655 2_665
O4 Sr1 O3 135.65(8) 2_655 1_665
O4 Sr1 O11 81.43(8) 2_655 .
O4 Sr1 O12 126.47(8) 2_655 .
O4 Sr1 C1 82.61(9) 2_655 2_665
O11 Sr1 Sr1 125.49(6) . 2_665
O11 Sr1 Sr1 118.31(6) . 2_765
O11 Sr1 O1 151.97(8) . 2_665
O11 Sr1 O12 47.16(8) . .
O11 Sr1 C1 162.45(9) . 2_665
O12 Sr1 Sr1 121.25(6) . 2_765
O12 Sr1 Sr1 105.29(6) . 2_665
O12 Sr1 O1 136.40(8) . 2_665
O12 Sr1 C1 150.11(9) . 2_665
C1 Sr1 Sr1 57.63(7) 2_665 2_665
C1 Sr1 Sr1 60.34(7) 2_665 2_765
Sr1 O1 Sr1 110.53(8) . 2_665
C1 O1 Sr1 154.7(2) . .
C1 O1 Sr1 90.31(19) . 2_665
Sr1 O1W H1WA 109.4 . .
Sr1 O1W H1WB 109.3 . .
H1WA O1W H1WB 109.4 . .
Sr1 O2 Sr1 103.92(8) 1_455 2_665
C1 O2 Sr1 152.9(2) . 1_455
C1 O2 Sr1 95.7(2) . 2_665
C7 O3 Sr1 129.6(2) . 1_445
C7 O4 Sr1 141.3(2) . 2_655
N11 O11 Sr1 98.1(2) . .
N11 O12 Sr1 96.3(2) . .
O12 N11 O11 118.2(3) . .
O13 N11 O11 120.7(3) . .
O13 N11 O12 121.1(3) . .
O1 C1 Sr1 65.40(17) . 2_665
O1 C1 C2 119.3(3) . .
O2 C1 Sr1 60.35(17) . 2_665
O2 C1 O1 125.4(3) . .
O2 C1 C2 115.3(3) . .
C2 C1 Sr1 171.4(2) . 2_665
C3 C2 C1 120.7(3) . .
C3 C2 C8 117.0(3) . .
C8 C2 C1 121.9(3) . .
F1 C3 C2 120.8(3) . .
F1 C3 C4 117.9(3) . .
C4 C3 C2 121.3(3) . .
F2 C4 C3 120.6(3) . .
F2 C4 C5 120.1(3) . .
C5 C4 C3 119.3(3) . .
F3 C5 C4 117.6(3) . .
F3 C5 C6 119.8(3) . .
C4 C5 C6 122.6(3) . .
C5 C6 C7 123.0(3) . .
C5 C6 C8 115.6(3) . .
C8 C6 C7 121.4(3) . .
O3 C7 C6 116.1(3) . .
O4 C7 O3 127.7(3) . .
O4 C7 C6 116.1(3) . .
F4 C8 C2 117.6(3) . .
F4 C8 C6 118.2(3) . .
C2 C8 C6 124.2(3) . .
C101 N101 H101 119.0 . .
C105 N101 H101 119.0 . .
C105 N101 C101 122.0(3) . .
N101 C101 H10A 119.9 . .
N101 C101 C102 120.2(4) . .
C102 C101 H10A 119.9 . .
C101 C102 H102 120.6 . .
C101 C102 C103 118.7(4) . .
C103 C102 H102 120.6 . .
C102 C103 H103 119.9 . .
C104 C103 C102 120.1(4) . .
C104 C103 H103 119.9 . .
C103 C104 H104 120.6 . .
C105 C104 C103 118.7(4) . .
C105 C104 H104 120.6 . .
N101 C105 C104 120.2(4) . .
N101 C105 H105 119.9 . .
C104 C105 H105 119.9 . .
loop_
_geom_bond_atom_site_label_1
_geom_bond_atom_site_label_2
_geom_bond_distance
_geom_bond_site_symmetry_2
Sr1 Sr1 4.1351(6) 2_765
Sr1 Sr1 4.4702(6) 2_665
Sr1 O1 2.780(2) 2_665
Sr1 O1 2.659(2) .
Sr1 O1W 2.616(3) .
Sr1 O2 2.579(2) 1_655
Sr1 O2 2.671(2) 2_665
Sr1 O3 2.634(3) 1_665
Sr1 O4 2.572(3) 2_655
Sr1 O11 2.692(2) .
Sr1 O12 2.736(3) .
Sr1 C1 3.058(3) 2_665
F1 C3 1.345(4) .
F2 C4 1.358(4) .
F3 C5 1.353(4) .
F4 C8 1.344(4) .
O1 Sr1 2.780(2) 2_665
O1 C1 1.258(4) .
O1W H1WA 0.8724 .
O1W H1WB 0.8728 .
O2 Sr1 2.579(2) 1_455
O2 Sr1 2.671(2) 2_665
O2 C1 1.247(4) .
O3 Sr1 2.634(3) 1_445
O3 C7 1.267(4) .
O4 Sr1 2.572(3) 2_655
O4 C7 1.243(4) .
O11 N11 1.270(4) .
O12 N11 1.261(4) .
O13 N11 1.239(4) .
C1 Sr1 3.058(3) 2_665
C1 C2 1.524(4) .
C2 C3 1.386(5) .
C2 C8 1.386(5) .
C3 C4 1.384(4) .
C4 C5 1.383(5) .
C5 C6 1.384(5) .
C6 C7 1.526(5) .
C6 C8 1.403(4) .
N101 H101 0.8800 .
N101 C101 1.345(5) .
N101 C105 1.339(5) .
C101 H10A 0.9500 .
C101 C102 1.372(5) .
C102 H102 0.9500 .
C102 C103 1.391(6) .
C103 H103 0.9500 .
C103 C104 1.384(6) .
C104 H104 0.9500 .
C104 C105 1.379(6) .
C105 H105 0.9500 .
loop_
_geom_hbond_atom_site_label_D
_geom_hbond_atom_site_label_H
_geom_hbond_atom_site_label_A
_geom_hbond_distance_DH
_geom_hbond_distance_HA
_geom_hbond_distance_DA
_geom_hbond_angle_DHA
_geom_hbond_site_symmetry_A
O1W H1WA O3 0.87 1.89 2.736(3) 161.6 2
O1W H1WB O11 0.87 1.99 2.831(4) 160.2 2_655
N101 H101 O1W 0.88 1.87 2.702(4) 157.6 2_665
loop_
_geom_torsion_atom_site_label_1
_geom_torsion_atom_site_label_2
_geom_torsion_atom_site_label_3
_geom_torsion_atom_site_label_4
_geom_torsion
_geom_torsion_site_symmetry_1
_geom_torsion_site_symmetry_2
_geom_torsion_site_symmetry_3
_geom_torsion_site_symmetry_4
Sr1 O1 C1 Sr1 -146.2(5) . . . 2_665
Sr1 O1 C1 O2 -6.5(4) 2_665 . . .
Sr1 O1 C1 O2 -152.7(3) . . . .
Sr1 O1 C1 C2 171.8(3) 2_665 . . .
Sr1 O1 C1 C2 25.7(7) . . . .
Sr1 O2 C1 Sr1 136.6(5) 1_455 . . 2_665
Sr1 O2 C1 O1 143.4(4) 1_455 . . .
Sr1 O2 C1 O1 6.9(4) 2_665 . . .
Sr1 O2 C1 C2 -35.0(7) 1_455 . . .
Sr1 O2 C1 C2 -171.6(3) 2_665 . . .
Sr1 O3 C7 O4 -4.9(5) 1_445 . . .
Sr1 O3 C7 C6 173.0(2) 1_445 . . .
Sr1 O4 C7 O3 30.5(6) 2_655 . . .
Sr1 O4 C7 C6 -147.4(3) 2_655 . . .
Sr1 O11 N11 O12 -4.9(3) . . . .
Sr1 O11 N11 O13 175.3(3) . . . .
Sr1 O12 N11 O11 4.8(3) . . . .
Sr1 O12 N11 O13 -175.4(3) . . . .
F1 C3 C4 F2 -1.0(5) . . . .
F1 C3 C4 C5 178.6(3) . . . .
F2 C4 C5 F3 -0.8(5) . . . .
F2 C4 C5 C6 -179.0(3) . . . .
F3 C5 C6 C7 4.2(5) . . . .
F3 C5 C6 C8 -177.3(3) . . . .
O1 C1 C2 C3 119.8(4) . . . .
O1 C1 C2 C8 -67.4(5) . . . .
O2 C1 C2 C3 -61.7(4) . . . .
O2 C1 C2 C8 111.2(4) . . . .
C1 C2 C3 F1 -6.6(5) . . . .
C1 C2 C3 C4 174.7(3) . . . .
C1 C2 C8 F4 6.2(5) . . . .
C1 C2 C8 C6 -172.1(3) . . . .
C2 C3 C4 F2 177.7(3) . . . .
C2 C3 C4 C5 -2.7(5) . . . .
C3 C2 C8 F4 179.3(3) . . . .
C3 C2 C8 C6 1.0(5) . . . .
C3 C4 C5 F3 179.6(3) . . . .
C3 C4 C5 C6 1.5(6) . . . .
C4 C5 C6 C7 -177.7(3) . . . .
C4 C5 C6 C8 0.8(5) . . . .
C5 C6 C7 O3 53.9(5) . . . .
C5 C6 C7 O4 -128.0(4) . . . .
C5 C6 C8 F4 179.6(3) . . . .
C5 C6 C8 C2 -2.1(5) . . . .
C7 C6 C8 F4 -1.8(5) . . . .
C7 C6 C8 C2 176.4(3) . . . .
C8 C2 C3 F1 -179.8(3) . . . .
C8 C2 C3 C4 1.5(5) . . . .
C8 C6 C7 O3 -124.5(3) . . . .
C8 C6 C7 O4 53.6(5) . . . .
N101 C101 C102 C103 0.4(6) . . . .
C101 N101 C105 C104 -0.3(6) . . . .
C101 C102 C103 C104 0.4(6) . . . .
C102 C103 C104 C105 -1.1(6) . . . .
C103 C104 C105 N101 1.1(6) . . . .
C105 N101 C101 C102 -0.4(6) . . . .
