#------------------------------------------------------------------------------
#$Date: 2015-07-16 18:05:34 +0300 (Thu, 16 Jul 2015) $
#$Revision: 152130 $
#$URL: svn://www.crystallography.net/cod/cif/7/11/75/7117542.cif $
#------------------------------------------------------------------------------
#
# This file is available in the Crystallography Open Database (COD),
# http://www.crystallography.net/
#
# All data on this site have been placed in the public domain by the
# contributors.
#
data_7117542
loop_
_publ_author_name
'L. H. Blair'
'A. Colakel'
'R. M. Vrcelj'
'I. Sinclair'
'S. J. Coles'
_publ_section_title
;
 Metal-organic fireworks: MOFs as integrated structural scaffolds for
 pyrotechnic materials
;
_journal_name_full               Chem.Commun.
_journal_page_first              12185
_journal_paper_doi               10.1039/C5cc04174K
_journal_volume                  51
_journal_year                    2015
_chemical_formula_moiety         '0.25(C32 Cs4 F16 O16)'
_chemical_formula_sum            'C8 Cs F4 O4'
_chemical_formula_weight         368.99
_space_group_crystal_system      monoclinic
_space_group_IT_number           15
_space_group_name_Hall           '-I 2ya'
_space_group_name_H-M_alt        'I 1 2/a 1'
_symmetry_space_group_name_Hall  '-I 2ya'
_symmetry_space_group_name_H-M   'I 1 2/a 1'
_atom_sites_solution_hydrogens   .
_atom_sites_solution_primary     iterative
_audit_creation_date             2014-09-22
_audit_creation_method
;
Olex2 1.2
(compiled 2014.09.19 svn.r3010 for OlexSys, GUI svn.r4874)
;
_audit_update_record
;
2015-01-30 deposited with the CCDC.
2015-06-23 downloaded from the CCDC.
;
_cell_angle_alpha                90
_cell_angle_beta                 108.566(5)
_cell_angle_gamma                90
_cell_formula_units_Z            4
_cell_length_a                   9.3605(7)
_cell_length_b                   9.6918(7)
_cell_length_c                   11.0752(7)
_cell_measurement_reflns_used    0
_cell_measurement_temperature    293
_cell_measurement_theta_max      27.5
_cell_measurement_theta_min      2.9
_cell_volume                     952.45(12)
_computing_cell_refinement
'CrystalClear-SM Expert 3.1 b27 (Rigaku, 2013)'
_computing_data_collection
'CrystalClear-SM Expert 3.1 b27 (Rigaku, 2013)'
_computing_data_reduction
'CrystalClear-SM Expert 3.1 b27 (Rigaku, 2013)'
_computing_molecular_graphics    'Olex2 (Dolomanov et al., 2009)'
_computing_publication_material  'Olex2 (Dolomanov et al., 2009)'
_computing_structure_refinement  'ShelXL (Sheldrick, 2008)'
_computing_structure_solution
;
Superflip (Palatinus & Chapuis, 2007;Palatinus & van der Lee, 2008;
Palatinus et al., 2012)
;
_diffrn_ambient_temperature      293
_diffrn_detector                 'CCD area detector'
_diffrn_detector_area_resol_mean 28.5714
_diffrn_detector_type            'Rigaku HG Saturn724+ (2x2 bin mode)'
_diffrn_measured_fraction_theta_full 0.999
_diffrn_measured_fraction_theta_max 0.999
_diffrn_measurement_details
;
scan:
    Number of images: 108
               Slice: -35.0000 - 73.0000
         Image width: 1.0000
            Exp time: 1.0000
       Rotation axis: Omega
               Omega: 0.0000
               Kappa: 72.0000
                 Phi: 0.0000
                 XTD: 44.9026
              2theta: -17.3000
scan:
    Number of images: 81
               Slice: -67.0000 - 14.0000
         Image width: 1.0000
            Exp time: 1.0000
       Rotation axis: Omega
               Omega: 0.0000
               Kappa: -72.0000
                 Phi: -120.0000
                 XTD: 44.9026
              2theta: -17.3000
scan:
    Number of images: 86
               Slice: -64.0000 - 22.0000
         Image width: 1.0000
            Exp time: 1.0000
       Rotation axis: Omega
               Omega: 0.0000
               Kappa: -72.0000
                 Phi: 60.0000
                 XTD: 44.9026
              2theta: -17.3000
scan:
    Number of images: 73
               Slice: -53.0000 - 20.0000
         Image width: 1.0000
            Exp time: 1.0000
       Rotation axis: Omega
               Omega: 0.0000
               Kappa: 0.0000
                 Phi: -150.0000
                 XTD: 44.9026
              2theta: -17.3000
scan:
    Number of images: 15
               Slice: -22.0000 - -7.0000
         Image width: 1.0000
            Exp time: 1.0000
       Rotation axis: Omega
               Omega: 0.0000
               Kappa: 36.0000
                 Phi: -150.0000
                 XTD: 44.9026
              2theta: -17.3000
scan:
    Number of images: 180
               Slice: -107.0000 - 73.0000
         Image width: 1.0000
            Exp time: 1.0000
       Rotation axis: Omega
               Omega: 0.0000
               Kappa: 0.0000
                 Phi: 120.0000
                 XTD: 44.9026
              2theta: -17.3000
scan:
    Number of images: 17
               Slice: -68.0000 - -51.0000
         Image width: 1.0000
            Exp time: 1.0000
       Rotation axis: Omega
               Omega: 0.0000
               Kappa: -72.0000
                 Phi: 150.0000
                 XTD: 44.9026
              2theta: -17.3000
;
_diffrn_measurement_device       'four-circle \k diffractometer'
_diffrn_measurement_device_type  'Rigaku Saturn724+ (2x2 bin mode)'
_diffrn_measurement_method       'profile data from \w-scans'
_diffrn_measurement_specimen_support 'MiTeGen MicroMesh'
_diffrn_orient_matrix_type       d*Trek
_diffrn_orient_matrix_UB_11      0.085092
_diffrn_orient_matrix_UB_12      -0.038162
_diffrn_orient_matrix_UB_13      0.019371
_diffrn_orient_matrix_UB_21      -0.017931
_diffrn_orient_matrix_UB_22      -0.074858
_diffrn_orient_matrix_UB_23      -0.068708
_diffrn_orient_matrix_UB_31      0.097302
_diffrn_orient_matrix_UB_32      0.035993
_diffrn_orient_matrix_UB_33      -0.064608
_diffrn_radiation_collimation    0.3
_diffrn_radiation_monochromator  'Confocal mirrors, VHF Varimax'
_diffrn_radiation_probe          x-ray
_diffrn_radiation_type           MoK\a
_diffrn_radiation_wavelength     0.71075
_diffrn_reflns_av_R_equivalents  0.0310
_diffrn_reflns_av_unetI/netI     0.0160
_diffrn_reflns_laue_measured_fraction_full 0.999
_diffrn_reflns_laue_measured_fraction_max 0.999
_diffrn_reflns_limit_h_max       12
_diffrn_reflns_limit_h_min       -12
_diffrn_reflns_limit_k_max       10
_diffrn_reflns_limit_k_min       -12
_diffrn_reflns_limit_l_max       13
_diffrn_reflns_limit_l_min       -14
_diffrn_reflns_number            5821
_diffrn_reflns_point_group_measured_fraction_full 0.999
_diffrn_reflns_point_group_measured_fraction_max 0.999
_diffrn_reflns_theta_full        25.242
_diffrn_reflns_theta_max         27.540
_diffrn_reflns_theta_min         2.860
_diffrn_source                   'Rotating Anode'
_diffrn_source_current           55.0
_diffrn_source_power             2.475
_diffrn_source_target            Mo
_diffrn_source_type              'Rotating Anode'
_diffrn_source_voltage           45.0
_exptl_absorpt_coefficient_mu    3.951
_exptl_absorpt_correction_T_max  1.000
_exptl_absorpt_correction_T_min  0.819
_exptl_absorpt_correction_type   multi-scan
_exptl_absorpt_process_details
'CrystalClear-SM Expert 3.1 b27 (Rigaku, 2013)'
_exptl_crystal_colour            colourless
_exptl_crystal_colour_primary    colourless
_exptl_crystal_density_diffrn    2.573
_exptl_crystal_description       Block
_exptl_crystal_F_000             684
_exptl_crystal_size_max          0.15
_exptl_crystal_size_mid          0.1
_exptl_crystal_size_min          0.05
_refine_diff_density_max         0.687
_refine_diff_density_min         -0.762
_refine_diff_density_rms         0.115
_refine_ls_extinction_coef       .
_refine_ls_extinction_method     none
_refine_ls_goodness_of_fit_ref   1.097
_refine_ls_hydrogen_treatment    undef
_refine_ls_matrix_type           full
_refine_ls_number_parameters     78
_refine_ls_number_reflns         1103
_refine_ls_number_restraints     0
_refine_ls_restrained_S_all      1.097
_refine_ls_R_factor_all          0.0214
_refine_ls_R_factor_gt           0.0214
_refine_ls_shift/su_max          0.000
_refine_ls_shift/su_mean         0.000
_refine_ls_structure_factor_coef Fsqd
_refine_ls_weighting_details
'w=1/[\s^2^(Fo^2^)+(0.0380P)^2^+0.8270P] where P=(Fo^2^+2Fc^2^)/3'
_refine_ls_weighting_scheme      calc
_refine_ls_wR_factor_gt          0.0559
_refine_ls_wR_factor_ref         0.0559
_reflns_Friedel_coverage         0.000
_reflns_friedel_fraction_full    .
_reflns_friedel_fraction_max     .
_reflns_number_gt                1093
_reflns_number_total             1103
_reflns_threshold_expression     'I > 2\s(I)'
_cod_data_source_file            c5cc04174k2.cif
_cod_data_source_block           cs_fbdc_2
_cod_database_code               7117542
_shelxl_version_number           2013-3
_shelx_space_group_comment
;
The symmetry employed for this shelxl refinement is uniquely defined
by the following loop, which should always be used as a source of
symmetry information in preference to the above space-group names.
They are only intended as comments.
;
_olex2_refinement_description
;
;
_shelx_res_file
;
TITL 2014ac012b
CELL 0.71075 9.3605 9.6918 11.0752 90 108.566 90
ZERR 4 0.0007 0.0007 0.0007 0 0.005 0
LATT 2
SYMM 0.5-X,+Y,-Z

SFAC C Cs F O
UNIT 32 4 16 16

L.S. 4 0 0
PLAN  20
TEMP 19.85
MORE -1
BOND $H
CONF
HTAB
fmap 2 53
acta
REM <HKL>C:/Users/lhb1u10/Desktop/My%20Structures/Ayhan/2014ac012b_Cs%20fBDC%2
REM 03D%20MOF/I2upona.hkl</HKL>

WGHT    0.038000    0.827000
FVAR       3.10190
C1    1    0.390478    0.105903    0.202657    11.00000    0.02853    0.02468 =
         0.02323   -0.00199    0.01375    0.00239
C2    1    0.449270    0.051923    0.099361    11.00000    0.02594    0.02191 =
         0.02297   -0.00114    0.01159    0.00538
C3    1    0.515502    0.136725    0.031534    11.00000    0.03009    0.01924 =
         0.02806   -0.00345    0.01416    0.00197
C4    1    0.563772    0.087000   -0.065659    11.00000    0.02779    0.02102 =
         0.02751    0.00146    0.01575    0.00175
O1    4    0.302653    0.209839    0.168278    11.00000    0.04316    0.03481 =
         0.02839    0.00284    0.02075    0.01707
O2    4    0.072104    0.450602    0.194059    11.00000    0.05253    0.04006 =
         0.02729    0.00624    0.02112    0.01487
F1    3    0.535734    0.270932    0.061355    11.00000    0.05198    0.01901 =
         0.04620   -0.00667    0.02994   -0.00219
F2    3    0.369869    0.824336    0.124363    11.00000    0.04595    0.02611 =
         0.03931    0.00279    0.02853   -0.00265
CS1   2    0.250000    0.484396    0.000000    10.50000    0.03369    0.02893 =
         0.03218    0.00000    0.01583    0.00000
HKLF 4

REM  2014ac012b
REM R1 =  0.0214 for    1093 Fo > 4sig(Fo)  and  0.0214 for all    1103 data
REM     78 parameters refined using      0 restraints

END

WGHT      0.0380      0.8264

REM No hydrogen bonds found for HTAB generation

REM Highest difference peak  0.687,  deepest hole -0.762,  1-sigma level  0.115
Q1    1   0.2500  0.6239  0.0000  10.50000  0.05    0.69
Q2    1   0.2500  0.3443  0.0000  10.50000  0.05    0.65
Q3    1   0.2500  0.2500  0.2500  10.50000  0.05    0.59
Q4    1   0.4395 -0.0150  0.0807  11.00000  0.05    0.39
Q5    1   0.3142  0.3677  0.1811  11.00000  0.05    0.35
Q6    1   0.6727  0.0143  0.1982  11.00000  0.05    0.34
Q7    1   0.2387  0.1576  0.1831  11.00000  0.05    0.32
Q8    1   0.7500  0.0548  0.0000  10.50000  0.05    0.28
Q9    1   0.3790  0.3857  0.1832  11.00000  0.05    0.27
Q10   1   0.0104  0.3127  0.1648  11.00000  0.05    0.26
Q11   1   0.5400  0.1053 -0.0206  11.00000  0.05    0.26
Q12   1   0.5415  0.4154  0.0199  11.00000  0.05    0.25
Q13   1   0.6243  0.1062  0.2365  11.00000  0.05    0.25
Q14   1  -0.0228  0.5416  0.0706  11.00000  0.05    0.24
Q15   1   0.5438  0.2480  0.1267  11.00000  0.05    0.24
Q16   1   0.4702  0.0960  0.0596  11.00000  0.05    0.24
Q17   1   0.3033  0.1612  0.1657  11.00000  0.05    0.24
Q18   1   0.5457  0.8348  0.1965  11.00000  0.05    0.24
Q19   1   0.2713  0.2015  0.1447  11.00000  0.05    0.24
Q20   1   0.4503  0.3887 -0.0336  11.00000  0.05    0.23
;
_shelx_res_checksum              47038
_shelx_hkl_file
;
   0  -1   1 81201.8 906.140   1
   0   1   1 86154.1 909.430   1
   0   1   1 91954.7 1050.61   1
   1   1   0 10917.2 407.360   1
  -1  -1   0 11497.9 391.130   1
   1   1   0 11839.9 451.000   1
   1  -1   0 12208.6 385.000   1
  -1   1   0 11317.1 334.590   1
  -1   1   0 11569.8 338.560   1
   1  -1   0 12240.0 373.570   1
  -1   1   0 13043.9 362.090   1
  -1   1   0 10373.0 349.160   1
   1   0   1 29.1800 35.7300   1
  -1   0  -1 18.3300 27.3500   1
  -1   0  -1 29.7100 41.9000   1
   1   0   1 95.4700 52.6400   1
   1   0   1 8.16000 31.9200   1
  -1   0  -1 50.4900 31.2500   1
  -1   0  -1 10.7300 24.3100   1
   1   0   1 22.4100 21.0600   1
   0   0  -2 407928. 3508.34   1
   0   0   2 423883. 2914.46   1
   0   0  -2 405112. 2312.79   1
   0   0  -2 409624. 2193.10   1
   0   0  -2 418507. 3325.14   1
   0   0   2 413177. 3309.17   1
   0   0  -2 407691. 3885.46   1
   0  -2   0 162426. 1241.36   1
   0   2   0 157787. 1369.64   1
  -1  -1   2 3101.81 226.160   1
   1   1  -2 2917.52 168.750   1
  -1   1   2 2752.23 172.760   1
   1  -1  -2 2965.84 191.620   1
  -1  -1   2 2964.36 179.200   1
   1   1  -2 3191.89 243.030   1
  -1   1   2 2878.67 260.640   1
  -1  -1   2 2983.85 174.780   1
   1   1  -2 2731.28 156.700   1
   1  -1  -2 3410.84 268.500   1
  -1   1   2 3013.57 289.560   1
   2   0   0 23180.9 483.120   1
  -2   0   0 20661.3 429.670   1
   2   0   0 22875.0 513.350   1
   2   0   0 25362.2 450.750   1
   2   0   0 23899.3 464.780   1
  -2   0   0 22821.2 480.530   1
  -2   0   0 24446.6 596.130   1
   2   0   0 21871.1 576.770   1
  -2  -1   1 142900. 1489.37   1
   2   1  -1 133560. 1350.07   1
   2   1  -1 130661. 1096.48   1
  -2  -1   1 130803. 1175.56   1
   2  -1  -1 129230. 1132.53   1
  -2   1   1 135173. 1311.28   1
   2  -1  -1 130602. 1428.85   1
   2  -1  -1 133244. 1133.52   1
  -2   1   1 135004. 1167.80   1
   2  -1  -1 133752. 1123.23   1
  -1  -2   1 2910.99 155.780   1
   1   2  -1 3122.98 172.750   1
   1   2  -1 2594.80 162.560   1
  -1  -2   1 2738.68 207.270   1
   1   2  -1 2390.73 167.910   1
  -1  -2   1 2648.08 147.420   1
  -1   2   1 2759.03 202.000   1
  -1   2   1 2825.98 189.430   1
   1  -2  -1 3099.88 177.430   1
   1  -2  -1 2736.07 179.500   1
  -1   2   1 2790.67 185.380   1
   2   0  -2 363222. 1925.57   1
  -2   0   2 358006. 2131.97   1
   2   0  -2 356230. 2261.22   1
  -1   2  -1 71405.1 874.650   1
   1  -2   1 72722.2 897.230   1
  -1   2  -1 71080.2 926.450   1
  -1   2  -1 79634.1 806.190   1
  -1  -2  -1 74774.8 849.110   1
  -1  -2  -1 75559.4 858.700   1
   1   2   1 70659.8 789.460   1
  -1  -2  -1 76007.6 851.340   1
   1  -1   2 43564.4 828.990   1
  -1  -1  -2 44938.8 627.950   1
  -1   1  -2 41400.3 960.760   1
   1   1   2 41822.3 661.800   1
  -1   1  -2 44101.2 655.220   1
   1  -1   2 40701.9 606.990   1
   1  -1   2 46115.5 675.760   1
  -1   1  -2 39455.3 651.850   1
   1  -1   2 41754.1 681.610   1
  -1  -1  -2 44949.4 670.490   1
   1   1   2 44822.8 681.060   1
   1  -1   2 46800.0 677.980   1
  -1   1  -2 43778.8 607.380   1
   1   0  -3 5.88000 20.3500   1
   1   0  -3 27.2800 28.0200   1
  -1   0   3 55.9700 30.2100   1
  -1   0   3 0.01000 24.9300   1
  -1   0   3 219.240 59.8300   1
   1   0  -3 13.3700 45.1000   1
   1   0  -3 13.7100 25.2300   1
   1   0  -3 27.4700 30.4200   1
   0  -2   2 179798. 1178.24   1
   0   2  -2 172182. 1322.57   1
   0  -2   2 180656. 1520.01   1
   0   2  -2 174168. 1317.27   1
   0   2  -2 171896. 1335.34   1
   0   2  -2 175600. 1315.65   1
   0  -2   2 176852. 1428.58   1
   0   2  -2 176150. 1426.94   1
   0  -2   2 182160. 1239.51   1
   0   2   2 169951. 1109.02   1
   0   2   2 176393. 1331.57   1
   0  -2  -2 175282. 1254.54   1
   2  -1   1 848501. 2469.35   1
  -2   1  -1 860644. 2761.17   1
   2  -1   1 849903. 3390.50   1
  -2  -1  -1 889499. 6328.11   1
   2  -1   1 848374. 2808.33   1
   0   1  -3 282514. 2067.24   1
   0   1  -3 270955. 1720.09   1
   0   1   3 279567. 1777.48   1
  -2  -2   0 168825. 1321.49   1
   2   2   0 163810. 1332.56   1
  -2   2   0 154000. 1323.49   1
   2  -2   0 167028. 1355.42   1
  -2   2   0 163004. 1206.10   1
  -2   2   0 154564. 1305.77   1
  -2   2   0 158897. 1408.06   1
   2  -2   0 166603. 1154.02   1
   2  -1  -3 372410. 2032.95   1
  -2  -1   3 384900. 2367.83   1
   2   1  -3 376874. 2110.08   1
  -2  -1   3 355736. 2013.10   1
  -2   1   3 364094. 1801.26   1
   2  -1  -3 369693. 2116.06   1
  -2  -1   3 367010. 1905.66   1
   2   1  -3 369257. 1815.31   1
   2  -1  -3 367585. 1870.65   1
   2  -1  -3 363203. 2488.97   1
   2  -1  -3 381837. 2173.56   1
  -2  -2   2 363259. 1762.77   1
  -2  -2   2 353656. 1910.67   1
  -2  -2   2 375497. 2308.25   1
  -2   2   2 368770. 2162.59   1
  -2   2   2 370934. 2168.35   1
   2  -2  -2 371935. 1837.51   1
  -2   2   2 352746. 2196.58   1
   3   0  -1 3.03000 20.2000   1
   3   0  -1 123.830 38.8300   1
   3   0  -1 8.69000 26.6200   1
   3   0  -1 23.9500 40.0900   1
  -3   0   1 5.81000 21.4700   1
   3   0  -1 94.7500 32.3200   1
  -3   0   1 -15.940 40.5300   1
   0  -3   1 443881. 2051.94   1
   0  -3   1 449668. 2297.22   1
   0  -3  -1 445245. 2023.19   1
  -1  -3   0 36800.5 595.450   1
   1   3   0 33084.3 590.590   1
  -1  -3   0 36088.3 641.880   1
   1   3   0 35007.6 586.090   1
  -1   3   0 36883.0 690.760   1
   1  -3   0 37247.7 568.060   1
  -1   3   0 40267.2 629.500   1
  -1   3   0 36015.9 645.380   1
   1  -3   0 35512.3 613.050   1
   1  -3   0 38646.6 564.670   1
  -1   3   0 36574.2 613.000   1
   2   0   2 1020.23 95.5600   1
   2   0   2 1021.32 110.510   1
  -2   0  -2 1054.42 141.760   1
   2   0   2 766.410 96.4500   1
  -2   0  -2 944.760 97.1800   1
   2   0   2 933.270 96.1500   1
  -1   0  -3 5.00000 21.3100   1
   1   0   3 101.980 34.7500   1
   1   0   3 24.3700 29.2400   1
  -1   0  -3 5.22000 25.4400   1
  -1   0  -3 4.91000 28.0200   1
  -1   0  -3 121.540 41.9100   1
  -1   0  -3 53.9600 33.9700   1
  -1  -2   3 77218.1 880.200   1
   1   2  -3 84209.3 1315.33   1
  -1  -2   3 83938.7 1007.86   1
   1   2  -3 79109.9 991.910   1
   1   2  -3 80609.9 811.470   1
   1   2  -3 76246.3 870.290   1
  -1  -2   3 84779.1 833.010   1
  -1   2   3 79063.3 1054.34   1
  -1   2   3 76725.7 943.060   1
   1  -2  -3 82117.8 817.200   1
  -3   1   2 7946.88 286.490   1
   3  -1  -2 7250.56 272.070   1
   3   1  -2 7109.43 298.880   1
  -3  -1   2 6975.58 262.900   1
  -3   1   2 7193.45 323.920   1
   3   1  -2 7756.68 268.290   1
  -3   1   2 6946.41 262.580   1
   3  -1  -2 7828.50 270.280   1
   3  -1  -2 6933.65 323.410   1
  -3  -1   2 7235.30 292.840   1
   3   1  -2 7578.89 348.170   1
  -3   1   2 7297.25 287.900   1
  -3  -1   2 7122.30 260.440   1
  -3  -1   0 70381.2 707.240   1
   3   1   0 79349.9 912.050   1
  -3  -1   0 71353.0 864.390   1
  -3  -1   0 69882.0 938.960   1
   3   1   0 71634.4 978.110   1
  -3   1   0 70845.0 1037.15   1
   3  -1   0 77298.5 780.310   1
  -3   1   0 68902.4 965.130   1
  -3   1   0 72884.2 906.020   1
   3  -1   0 70649.4 804.950   1
   3  -1   0 74994.1 912.080   1
  -3   1   0 73287.0 903.560   1
   3  -1   0 77692.3 864.950   1
  -3   1   0 78191.8 930.350   1
  -1  -3   2 217.490 47.7200   1
  -1  -3   2 137.980 33.5300   1
   1  -3  -2 201.940 47.9000   1
  -1   3   2 167.140 45.2800   1
   1   3  -2 206.730 44.2500   1
   1   3  -2 271.760 43.8700   1
  -1   3   2 253.360 58.1700   1
   1  -3  -2 235.920 55.5900   1
   1   3  -2 213.290 58.1700   1
  -1  -3   2 197.930 57.5900   1
  -3   0   3 -7.2500 48.6600   1
   3   0  -3 54.5500 31.7300   1
  -3   0   3 127.870 41.6200   1
   3   0  -3 13.8900 21.2700   1
  -3   0   3 4.87000 26.2000   1
   3   0  -3 54.8300 26.9000   1
   3   0  -3 27.2600 47.0100   1
   1   1  -4 53050.2 824.890   1
   1  -1  -4 58681.2 797.420   1
   1   1  -4 54838.6 723.020   1
  -1  -1   4 53602.2 775.460   1
   1   1  -4 57244.1 970.500   1
  -1  -1   4 57666.3 903.700   1
  -1   1   4 58831.7 791.650   1
   1  -1  -4 62298.8 1015.64   1
  -1  -1   4 55498.3 689.290   1
  -1   1   4 56673.6 828.140   1
   1   1  -4 52916.7 811.500   1
   1  -1  -4 53789.3 925.180   1
   2   0  -4 169669. 1199.27   1
   2   0  -4 163853. 1536.77   1
  -2   0   4 179192. 1608.89   1
  -2  -3   1 388665. 1994.54   1
  -2   3   1 392877. 2268.43   1
  -2   3   1 382040. 2258.36   1
  -2   3   1 370983. 2220.98   1
   2  -3  -1 386852. 1788.82   1
  -3   0  -1 5.88000 33.2500   1
   3   0   1 43.4900 24.5500   1
  -3   0  -1 124.410 51.6700   1
   3   0   1 81.0100 44.9100   1
   3   0   1 28.5400 32.7000   1
  -3   0  -1 14.0900 39.6400   1
   3   0   1 57.9000 46.3000   1
   0   0  -4 110171. 1316.86   1
   0   0  -4 103154. 1127.55   1
   0   0   4 111866. 1246.17   1
   0   0   4 109158. 1180.32   1
   0   0  -4 102309. 1000.63   1
  -3  -2   1 40.6200 39.2000   1
   3   2  -1 43.3100 35.3100   1
  -3  -2   1 74.6900 44.0300   1
   3   2  -1 56.5200 37.9000   1
  -3  -2   1 147.250 41.3000   1
   3  -2  -1 78.2300 51.3200   1
   3  -2  -1 57.5900 29.0000   1
  -3   2   1 63.9200 32.8800   1
   3  -2  -1 38.4100 33.2800   1
   3  -2  -1 58.0900 28.4500   1
   3  -2  -1 88.0000 45.7400   1
  -3   2   1 68.9500 33.5400   1
   3  -2  -1 63.6600 32.2300   1
   2  -2   2 499319. 2086.46   1
   2  -2   2 503168. 2144.53   1
   2  -2   2 509276. 2091.56   1
   2  -2   2 503282. 1962.88   1
   2  -2   2 509940. 2339.05   1
  -2  -2  -2 486421. 2265.67   1
  -2  -2  -2 503403. 2183.59   1
   2   2   2 499143. 2148.26   1
  -1   2  -3 92.8500 44.3400   1
   1  -2   3 149.260 48.6100   1
   1  -2   3 106.590 44.4900   1
  -1   2  -3 124.080 44.9200   1
  -1   2  -3 131.560 37.5900   1
  -1   2  -3 113.090 30.7100   1
  -1   2  -3 90.3900 48.7900   1
   1  -2   3 75.3700 39.1100   1
   1  -2   3 180.410 47.8200   1
   1   2   3 120.550 39.5800   1
  -1  -2  -3 107.130 35.7900   1
  -1  -2  -3 96.8000 37.0700   1
   1   2   3 138.520 39.1000   1
  -1   3  -2 52014.5 859.210   1
   1  -3   2 57439.3 697.020   1
  -1   3  -2 49525.7 728.150   1
  -1   3  -2 54504.1 631.530   1
   1  -3   2 50318.7 731.730   1
  -1   3  -2 53058.0 856.750   1
  -1  -3  -2 57980.6 783.670   1
  -1  -3  -2 57022.3 695.130   1
   1   3   2 49156.9 739.150   1
  -2   3  -1 130799. 1380.75   1
   2  -3   1 143886. 1055.05   1
  -2   3  -1 137655. 1292.34   1
   2  -3   1 133651. 1143.48   1
   2  -3   1 134146. 1128.74   1
  -2   3  -1 131204. 1473.06   1
   2   3   1 134892. 1148.65   1
   2  -3   1 132741. 1055.20   1
   2   3   1 138406. 1228.24   1
  -2   3  -1 143621. 1116.48   1
   0  -4   0 221520. 1437.92   1
   0  -4   0 210489. 1447.93   1
   0   4   0 204352. 1536.97   1
   3   2  -3 61639.9 892.320   1
  -3  -2   3 61710.3 806.700   1
  -3  -2   3 60229.6 773.760   1
  -3  -2   3 63514.6 951.720   1
   3   2  -3 66671.8 811.080   1
   3   2  -3 63621.8 784.040   1
   3  -2  -3 61434.4 751.130   1
   3  -2  -3 63370.8 784.850   1
   3  -2  -3 64902.5 854.450   1
  -3   2   3 58757.2 824.610   1
   3  -2  -3 63265.7 785.080   1
   0   3  -3 49965.8 682.090   1
   0  -3   3 48658.9 758.930   1
   0   3  -3 46488.9 818.500   1
   0  -3   3 49265.7 594.670   1
   0   3  -3 48180.7 852.290   1
   0  -3   3 50647.3 747.530   1
   0   3  -3 49586.1 746.770   1
   0  -3   3 51147.4 686.110   1
   0   3   3 47017.5 663.720   1
   0   3   3 46374.1 643.050   1
   0  -3  -3 52088.2 691.360   1
   0  -3  -3 49495.4 642.240   1
  -2   2   4 623273. 2725.02   1
   2   2  -4 609616. 2402.75   1
  -2  -2   4 621631. 2882.86   1
   2  -2  -4 614549. 3159.97   1
   2  -2  -4 634650. 2365.85   1
   2   2  -4 611270. 3171.44   1
   2   1   3 385712. 1927.15   1
  -2  -1  -3 396542. 1996.23   1
   2  -1   3 393978. 2161.91   1
   2  -1   3 395909. 1891.81   1
  -2   1  -3 385282. 1812.45   1
  -2  -1  -3 394110. 2184.02   1
   2   1   3 387606. 1985.47   1
  -2   1  -3 391908. 1811.80   1
  -4   0   2 637935. 2928.70   1
   4   0  -2 628930. 2260.80   1
   4   0  -2 630825. 2330.69   1
  -4   0   2 650502. 2589.93   1
   1   4  -1 613.910 85.5900   1
  -1   4   1 538.840 72.6100   1
   1  -4  -1 529.770 71.2200   1
   1   4  -1 621.030 73.5300   1
  -1  -4   1 1018.31 94.0800   1
  -1   4   1 502.170 72.7600   1
  -1  -4   1 549.970 73.8900   1
   1  -4  -1 535.330 66.5000   1
  -1   4   1 616.500 109.280   1
  -1  -4   1 647.670 76.1600   1
   1  -4  -1 668.250 81.3600   1
  -3  -2  -1 638.540 100.280   1
   3   2   1 658.050 90.6800   1
   3   2   1 795.230 94.2300   1
  -3  -2  -1 583.880 86.4900   1
   3  -2   1 641.070 84.2000   1
  -3   2  -1 601.870 102.180   1
   3  -2   1 619.750 84.2800   1
   3  -2   1 618.020 77.8500   1
   3  -2   1 562.160 77.8300   1
   3  -2   1 721.800 83.1200   1
  -3   2  -1 650.540 81.1800   1
  -3   2  -1 599.470 93.6000   1
   3  -2   1 899.840 85.3400   1
   3  -2   1 601.320 97.2400   1
  -2  -3   3 220912. 1549.04   1
   2   3  -3 224460. 1673.70   1
  -2  -3   3 222485. 1739.01   1
   2  -3  -3 233597. 1319.16   1
  -2   3   3 220388. 1718.36   1
  -2   3   3 215461. 1510.26   1
   0  -2   4 298989. 1665.42   1
   0   2  -4 305940. 1544.37   1
   0   2  -4 292712. 1887.97   1
   0   2  -4 302866. 1798.95   1
   0   2   4 306384. 1620.60   1
   0   2   4 299315. 1838.29   1
   0  -2  -4 298179. 1688.19   1
   3   1  -4 107236. 992.970   1
   3  -1  -4 108844. 1102.05   1
   3  -1  -4 113689. 1102.97   1
  -3  -1   4 112151. 1265.08   1
   3   1  -4 108257. 1303.33   1
   3   1  -4 111751. 1030.32   1
  -3  -1   4 108270. 1116.73   1
  -3   1   4 114566. 1175.57   1
  -3  -1   4 110048. 1117.11   1
  -3   1   4 114191. 1217.67   1
   3  -1  -4 116763. 1183.17   1
   4  -1  -1 391421. 1795.02   1
   4  -1  -1 393237. 2389.74   1
  -4  -1   1 392330. 2341.19   1
  -4   1   1 382004. 2075.78   1
   4  -1  -1 385279. 2078.20   1
   4   1  -1 378584. 2007.65   1
  -4  -1   1 383734. 2136.86   1
   1   1   4 481.300 70.0000   1
   1  -1   4 381.780 57.9600   1
   1  -1   4 438.860 61.2200   1
   1   1   4 447.620 78.6200   1
  -1  -1  -4 474.710 63.8000   1
  -1   1  -4 527.560 78.0800   1
  -1  -1  -4 510.630 76.7600   1
   1  -1   4 484.060 77.9800   1
   1   1   4 488.190 68.6500   1
  -1   1  -4 416.420 64.4700   1
   1   1   4 480.610 69.1600   1
  -1   1  -4 450.680 75.7600   1
   1  -1   4 430.380 62.5400   1
   1  -4   1 140908. 1274.25   1
   1  -4   1 139085. 993.980   1
   1  -4   1 136273. 1253.06   1
   1   4   1 136282. 1132.82   1
  -1  -4  -1 135991. 1024.09   1
   1   4   1 139661. 1162.45   1
  -1  -4  -1 138578. 1099.91   1
  -3   1  -2 60334.3 740.010   1
  -3   1  -2 51908.5 734.720   1
   3  -1   2 56871.3 892.820   1
   3   1   2 56405.4 781.360   1
  -3   1  -2 57568.8 803.380   1
   3  -1   2 62175.7 1030.72   1
  -3  -1  -2 55717.4 807.360   1
   3   1   2 53090.5 684.840   1
  -3  -1  -2 54031.3 914.970   1
   3   1   2 56889.9 823.640   1
   3  -1   2 54973.4 773.820   1
  -3   1  -2 60665.8 818.710   1
   3  -1   2 54761.1 725.060   1
  -4   0   0 190822. 1705.16   1
   4   0   0 192873. 1656.99   1
   4   0   0 193865. 1324.89   1
   4   0   0 199442. 1356.12   1
  -4   0   0 191641. 1521.38   1
   4   0   0 182271. 1212.79   1
   4   0   0 184160. 1443.06   1
   1   0  -5 22.4100 25.6700   1
  -1   0   5 7.55000 38.7400   1
   1   0  -5 9.49000 42.9900   1
   1   0  -5 10.3800 30.1900   1
   1   0  -5 -6.4800 39.5900   1
  -1   0   5 14.2500 27.5000   1
  -1   0   5 32.4200 23.9300   1
   3   3  -2 74599.1 1075.49   1
  -3  -3   2 74617.3 875.110   1
   3   3  -2 71320.9 778.140   1
  -3  -3   2 77968.2 798.430   1
  -3  -3   2 72903.8 1138.06   1
  -3   3   2 77819.9 866.020   1
   3  -3  -2 72963.4 792.340   1
  -3   3   2 68815.2 968.810   1
   3  -3  -2 73005.8 855.990   1
  -3   3   2 74979.4 909.970   1
   0  -4   2 153149. 1211.03   1
   0   4  -2 158582. 1101.25   1
   0  -4   2 159811. 1111.02   1
   0   4  -2 151757. 1270.78   1
   0   4  -2 152035. 1314.06   1
   0  -4  -2 166611. 1293.23   1
   0   4   2 161530. 1433.61   1
   3   3   0 11968.2 323.790   1
  -3  -3   0 14114.3 432.010   1
  -3  -3   0 12846.5 432.040   1
   3   3   0 12919.0 362.590   1
  -3   3   0 12810.9 381.950   1
   3  -3   0 13518.0 386.870   1
   3  -3   0 15284.0 410.340   1
   3  -3   0 15111.1 354.960   1
  -3   3   0 14005.3 452.050   1
  -3   3   0 15103.4 360.110   1
   3  -3   0 13439.9 370.770   1
   3  -3   0 15024.3 401.750   1
  -4   1   3 198715. 1422.37   1
   4  -1  -3 206552. 1378.47   1
  -4  -1   3 209653. 1641.25   1
   4   1  -3 203730. 2020.77   1
  -4  -1   3 200625. 1765.45   1
   4  -1  -3 201931. 1484.40   1
   4   1  -3 204694. 1491.36   1
  -4  -1   3 204553. 1538.77   1
  -4   1   3 193196. 1555.21   1
  -2  -1   5 141766. 1445.19   1
  -2  -1   5 140055. 1082.49   1
   2  -1  -5 130140. 1374.24   1
   2   1  -5 141778. 1526.41   1
   2  -1  -5 143117. 1254.30   1
   2  -1  -5 137615. 1203.92   1
  -2  -4   0 179831. 1393.81   1
   2   4   0 171237. 1410.46   1
   2  -4   0 173173. 1137.69   1
  -2   4   0 166418. 1288.13   1
   2  -4   0 179384. 1106.03   1
  -2   4   0 166579. 1274.66   1
   2  -4   0 176663. 1279.52   1
  -1  -3   4 6919.02 285.700   1
  -1  -3   4 7673.34 233.330   1
   1   3  -4 7566.89 248.140   1
   1   3  -4 7576.24 282.140   1
   1   3  -4 7051.80 302.500   1
  -1  -3   4 8126.74 331.520   1
   1   3  -4 7662.03 286.340   1
  -1   3   4 6964.82 263.140   1
   1  -3  -4 7953.11 273.970   1
  -1   3   4 7492.36 279.720   1
   1  -3  -4 8073.50 283.570   1
   4   2  -2 52937.3 730.390   1
  -4  -2   2 53119.5 666.600   1
  -4  -2   2 54180.7 813.240   1
   4   2  -2 51028.4 851.260   1
  -4  -2   2 55211.6 916.480   1
   4  -2  -2 55582.6 871.960   1
   4  -2  -2 60060.2 777.590   1
   4  -2  -2 54613.4 956.430   1
   4  -2  -2 60245.7 769.600   1
  -4   2   2 52902.5 850.080   1
   2   4  -2 76042.4 983.180   1
  -2  -4   2 76598.9 915.010   1
  -2  -4   2 84052.7 1099.34   1
   2  -4  -2 85799.1 916.240   1
  -2   4   2 77848.8 855.690   1
  -2   4   2 74787.4 1003.99   1
  -2   4   2 79408.6 877.570   1
   0  -1  -5 328010. 1828.99   1
   0   1  -5 329077. 1737.66   1
   0   1  -5 326070. 2131.64   1
   0  -1  -5 335811. 2110.91   1
   0   1   5 341442. 2035.28   1
   0   1   5 336686. 2028.25   1
   0  -1   5 320937. 1714.54   1
   0  -1   5 333409. 1788.85   1
   0   1   5 319827. 1699.54   1
   0  -1   5 319570. 1752.95   1
   0  -1  -5 319704. 2320.44   1
   3   0  -5 30.6600 60.8800   1
   3   0  -5 22.3300 31.0400   1
  -3   0   5 14.0400 31.1400   1
   3   0  -5 16.6000 28.1500   1
   3   0  -5 22.9300 31.1200   1
   3   0  -5 55.1500 29.1800   1
  -3   0   5 8.42000 23.5400   1
  -3   0   5 27.2500 41.5900   1
   4   0  -4 169346. 1624.71   1
  -4   0   4 172446. 1552.32   1
   4   0  -4 164621. 1258.20   1
  -4   0   4 175776. 1325.67   1
   4   0  -4 172265. 1352.70   1
  -1  -4   3 5413.85 249.760   1
   1   4  -3 4759.21 207.100   1
  -1  -4   3 4767.33 232.130   1
   1   4  -3 5421.77 242.520   1
   1   4  -3 5152.72 247.770   1
  -1  -4   3 5544.87 196.730   1
   1   4  -3 5781.54 237.800   1
   1  -4  -3 6113.27 242.220   1
  -1   4   3 5468.49 237.780   1
   1  -4  -3 6142.94 240.700   1
  -1   4   3 4937.78 206.660   1
   4   2   0 129375. 1253.07   1
  -4  -2   0 125171. 1046.69   1
  -4  -2   0 133527. 1603.32   1
   4   2   0 122597. 1233.03   1
  -4   2   0 128250. 1115.17   1
  -4   2   0 122401. 1116.05   1
  -4   2   0 122689. 1371.50   1
  -4   2   0 131176. 1073.78   1
   4  -2   0 123782. 1287.60   1
   4  -2   0 130472. 1007.84   1
   1   2  -5 73.0200 46.4500   1
  -1  -2   5 56.9900 43.6500   1
   1   2  -5 52.3300 28.7000   1
  -1  -2   5 85.1300 29.3300   1
   1   2  -5 412.260 94.1700   1
  -1  -2   5 113.100 58.2900   1
   1   2  -5 65.9200 28.1800   1
   1  -2  -5 93.0500 39.4500   1
   1  -2  -5 52.2800 37.0300   1
  -1   2   5 155.400 44.2500   1
  -4   1  -1 74089.5 1122.12   1
   4   1   1 72420.7 909.040   1
   4  -1   1 70987.6 875.940   1
  -4   1  -1 75169.5 790.690   1
   4  -1   1 77534.0 971.110   1
   4   1   1 76186.3 906.320   1
  -4  -1  -1 79319.7 1237.94   1
  -4   1  -1 77400.1 1187.62   1
   4  -1   1 68635.1 924.850   1
  -4  -1  -1 77835.1 959.370   1
   4   1   1 73283.7 915.430   1
  -4  -1  -1 77375.1 1051.82   1
   4  -1   1 73616.2 1074.79   1
  -4   1  -1 80183.3 1050.12   1
  -2   0  -4 155065. 1566.56   1
   2   0   4 147657. 1472.49   1
  -2   0  -4 158844. 1671.49   1
   2   0   4 152118. 1507.20   1
  -3   0  -3 20.3300 42.7300   1
  -3   0  -3 31.0500 39.6400   1
   3   0   3 17.6500 31.2400   1
   3   0   3 30.3400 42.8600   1
   3   0   3 23.7600 46.9600   1
  -3   0  -3 10.8500 43.8400   1
   3   0   3 -2.3400 26.4200   1
   3   0   3 43.1900 38.3600   1
  -2   3  -3 59344.5 969.980   1
   2  -3   3 61462.3 866.670   1
   2  -3   3 61140.3 783.580   1
   2  -3   3 54253.7 859.010   1
   2  -3   3 56054.6 842.380   1
  -2   3  -3 64009.1 880.140   1
   2   3   3 54352.9 813.460   1
  -2  -3  -3 60545.1 971.780   1
  -2  -3  -3 62725.7 839.870   1
   2   3   3 57580.3 841.600   1
  -3  -4   1 45085.6 803.290   1
  -3  -4   1 45681.9 713.830   1
  -3  -4   1 38499.0 632.200   1
   3   4  -1 39348.9 752.570   1
  -3   4   1 38626.3 682.060   1
   3  -4  -1 44551.1 786.660   1
  -3   4   1 40702.9 819.780   1
  -3   4   1 37945.1 689.780   1
  -3  -3   4 62586.2 1033.99   1
   3   3  -4 59403.7 950.860   1
   3  -3  -4 63861.8 945.480   1
   3   3  -4 59717.0 857.220   1
  -3  -3   4 59484.6 923.500   1
  -3   3   4 57553.8 956.440   1
  -3  -3   4 54473.5 709.020   1
   3  -3  -4 60086.9 791.840   1
   3   3  -4 57931.8 904.040   1
   3  -3  -4 54476.7 944.910   1
  -1   0  -5 19.3600 44.4800   1
   1   0   5 -14.950 34.8600   1
   1   0   5 26.5100 37.9200   1
  -1   0  -5 19.9800 34.2300   1
  -1   0  -5 13.5200 46.4200   1
  -1   0  -5 37.8000 32.1900   1
   0  -5   1 188041. 1693.00   1
   0  -5  -1 177470. 1574.58   1
   0   5  -1 174213. 1911.67   1
   0  -5   1 173040. 1809.00   1
  -1   5   0 83775.0 1085.57   1
  -1  -5   0 95103.0 1058.33   1
   1  -5   0 89899.4 1142.41   1
  -1   5   0 84396.3 1191.87   1
   1   5   0 83258.4 1090.42   1
  -1   5   0 83077.4 1123.53   1
   4   3  -1 183824. 2079.21   1
  -4  -3   1 190947. 1777.71   1
  -4  -3   1 195649. 1766.26   1
  -4  -3   1 176060. 1861.92   1
   4  -3  -1 203006. 2133.13   1
   4  -3  -1 182930. 1825.79   1
   4  -3  -1 192342. 1861.25   1
  -4   3   1 194956. 1816.81   1
   4  -3  -1 191598. 1743.52   1
  -1   3  -4 31565.9 601.000   1
  -1   3  -4 34739.2 636.790   1
  -1   3  -4 31190.2 646.930   1
   1  -3   4 36392.0 715.590   1
   1  -3   4 31139.0 595.860   1
   1  -3   4 34493.7 567.840   1
  -1   3  -4 31917.0 720.910   1
   1  -3   4 33885.4 559.900   1
   1   3   4 31650.8 640.060   1
  -1  -3  -4 36475.7 657.660   1
  -1  -3  -4 34169.8 660.310   1
   1   3   4 34199.5 589.780   1
   3  -2  -5 5496.44 231.000   1
   3   2  -5 5336.25 233.770   1
  -3  -2   5 5048.38 256.570   1
   3  -2  -5 4943.65 270.380   1
  -3  -2   5 4904.29 215.950   1
  -3   2   5 4888.79 236.170   1
   3   2  -5 4536.58 199.670   1
   3  -2  -5 5555.53 256.200   1
   3  -2  -5 4522.21 276.040   1
  -3  -2   5 4832.92 273.130   1
   3   2  -5 5120.75 262.310   1
  -4   2   4 26483.1 582.440   1
  -4   2   4 31401.3 670.590   1
   4  -2  -4 28170.6 586.170   1
  -4  -2   4 29931.5 563.590   1
   4   2  -4 26044.3 509.820   1
   4   2  -4 27504.9 553.000   1
  -4  -2   4 30631.8 731.060   1
   4  -2  -4 27745.9 521.090   1
   4   2  -4 26725.6 709.160   1
   4  -2  -4 26105.0 506.190   1
  -4  -2   4 29677.9 607.160   1
   4  -2  -4 30960.2 746.770   1
   4  -2  -4 27922.0 545.230   1
   2  -4   2 182818. 1884.84   1
   2  -4   2 201226. 1766.65   1
   2  -4   2 199051. 1747.85   1
  -2   4  -2 194218. 1719.61   1
  -2  -4  -2 199867. 1961.98   1
   1  -4   3 30532.6 508.140   1
  -1   4  -3 34134.1 571.610   1
  -1   4  -3 28963.3 598.400   1
  -1   4  -3 29998.2 620.850   1
   1  -4   3 31516.7 690.130   1
  -1   4  -3 29880.3 602.690   1
   1   4   3 30579.7 539.140   1
   1   4   3 32023.2 591.590   1
  -1  -4  -3 33647.0 577.310   1
  -1  -4  -3 33269.4 613.580   1
   3  -3   2 35394.5 614.190   1
  -3   3  -2 38434.3 674.830   1
  -3   3  -2 35348.8 668.330   1
   3   3   2 35820.9 650.770   1
  -3  -3  -2 38623.9 719.800   1
   3  -3   2 34371.6 592.400   1
   3   3   2 37906.8 693.610   1
   3  -3   2 39901.3 625.690   1
  -3  -3  -2 36580.8 679.880   1
   3  -3   2 41550.3 691.750   1
   5   0  -1 -3.5000 44.0600   1
  -5   0   1 23.9300 57.2900   1
  -5   0   1 40.2400 64.7400   1
   5   0  -1 31.5400 36.9800   1
   5   0  -1 -3.6500 35.4200   1
   5   0  -1 -16.810 58.6200   1
   5   0  -1 4.82000 36.4700   1
   2   2   4 80477.8 1044.71   1
  -2  -2  -4 81483.1 1110.58   1
   2  -2   4 72261.7 1006.14   1
   2  -2   4 78976.0 949.680   1
   2  -2   4 77728.5 939.410   1
  -2   2  -4 76402.0 1177.55   1
   2   2   4 74209.7 953.940   1
  -2  -2  -4 81944.3 1081.47   1
  -2   2  -4 74951.3 870.230   1
   2  -2   4 69391.6 921.960   1
  -4   0  -2 207089. 2278.04   1
  -4   0  -2 210296. 2061.49   1
   4   0   2 215227. 1937.02   1
   4   0   2 204231. 1862.48   1
   4   0   2 206317. 2182.87   1
   2   0  -6 170344. 1860.36   1
   2   0  -6 165496. 1974.42   1
  -2   0   6 165442. 1806.91   1
   5   1  -2 13810.2 415.660   1
   5  -1  -2 12340.7 394.650   1
  -5  -1   2 13933.5 446.030   1
  -5   1   2 13218.8 371.540   1
   5  -1  -2 13391.8 358.770   1
  -5  -1   2 12311.3 372.840   1
  -5   1   2 12169.2 402.780   1
  -5  -1   2 14244.4 455.420   1
   5  -1  -2 13402.6 497.450   1
   5   1  -2 12417.7 423.940   1
   5   1  -2 11570.1 302.000   1
  -5   0   3 51.0100 29.0800   1
  -5   0   3 -28.320 59.1300   1
   5   0  -3 11.0800 25.4600   1
  -5   0   3 29.6200 40.2200   1
   5   0  -3 31.1700 27.5900   1
   5   0  -3 42.2400 35.0100   1
  -4  -3   3 249400. 2135.72   1
  -4  -3   3 238054. 2077.83   1
   4  -3  -3 245306. 2247.33   1
  -4   3   3 251073. 2490.71   1
   4  -3  -3 251505. 2478.70   1
  -3   2  -3 1677.31 118.130   1
   3  -2   3 1753.95 138.300   1
   3   2   3 1570.84 127.320   1
  -3  -2  -3 1562.05 130.810   1
   3  -2   3 1353.84 123.660   1
  -3  -2  -3 1585.82 121.310   1
   3  -2   3 1647.11 110.840   1
   3  -2   3 1751.72 187.630   1
   3   2   3 1522.74 139.200   1
  -3   2  -3 1304.60 116.280   1
   3  -2   3 1524.81 131.050   1
   3  -2   3 1757.28 115.330   1
   1   5  -2 52283.1 711.310   1
   1  -5  -2 54346.3 787.750   1
  -1  -5   2 55061.4 857.140   1
  -1  -5   2 57363.6 750.430   1
   4  -1  -5 207207. 1949.72   1
   4   1  -5 191399. 1902.05   1
  -4  -1   5 209418. 2027.10   1
  -4   1   5 202409. 2059.49   1
   4  -1  -5 200300. 1924.14   1
   4  -1  -5 202674. 1930.50   1
   4   1  -5 198609. 1837.54   1
  -4  -1   5 200827. 2041.71   1
  -4   1   5 193687. 1923.89   1
  -3  -4   3 2709.55 160.500   1
  -3  -4   3 2380.96 162.220   1
  -3  -4   3 2501.82 180.550   1
  -3  -4   3 2894.13 163.330   1
   3   4  -3 2289.05 139.400   1
   3  -4  -3 2399.81 150.060   1
   3  -4  -3 3084.57 161.080   1
  -3   4   3 2160.77 165.670   1
  -3   4   3 2288.81 168.580   1
   2   3  -5 42362.6 814.420   1
  -2  -3   5 48908.1 862.890   1
   2  -3  -5 45531.8 709.080   1
  -2   3   5 37905.8 754.390   1
  -2   3   5 39217.4 738.920   1
   2  -3  -5 46591.2 698.850   1
  -2   3   5 43298.0 746.460   1
   1  -1  -6 113094. 1282.31   1
   1   1  -6 107506. 1186.60   1
   1  -1  -6 109909. 1240.65   1
   1   1  -6 104739. 1555.52   1
   1  -1  -6 101812. 1489.84   1
  -1  -1   6 112773. 1424.46   1
  -1   1   6 119151. 2121.90   1
  -1   1   6 110049. 1896.00   1
  -1  -1   6 111782. 1286.35   1
  -1   1   6 113737. 1886.23   1
  -1  -1   6 100454. 1289.90   1
  -2  -4   4 166771. 1608.98   1
  -2   4   4 157236. 1617.25   1
   2  -4  -4 171382. 1621.43   1
  -2   4   4 158951. 1781.55   1
  -2  -4   4 166908. 1867.87   1
   2   4  -4 174549. 1655.84   1
  -2  -5   1 20961.8 496.950   1
   2  -5  -1 17375.8 460.710   1
  -2   5   1 14970.7 414.100   1
  -2  -5   1 18697.4 393.080   1
   2  -5  -1 18994.3 410.060   1
  -2   5   1 15104.0 419.420   1
   2  -5  -1 18930.2 391.880   1
   3  -4   1 21127.4 452.180   1
   3   4   1 18364.4 478.080   1
  -3  -4  -1 22851.4 566.610   1
   3  -4   1 19510.7 433.070   1
  -3  -4  -1 19313.0 412.770   1
   3  -4   1 19203.7 429.940   1
   3  -4   1 18152.9 490.280   1
  -3   4  -1 19902.5 438.610   1
  -3   4  -1 18076.6 520.250   1
   0  -4   4 99011.9 1193.91   1
   0   4   4 87848.3 1089.01   1
   0   4   4 88402.3 1193.10   1
   1  -2   5 90.7300 35.3100   1
  -1   2  -5 98.6800 37.8800   1
  -1   2  -5 91.1200 43.1300   1
  -1  -2  -5 39.3400 36.5000   1
   1  -2   5 41.9800 45.0200   1
  -1  -2  -5 77.1600 31.2100   1
   1   2   5 33.9000 34.3700   1
  -1   2  -5 49.7500 41.1200   1
   1  -2   5 38.1200 37.0100   1
  -1   2  -5 35.5500 28.5500   1
   1  -2   5 39.0300 31.7800   1
   1   2   5 38.8600 30.1200   1
   0   3  -5 218983. 2084.00   1
   0   3  -5 217341. 2074.43   1
   0   3  -5 223056. 1927.53   1
   0  -3   5 235420. 2030.01   1
   0   3   5 209873. 2122.16   1
   0  -3  -5 234897. 2261.58   1
   0   3   5 213577. 1882.25   1
   0   0   6 158388. 1741.95   1
   0   0   6 160383. 1639.99   1
   0   0  -6 159446. 1580.12   1
   0   0  -6 152604. 1902.51   1
   0   0  -6 161189. 1680.50   1
   0   0   6 160144. 1715.19   1
  -5   1   0 -1.7300 53.6800   1
  -5  -1   0 35.2200 65.6200   1
   5  -1   0 172.240 56.0700   1
   5   1   0 45.7500 45.8900   1
   5  -1   0 24.9500 37.7200   1
  -5   1   0 30.5200 31.0500   1
   5  -1   0 -5.5200 27.1000   1
   5   1   0 14.0400 38.1100   1
  -5  -1   0 19.2200 45.0600   1
  -5   1   0 12.0400 30.7000   1
  -5  -1   0 14.5800 30.9300   1
  -3  -1   6 913.530 99.9000   1
   3  -1  -6 864.010 78.0400   1
  -3  -1   6 907.030 106.820   1
   3   1  -6 1052.80 115.210   1
   3   1  -6 1144.59 141.470   1
   3  -1  -6 887.250 112.050   1
  -3  -1   6 1080.12 123.810   1
   3  -1  -6 1649.13 126.820   1
   3   1  -6 1053.16 98.8700   1
  -1   5  -2 2099.99 121.470   1
  -1   5  -2 1733.10 139.700   1
   1  -5   2 2340.45 142.680   1
   1  -5   2 2171.83 135.910   1
   1  -5   2 2469.13 143.230   1
  -1  -5  -2 2171.02 131.010   1
  -1  -5  -2 2101.53 128.520   1
   1   5   2 1709.88 133.250   1
  -5  -2   1 2668.71 169.100   1
  -5  -2   1 2673.71 192.010   1
  -5  -2   1 3026.01 187.440   1
  -5   2   1 2479.69 187.940   1
   5  -2  -1 3155.56 187.520   1
  -5   2   1 2499.30 169.950   1
   5  -2  -1 2900.86 175.830   1
   5   2  -1 2578.88 213.680   1
   5  -2  -1 2746.09 196.820   1
  -5   2   1 3166.26 186.180   1
  -4  -3  -1 41782.1 711.820   1
  -4  -3  -1 43382.2 825.540   1
   4   3   1 42170.4 800.800   1
   4  -3   1 42375.6 903.820   1
  -4   3  -1 41355.0 605.790   1
   4  -3   1 41288.8 775.890   1
   4  -3   1 42468.6 636.540   1
   4  -3   1 41528.0 636.040   1
   5  -1  -4 1426.00 119.370   1
  -5  -1   4 1721.10 155.530   1
  -5  -1   4 1377.98 114.130   1
  -5  -1   4 1497.15 152.980   1
   5  -1  -4 1551.96 113.080   1
   5   1  -4 1378.65 132.700   1
  -5   1   4 1888.73 176.390   1
  -5   1   4 1522.37 118.880   1
   4  -2   2 260504. 1473.95   1
   4  -2   2 255558. 2650.76   1
  -4  -2  -2 249223. 2546.67   1
   4   2   2 252809. 2219.05   1
  -4  -2  -2 262655. 1751.98   1
   4  -2   2 250124. 2202.62   1
  -4   2  -2 268638. 1866.45   1
   4  -2   2 263463. 1443.49   1
   2   2  -6 117559. 1488.48   1
  -2   2   6 125860. 1384.01   1
  -2  -2   6 125686. 1316.56   1
   2   2  -6 114483. 1338.80   1
   2   2  -6 122551. 1660.40   1
  -2  -2   6 123604. 1542.39   1
   2   2  -6 116326. 1228.47   1
   2  -2  -6 116565. 1297.17   1
   5  -2  -3 31.6000 35.9100   1
  -5   2   3 6.27000 33.6400   1
  -5   2   3 255.460 71.1700   1
   5  -2  -3 34.3800 43.6300   1
  -5  -2   3 18.9000 31.2200   1
   5   2  -3 73.4000 32.3800   1
  -5  -2   3 233.900 66.5400   1
   5  -2  -3 22.9400 32.1500   1
  -5  -2   3 38.1400 41.3000   1
  -5   2   3 68.0000 47.0400   1
  -2   5  -1 52699.4 703.510   1
   2  -5   1 53475.1 744.770   1
  -2  -5  -1 57897.8 851.920   1
  -2  -5  -1 52402.8 753.770   1
   0  -5   3 242496. 2132.70   1
   0  -5  -3 256211. 2225.95   1
   0   5  -3 253621. 2118.67   1
  -3   1  -4 19515.2 390.980   1
   3   1   4 18828.6 443.060   1
   3  -1   4 19270.5 518.360   1
  -3  -1  -4 19902.8 452.210   1
  -3   1  -4 21147.8 516.040   1
   3   1   4 20969.3 442.900   1
  -3   1  -4 16808.0 507.560   1
   3  -1   4 22712.2 504.380   1
   3   1   4 19903.6 399.690   1
  -3  -1  -4 19679.5 595.840   1
   3   1   4 20453.6 507.160   1
  -3   1  -4 22443.6 544.900   1
  -4  -4   2 173159. 2052.89   1
  -4  -4   2 171939. 1603.71   1
  -4  -4   2 172828. 1611.52   1
   4  -4  -2 176282. 1869.08   1
   4  -4  -2 173566. 1587.55   1
   4  -4  -2 159405. 1719.43   1
   4  -4  -2 171945. 1554.02   1
   2  -1   5 66013.0 906.790   1
   2   1   5 70982.3 898.950   1
  -2  -1  -5 69711.8 995.550   1
   2   1   5 69570.1 981.710   1
   2  -1   5 65260.6 854.950   1
   2   1   5 71817.9 880.320   1
   2  -1   5 65285.2 923.500   1
  -2   1  -5 73851.3 1042.79   1
  -2  -1  -5 68356.5 981.510   1
  -2  -5   3 79460.2 1125.19   1
   2  -5  -3 81488.2 1013.56   1
   2   5  -3 79763.9 970.650   1
  -2  -5   3 80500.3 930.420   1
   5   0   1 6.75000 34.0300   1
  -5   0  -1 43.5600 37.5000   1
   5   0   1 6.70000 45.5500   1
   5   0   1 -3.4900 23.5300   1
  -5   0  -1 -2.3000 57.0700   1
  -4   0   6 228418. 2242.04   1
   4   0  -6 229074. 2219.98   1
   4   0  -6 237213. 2244.29   1
  -4   0   6 245411. 2419.46   1
   0   2   6 110472. 1250.33   1
   0   2   6 112374. 1221.51   1
   0  -2   6 106196. 1371.69   1
   0  -2  -6 110949. 1373.39   1
   0  -2   6 106210. 1137.08   1
   0   2  -6 112039. 1377.78   1
   0  -2   6 115874. 1590.95   1
   0   2  -6 103489. 1454.84   1
   5   0  -5 19.0300 49.1500   1
   5   0  -5 43.6500 36.9300   1
  -5   0   5 11.7000 36.6400   1
   5   0  -5 1.06000 42.4100   1
  -5   0   5 19.9200 25.0900   1
   5   0  -5 32.4500 29.9700   1
  -5   0   5 22.3700 57.6300   1
  -4  -4   0 167064. 1887.29   1
  -4  -4   0 164153. 1725.37   1
  -4   4   0 164543. 1614.77   1
   4  -4   0 162379. 1807.79   1
   4  -4   0 164780. 1594.68   1
   4  -4   0 174580. 1651.14   1
   1   4  -5 74351.5 1002.02   1
  -1  -4   5 86980.4 1167.87   1
  -1  -4   5 87521.7 1003.05   1
   1   4  -5 76213.3 1067.23   1
   1   4  -5 76750.9 1070.17   1
   1   4  -5 85420.3 1011.27   1
   1  -4  -5 85992.9 1058.81   1
  -3  -5   2 74591.4 1050.09   1
  -3  -5   2 73360.7 872.030   1
   4  -1   3 67428.9 1157.05   1
  -4  -1  -3 67789.8 1174.17   1
  -4   1  -3 65562.2 869.600   1
  -4  -1  -3 65723.7 882.670   1
   4   1   3 66504.6 810.630   1
   4  -1   3 62387.6 792.220   1
  -4   1  -3 71365.1 968.970   1
   4  -1   3 67012.3 963.930   1
   4   1   3 64822.7 971.540   1
  -4   1  -3 71772.2 919.360   1
   4   1   3 72191.6 894.200   1
  -3  -5   0 8325.08 306.450   1
   3  -5   0 8194.52 304.490   1
   3  -5   0 6583.87 251.330   1
  -3  -5   0 7465.78 258.220   1
   3  -5   0 8247.82 272.950   1
  -3   5   0 7831.13 270.090   1
   3  -5   0 7257.79 245.770   1
  -5  -3   2 1647.96 141.230   1
  -5  -3   2 1819.60 146.590   1
  -5  -3   2 1426.05 118.630   1
  -5  -3   2 1492.46 128.430   1
   5  -3  -2 1474.02 105.770   1
   5  -3  -2 1745.37 128.540   1
   5  -3  -2 1551.97 118.140   1
   5  -3  -2 1787.32 176.270   1
   0  -6   0 45317.5 646.260   1
   0  -6   0 42768.1 655.590   1
  -4  -3   5 132659. 1354.77   1
   4   3  -5 134276. 1317.71   1
   4  -3  -5 137484. 1437.32   1
   4  -3  -5 128417. 1476.64   1
   4  -3  -5 135968. 1426.42   1
  -1   1  -6 4.85000 27.2800   1
  -1  -1  -6 26.2100 43.3800   1
  -1   1  -6 78.5000 42.9300   1
  -1  -1  -6 38.0500 32.7200   1
  -1   1  -6 56.0900 44.3100   1
   1  -1   6 10.3000 28.0700   1
  -1  -1  -6 2.12000 27.4500   1
   1  -1   6 47.6900 46.8200   1
   1   1   6 17.8700 25.5900   1
   1   1   6 11.5000 33.3200   1
  -1  -1  -6 -2.9200 27.4200   1
   1   1   6 13.6300 41.4000   1
   1  -1   6 31.0100 40.6100   1
  -1   3   6 2130.96 148.420   1
  -1  -3   6 2960.39 211.330   1
   1   3  -6 2817.03 158.510   1
   1   3  -6 2355.00 191.240   1
   1  -3  -6 2889.85 196.660   1
  -1  -3   6 2820.68 161.900   1
  -1   3   6 2206.95 147.980   1
   1   3  -6 2499.57 189.770   1
   1   3  -6 2340.55 181.140   1
   1   3  -6 2601.21 152.000   1
   1  -3  -6 2531.37 155.530   1
  -1  -5   4 52734.0 821.140   1
   1  -5  -4 55069.7 810.740   1
  -1  -5   4 51750.3 795.860   1
   1   5  -4 52648.7 738.500   1
  -1  -5   4 57436.4 791.810   1
  -1  -6   1 19661.8 446.240   1
   1  -6  -1 18470.2 375.090   1
   1  -6  -1 18293.0 396.150   1
  -1  -6   1 20323.3 456.670   1
   5  -2   1 4272.29 203.080   1
  -5   2  -1 3789.49 201.290   1
  -5   2  -1 4028.20 196.670   1
  -5  -2  -1 3959.33 205.220   1
  -5  -2  -1 4080.94 203.800   1
   5  -2   1 4462.26 203.640   1
   5  -2   1 4274.18 268.540   1
  -5  -2  -1 3503.06 235.940   1
   5   2   1 3879.05 203.700   1
   4  -2  -6 139284. 1509.91   1
   4   2  -6 127363. 1284.68   1
   4  -2  -6 140081. 1622.56   1
   4  -2  -6 124208. 1384.36   1
   4  -2  -6 136642. 1624.98   1
  -4  -2   6 126989. 1376.87   1
   4   2  -6 123215. 1347.71   1
   4  -2  -6 129123. 1448.13   1
  -4  -2   6 139836. 1647.21   1
   3   4  -5 4003.43 191.910   1
  -3  -4   5 5332.06 221.440   1
  -3  -4   5 5370.80 301.050   1
   3   4  -5 5386.51 230.920   1
   3  -4  -5 5140.15 209.370   1
  -3   4   5 3734.24 192.350   1
  -3   4   5 3850.81 217.030   1
   3  -4  -5 5303.95 225.230   1
  -4  -4   4 76985.4 1100.50   1
  -4  -4   4 85619.5 1071.72   1
   4  -4  -4 82105.9 1059.32   1
   4  -4  -4 77088.6 1234.37   1
   4  -4  -4 85231.8 971.640   1
   1   0  -7 -11.790 34.8600   1
  -1   0   7 31.5100 32.9700   1
   1   0  -7 37.5300 31.8200   1
   1   0  -7 7.60000 49.0800   1
  -1   0   7 20.6000 31.6100   1
  -2  -1   7 106980. 1388.32   1
  -2  -1   7 105767. 1160.67   1
  -2  -1   7 101856. 1405.94   1
   2   1  -7 96512.1 1463.71   1
   2  -1  -7 104946. 1242.80   1
   2   1  -7 106665. 1283.15   1
   2  -1  -7 109202. 1261.69   1
   2   1  -7 102734. 1549.34   1
   2  -1  -7 96005.0 1339.65   1
  -6   0   2 47077.8 717.160   1
   6   0  -2 44758.2 707.780   1
   6   0  -2 46239.7 673.620   1
  -6   0   2 45295.4 855.010   1
  -1  -6  -1 37898.8 613.030   1
  -1  -6  -1 35426.1 618.580   1
  -1  -6  -1 37747.8 633.970   1
   1  -6   1 39917.0 657.270   1
   1  -6   1 37315.0 627.290   1
  -5  -3   0 32735.5 524.740   1
  -5  -3   0 32075.1 730.050   1
  -5  -3   0 30070.0 592.670   1
  -5   3   0 32399.9 575.820   1
   5  -3   0 31813.5 509.680   1
   5  -3   0 31641.1 765.700   1
   5  -3   0 34634.5 570.070   1
   5  -3   0 32135.6 691.320   1
   5  -3   0 34627.8 521.280   1
   3  -3  -6 18651.7 408.130   1
   3  -3  -6 20261.2 469.900   1
  -3   3   6 17922.5 483.470   1
   3  -3  -6 18983.3 510.100   1
  -3  -3   6 19266.8 429.670   1
   3   3  -6 17971.8 486.140   1
   3   3  -6 19698.4 422.120   1
  -3  -3   6 19976.1 497.830   1
   3   0  -7 25.2700 34.7000   1
  -3   0   7 0.48000 68.8800   1
   5  -2  -5 48518.2 721.400   1
   5   2  -5 45277.9 758.850   1
   5   2  -5 45319.6 688.320   1
  -5  -2   5 45656.1 737.320   1
   5  -2  -5 43214.3 615.290   1
   5  -2  -5 44863.7 825.550   1
   5  -2  -5 48970.3 656.870   1
   5  -2  -5 45419.3 708.180   1
  -5  -2   5 44656.2 662.270   1
   5   2  -5 42421.1 725.020   1
   0  -6   2 72386.4 792.810   1
   0  -6  -2 69760.5 784.630   1
   0  -6  -2 74099.4 781.140   1
   0  -6   2 71770.5 753.770   1
   2  -4   4 121076. 1006.55   1
  -2  -4  -4 131039. 1263.49   1
   2  -4   4 124742. 1022.40   1
  -2   4  -4 129125. 1195.33   1
   2   4   4 119400. 1241.94   1
   2  -4   4 132969. 1267.93   1
  -2  -4  -4 127690. 1034.51   1
  -5  -3   4 16330.0 511.110   1
  -5  -3   4 16504.0 427.810   1
  -5  -3   4 14392.8 417.300   1
   5  -3  -4 16742.1 421.190   1
   5  -3  -4 17161.4 517.470   1
   5  -3  -4 15106.0 443.710   1
   5  -3  -4 16583.3 407.880   1
   5  -3  -4 19075.8 449.610   1
  -6  -1   3 76606.4 866.200   1
  -6   1   3 76994.0 1005.24   1
   6   1  -3 70509.2 704.880   1
  -6  -1   3 73418.0 962.570   1
  -6  -1   3 71997.7 958.350   1
   6  -1  -3 78482.9 875.700   1
   3  -4   3 5258.14 194.050   1
  -3   4  -3 4604.91 253.490   1
  -3   4  -3 5700.42 233.660   1
   3  -4   3 5838.32 216.810   1
  -3  -4  -3 5571.46 235.330   1
  -3  -4  -3 6209.38 287.070   1
   3  -4   3 5813.86 217.500   1
   3   4   3 5259.92 231.390   1
  -5  -1  -2 29454.3 690.140   1
   5  -1   2 27062.2 693.180   1
   5   1   2 27010.3 631.860   1
   5  -1   2 28567.4 553.450   1
  -5  -1  -2 25906.0 479.680   1
  -5  -1  -2 29618.8 591.450   1
  -5   1  -2 27895.1 555.470   1
   5   1   2 28913.9 494.120   1
   5  -1   2 28674.3 562.000   1
  -5   1  -2 28241.7 606.300   1
  -5   1  -2 27898.4 729.290   1
   5   1   2 27162.6 465.390   1
  -2  -6   0 177194. 1331.11   1
   2  -6   0 175583. 1226.61   1
  -6  -1   1 109590. 1188.12   1
  -6   1   1 102224. 1254.95   1
  -6  -1   1 106861. 1433.80   1
  -6   1   1 95651.9 1190.54   1
  -6   1   1 109088. 1017.49   1
   6  -1  -1 103315. 963.740   1
   6   1  -1 107504. 962.040   1
   3  -3   4 5736.96 237.140   1
  -3  -3  -4 5166.69 246.650   1
   3  -3   4 6024.44 280.680   1
   3   3   4 4882.71 241.650   1
  -3   3  -4 5567.71 235.700   1
  -3   3  -4 4873.43 295.810   1
  -3  -3  -4 5694.34 264.200   1
   3  -3   4 5520.74 237.100   1
   3  -3   4 5332.12 329.390   1
   6   0  -4 115652. 1025.92   1
   6   0  -4 106163. 998.480   1
  -6   0   4 116194. 1121.74   1
  -6   0   4 110729. 1192.60   1
  -6   0   4 110598. 1224.11   1
  -2  -5  -3 135114. 1079.46   1
  -2   5  -3 132205. 1083.07   1
   2  -5   3 131959. 1018.66   1
  -2  -5  -3 135171. 1095.50   1
  -2  -3  -5 105594. 1004.04   1
  -2   3  -5 110840. 1156.37   1
  -2  -3  -5 99934.2 967.510   1
  -2  -3  -5 108341. 1092.64   1
  -2   3  -5 100801. 1204.86   1
  -2  -6   2 154027. 1288.86   1
   2  -6  -2 158896. 1176.94   1
   2  -6  -2 151228. 1064.48   1
  -3  -5   4 22435.5 439.130   1
   3   5  -4 22143.4 417.620   1
  -3  -5   4 23008.1 544.650   1
   3  -5  -4 22595.4 483.810   1
   3  -5  -4 21523.7 395.010   1
  -3   0  -5 3.67000 48.6800   1
  -3   0  -5 -1.8100 46.2100   1
   3   0   5 62.6600 51.9300   1
  -1   4  -5 30720.8 563.920   1
  -1  -4  -5 36962.8 618.110   1
  -1  -4  -5 34816.4 650.690   1
   1  -4   5 34924.6 648.290   1
  -1   4  -5 35554.3 547.090   1
  -5  -1   6 7475.98 338.050   1
  -5   1   6 7066.21 286.520   1
  -5   1   6 7625.39 328.180   1
   5  -1  -6 7419.20 289.860   1
  -5  -1   6 6380.72 251.410   1
   5  -1  -6 6313.88 248.540   1
   5   1  -6 7262.46 277.130   1
   5   1  -6 6445.64 299.600   1
   5  -1  -6 7219.10 304.050   1
  -5  -1   6 7346.58 296.380   1
  -4  -5   1 90951.4 1036.03   1
  -4  -5   1 88557.3 1046.40   1
   4  -5  -1 88673.8 932.970   1
   4  -5  -1 88477.3 925.870   1
  -1   5  -4 68.9600 36.6500   1
  -1   5  -4 117.390 39.1500   1
  -1  -5  -4 88.5000 40.8900   1
   1  -5   4 100.780 46.6400   1
  -1  -5  -4 95.7000 34.0600   1
   1  -5   4 171.420 61.9500   1
   1  -5   4 116.530 40.2700   1
   1   2  -7 5.76000 34.0400   1
  -1  -2   7 36.7500 48.0100   1
   1   2  -7 25.7200 44.7800   1
  -1  -2   7 75.9300 38.0900   1
  -1   2   7 30.4500 23.4500   1
   1  -2  -7 57.9500 36.1200   1
  -1   2   7 13.9900 27.4700   1
  -1   2   7 32.8400 32.9200   1
   1  -2  -7 28.9500 30.6600   1
   1   2  -7 127.280 52.5800   1
   1  -2  -7 32.4800 41.8000   1
  -6  -2   2 164367. 1291.87   1
   6  -2  -2 158576. 1107.69   1
  -6  -2   2 172841. 1780.72   1
   0   1   7 103449. 1182.27   1
   0  -1   7 100039. 1008.32   1
   0   1   7 104547. 1171.79   1
   0  -1   7 101883. 1197.54   1
   0   1   7 109420. 1158.35   1
   0   1  -7 114139. 1151.36   1
   0  -1  -7 102139. 1503.93   1
   0  -1  -7 105052. 1076.68   1
   0   1  -7 106128. 1396.03   1
   1   6  -3 73689.6 866.370   1
   1  -6  -3 67672.3 694.240   1
  -1  -6   3 74096.5 830.940   1
   1  -6  -3 71511.7 779.350   1
   6   0   0 131906. 1047.05   1
  -6   0   0 135973. 1109.54   1
  -6   0   0 135959. 1414.33   1
   6   0   0 129776. 1389.51   1
   6   0   0 132529. 998.810   1
   4   0   4 243861. 1587.99   1
  -4   0  -4 237307. 1434.32   1
  -4   0  -4 229577. 1610.16   1
  -4   0  -4 244726. 1737.05   1
  -3  -5  -2 33709.5 582.720   1
  -3  -5  -2 36587.6 669.750   1
   3  -5   2 33245.1 516.470   1
   3  -5   2 36084.5 578.160   1
  -3   5  -2 34729.0 532.200   1
   3  -5   2 33819.6 518.250   1
   3   2  -7 623.450 91.3200   1
  -3  -2   7 659.680 79.3200   1
   3  -2  -7 624.510 75.6500   1
  -3  -2   7 503.690 81.6400   1
   3   2  -7 520.120 95.1800   1
   3   2  -7 599.080 105.500   1
   3  -2  -7 660.120 85.0600   1
   2   0   6 302547. 1771.29   1
  -2   0  -6 302280. 1671.11   1
  -2   0  -6 294111. 1855.64   1
   2   0   6 284152. 1793.53   1
   4  -3   3 148613. 1879.87   1
  -4  -3  -3 147561. 1394.95   1
   4  -3   3 137674. 1065.06   1
  -4  -3  -3 143122. 1184.33   1
   4  -3   3 142189. 1142.18   1
  -4   3  -3 144154. 1183.64   1
   5  -4  -1 115826. 972.280   1
  -5  -4   1 116127. 1170.42   1
   5  -4  -1 116549. 978.630   1
  -5  -4   1 112430. 1034.94   1
  -5   4   1 111545. 1015.38   1
   5  -4  -1 114167. 944.310   1
   5  -4  -1 107712. 1113.82   1
  -4  -4  -2 38418.3 764.480   1
  -4  -4  -2 34497.3 599.210   1
  -4   4  -2 36878.4 608.800   1
   4  -4   2 34793.7 557.840   1
   4  -4   2 34388.2 887.720   1
  -4   4  -2 30287.5 615.970   1
   4  -4   2 31897.3 497.740   1
   4  -4   2 33328.4 522.170   1
   4  -4   2 30992.3 696.740   1
   2   4  -6 107777. 984.540   1
   2   4  -6 101022. 1132.42   1
  -2   4   6 100050. 1064.18   1
   2  -4  -6 106622. 925.800   1
   2  -4  -6 108156. 1007.30   1
  -2   4   6 106170. 1137.26   1
  -5  -4   3 2643.38 174.140   1
  -5  -4   3 2522.84 185.200   1
   5  -4  -3 2675.94 148.870   1
   5  -4  -3 2586.32 146.030   1
   5  -4  -3 2463.23 188.000   1
   5  -4  -3 2620.74 138.400   1
   4  -1  -7 123198. 1454.71   1
   4  -1  -7 135258. 1616.29   1
   4  -1  -7 140006. 1307.62   1
  -4  -1   7 135493. 1318.40   1
  -4   1   7 134314. 1367.89   1
   4  -5  -3 125390. 1073.50   1
  -4  -5   3 125140. 1068.14   1
   4  -5  -3 125997. 1007.51   1
  -4  -5   3 121225. 1261.63   1
  -4  -5   3 117778. 1067.17   1
   2   5  -5 132077. 1117.01   1
  -2  -5   5 131974. 951.480   1
  -2  -5   5 126991. 1278.99   1
   2  -5  -5 135145. 1053.55   1
  -1   3  -6 24648.8 442.760   1
  -1   3  -6 24780.7 553.350   1
   1  -3   6 24079.7 685.450   1
  -1   3  -6 19957.0 508.320   1
   1   3   6 20809.6 497.600   1
  -1  -3  -6 23883.2 461.360   1
   1  -3   6 22495.6 420.710   1
  -1  -3  -6 22865.3 553.300   1
   1   3   6 20232.0 469.410   1
   1  -3   6 23357.1 433.870   1
  -6   2   4 256411. 1637.02   1
  -6  -2   4 251388. 1674.50   1
  -6   2   4 248537. 1701.58   1
  -6  -2   4 249764. 1902.77   1
   3  -6  -1 33838.0 539.410   1
  -3  -6   1 32723.3 684.120   1
   3  -6  -1 32867.6 490.280   1
  -3  -6   1 29927.5 482.150   1
   3   2   5 4756.19 199.940   1
  -3  -2  -5 4722.16 220.490   1
  -3  -2  -5 4382.83 231.860   1
   3  -2   5 4386.64 194.910   1
  -3   2  -5 4843.18 247.670   1
   3   2   5 4424.59 239.120   1
   3   2   5 4562.43 180.620   1
   3  -2   5 4636.04 200.110   1
  -3   2  -5 4624.65 203.120   1
  -6   1   5 151502. 1598.05   1
   6   1  -5 139871. 981.120   1
  -6  -1   5 139402. 1320.87   1
   0  -5   5 100463. 1145.49   1
   0  -5   5 106314. 936.090   1
   0   5  -5 105867. 1025.61   1
   0  -5  -5 106142. 1103.08   1
  -2  -3   7 76473.6 786.810   1
  -2  -3   7 87613.5 1157.38   1
   2   3  -7 77232.8 1089.36   1
  -2   3   7 87406.4 1005.37   1
  -2   3   7 76671.5 1060.75   1
   2  -3  -7 84459.4 848.110   1
  -2   3   7 84488.2 1138.52   1
   0   4  -6 63432.2 752.140   1
   0  -4  -6 70552.9 831.390   1
   0  -4  -6 72514.3 1004.40   1
  -2  -6  -2 62028.3 706.410   1
  -2  -6  -2 66507.4 895.610   1
  -2   6  -2 69475.9 864.920   1
   2  -6   2 62363.9 694.570   1
   2  -6   2 70028.1 799.700   1
  -1  -6  -3 16435.3 392.840   1
   1  -6   3 16194.0 375.590   1
  -1   6  -3 15382.5 369.110   1
  -1  -6  -3 15219.1 372.350   1
   1  -6   3 16822.9 409.580   1
  -6  -2   0 187966. 1388.95   1
  -6  -2   0 175060. 1569.21   1
   6  -2   0 190022. 1327.71   1
  -6   2   0 180435. 1464.25   1
   4  -2   4 103849. 936.820   1
   4  -2   4 107546. 1096.66   1
  -4  -2  -4 108856. 1098.15   1
  -4  -2  -4 106594. 1399.74   1
   4  -2   4 104587. 1045.93   1
   4   2   4 103659. 905.460   1
  -4   2  -4 110194. 1028.62   1
  -5   0  -3 23.1900 46.2300   1
   5   0   3 2.74000 27.3600   1
  -5   0  -3 21.8300 62.9200   1
  -5   0  -3 -16.040 41.7600   1
   5   0   3 37.8200 50.6500   1
  -5   0  -3 43.6000 49.8100   1
   5   0   3 -21.130 33.7200   1
  -2   2  -6 49343.6 709.440   1
   2   2   6 46009.2 686.430   1
  -2  -2  -6 47004.9 727.430   1
   2  -2   6 49555.9 659.700   1
  -2   2  -6 50190.7 703.920   1
  -2   2  -6 48889.4 1394.99   1
   2  -2   6 49065.3 677.690   1
   2   2   6 48378.9 701.400   1
  -2  -2  -6 46321.6 745.050   1
  -1   0  -7 19.0500 30.2200   1
  -1   0  -7 12.4900 43.0700   1
   1   0   7 21.0900 28.0900   1
   1   0   7 1.80000 44.8800   1
   1   0   7 0.88000 28.9500   1
  -1   0  -7 -15.790 52.4700   1
  -4  -5  -1 173508. 1347.25   1
   4  -5   1 176860. 1246.64   1
  -4   5  -1 170303. 1306.16   1
   4  -5   1 170844. 1232.45   1
  -4  -5  -1 175742. 1574.89   1
   4  -5   1 175505. 1329.61   1
  -6  -3   3 49654.5 916.420   1
  -6  -3   3 48779.0 758.820   1
   3  -6  -3 70048.0 705.380   1
  -3  -6   3 78751.1 1099.46   1
  -6   1  -1 98721.4 1059.67   1
  -6  -1  -1 95970.4 914.510   1
  -6  -1  -1 105863. 1139.83   1
   6   1   1 97551.2 877.650   1
   6  -1   1 103412. 928.210   1
   6  -1   1 97579.8 1056.34   1
   6   1   1 95372.4 1303.24   1
   6  -1   1 98513.8 1230.53   1
  -6  -1  -1 99320.2 1347.62   1
  -6   1  -1 95305.6 1255.68   1
  -5   3  -2 14766.7 412.520   1
  -5  -3  -2 14850.4 385.710   1
   5  -3   2 16264.5 376.600   1
   5  -3   2 17063.3 409.170   1
  -5  -3  -2 15164.4 445.280   1
   5  -3   2 15339.0 393.960   1
   5  -3   2 15719.0 594.260   1
   6  -3  -1 47230.6 595.340   1
  -6  -3   1 45274.2 875.570   1
  -6  -3   1 48988.0 652.950   1
   6  -3  -1 47737.5 631.030   1
  -6   3   1 47652.7 689.820   1
  -6  -3   1 49965.1 775.950   1
   6  -3  -1 49329.8 680.890   1
   2   0  -8 174329. 1271.28   1
  -5   0   7 -5.0800 65.2900   1
   5   0  -7 10.3900 32.7800   1
   5   0  -7 6.56000 28.0100   1
  -5   0   7 6.73000 30.6600   1
   5   0  -7 183.680 43.1000   1
  -2  -6   4 58341.9 850.270   1
   2  -6  -4 60832.3 765.100   1
   2   6  -4 64678.9 817.950   1
   2  -6  -4 64670.5 787.740   1
  -2  -6   4 63716.1 791.650   1
   3  -6   1 47838.4 634.390   1
  -3  -6  -1 47833.5 717.170   1
  -3   6  -1 45404.4 621.530   1
   3  -6   1 52269.7 702.750   1
  -3  -6  -1 52005.5 862.740   1
   0  -6   4 45312.5 695.290   1
   0  -6  -4 43384.6 673.150   1
   0  -6  -4 44207.5 642.580   1
   0   6  -4 43111.3 594.340   1
   0  -7   1 39402.5 584.570   1
   0  -7   1 41566.8 584.640   1
   0  -7  -1 40642.8 542.290   1
   0  -7  -1 40403.0 624.170   1
  -5   4  -1 5419.36 208.260   1
   5  -4   1 5595.47 286.890   1
   5  -4   1 6929.88 252.060   1
  -5  -4  -1 6127.49 285.610   1
   5  -4   1 5631.01 298.440   1
  -5  -4  -1 6083.19 315.970   1
   5  -4   1 6724.12 257.010   1
   5  -4   1 7097.20 273.180   1
  -1  -7   0 38349.9 626.990   1
   1  -7   0 35373.6 574.280   1
  -1  -7   0 32109.3 492.760   1
   1  -7   0 35267.6 530.310   1
  -5  -3   6 7342.43 346.120   1
   5  -3  -6 6270.82 238.390   1
   5  -3  -6 6666.10 316.010   1
   5  -3  -6 7362.64 292.360   1
  -5  -3   6 6045.63 258.820   1
   5  -3  -6 6907.90 272.380   1
   5   3  -6 6883.12 255.390   1
   5  -3  -6 6044.30 290.330   1
  -5   3   6 5066.43 302.440   1
   5   3  -6 4653.36 239.830   1
   4   4  -6 113245. 940.800   1
   4  -4  -6 115253. 972.910   1
  -4  -4   6 120021. 1265.72   1
   4  -4  -6 106918. 1291.39   1
   4  -4  -6 113153. 1015.04   1
  -6   0   6 54328.6 714.000   1
   6   0  -6 56124.9 664.580   1
  -6   0   6 60729.8 895.780   1
   0   3  -7 120458. 1038.63   1
   0   3  -7 116046. 1172.85   1
   0   3   7 124807. 1178.93   1
   0   3   7 110606. 1071.88   1
   0  -3   7 124126. 1137.62   1
   3   1  -8 1085.33 153.980   1
   3  -1  -8 1342.40 113.050   1
  -3  -1   8 1282.01 126.320   1
   3  -1  -8 1388.82 128.040   1
   3   1  -8 1433.57 120.590   1
   3   1  -8 1284.20 153.520   1
   3   1  -8 1056.87 121.290   1
  -3  -1   8 1362.58 149.650   1
   5  -4  -5 1268.10 108.490   1
  -5   4   5 1008.83 107.990   1
   5  -4  -5 1130.22 119.510   1
  -5  -4   5 1244.29 125.480   1
  -5  -4   5 1179.99 141.630   1
   5  -4  -5 1281.41 126.040   1
   5  -4  -5 1116.30 107.980   1
   5   2   3 27138.0 458.490   1
   5  -2   3 26921.8 527.480   1
  -5  -2  -3 23879.2 494.230   1
   5  -2   3 26966.8 471.440   1
  -5  -2  -3 24078.7 690.620   1
   5  -2   3 25751.9 641.960   1
   5   2   3 21811.0 528.670   1
  -5   2  -3 25282.4 547.560   1
   5  -2   3 25905.0 477.640   1
   5   2   3 25005.3 460.220   1
  -1  -2  -7 24691.8 609.530   1
  -1   2  -7 22302.3 541.470   1
   1   2   7 24885.4 526.200   1
  -1  -2  -7 18820.5 634.130   1
   1  -2   7 23774.5 463.980   1
   1  -2   7 18971.7 453.710   1
   1   2   7 19797.9 441.650   1
  -1  -2  -7 22983.7 583.850   1
   1   2   7 22021.3 491.280   1
   1  -2   7 23593.4 476.370   1
  -1   1   8 970.920 169.850   1
   1  -1  -8 184.900 57.9100   1
  -1   1   8 154.460 51.3600   1
  -1  -1   8 166.020 43.5700   1
  -1  -1   8 146.920 46.4300   1
   1   1  -8 117.670 43.9500   1
   1   1  -8 107.670 64.1900   1
   1  -1  -8 117.930 47.0700   1
   1   1  -8 154.090 60.4600   1
   1  -1  -8 71.7600 54.5200   1
  -5  -5   2 14129.6 503.550   1
  -5  -5   2 14212.4 349.660   1
  -5  -5   2 14478.6 391.890   1
   5  -5  -2 14984.2 387.650   1
   5  -5  -2 15076.3 400.070   1
   5  -5  -2 15306.3 383.400   1
   4   3  -7 116670. 1089.60   1
   4  -3  -7 109777. 1199.57   1
  -4  -3   7 114163. 1114.12   1
   4  -3  -7 107041. 1050.19   1
   4  -3  -7 110878. 960.270   1
   1  -7  -2 15751.0 389.250   1
  -1  -7   2 13970.4 307.320   1
   1  -7  -2 15517.2 365.720   1
  -1  -7   2 15492.9 411.420   1
   4  -5  -5 53339.1 671.920   1
  -4  -5   5 54367.3 852.980   1
  -7   0   3 18.7000 54.1400   1
  -7   0   3 34.5400 53.1500   1
  -7   0   3 50.5500 39.0100   1
   7   0  -3 -0.7400 30.5300   1
  -1   5   6 3269.32 193.680   1
  -1  -5   6 4401.56 183.810   1
  -1  -5   6 4657.15 249.550   1
   1  -5  -6 4121.60 204.670   1
   1   5  -6 4521.16 200.880   1
   1  -5  -6 4512.99 229.180   1
  -2  -2   8 72626.7 983.250   1
   2   2  -8 63043.5 1084.98   1
   2  -2  -8 67669.1 859.440   1
  -2  -2   8 71552.0 828.170   1
   2   2  -8 70075.3 784.740   1
   4   0  -8 113569. 1007.57   1
  -4   0   8 119130. 1233.37   1
   5   2  -7 88.3400 34.4900   1
   5   2  -7 154.160 49.3800   1
   5  -2  -7 93.5500 50.3700   1
  -5  -2   7 127.620 60.6100   1
   5  -2  -7 151.730 44.6600   1
   5  -2  -7 69.7300 33.5400   1
  -5  -2   7 43.4900 80.4400   1
   5  -2  -7 103.530 43.1200   1
   5  -2  -7 82.8500 60.5600   1
   2  -7  -1 165174. 1240.26   1
  -2  -7   1 157595. 1170.65   1
   2  -7  -1 158291. 1105.14   1
  -4  -6   2 56372.4 760.950   1
  -4  -6   2 56641.3 1082.17   1
   7  -1  -2 20918.8 466.660   1
  -7   1   2 18347.8 504.270   1
  -7   1   2 20848.8 581.620   1
  -7  -1   2 20680.7 626.650   1
  -7   1   2 17786.3 592.560   1
   7   1  -2 21955.5 497.400   1
   7   1  -2 20018.8 387.970   1
  -7   1   2 21549.9 530.520   1
  -7  -1   2 19996.3 484.490   1
  -3  -1  -6 45.7700 36.8800   1
   3  -1   6 -1.5500 53.6700   1
  -3   1  -6 212.710 45.0600   1
   3  -1   6 17.0000 53.5100   1
   3   1   6 26.7200 31.5100   1
  -3  -1  -6 10.5800 54.7300   1
  -3   1  -6 32.7700 34.7100   1
  -3  -1  -6 30.7800 49.1500   1
  -6  -3   5 127885. 1410.60   1
  -6  -3   5 129345. 1285.52   1
   6   0   2 65349.4 1041.90   1
  -6   0  -2 70896.4 897.490   1
   6   0   2 71104.9 752.460   1
  -6   0  -2 67597.9 788.380   1
  -6   0  -2 61061.1 981.820   1
   4  -1   5 61691.7 744.180   1
   4   1   5 56887.6 730.960   1
  -4  -1  -5 56155.8 851.240   1
  -4   1  -5 59283.8 849.410   1
   4   1   5 57230.8 725.900   1
  -4  -1  -5 56024.9 1015.24   1
  -4   1  -5 52576.8 644.660   1
  -4   1  -5 55791.5 763.390   1
  -1  -4   7 16077.8 514.930   1
  -1   4   7 11974.3 371.430   1
   1  -4  -7 14919.1 503.040   1
  -1  -4   7 14443.3 347.320   1
   1   4  -7 13423.6 380.450   1
   1  -4  -7 15028.2 366.820   1
   1   4  -7 12004.1 372.390   1
   6  -2  -6 90733.7 987.130   1
   6   2  -6 85841.3 808.520   1
   6  -2  -6 90892.0 1187.67   1
   6  -2  -6 88326.0 985.070   1
  -6  -2   6 91141.3 1124.22   1
   6  -2  -6 82570.6 1136.53   1
   6  -2  -6 87420.2 906.530   1
   6   2  -6 79786.7 1078.31   1
  -6  -2   6 89113.5 1073.51   1
   0   0  -8 20409.5 592.880   1
   0   0  -8 21859.5 535.310   1
   0   0   8 22492.9 553.750   1
   0   0  -8 20824.5 432.780   1
   0   0   8 20878.3 540.310   1
   0   0   8 22443.4 543.060   1
  -6  -4   2 95710.6 1308.51   1
  -6  -4   2 101196. 1013.19   1
  -6  -4   2 98326.7 952.940   1
   6  -4  -2 99985.9 931.610   1
   6  -4  -2 103274. 894.290   1
   6  -4  -2 103392. 984.170   1
   6  -4  -2 98893.4 1131.52   1
   7   0  -1 39.4400 38.3000   1
  -7   0   1 0.56000 29.7300   1
  -7   0   1 68.9600 68.2200   1
  -7   0   1 -21.260 54.5200   1
  -5  -5   0 14481.5 413.010   1
  -5  -5   0 13355.2 357.920   1
  -5   5   0 15192.7 411.860   1
   5  -5   0 16987.4 435.070   1
   5  -5   0 15153.7 355.400   1
   5  -5   0 15682.0 387.200   1
  -3  -5   6 8449.46 348.390   1
   3  -5  -6 8810.20 311.950   1
  -3  -5   6 7681.83 248.050   1
  -3   5   6 6544.46 312.040   1
   3   5  -6 8229.78 271.830   1
   3  -5  -6 7753.90 292.400   1
  -3   5   6 6295.84 311.680   1
   1  -7   2 86367.4 823.770   1
  -1  -7  -2 86502.4 870.260   1
  -1  -7  -2 88686.1 858.930   1
  -1  -7  -2 81862.3 804.290   1
  -1   7  -2 91484.4 945.370   1
   1  -7   2 88891.3 935.440   1
  -3  -4   7 85799.1 1094.79   1
  -3  -4   7 85322.8 949.430   1
   3   4  -7 84845.0 949.530   1
   3  -4  -7 77402.7 877.690   1
   3  -4  -7 81921.1 936.540   1
  -3   4   7 74343.1 1099.84   1
  -4  -6   0 36043.1 588.910   1
  -4  -6   0 39415.4 730.670   1
   4  -6   0 38755.3 626.740   1
   4  -6   0 40415.5 639.430   1
   4  -6   0 34376.8 490.470   1
  -7  -1   4 4226.46 209.420   1
  -7   1   4 4463.62 203.640   1
   7   1  -4 4384.69 186.000   1
   7  -1  -4 4061.67 183.800   1
  -7  -1   4 4304.81 243.150   1
  -7   1   4 4481.84 262.320   1
  -7  -1   4 4742.41 275.250   1
   1  -6  -5 78042.7 882.600   1
   1   6  -5 74576.9 976.290   1
  -1  -6   5 79004.6 844.460   1
   1  -6  -5 74475.5 829.690   1
  -5  -5   4 17103.9 472.100   1
  -5  -5   4 17760.8 420.160   1
   5  -5  -4 20423.0 455.490   1
   5  -5  -4 20689.5 465.420   1
   5  -5  -4 17326.2 367.980   1
  -2  -7  -1 57415.5 842.690   1
   2  -7   1 59988.9 709.500   1
  -2  -7  -1 52933.8 629.840   1
   2  -7   1 55561.2 662.780   1
  -2  -1  -7 74761.7 897.780   1
  -2  -1  -7 70414.0 1182.21   1
  -2  -1  -7 72711.8 837.600   1
  -2  -1  -7 74854.3 943.420   1
   2  -1   7 69244.9 744.120   1
   2   1   7 72020.9 808.800   1
   2  -1   7 70843.1 802.240   1
  -7  -2   3 2113.24 183.340   1
   7  -2  -3 1887.88 124.140   1
  -7  -2   3 1595.13 122.470   1
   7  -2  -3 2494.81 160.650   1
  -7   2   3 2485.81 172.510   1
  -7  -2   3 2028.16 155.260   1
  -7   2   3 2418.08 215.390   1
  -6  -3  -1 70275.1 861.150   1
   6  -3   1 71535.9 830.420   1
  -6  -3  -1 73759.5 798.510   1
   6  -3   1 73297.4 776.180   1
  -6  -3  -1 66181.6 970.790   1
  -6   3  -1 72969.7 986.750   1
   6  -3   1 71118.4 1249.55   1
   6  -3   1 72717.9 795.730   1
   0  -7  -3 21861.8 447.430   1
   0  -7   3 22176.0 462.050   1
   0  -7   3 23142.0 451.900   1
   0  -7  -3 22834.1 451.920   1
   0   7  -3 21992.6 403.020   1
   3  -5   4 44583.5 633.640   1
   3  -5   4 44829.5 658.150   1
   3  -5   4 47211.3 677.380   1
  -3   5  -4 44103.6 671.750   1
  -3  -5  -4 43493.0 741.800   1
  -3  -5  -4 45127.8 682.290   1
   4   2  -8 146288. 1818.25   1
  -4  -2   8 146215. 1979.10   1
   4  -2  -8 145157. 1359.66   1
  -4  -2   8 146102. 1938.92   1
  -6  -4   4 39887.3 683.790   1
   6  -4  -4 39966.8 649.250   1
   6  -4  -4 37192.8 546.770   1
   6  -4  -4 35586.8 524.290   1
   7   0  -5 15.7200 37.1500   1
  -7   0   5 65.0100 78.6100   1
  -7   0   5 20.1200 35.7400   1
   5  -1   4 2000.70 166.520   1
  -5  -1  -4 2089.40 213.140   1
  -5  -1  -4 2008.56 171.010   1
  -5   1  -4 2066.15 148.720   1
  -5  -1  -4 1931.13 126.220   1
  -5   1  -4 1980.02 141.850   1
   5   1   4 1715.05 122.670   1
   5   1   4 1895.93 165.130   1
   5   1   4 2182.72 159.870   1
   5  -1   4 1928.28 127.650   1
  -5   1  -4 2174.34 153.350   1
   5  -1   4 2208.63 249.210   1
   2  -5   5 31183.1 529.150   1
   2  -5   5 31233.6 580.700   1
  -2   5  -5 32776.4 554.540   1
  -2  -5  -5 32377.8 613.660   1
  -2  -5  -5 31898.2 630.100   1
  -2  -5  -5 28680.6 493.240   1
  -2  -7   3 69451.3 957.590   1
  -2  -7   3 74554.0 791.450   1
   2  -7  -3 68358.0 717.820   1
  -3   4  -5 2631.96 155.620   1
  -3   4  -5 2397.63 195.950   1
   3  -4   5 3108.76 198.540   1
   3  -4   5 2246.51 243.040   1
   3  -4   5 2676.17 149.420   1
   3  -4   5 2933.96 170.060   1
  -3  -4  -5 2702.94 159.550   1
  -3  -4  -5 2863.76 179.450   1
   3   4   5 2375.84 171.440   1
   6   2   2 40838.2 624.260   1
  -6  -2  -2 36933.1 533.810   1
  -6  -2  -2 38620.0 728.040   1
  -6  -2  -2 34890.2 735.950   1
   6  -2   2 34650.6 838.280   1
   6  -2   2 40933.8 686.920   1
  -6   2  -2 39456.8 752.190   1
  -6   2  -2 41693.3 740.600   1
   6   2   2 36584.1 582.900   1
   6  -2   2 38104.8 611.280   1
  -3  -6   5 248.950 66.4100   1
   3  -6  -5 318.140 61.5000   1
   3   6  -5 321.910 68.0800   1
  -3  -6   5 413.370 66.0200   1
   3  -6  -5 233.940 56.8200   1
  -4  -6   4 122220. 1274.57   1
   4  -6  -4 129714. 1139.72   1
   0   2  -8 59903.1 970.290   1
   0   2  -8 66257.6 794.720   1
   0   2   8 61005.3 908.430   1
   0  -2  -8 65355.2 1005.80   1
   0   2   8 60097.4 850.260   1
   6  -1  -7 106696. 1202.89   1
   6  -1  -7 103460. 995.450   1
   6   1  -7 102340. 1144.28   1
  -6   1   7 106868. 1143.39   1
  -6  -1   7 107474. 1140.65   1
   6  -1  -7 95178.5 1065.59   1
  -7  -2   1 111.050 80.9200   1
  -7   2   1 54.8900 47.9800   1
   7  -2  -1 21.7700 43.8900   1
  -7   2   1 85.3800 53.6500   1
   7   2  -1 134.010 40.4200   1
   7  -2  -1 113.450 41.8800   1
  -7   2   1 54.3100 37.3200   1
  -7  -2   1 279.880 59.1400   1
  -3  -3   8 11601.3 467.520   1
   3  -3  -8 10897.4 341.880   1
   3   3  -8 10700.1 352.420   1
   3  -3  -8 11625.3 394.610   1
   3   3  -8 8293.86 332.450   1
  -3  -3   8 9546.45 278.240   1
  -3   3   8 9986.57 339.850   1
   3   3  -8 8459.50 323.680   1
  -6  -4   0 62836.6 1099.34   1
  -6  -4   0 58209.5 988.730   1
  -6  -4   0 60597.6 760.600   1
   6  -4   0 63295.9 756.960   1
  -6   4   0 67233.5 891.850   1
   6  -4   0 61827.6 766.750   1
   6  -4   0 62959.7 736.540   1
   4  -4   4 44034.1 1018.73   1
   4  -4   4 46550.3 612.470   1
  -4   4  -4 47349.9 640.690   1
   4  -4   4 46821.3 616.850   1
  -4  -4  -4 45159.0 756.470   1
  -4  -4  -4 44114.8 696.650   1
   2  -4   6 119685. 1011.72   1
   2  -4   6 120832. 953.430   1
  -2   4  -6 114798. 967.300   1
  -2  -4  -6 119351. 1093.84   1
   3  -7  -2 7751.88 277.380   1
   3  -7  -2 7603.66 258.670   1
  -3  -7   2 8256.48 288.120   1
  -3  -7   2 7373.13 263.230   1
   7  -1   0 3272.80 162.460   1
  -7   1   0 2834.13 190.180   1
   7  -1   0 3203.69 191.160   1
  -7   1   0 3179.59 185.870   1
  -7  -1   0 3076.92 269.160   1
  -7   1   0 2893.33 215.070   1
  -7  -1   0 2952.87 185.610   1
   7   1   0 2957.43 145.600   1
   7   1   0 2871.31 153.540   1
   4  -5   3 76031.1 761.680   1
  -4   5  -3 75307.1 939.780   1
  -4  -5  -3 72559.2 871.380   1
  -4  -5  -3 75940.8 899.860   1
   2  -6   4 40360.7 658.460   1
  -2   6  -4 38862.5 589.140   1
   2  -6   4 37060.7 526.460   1
  -2  -6  -4 37326.4 580.260   1
  -2  -6  -4 38266.6 674.220   1
   1   3  -8 3653.22 202.950   1
   1   3  -8 2339.22 212.120   1
  -1   3   8 3125.92 188.070   1
   1   3  -8 2780.34 215.550   1
  -1  -3   8 3756.52 221.280   1
   1   3  -8 3483.66 216.040   1
   1  -3  -8 3514.77 275.980   1
   1   3  -8 2435.24 222.770   1
  -1   3   8 3187.45 219.430   1
  -1   3   8 3424.50 179.040   1
  -1  -3   8 3466.82 252.760   1
   1  -3  -8 3607.85 198.810   1
   5   1  -8 53055.2 727.490   1
   5  -1  -8 59955.5 881.430   1
  -5  -1   8 61112.1 925.060   1
  -5   1   8 58523.8 902.050   1
   5   1  -8 55174.3 708.640   1
  -5  -1   8 59325.7 931.820   1
   5  -1  -8 54657.0 870.620   1
   3  -7   0 23220.2 447.460   1
  -3  -7   0 24343.8 513.980   1
  -3  -7   0 24537.4 571.210   1
   3  -7   0 22573.4 408.490   1
  -3   6  -3 89848.3 921.140   1
   3  -6   3 80403.3 844.740   1
   3  -6   3 86324.4 955.900   1
  -3  -6  -3 80725.5 920.150   1
  -3  -6  -3 82990.1 905.370   1
   1  -5   6 61150.0 679.150   1
  -1  -5  -6 59115.2 796.940   1
  -1  -5  -6 59417.7 677.920   1
  -1  -7   4 67051.3 714.200   1
   1  -7  -4 62292.5 686.550   1
   1   7  -4 67773.2 859.740   1
   1  -7  -4 66892.9 820.190   1
  -1  -7   4 60150.9 833.570   1
  -7  -2   5 4851.58 244.060   1
   7  -2  -5 6702.85 238.740   1
  -7   2   5 6277.76 247.100   1
   7  -2  -5 6609.54 249.810   1
  -7   2   5 7162.93 296.890   1
  -7  -2   5 6543.96 357.050   1
  -7  -2   5 6313.53 253.830   1
   1  -6   5 8872.30 312.000   1
  -1   6  -5 7726.28 237.360   1
   1  -6   5 7756.00 305.190   1
  -1  -6  -5 7762.88 303.860   1
  -1  -6  -5 8821.71 313.350   1
   1  -1   8 3478.12 191.490   1
   1  -1   8 3085.30 175.650   1
   1   1   8 3331.75 175.640   1
  -1   1  -8 2094.07 162.680   1
   1  -1   8 2702.18 181.250   1
  -1   1  -8 3313.16 239.480   1
  -1   1  -8 3278.56 381.120   1
  -1  -1  -8 2622.20 218.460   1
  -1  -1  -8 3021.37 202.060   1
  -1   1  -8 3280.18 194.480   1
   1   1   8 3010.87 213.310   1
  -1  -1  -8 3504.02 206.120   1
  -7  -3   2 2290.64 165.080   1
   7  -3  -2 2224.19 153.610   1
   7  -3  -2 2291.91 151.750   1
  -7  -3   2 1966.08 164.930   1
   7  -3  -2 2167.12 135.230   1
  -3   3  -6 157.890 59.0300   1
   3   3   6 134.290 45.2400   1
  -3  -3  -6 216.370 59.5200   1
  -3  -3  -6 212.290 63.0800   1
   3  -3   6 191.510 56.6100   1
  -3   3  -6 143.710 68.1300   1
   3   3   6 219.700 64.7700   1
   3  -3   6 199.140 62.4100   1
   3   3   6 216.880 57.8900   1
   4   3   5 104354. 905.520   1
   4  -3   5 109101. 972.290   1
  -4  -3  -5 104906. 1299.55   1
  -4   3  -5 109320. 1185.98   1
   3   0  -9 3.93000 59.7600   1
   2   5  -7 91857.1 960.760   1
   2  -5  -7 94664.8 1072.03   1
  -2  -5   7 90460.7 843.120   1
   7  -3  -4 14459.5 403.340   1
   7  -3  -4 13677.1 395.240   1
  -7  -3   4 13189.1 400.740   1
  -7  -3   4 12284.2 406.080   1
   7  -3  -4 13927.3 353.180   1
  -5   4  -3 7068.24 277.410   1
  -5  -4  -3 6333.96 308.660   1
   5  -4   3 6069.44 231.780   1
   5  -4   3 5708.79 353.850   1
  -5  -4  -3 6789.69 290.960   1
   5  -4   3 6843.23 291.790   1
   5  -4   3 6332.19 224.110   1
  -7  -1   6 17067.5 451.960   1
  -7   1   6 16679.4 460.980   1
   7   1  -6 16744.3 438.310   1
   7  -1  -6 16641.5 411.550   1
  -7  -1   6 16719.8 563.820   1
  -7   1   6 16653.2 490.640   1
   6   1   3 68096.4 692.510   1
  -6   1  -3 72686.1 832.850   1
   6  -1   3 74486.4 1149.08   1
   6  -1   3 72259.3 771.190   1
  -6  -1  -3 78577.9 978.190   1
   6  -1   3 72491.9 883.380   1
  -6   1  -3 68564.2 950.010   1
  -6  -1  -3 70691.0 1089.18   1
   6   1   3 67790.0 1073.19   1
  -6  -1  -3 69898.0 758.730   1
   2   1  -9 140664. 1285.05   1
   2  -1  -9 131896. 1119.76   1
  -2  -1   9 142653. 1342.61   1
  -2  -1   9 134611. 1176.81   1
  -2  -1   9 131268. 1357.29   1
   1  -4   7 2328.62 201.020   1
  -1   4  -7 1706.91 159.840   1
  -1   4  -7 2026.97 130.170   1
   1  -4   7 2521.02 158.570   1
   1   4   7 1646.85 143.360   1
  -1  -4  -7 2065.82 172.730   1
   1   4   7 1575.68 166.640   1
  -1  -4  -7 2012.26 132.040   1
  -5  -6   1 1588.95 155.490   1
  -5  -6   1 1609.96 143.240   1
   5  -6  -1 1408.29 112.410   1
   5  -6  -1 1377.14 109.440   1
   5  -6  -1 1059.08 132.580   1
   5  -6  -1 1584.15 118.900   1
  -4  -6  -2 33428.0 667.310   1
  -4   6  -2 31187.0 511.620   1
   4  -6   2 27813.1 460.680   1
   4  -6   2 27424.7 459.180   1
   4  -6   2 33767.0 549.350   1
  -4  -6  -2 34512.5 672.060   1
  -2   6   6 6496.17 283.950   1
   2   6  -6 9599.50 297.280   1
   2  -6  -6 8979.19 274.750   1
   2  -6  -6 8247.20 296.000   1
  -2  -6   6 8876.28 334.340   1
  -2  -6   6 8922.76 272.620   1
  -7   0  -1 2.08000 45.0800   1
   7   0   1 29.5700 29.9100   1
  -7   0  -1 -3.8900 59.7900   1
  -7   0  -1 -1.8800 39.1500   1
  -5  -6   3 20486.8 441.610   1
  -5  -6   3 22466.9 454.060   1
  -5  -6   3 20510.8 537.200   1
   5  -6  -3 22973.0 456.330   1
   5  -6  -3 22575.1 451.880   1
   0  -8   0 18029.0 398.830   1
   0  -8   0 19789.1 462.760   1
   0  -8   0 18384.3 402.750   1
  -6  -5   3 57317.7 747.870   1
  -6  -5   3 56576.6 954.620   1
   6  -5  -3 53911.9 710.870   1
   6  -5  -3 53924.8 665.720   1
   6  -5  -3 57676.8 765.770   1
   1   0  -9 -9.3200 36.0900   1
  -1   0   9 77.4000 30.3800   1
  -1   0   9 18.0800 36.4700   1
   1   0  -9 -17.990 38.3700   1
   1   0  -9 3.35000 52.6500   1
   2   3   7 73277.5 850.300   1
   2  -3   7 73960.0 894.170   1
  -2   3  -7 75172.5 934.710   1
  -2   3  -7 63225.8 1056.81   1
   2  -3   7 73050.8 800.750   1
  -2  -3  -7 70122.1 1073.15   1
   2   3   7 72186.3 816.870   1
  -2  -3  -7 64905.4 855.810   1
  -2  -3  -7 70698.9 919.490   1
  -2   3  -7 75798.4 901.760   1
  -5  -5  -2 7269.83 312.390   1
  -5  -5  -2 6074.27 268.270   1
   5  -5   2 6702.14 249.110   1
   5  -5   2 6231.09 241.640   1
  -5   5  -2 5778.71 256.560   1
   5  -5   2 4767.62 337.550   1
   5  -5   2 6431.74 249.210   1
  -6  -5   1 49587.2 682.750   1
  -6  -5   1 47474.7 814.370   1
  -6  -5   1 48746.7 673.570   1
   6  -5  -1 52084.5 764.560   1
   6  -5  -1 47455.3 666.650   1
   2  -4  -8 93099.3 881.110   1
  -2  -4   8 93444.7 885.920   1
   2  -4  -8 98245.3 1214.96   1
   5  -4  -7 12608.0 324.930   1
  -5  -4   7 13055.6 384.310   1
   5  -4  -7 11033.4 437.870   1
   5   4  -7 12933.9 313.810   1
  -5  -4   7 12601.0 422.160   1
   5  -4  -7 12395.0 341.360   1
  -4   0  -6 30799.3 600.550   1
  -4   0  -6 32234.3 515.310   1
  -4   0  -6 33208.1 642.050   1
   4   0   6 30851.2 522.990   1
   2  -7   3 27716.1 492.740   1
  -2   7  -3 27872.1 503.530   1
   2  -7   3 28445.3 494.490   1
  -2  -7  -3 29004.0 601.130   1
  -2  -7  -3 31224.5 581.540   1
  -5  -3  -4 45.7900 54.5600   1
   5   3   4 130.880 59.5600   1
   5  -3   4 77.3400 36.5800   1
   5  -3   4 44.9100 37.1200   1
   5  -3   4 80.1500 65.4800   1
   5   3   4 105.520 47.8000   1
  -5  -3  -4 58.6400 64.3500   1
   5  -3   4 54.8000 37.2900   1
  -5   3  -4 52.5800 53.0700   1
  -1  -8   1 46104.2 670.680   1
  -1  -8   1 46196.6 670.040   1
   1  -8  -1 50218.9 602.070   1
   1  -8  -1 49848.7 658.800   1
   3  -7  -4 30610.7 508.340   1
   3  -7  -4 32626.2 512.030   1
  -3  -7   4 33948.3 628.690   1
  -3  -7   4 33699.0 726.380   1
  -3   0  -7 -16.640 49.1600   1
  -3   0  -7 -6.8400 60.3100   1
   3   0   7 -1.1000 44.6900   1
  -4  -1   9 42432.9 956.240   1
  -4  -1   9 39691.3 808.730   1
   4  -1  -9 41120.8 748.000   1
   4   1  -9 41417.6 793.280   1
   4  -1  -9 39564.1 777.260   1
   4   1  -9 42437.8 995.010   1
   4   1  -9 37234.3 913.280   1
  -5  -5   6 43477.9 745.200   1
  -5  -5   6 43491.5 918.000   1
   5  -5  -6 41312.4 708.160   1
   5  -5  -6 43923.1 738.210   1
  -4  -7   1 20213.1 589.130   1
  -4  -7   1 18971.9 472.260   1
   4  -7  -1 17690.9 437.170   1
   4  -7  -1 18693.1 448.480   1
   1  -7   4 21559.8 527.790   1
  -1   7  -4 20128.0 469.410   1
   1  -7   4 23829.9 532.950   1
  -1  -7  -4 21294.6 472.850   1
  -1  -7  -4 22130.8 544.440   1
   3  -2  -9 26785.0 659.610   1
   3   2  -9 23825.6 526.420   1
  -3  -2   9 28012.9 780.480   1
  -3  -2   9 24464.4 563.470   1
  -6  -4   6 59308.4 1006.11   1
  -6  -4   6 60678.2 1150.58   1
  -6   4   6 53178.8 1169.86   1
   6  -4  -6 62457.8 1040.17   1
   6  -4  -6 60190.4 1218.70   1
  -6   0   8 51928.4 1013.12   1
   6   0  -8 50229.6 915.680   1
   6   0  -8 49269.8 868.780   1
  -6   0   8 50898.5 961.040   1
   0  -6   6 77054.8 1300.42   1
   0  -6   6 77504.0 1092.19   1
   0   6  -6 76462.4 1117.15   1
   0  -6  -6 72996.7 1110.09   1
   0  -6  -6 78155.5 1158.69   1
  -1  -8  -1 62107.9 905.670   1
   1  -8   1 57708.3 860.930   1
  -1  -8  -1 60324.8 1123.67   1
   1  -8   1 60583.3 910.760   1
   1  -8   1 63560.4 996.190   1
   6   3  -7 81112.2 1282.87   1
   6  -3  -7 89084.1 1393.26   1
   6  -3  -7 90327.7 1331.02   1
   6  -3  -7 93529.9 1505.27   1
   6  -3  -7 94478.0 1288.98   1
  -6  -3   7 96948.3 1562.81   1
  -6  -3   7 88019.3 1356.92   1
   0  -5   7 9125.07 373.340   1
   0   5  -7 9918.45 329.150   1
   0  -5   7 8842.66 299.470   1
   0  -5  -7 10014.5 319.140   1
   0  -5  -7 9056.03 346.120   1
   3  -7   2 24200.2 494.530   1
  -3   7  -2 28339.8 603.000   1
   3  -7   2 26928.3 577.740   1
  -3  -7  -2 26738.9 574.290   1
  -3  -7  -2 24538.7 541.980   1
  -5   0  -5 57.8700 39.3600   1
  -5   0  -5 50.8500 47.6800   1
   5   0   5 54.8400 48.8700   1
  -5   0  -5 -6.1400 49.8600   1
   0  -8   2 56706.6 866.460   1
   0  -8   2 56000.5 892.220   1
   0  -8  -2 58430.5 938.480   1
   0  -8  -2 55373.1 835.630   1
  -7   3   0 6781.01 280.940   1
   7  -3   0 7068.35 262.880   1
  -7  -3   0 7014.03 330.700   1
   7  -3   0 6530.05 241.390   1
  -7  -3   0 6767.78 345.400   1
  -7  -3   0 7073.90 281.250   1
   7  -3   0 6776.49 248.910   1
   5   3  -8 684.280 94.7600   1
   5  -3  -8 1195.88 128.590   1
  -5  -3   8 1080.75 123.330   1
   5  -3  -8 1183.31 132.170   1
   5   3  -8 1245.86 114.560   1
   5  -3  -8 1113.01 136.450   1
  -5  -3   8 1245.41 121.360   1
   5  -3  -8 1091.78 130.760   1
   7  -2   1 9274.88 337.440   1
  -7  -2  -1 9287.81 311.400   1
  -7   2  -1 7866.51 354.750   1
   7  -2   1 10684.0 349.680   1
  -7  -2  -1 8188.29 317.900   1
  -7   2  -1 9942.20 379.420   1
   7   2   1 8946.64 298.200   1
   7   2   1 8946.30 306.070   1
  -7  -2  -1 8338.22 407.750   1
  -4  -5   7 60999.9 1206.29   1
   4  -5  -7 47376.7 1055.34   1
   4   5  -7 55392.6 853.970   1
   4  -5  -7 57176.3 880.020   1
  -4  -5   7 59284.2 1002.28   1
   4  -5  -7 51704.7 815.010   1
  -4  -7   3 4865.31 243.900   1
  -4  -7   3 5085.32 241.380   1
   4  -7  -3 4682.75 207.550   1
   4  -7  -3 4601.41 191.830   1
   1   2  -9 8974.74 378.050   1
   1   2  -9 8465.80 354.610   1
   1  -2  -9 12155.4 386.090   1
   1   2  -9 11392.8 341.150   1
   1  -2  -9 11164.4 389.450   1
  -1  -2   9 11687.5 489.720   1
  -1  -2   9 11411.8 339.610   1
  -1  -2   9 8646.67 326.050   1
  -7  -4   3 32203.4 806.090   1
  -7  -4   3 36061.1 724.190   1
   7  -4  -3 36640.8 674.230   1
   7  -4  -3 35294.2 641.820   1
   7  -4  -3 33019.3 605.290   1
  -2  -7   5 87186.5 1169.08   1
   2  -7  -5 91495.3 1314.81   1
  -2  -7   5 89258.9 1389.95   1
   2  -7  -5 92919.5 1321.52   1
   2   7  -5 85677.3 1183.16   1
  -7   0   7 1.82000 59.5800   1
  -7   0   7 3.73000 40.0500   1
   7   0  -7 7.29000 39.3200   1
   7   0  -7 31.1300 33.6300   1
   7   0  -7 21.4300 46.6400   1
   2  -8   0 24813.4 547.680   1
  -2  -8   0 23638.3 512.090   1
   2  -8   0 26684.8 537.820   1
   4  -4  -8 48924.3 929.610   1
   4  -4  -8 48031.0 1074.65   1
   4   4  -8 48585.4 811.020   1
   4  -4  -8 49905.9 853.860   1
  -4  -4   8 49875.0 1033.05   1
  -4   4   8 50838.2 959.130   1
  -4  -2  -6 47875.8 1057.16   1
  -4  -2  -6 45368.8 814.040   1
   4  -2   6 43333.2 710.330   1
   4   2   6 44390.7 749.530   1
   4  -2   6 43092.8 700.890   1
  -4   2  -6 48733.4 813.260   1
  -4   2  -6 48592.4 862.460   1
  -8   0   4 95833.3 1483.01   1
   8   0  -4 86507.9 1170.71   1
  -8   0   4 93146.0 1351.23   1
   8   0  -2 81685.7 1192.09   1
  -8   0   2 81644.8 1349.41   1
  -8   0   2 76181.6 1359.15   1
   2   0   8 107001. 1519.51   1
  -2   0  -8 103694. 1387.34   1
   2   0   8 104373. 1524.18   1
   8   1  -3 114812. 1567.78   1
   8  -1  -3 116887. 1585.33   1
   8   1  -3 106882. 1446.04   1
  -8   1   3 109671. 1524.19   1
  -8   1   3 102652. 1555.46   1
  -8  -1   3 107417. 1643.19   1
  -8  -1   3 116706. 1684.41   1
  -2  -8   2 6775.18 251.770   1
  -2  -8   2 6447.18 263.630   1
   2  -8  -2 5907.31 208.650   1
   2  -8  -2 6577.83 260.970   1
  -1   3  -8 8022.63 285.300   1
   1  -3   8 8646.88 304.560   1
  -1   3  -8 8242.07 278.850   1
  -1   3  -8 6932.41 314.400   1
  -1  -3  -8 7896.37 335.290   1
   1   3   8 6585.83 288.380   1
  -1  -3  -8 8055.07 341.640   1
   1   3   8 8966.80 322.710   1
   1   3   8 7709.81 267.150   1
  -5  -6  -1 8039.98 281.450   1
  -5  -6  -1 8921.06 396.710   1
   5  -6   1 9816.95 331.620   1
   5  -6   1 9807.37 359.950   1
  -5   6  -1 9203.25 332.570   1
   5  -6   1 9000.70 292.920   1
   5   0  -9 21.5500 44.8100   1
  -5   0   9 -11.910 45.3300   1
  -3  -2  -7 2468.65 188.180   1
   3  -2   7 2602.88 143.960   1
  -3  -2  -7 2710.45 177.640   1
   3   2   7 2968.60 179.180   1
   3   2   7 2503.65 165.110   1
   3  -2   7 2843.81 163.770   1
  -3   2  -7 2678.74 168.500   1
  -3   2  -7 2988.39 173.370   1
  -6  -5   5 55274.8 994.100   1
  -6  -5   5 52466.2 1109.46   1
   6  -5  -5 53951.1 923.320   1
   6  -5  -5 55577.9 922.200   1
   6  -5  -5 55854.9 926.000   1
   0   1   9 45268.9 871.550   1
   0   1  -9 43349.5 997.690   1
   0  -1  -9 50479.0 933.250   1
   0   1  -9 52390.0 963.150   1
   0   1  -9 51177.1 863.430   1
   0   1   9 46285.9 918.790   1
   0  -1   9 41835.0 896.110   1
   0  -1  -9 41518.0 1026.65   1
   0  -1   9 48762.8 886.320   1
  -6  -4  -2 47008.7 846.200   1
  -6  -4  -2 45410.2 895.390   1
  -6   4  -2 46205.8 863.360   1
   6  -4   2 53345.7 927.320   1
   6  -4   2 41939.0 1060.51   1
   6  -4   2 50385.8 858.680   1
   6  -4   2 52117.2 985.890   1
   0  -7   5 26240.8 505.670   1
   0   7  -5 24673.9 500.590   1
   0  -7   5 27263.1 618.700   1
   0  -7  -5 26947.1 579.030   1
   0  -7  -5 25009.2 515.220   1
  -4  -6   6 64267.5 1234.69   1
  -4  -6   6 61988.5 937.750   1
   4   6  -6 62818.7 985.380   1
   4  -6  -6 59437.1 875.470   1
   4  -6  -6 59115.0 895.130   1
   0   4  -8 33430.2 650.670   1
   0  -4   8 35162.7 788.080   1
   0  -4  -8 36356.4 822.380   1
   0  -4  -8 33418.7 720.510   1
   6  -2  -8 22569.7 618.860   1
  -6  -2   8 25062.0 669.890   1
   6  -2  -8 20949.9 672.740   1
  -6  -2   8 25483.8 633.020   1
   6  -2  -8 25194.4 581.590   1
   6   2  -8 23136.0 504.050   1
   6  -2  -8 25710.2 685.780   1
   6  -2  -8 22467.4 568.900   1
  -7  -4   1 6344.14 273.500   1
  -7  -4   1 6389.43 261.370   1
  -7  -4   1 5745.80 317.140   1
   7  -4  -1 6195.55 263.730   1
  -7   4   1 5659.42 256.790   1
   7  -4  -1 6075.36 236.590   1
   7  -4  -1 5797.20 224.810   1
  -1  -8   3 565.530 77.8400   1
   1  -8  -3 713.520 74.3600   1
   1  -8  -3 773.130 77.9800   1
  -1  -8   3 627.470 86.3600   1
  -5  -6   5 85869.7 1351.44   1
   5  -6  -5 91242.8 1268.42   1
  -7  -3   6 7613.75 379.370   1
   7  -3  -6 8852.01 325.880   1
   7  -3  -6 7590.39 282.620   1
  -7  -3   6 7693.04 326.890   1
   7  -3  -6 7708.41 272.240   1
  -6  -3  -3 46778.1 804.730   1
   6   3   3 48024.5 764.510   1
   6  -3   3 52532.4 916.670   1
  -6   3  -3 52160.8 1011.03   1
   6  -3   3 51534.1 853.520   1
  -6  -3  -3 47888.6 1059.28   1
   6  -3   3 45658.5 1202.09   1
   5  -2   5 10117.1 302.510   1
   5   2   5 11012.5 330.460   1
   5   2   5 9529.90 290.940   1
  -5  -2  -5 10242.3 350.610   1
   5  -2   5 10176.0 297.440   1
  -5   2  -5 10435.4 357.330   1
  -5  -2  -5 10376.8 459.540   1
   5   2   5 9343.44 404.440   1
   2   3  -9 65551.0 1046.00   1
   2  -3  -9 67152.3 1026.14   1
  -4  -7  -1 30938.8 633.790   1
   4  -7   1 31321.3 590.170   1
  -4   7  -1 32200.9 629.800   1
   4  -7   1 31924.1 614.690   1
  -4  -7  -1 28098.3 605.610   1
  -7   1  -2 597.300 81.0100   1
   7   1   2 685.690 80.2900   1
   7  -1   2 638.430 85.8200   1
  -7   1  -2 553.930 94.1300   1
   7  -1   2 570.580 77.4200   1
  -7   1  -2 701.600 120.210   1
  -7  -1  -2 716.200 82.8400   1
   7  -1   2 631.330 110.040   1
   7   1   2 665.670 80.9800   1
  -7  -1  -2 613.250 115.340   1
  -7  -1  -2 619.630 100.750   1
   6   0   4 44126.3 977.650   1
  -6   0  -4 43205.1 973.550   1
   6   0   4 43017.5 832.250   1
  -6   0  -4 50356.6 914.700   1
  -6   0  -4 45205.7 771.960   1
   6   0   4 44904.9 1012.86   1
  -6  -5  -1 59383.5 975.800   1
  -6  -5  -1 69219.3 1264.37   1
   6  -5   1 58299.8 890.030   1
   6  -5   1 67295.5 1030.26   1
  -6   5  -1 65506.8 1113.07   1
   6  -5   1 62543.1 946.480   1
   7   2  -7 13851.9 455.700   1
   7  -2  -7 17219.1 452.720   1
  -7  -2   7 19195.6 556.920   1
  -7  -2   7 17110.0 522.140   1
   7  -2  -7 14575.2 421.770   1
  -7  -2   7 12333.7 453.850   1
   7  -2  -7 15779.1 405.280   1
  -8  -1   5 31835.2 662.620   1
  -8   1   5 30879.0 715.650   1
  -8   1   5 31020.8 682.540   1
   8   1  -5 31274.8 599.940   1
   8   1  -5 33689.0 777.790   1
   8  -1  -5 32453.7 628.870   1
  -8  -1   5 31780.4 845.460   1
   8   1  -1 50078.1 869.970   1
  -8   1   1 46488.5 936.840   1
  -8   1   1 52848.8 954.770   1
  -8  -1   1 48356.5 937.050   1
  -8  -1   1 48802.3 1174.50   1
   8   1  -1 51588.3 915.690   1
   8  -1  -1 52262.9 935.680   1
  -8   1   1 47246.8 964.220   1
   8  -1  -1 52233.1 969.890   1
  -7  -4   5 2705.63 250.390   1
  -7  -4   5 2858.75 173.460   1
   7  -4  -5 2797.56 172.730   1
   7  -4  -5 2699.25 156.160   1
   7  -4  -5 2670.00 166.260   1
  -8   2   4 62069.9 1119.02   1
   8   2  -4 54309.7 872.910   1
   8  -2  -4 62657.8 967.890   1
  -8   2   4 58505.2 1059.28   1
  -8  -2   4 60395.1 1161.45   1
  -8  -2   4 58113.3 1018.92   1
   8  -2  -2 32066.0 656.500   1
  -8  -2   2 26195.0 594.410   1
   8   2  -2 30817.9 583.630   1
  -8   2   2 31757.3 707.620   1
  -8  -2   2 26693.3 716.590   1
   8  -2  -2 32614.3 748.180   1
  -8   2   2 28057.0 706.940   1
   2  -2   8 69900.3 1120.11   1
  -2   2  -8 64357.8 945.740   1
  -2  -2  -8 67067.8 1157.61   1
   2  -2   8 68488.4 1075.66   1
   2   2   8 62641.0 1038.63   1
  -2  -2  -8 69273.2 1143.64   1
  -2  -2  -8 61896.0 1131.54   1
  -2   2  -8 74057.1 1230.68   1
  -3  -8   1 56566.0 950.500   1
  -3  -8   1 52074.3 814.720   1
   3  -8  -1 59459.6 904.430   1
   3  -8  -1 60152.8 894.970   1
   5   2  -9 7422.77 285.470   1
   5  -2  -9 8134.16 350.150   1
   5  -2  -9 7400.97 352.520   1
  -5  -2   9 7149.60 301.060   1
  -5  -2   9 7766.43 331.450   1
   4   3  -9 30508.3 614.100   1
   4  -3  -9 29699.6 634.830   1
  -4  -3   9 31777.3 733.290   1
  -4  -3   9 28066.2 632.970   1
   4  -3  -9 31085.9 660.960   1
   1   6  -7 20543.0 477.660   1
  -1  -6   7 21645.2 565.160   1
  -1  -6   7 22436.6 515.460   1
   1  -6  -7 23250.0 556.860   1
   1  -6  -7 20571.9 525.690   1
  -6  -6   2 26284.0 581.870   1
  -6  -6   2 25996.1 576.220   1
  -6  -6   2 25755.1 656.950   1
   6  -6  -2 25218.7 517.690   1
   6  -6  -2 27479.6 573.850   1
   6  -6  -2 27321.8 569.150   1
   2  -8   2 36862.4 716.120   1
   2  -8   2 38456.4 730.980   1
   2  -8   2 39857.1 725.080   1
  -2  -8  -2 38235.1 708.840   1
  -2  -8  -2 36362.6 713.120   1
   1  -8   3 34218.6 694.000   1
  -1   8  -3 38188.0 722.640   1
   1  -8   3 40129.7 761.490   1
  -1  -8  -3 35698.9 706.560   1
  -1  -8  -3 34303.6 677.130   1
  -1  -8  -3 34384.9 626.220   1
  -3  -5   8 19973.0 585.910   1
   3  -5  -8 19358.8 472.270   1
  -3  -5   8 18948.1 434.670   1
   3  -5  -8 17838.3 518.100   1
   3   5  -8 18505.7 442.210   1
   3  -6  -7 2122.36 139.360   1
   3   6  -7 2081.17 145.650   1
   3  -6  -7 2211.73 152.480   1
  -3  -6   7 2256.96 146.390   1
  -3  -6   7 1974.43 177.790   1
   1   5  -8 9895.63 330.890   1
  -1  -5   8 10310.5 339.670   1
  -1  -5   8 10491.0 449.450   1
   1  -5  -8 9760.90 326.180   1
   1  -5  -8 9043.56 380.950   1
  -5  -7   2 48406.9 867.300   1
  -5  -7   2 46252.3 872.000   1
   5  -7  -2 53470.9 883.260   1
   5  -7  -2 46455.3 755.880   1
  -6  -2  -4 12908.6 365.380   1
   6   2   4 12827.2 366.120   1
   6  -2   4 12352.7 352.980   1
   6   2   4 12899.3 384.350   1
   6  -2   4 12237.4 357.720   1
  -6   2  -4 11752.1 383.030   1
   6  -2   4 13182.5 466.180   1
  -6  -2  -4 10922.7 525.100   1
  -6  -2  -4 11210.0 407.530   1
  -1   0  -9 15.3200 32.4800   1
   1   0   9 -7.4600 50.5300   1
  -1   0  -9 0.34000 36.1700   1
   1   0   9 18.3100 48.5300   1
   1   0   9 3.50000 30.7800   1
   8   0  -6 135362. 1236.28   1
  -8   0   6 135565. 1522.86   1
  -8   0   6 132102. 1852.05   1
   8   0   0 36644.7 677.640   1
  -8   0   0 34364.6 703.000   1
  -8   0   0 35452.0 806.230   1
  -8   0   0 33909.3 814.730   1
  -4  -7   5 6594.16 328.940   1
  -4  -7   5 6643.24 275.080   1
   4  -7  -5 7030.85 268.030   1
   4  -7  -5 7482.92 275.950   1
  -3  -8   3 70311.2 1012.74   1
  -3  -8   3 74689.1 1197.35   1
   3  -8  -3 66368.9 961.100   1
   3  -8  -3 71620.0 1040.20   1
   1   7  -6 9207.01 294.960   1
  -1  -7   6 10261.9 369.760   1
  -1  -7   6 11652.4 322.020   1
   1  -7  -6 10473.8 343.100   1
   1  -7  -6 11934.9 396.330   1
   2   0 -10 65139.6 1091.95   1
   2   0 -10 62177.7 1006.67   1
  -6  -6   4 28241.0 593.430   1
  -6  -6   4 27633.7 744.900   1
   6  -6  -4 33276.6 697.860   1
   6  -6  -4 31079.3 643.300   1
   6  -6  -4 30694.8 634.310   1
   2  -8  -4 6178.57 215.960   1
  -2  -8   4 6904.05 271.410   1
   2  -8  -4 6573.42 266.110   1
  -2  -8   4 6775.02 296.460   1
  -3  -8  -1 6729.99 323.670   1
   3  -8   1 5984.84 248.580   1
  -3  -8  -1 5850.61 279.760   1
   3  -8   1 6176.58 265.110   1
  -8  -3   3 46991.6 919.250   1
  -8  -3   3 51807.8 940.500   1
   8  -3  -3 50298.5 897.240   1
   8  -3  -3 52126.8 850.840   1
   0  -8   4 67531.9 1087.41   1
   0   8  -4 71302.1 1072.47   1
   0  -8   4 66633.1 967.990   1
   0  -8  -4 68228.4 1057.95   1
   0  -8  -4 73176.5 1146.68   1
  -3  -6  -5 4754.39 214.070   1
   3  -6   5 5479.34 276.460   1
   3  -6   5 5042.90 246.890   1
  -3  -6  -5 5328.82 295.320   1
  -3   6  -5 4824.59 235.600   1
   3  -1 -10 15837.2 478.790   1
   3   1 -10 14960.5 412.090   1
   3  -1 -10 17647.7 530.630   1
  -3  -1  10 17326.5 549.060   1
  -7  -5   2 9202.88 325.740   1
  -7  -5   2 8378.44 361.570   1
  -7  -5   2 8525.63 310.460   1
   7  -5  -2 9350.42 292.990   1
   7  -5  -2 8500.24 277.340   1
   7  -5  -2 8653.01 274.040   1
   3  -5   6 7115.93 334.040   1
  -3   5  -6 6384.54 268.360   1
   3  -5   6 7009.23 258.020   1
  -3  -5  -6 6185.41 269.330   1
   3  -5   6 6434.71 247.630   1
  -3  -5  -6 7283.63 298.370   1
   0   3  -9 51373.5 922.850   1
   0   3   9 46564.1 785.190   1
   0  -3   9 50082.8 1096.14   1
   0  -3  -9 45880.5 858.740   1
   0   3  -9 44625.6 782.720   1
   0  -3  -9 46150.4 769.820   1
   0   3   9 48742.9 956.690   1
   0  -3  -9 50148.9 1086.66   1
   0  -3   9 45494.2 754.430   1
   7  -1  -8 2624.05 219.410   1
  -7  -1   8 2537.08 205.440   1
   7   1  -8 2459.99 169.510   1
   7  -1  -8 2492.23 171.130   1
   7  -1  -8 2544.64 188.330   1
   7   1  -8 2689.78 208.050   1
  -7  -1   8 2578.89 210.540   1
  -7   1   8 2784.53 201.390   1
   4  -5   5 13880.6 392.650   1
  -4   5  -5 11152.7 344.430   1
   4  -5   5 12033.1 429.250   1
  -4  -5  -5 12132.9 402.140   1
   4  -5   5 13813.8 405.030   1
  -4  -5  -5 11652.1 373.140   1
   6  -1  -9 94273.2 919.150   1
   6  -1  -9 98348.8 1344.09   1
  -6  -1   9 91351.3 1017.73   1
  -6  -1   9 99693.7 1227.51   1
  -6   1   9 100568. 1140.21   1
   6   1  -9 101549. 1262.79   1
   6  -1  -9 99113.9 1362.79   1
   6  -1  -9 95913.4 1098.41   1
   3   4  -9 12144.8 334.100   1
  -3  -4   9 11430.0 398.030   1
   3  -4  -9 10964.8 322.980   1
  -3   4   9 11093.6 335.270   1
  -3  -4   9 12302.1 343.590   1
   4   0 -10 18454.4 419.850   1
  -5  -7   0 83284.2 1107.37   1
  -5  -7   0 78163.2 869.480   1
   5  -7   0 76273.1 785.540   1
   5  -7   0 82171.1 904.290   1
  -3  -7   6 64786.1 951.640   1
   3  -7  -6 67864.5 756.220   1
  -3  -7   6 69102.1 813.430   1
   3   7  -6 65841.0 788.900   1
   3  -7  -6 61889.0 745.250   1
  -6  -6   0 23210.6 656.180   1
  -6  -6   0 21863.3 587.060   1
   6  -6   0 22845.6 498.620   1
   6  -6   0 22647.5 445.600   1
   6  -6   0 22049.0 457.480   1
  -6   6   0 22487.1 505.030   1
  -4  -6  -4 45379.1 808.680   1
  -4  -6  -4 48533.3 894.940   1
   4  -6   4 47235.2 725.880   1
   4  -6   4 46727.7 689.530   1
   4  -6   4 45102.5 608.320   1
  -4   6  -4 43671.8 746.760   1
   4  -6   4 43742.7 571.120   1
  -7  -5   4 24447.1 552.350   1
  -7  -5   4 22615.9 655.910   1
   7  -5  -4 23736.7 443.720   1
   7  -5  -4 24571.4 500.290   1
   7  -5  -4 24427.1 490.250   1
  -2  -6  -6 41003.3 636.750   1
  -2   6  -6 38561.6 640.500   1
  -2  -6  -6 40850.0 682.630   1
   2  -6   6 42286.5 833.610   1
   2  -6   6 39978.9 604.910   1
  -7   0  -3 19.3700 56.3600   1
   7   0   3 42.1400 50.8000   1
  -7   0  -3 28.5800 71.7100   1
  -7   0  -3 -17.900 47.6000   1
   7   0   3 11.6800 39.4900   1
  -5  -7   4 153.810 97.7400   1
  -5  -7   4 175.670 59.5600   1
   5  -7  -4 118.210 52.8100   1
   5  -7  -4 112.620 54.2900   1
  -7  -4  -1 1738.20 132.090   1
  -7  -4  -1 1768.35 125.090   1
  -7  -4  -1 1432.41 151.390   1
   7  -4   1 1885.17 174.630   1
   7  -4   1 1740.41 138.440   1
   7  -4   1 1601.69 127.280   1
  -7   4  -1 1354.02 131.550   1
  -4   1  -7 39452.8 587.160   1
  -4  -1  -7 41318.5 729.640   1
   4   1   7 40136.3 650.300   1
  -4  -1  -7 39235.8 671.330   1
   4  -1   7 36797.9 551.440   1
  -4   1  -7 42325.8 703.140   1
   4  -1   7 37843.8 539.640   1
   7  -3   2 4326.06 230.170   1
  -7  -3  -2 3802.25 172.680   1
   7  -3   2 4025.45 193.740   1
  -7  -3  -2 3550.95 189.140   1
   7   3   2 4423.99 197.420   1
  -7   3  -2 3681.76 218.610   1
   7  -3   2 4361.96 228.550   1
  -7  -3  -2 3738.67 238.960   1
   1   2   9 989.510 109.890   1
  -1  -2  -9 1175.71 126.430   1
   1  -2   9 998.050 91.9100   1
   1  -2   9 1067.55 106.570   1
  -1  -2  -9 1125.18 109.100   1
  -1   2  -9 1175.43 121.400   1
  -1   2  -9 1074.20 149.030   1
  -1  -2  -9 954.500 102.650   1
   8   2  -6 54819.4 693.470   1
   8  -2  -6 60262.5 892.860   1
   8  -2  -6 57668.0 707.880   1
  -8  -2   6 60173.4 1078.81   1
   8  -2  -6 61531.0 838.300   1
  -8   2   6 55517.0 861.330   1
  -8  -2   6 58984.1 865.080   1
   8  -2   0 31883.3 618.480   1
   8  -2   0 31536.2 538.750   1
   8   2   0 30826.9 510.880   1
   8   2   0 28787.6 511.860   1
  -8   2   0 31116.5 549.900   1
  -8  -2   0 32146.3 677.110   1
  -8   2   0 27953.8 552.320   1
  -8  -2   0 28091.7 759.860   1
  -1  -4   9 2095.36 129.620   1
  -1  -4   9 2441.48 237.500   1
   1   4  -9 2517.44 160.780   1
   1  -4  -9 2278.78 150.030   1
  -1   4   9 2155.92 177.550   1
  -1   4   9 2712.75 183.070   1
   1  -4  -9 2130.79 201.170   1
   2  -5   7 43745.2 617.260   1
  -2   5  -7 39449.4 604.870   1
  -2  -5  -7 38985.1 615.710   1
  -2  -5  -7 43811.1 729.030   1
   2  -5   7 44747.3 1012.96   1
  -2  -5  -7 41075.2 726.590   1
  -5  -1  -6 1101.93 111.390   1
  -5   1  -6 1282.20 131.860   1
   5  -1   6 1192.57 108.650   1
   5   1   6 1013.49 90.2000   1
  -5  -1  -6 1073.44 117.020   1
  -5   1  -6 933.130 91.9300   1
  -5  -1  -6 1314.53 117.810   1
  -8  -3   5 27181.4 724.790   1
  -8  -3   5 26270.4 569.240   1
   8  -3  -5 28446.5 505.220   1
   8  -3  -5 28714.9 542.150   1
   8  -3  -5 29449.4 535.140   1
   1   1 -10 100.980 53.3600   1
   1   1 -10 128.450 46.1900   1
   1  -1 -10 208.580 52.9600   1
  -1  -1  10 126.610 46.5400   1
   1  -1 -10 80.9100 42.5800   1
  -8  -3   1 61113.2 1030.58   1
  -8  -3   1 65820.6 826.540   1
  -8   3   1 60263.6 1001.57   1
   8  -3  -1 64330.0 738.670   1
   3  -7   4 12678.3 375.220   1
  -3   7  -4 12234.2 347.790   1
  -3  -7  -4 11838.0 357.520   1
   3  -7   4 11006.4 295.270   1
  -3  -7  -4 11459.9 349.500   1
  -2  -2  10 24442.3 541.710   1
   2  -2 -10 26347.6 531.870   1
  -2  -2  10 24212.0 578.680   1
   2   2 -10 25937.8 548.400   1
   2  -2 -10 24268.0 500.520   1
   4  -4   6 17905.0 425.670   1
   4   4   6 17624.3 453.640   1
   4  -4   6 17165.2 412.530   1
  -4   4  -6 17382.8 449.910   1
  -4  -4  -6 18035.2 498.850   1
  -4  -4  -6 16956.9 501.680   1
  -5  -5  -4 21258.6 547.970   1
  -5  -5  -4 22304.1 556.530   1
   5  -5   4 22372.2 542.570   1
   5  -5   4 23313.9 504.620   1
  -5   5  -4 20322.5 441.210   1
   5  -5   4 22820.0 458.680   1
  -4  -8   2 52543.8 710.490   1
  -4  -8   2 51274.1 870.490   1
   4  -8  -2 60119.0 801.170   1
   4  -8  -2 55443.8 751.030   1
   2  -7   5 43434.8 574.250   1
  -2  -7  -5 45938.3 758.830   1
  -2   7  -5 47922.8 744.730   1
  -2  -7  -5 47971.9 729.480   1
   2  -7   5 45470.7 762.060   1
  -3  -1  -8 388.120 77.3700   1
   3   1   8 284.500 62.4400   1
   3  -1   8 212.930 53.7900   1
  -3   1  -8 388.580 71.0300   1
   3  -1   8 205.520 61.6100   1
  -3  -1  -8 335.840 61.3700   1
  -3   1  -8 242.620 71.9200   1
   0  -9   1 42710.8 637.700   1
   0  -9  -1 42495.7 667.600   1
   0  -9   1 39367.7 544.380   1
   0  -9  -1 42757.9 690.210   1
   0  -9  -1 39484.9 558.680   1
  -3  -4  -7 11127.4 392.180   1
  -3  -4  -7 10961.6 402.820   1
   3  -4   7 13169.8 381.590   1
   3   4   7 12073.7 360.750   1
   3  -4   7 12466.8 382.750   1
   3   4   7 13408.2 386.350   1
  -3   4  -7 12292.0 387.400   1
   1  -9   0 31547.6 488.380   1
  -1  -9   0 32292.6 519.910   1
   1  -9   0 30643.5 540.460   1
   1  -9   0 29871.8 501.980   1
  -1  -9   0 34089.3 565.510   1
  -4  -2  10 95817.7 1158.83   1
  -4  -2  10 94248.1 1205.65   1
   4  -2 -10 101106. 1137.81   1
   4   2 -10 104114. 1140.98   1
   4  -2 -10 102496. 1258.65   1
   6   4  -8 73567.4 907.000   1
  -6  -4   8 67180.5 961.560   1
  -6  -4   8 71965.5 917.820   1
   6  -4  -8 70953.0 916.160   1
   6  -4  -8 69798.4 963.360   1
   6  -4  -8 65132.1 735.930   1
  -6  -5   7 11058.5 343.930   1
  -6  -5   7 11338.1 451.570   1
   6  -5  -7 12158.7 363.190   1
   6  -5  -7 10574.6 328.220   1
  -4  -8   0 39813.7 668.040   1
  -4  -8   0 40375.4 708.440   1
   4  -8   0 41365.3 574.180   1
   4  -8   0 38358.3 528.130   1
  -5  -6  -3 4984.72 255.540   1
  -5  -6  -3 4672.23 256.630   1
   5  -6   3 5449.74 224.890   1
   5  -6   3 4810.53 207.630   1
  -5   6  -3 4753.58 252.760   1
   5  -6   3 5333.31 225.340   1
  -8   1   7 30399.0 807.230   1
  -8  -1   7 27308.2 597.230   1
   8   1  -7 30581.2 583.300   1
  -8   1   7 25808.3 495.840   1
  -8  -1   7 27888.9 623.270   1
   8  -1  -7 26642.1 523.410   1
  -5   4  -5 19339.1 548.650   1
  -5  -4  -5 21859.3 641.030   1
  -5  -4  -5 20168.8 501.260   1
   5  -4   5 21196.0 452.560   1
   5   4   5 18370.6 388.000   1
   5  -4   5 22658.5 511.410   1
  -1  -8   5 9514.02 277.840   1
  -1  -8   5 10214.4 358.770   1
   1   8  -5 10107.5 291.900   1
   1  -8  -5 9874.48 323.000   1
   1  -8  -5 9620.03 280.000   1
  -8  -1  -1 49404.6 814.490   1
   8   1   1 51893.2 664.430   1
   8  -1   1 57904.6 903.250   1
   8   1   1 49302.8 712.910   1
  -8   1  -1 56902.7 890.490   1
   8  -1   1 57005.3 705.440   1
  -8   1  -1 47200.7 771.450   1
  -8   1  -1 50486.7 913.740   1
  -8  -1  -1 50928.1 948.000   1
   1  -6   7 4583.17 264.040   1
   1  -6   7 5111.36 205.400   1
  -1   6  -7 4781.30 221.440   1
  -1  -6  -7 4429.95 202.490   1
  -1  -6  -7 4623.76 271.520   1
  -7  -5   0 8530.70 341.280   1
  -7  -5   0 8931.63 314.020   1
  -7  -5   0 8568.02 376.530   1
  -7   5   0 8378.19 317.580   1
   7  -5   0 8867.59 289.650   1
   7  -5   0 8575.08 285.900   1
   7  -5   0 8860.90 298.610   1
  -4  -7  -3 35400.3 662.610   1
  -4  -7  -3 35124.3 592.690   1
  -4   7  -3 32161.9 566.660   1
   4  -7   3 37928.7 605.840   1
   4  -7   3 36445.0 587.040   1
  -7  -2  -3 269.590 88.9200   1
   7  -2   3 317.650 62.7800   1
  -7   2  -3 202.590 58.6600   1
  -7  -2  -3 342.840 61.2500   1
  -7  -2  -3 232.120 69.7100   1
   7   2   3 275.330 62.0300   1
   7  -2   3 184.250 60.4400   1
   7   2   3 241.500 53.5900   1
  -5  -5   8 7977.42 389.130   1
   5   5  -8 7131.95 268.340   1
  -5  -5   8 7223.69 279.290   1
   5  -5  -8 7375.90 250.450   1
   5  -5  -8 7453.95 293.790   1
   5  -1 -10 3985.92 236.860   1
   5   1 -10 4685.61 255.600   1
   5  -1 -10 4414.46 216.350   1
  -5  -1  10 4330.36 253.900   1
  -1  -9   2 55956.4 724.640   1
   1  -9  -2 64445.4 863.420   1
  -1  -9   2 62230.3 802.330   1
   1  -9  -2 59087.6 688.260   1
  -6  -1  -5 55931.9 704.470   1
   6   1   5 53628.5 675.750   1
  -6   1  -5 50836.6 717.820   1
  -6  -1  -5 51327.6 1127.03   1
  -6  -1  -5 52744.8 831.100   1
  -6   1  -5 57999.0 867.400   1
  -6  -1  -5 51950.7 741.660   1
  -6   1  -5 57165.8 818.790   1
  -1   7  -6 29634.1 507.260   1
   1  -7   6 29563.6 686.300   1
   1  -7   6 27282.8 445.990   1
  -1  -7  -6 28278.2 550.760   1
  -1  -7  -6 30765.3 579.730   1
  -7  -4   7 7023.11 335.870   1
  -7  -4   7 7080.43 283.710   1
   7  -4  -7 7362.72 323.450   1
   7  -4  -7 7192.07 316.240   1
   7  -4  -7 6979.98 286.180   1
  -2  -6   8 22133.0 465.330   1
  -2  -6   8 22590.0 628.580   1
   2   6  -8 21327.4 427.780   1
   2  -6  -8 19703.0 456.500   1
   2  -6  -8 19427.4 482.720   1
  -5  -6   7 25063.3 595.390   1
   5   6  -7 26933.3 493.490   1
  -5  -6   7 27278.3 568.710   1
   5  -6  -7 24095.0 461.450   1
   5  -6  -7 26257.9 537.890   1
   0   0  10 56223.1 918.710   1
   0   0  10 56524.0 959.650   1
   0   0 -10 58712.0 751.270   1
  -2  -9   1 11919.8 423.000   1
   2  -9  -1 9817.70 268.750   1
  -2  -9   1 10010.2 272.760   1
   2  -9  -1 10830.9 313.820   1
  -8  -4   4 56767.3 967.040   1
  -8  -4   4 62838.8 878.470   1
   8  -4  -4 59148.7 685.870   1
   8  -4  -4 64950.1 779.420   1
  -8  -4   2 47173.3 738.470   1
  -8  -4   2 42396.3 971.670   1
   8  -4  -2 42016.9 588.360   1
   8  -4  -2 43467.2 649.650   1
   8  -4  -2 42580.7 570.240   1
  -2  -4  -8 25429.8 589.620   1
  -2   4  -8 25686.8 513.920   1
   2  -4   8 28857.7 579.120   1
   2   4   8 26537.2 523.180   1
   2   4   8 26982.5 494.860   1
  -2  -4  -8 26294.8 680.070   1
   2  -4   8 28900.4 568.800   1
  -3  -3  10 130.570 43.4700   1
   3   3 -10 149.260 67.0100   1
   3  -3 -10 77.5500 43.9200   1
  -3  -3  10 257.510 93.0600   1
   3  -3 -10 241.590 52.7900   1
  -1   5  -8 23174.5 535.710   1
  -1  -5  -8 21514.8 494.680   1
   1  -5   8 22645.5 450.930   1
  -1  -5  -8 19857.2 417.720   1
   1  -5   8 21639.6 651.890   1
  -5  -4   9 3046.07 203.820   1
   5  -4  -9 3084.14 188.430   1
   5  -4  -9 3401.46 213.380   1
  -5  -4   9 3551.10 216.020   1
   5   4  -9 3755.35 187.310   1
   7   3  -8 2177.63 157.740   1
   7  -3  -8 2028.18 165.140   1
  -7  -3   8 1841.62 172.910   1
   7  -3  -8 2175.71 179.830   1
  -7  -3   8 1970.18 155.790   1
   7  -3  -8 2286.77 172.930   1
  -6  -3   9 42374.4 774.530   1
   6  -3  -9 38201.4 772.730   1
   6  -3  -9 44701.6 712.770   1
   6   3  -9 41105.7 687.800   1
  -2   1  -9 25360.5 565.010   1
   2   1   9 24389.8 503.670   1
   2  -1   9 21943.9 456.120   1
   2   1   9 23708.5 532.420   1
  -2  -1  -9 22474.9 507.700   1
   2  -1   9 22806.3 485.590   1
  -3  -8   5 18142.5 377.130   1
  -3  -8   5 19202.1 524.050   1
   3  -8  -5 17847.4 396.450   1
   3  -8  -5 18726.8 430.690   1
  -4  -8   4 57622.0 927.770   1
  -4  -8   4 57610.7 750.560   1
   4  -8  -4 51838.8 691.000   1
   4  -8  -4 57318.6 694.540   1
  -6  -6   6 71331.0 976.610   1
   6  -6  -6 71471.7 866.400   1
  -2  -7   7 49642.3 701.160   1
   2   7  -7 44447.8 686.820   1
  -2  -7   7 42146.4 746.350   1
   2  -7  -7 44752.5 731.290   1
   2  -7  -7 42781.3 618.170   1
   1  -9   2 17028.7 424.960   1
  -1  -9  -2 18389.3 431.150   1
  -1  -9  -2 16075.7 378.560   1
   1  -9   2 16497.6 425.250   1
  -9   0   3 -46.170 118.710   1
   9   0  -3 5.25000 64.8400   1
  -9   0   3 4.36000 79.5000   1
  -7   0   9 16.2700 39.4700   1
  -7   0   9 -23.030 92.2500   1
   7   0  -9 19.5900 39.6700   1
   7   0  -9 12.5300 43.3700   1
  -7  -5   6 5398.94 280.710   1
  -7  -5   6 6443.27 306.700   1
   7  -5  -6 6139.78 253.230   1
   7  -5  -6 5396.33 205.790   1
   7  -5  -6 5686.58 234.540   1
  -6  -5  -3 15422.4 444.060   1
  -6  -5  -3 15121.2 407.760   1
   6  -5   3 16637.9 414.130   1
   6  -5   3 15910.8 455.250   1
   6  -5   3 15675.6 416.540   1
  -6   5  -3 13739.4 371.400   1
  -2  -5   9 44759.3 901.610   1
   2   5  -9 46284.1 742.670   1
  -2  -5   9 39563.0 552.900   1
   2  -5  -9 45202.0 748.830   1
   2  -8   4 31386.7 522.430   1
   2  -8   4 35343.7 655.730   1
  -2  -8  -4 30315.9 550.880   1
  -2  -8  -4 33804.8 634.560   1
  -2   8  -4 33844.1 585.360   1
   4  -3   7 32166.1 567.710   1
   4  -3   7 33402.5 673.320   1
  -4  -3  -7 31419.5 734.420   1
  -4   3  -7 29096.9 538.140   1
   4   3   7 31525.0 556.960   1
   4   3   7 35965.3 636.840   1
  -4  -3  -7 29193.7 593.110   1
  -2  -9  -1 5877.15 213.270   1
   2  -9   1 6258.85 232.560   1
  -2  -9  -1 7404.91 310.080   1
   2  -9   1 6691.33 252.770   1
   2  -9   1 6123.51 226.360   1
  -6  -4  -4 53349.2 916.640   1
  -6  -4  -4 51940.0 761.610   1
   6   4   4 54649.4 738.560   1
   6  -4   4 53808.9 661.120   1
   6  -4   4 55995.3 686.390   1
   6  -4   4 54639.1 759.370   1
  -6   4  -4 54837.7 906.370   1
  -6  -7   3 88379.9 1118.95   1
  -6  -7   3 87804.0 1146.77   1
   6  -7  -3 87374.6 926.910   1
   9  -1  -4 556.100 83.9600   1
   9   1  -4 634.260 80.1800   1
   9   1  -4 575.300 80.5400   1
  -9   1   4 726.610 110.020   1
  -9  -1   4 614.020 112.870   1
  -9   1   4 798.090 110.980   1
  -9  -1   4 817.210 135.610   1
   9  -1  -4 598.900 67.6000   1
  -3  -8  -3 12310.1 403.100   1
  -3  -8  -3 13597.7 404.680   1
   3  -8   3 12772.7 375.820   1
   3  -8   3 11298.9 343.050   1
  -3   8  -3 12431.1 328.100   1
   3  -8   3 12254.5 315.610   1
  -7  -6   3 4127.82 235.100   1
  -7  -6   3 5063.52 250.650   1
   7  -6  -3 5068.65 264.290   1
   7  -6  -3 4433.06 195.300   1
   7  -6  -3 4848.71 249.880   1
  -5  -7  -2 12236.3 450.070   1
  -5  -7  -2 12019.6 357.540   1
   5  -7   2 11988.7 339.530   1
   5  -7   2 11856.8 319.410   1
  -5   7  -2 12176.8 365.120   1
   5  -7   2 12672.3 366.960   1
   0  -9   3 32636.1 627.520   1
   0  -9  -3 36390.9 632.640   1
   0  -9  -3 32043.0 578.390   1
   0  -9   3 33482.9 500.470   1
  -5   3  -6 2343.62 166.960   1
   5  -3   6 2753.54 151.630   1
  -5  -3  -6 2368.15 170.590   1
   5   3   6 2957.40 206.850   1
   5   3   6 2364.58 160.850   1
  -5  -3  -6 2261.95 223.100   1
   5  -3   6 2623.64 160.340   1
  -6  -7   1 75603.6 982.530   1
  -6  -7   1 75255.8 885.670   1
   6  -7  -1 80360.8 917.590   1
   1   3 -10 36478.9 642.620   1
   1   3 -10 35403.0 567.230   1
   1  -3 -10 36977.8 626.920   1
  -1  -3  10 34206.1 568.270   1
  -1  -3  10 36035.9 919.960   1
   1  -3 -10 39130.4 712.100   1
   9   0  -5 19.9800 42.9700   1
  -9   0   5 1.44000 45.9000   1
  -9   0   5 66.0000 70.7600   1
   4   6  -8 17062.9 411.140   1
  -4  -6   8 18210.6 418.590   1
  -4  -6   8 18861.8 589.750   1
   4  -6  -8 16907.3 387.490   1
   4  -6  -8 18902.0 445.430   1
   0  -2  10 76856.4 1003.49   1
   0   2 -10 79020.2 982.650   1
   0   2 -10 76822.3 1063.52   1
   0  -2 -10 71743.5 882.840   1
   0  -2 -10 82418.2 900.420   1
   9  -1  -2 90.9000 51.9000   1
   9  -1  -2 172.820 57.2000   1
  -9   1   2 101.070 66.4900   1
  -9  -1   2 191.750 56.6000   1
   9   1  -2 131.440 54.5200   1
   9   1  -2 110.400 39.9900   1
  -9   1   2 63.3900 72.4000   1
  -9  -1   2 208.180 100.810   1
  -2  -9   3 25849.6 489.980   1
   2  -9  -3 22953.9 429.680   1
  -2  -9   3 21744.5 464.870   1
   2  -9  -3 22982.4 421.690   1
  -6   0  10 49115.8 849.350   1
   6   0 -10 45660.7 745.840   1
   3  -3   8 11904.4 360.070   1
  -3   3  -8 11249.1 335.030   1
  -3  -3  -8 12640.2 429.530   1
   3  -3   8 12002.2 401.790   1
  -3   3  -8 11521.9 364.720   1
   3   3   8 13009.5 430.570   1
   3   3   8 12727.4 348.040   1
  -3  -3  -8 11751.4 430.530   1
  -1  -8  -5 68194.1 752.210   1
   1  -8   5 73115.1 794.550   1
  -1  -8  -5 69025.6 831.810   1
   1  -8   5 71514.7 946.740   1
  -1   8  -5 72917.3 860.940   1
  -1  -8  -5 71531.4 861.590   1
   8   0  -8 145482. 1438.68   1
  -8   0   8 144132. 1369.45   1
  -8   0   8 148408. 2317.66   1
  -4  -5   9 49371.5 698.250   1
  -4   5   9 45704.8 734.650   1
   4   5  -9 54829.6 844.270   1
  -4  -5   9 48957.1 929.420   1
   4  -5  -9 49608.4 654.500   1
   8   0   2 27200.1 587.880   1
  -8   0  -2 25713.7 603.580   1
   8   0   2 29327.3 522.170   1
  -8   0  -2 30004.1 607.940   1
  -8   0  -2 24635.4 713.360   1
  -6  -6  -2 32463.9 624.000   1
  -6  -6  -2 34209.7 744.280   1
   6  -6   2 34400.2 639.410   1
   6  -6   2 29459.3 501.540   1
   6  -6   2 35920.3 653.230   1
  -6   6  -2 30006.0 534.870   1
  -5  -7   6 11498.5 352.860   1
  -5  -7   6 10372.4 387.580   1
   5  -7  -6 11311.5 346.160   1
   5  -7  -6 12167.1 367.890   1
   0   6  -8 75060.6 770.490   1
   0  -6   8 84143.7 1318.15   1
   0  -6   8 76827.5 805.710   1
   0  -6  -8 71763.7 1037.60   1
   0  -6  -8 83257.7 946.930   1
   0  -7   7 30329.5 553.130   1
   0  -7   7 29821.0 674.560   1
   0   7  -7 30534.9 542.320   1
   0  -7  -7 27796.6 504.240   1
   0  -7  -7 25012.4 481.270   1
  -7  -6   1 14654.5 391.360   1
  -7  -6   1 15534.0 515.110   1
  -7  -6   1 14934.2 377.820   1
   7  -6  -1 17700.7 417.180   1
   7  -6  -1 14355.2 373.430   1
   7  -6  -1 13826.9 361.230   1
  -9  -2   3 869.600 95.7000   1
   9   2  -3 777.890 109.330   1
  -9   2   3 840.670 113.770   1
  -9  -2   3 624.940 119.040   1
   9  -2  -3 854.730 106.550   1
   9  -2  -3 1016.53 114.840   1
   9   2  -3 731.370 83.8800   1
  -9   2   3 1087.34 128.340   1
  -7  -2   9 3081.73 221.220   1
   7   2  -9 3044.20 200.620   1
   7   2  -9 3069.83 201.930   1
   7  -2  -9 3143.22 180.140   1
   7  -2  -9 2802.43 180.970   1
  -7  -2   9 3495.76 236.790   1
  -7  -1  -4 6452.41 274.840   1
   7  -1   4 6421.36 220.390   1
   7   1   4 7002.47 254.580   1
  -7  -1  -4 6597.02 273.810   1
  -7  -1  -4 6527.20 236.940   1
  -7   1  -4 6612.81 292.570   1
  -7  -1  -4 5957.27 433.240   1
  -7   1  -4 6750.54 257.520   1
  -8  -3   7 69744.8 1244.17   1
  -8  -3   7 62422.5 940.620   1
   8  -3  -7 58497.1 840.380   1
   8  -3  -7 59534.9 766.460   1
  -3  -9   2 19215.4 392.010   1
  -3  -9   2 16854.5 407.310   1
   3  -9  -2 18165.8 370.030   1
   3  -9  -2 19908.9 445.980   1
  -8  -3  -1 38953.1 878.660   1
   8   3   1 43959.9 738.490   1
  -8  -3  -1 41035.7 778.940   1
   8   3   1 44296.7 651.800   1
  -8  -3  -1 45377.4 649.090   1
   8  -3   1 44789.9 726.990   1
  -8   3  -1 44510.7 860.390   1
   8  -3   1 43568.7 676.560   1
   8  -3   1 43805.1 658.010   1
  -5  -8   1 21022.3 522.920   1
  -5  -8   1 21429.5 530.490   1
   5  -8  -1 23790.2 520.100   1
   5  -8  -1 18505.2 384.200   1
  -4  -8  -2 29065.5 562.580   1
  -4  -8  -2 29384.3 557.960   1
   4  -8   2 26622.0 502.560   1
  -4   8  -2 28999.9 579.990   1
   4  -8   2 27851.3 498.370   1
   9   0  -1 35.7400 38.4000   1
  -9   0   1 44.2800 48.7100   1
  -9   0   1 7.44000 52.8800   1
  -9   0   1 9.29000 34.8700   1
  -3  -9   0 15065.7 368.670   1
  -3  -9   0 13746.5 404.840   1
   3  -9   0 13560.3 315.530   1
   3  -9   0 13106.3 328.920   1
  -2  -8   6 39349.9 638.610   1
   2   8  -6 37065.0 638.910   1
  -2  -8   6 35497.0 692.020   1
   2  -8  -6 37615.3 599.750   1
   2  -8  -6 39014.1 654.860   1
  -5  -8   3 29441.0 614.720   1
  -5  -8   3 28612.6 501.200   1
   5  -8  -3 26587.1 484.470   1
   5  -8  -3 29514.3 543.250   1
   4   7  -7 35984.5 559.750   1
  -4  -7   7 36647.8 744.460   1
  -4  -7   7 35819.7 553.050   1
   4  -7  -7 37165.9 600.490   1
   4  -7  -7 39868.8 772.730   1
   5  -3 -10 13364.2 422.670   1
   5   3 -10 11095.3 313.110   1
   5  -3 -10 11718.0 320.930   1
  -5  -3  10 12517.9 498.600   1
  -5  -3  10 11101.4 373.750   1
  -1  -4  -9 534.470 79.9800   1
   1   4   9 603.320 92.9700   1
   1   4   9 545.370 93.0600   1
  -1   4  -9 643.340 88.1100   1
   1  -4   9 532.280 70.3200   1
  -1  -4  -9 632.130 121.150   1
  -8  -4   6 23877.6 709.760   1
  -8  -4   6 21246.1 534.040   1
   8  -4  -6 21489.5 534.480   1
   8  -4  -6 21262.2 429.580   1
   8  -4  -6 20403.5 490.060   1
  -8  -4   0 13168.4 528.530   1
  -8  -4   0 15368.5 394.780   1
  -8  -4   0 15334.2 466.380   1
   8  -4   0 14718.7 354.140   1
   8  -4   0 14125.6 365.570   1
  -8   4   0 13163.2 413.640   1
   8  -4   0 14709.6 385.840   1
   6  -3   5 32270.8 575.220   1
  -6  -3  -5 31388.6 845.470   1
   6   3   5 35919.2 652.700   1
   6   3   5 38406.6 642.450   1
  -6   3  -5 31413.9 573.670   1
  -6  -3  -5 33821.7 721.440   1
   6  -3   5 34196.0 579.300   1
   3   0 -11 16.2700 59.3600   1
   3   0 -11 27.1500 39.3700   1
   9  -2  -5 116.650 55.6700   1
  -9  -2   5 88.4300 65.8700   1
  -9   2   5 20.9200 56.7900   1
   9   2  -5 22.0300 47.3700   1
   9  -2  -5 -1.7900 38.2200   1
  -9  -2   5 -5.6100 51.4400   1
   9   2  -5 5.65000 46.2500   1
  -9   2   5 67.7700 52.4400   1
   2   4 -10 32340.5 625.090   1
  -2  -4  10 31546.2 612.070   1
  -2  -4  10 33072.1 763.450   1
   2  -4 -10 29886.0 544.760   1
  -2   4  10 31110.5 610.380   1
   2  -4 -10 30699.3 540.720   1
  -1  -9   4 59408.2 770.360   1
   1  -9  -4 58573.6 730.010   1
  -1  -9   4 51393.5 811.680   1
  -7  -6   5 20380.7 568.940   1
  -7  -6   5 19652.1 582.590   1
   7  -6  -5 18680.1 417.920   1
   7  -6  -5 20586.9 486.270   1
   7  -6  -5 20546.9 508.070   1
  -8  -5   3 31929.2 709.100   1
  -8  -5   3 26461.1 657.670   1
   8  -5  -3 28603.2 520.130   1
   8  -5  -3 28572.8 525.120   1
   8  -5  -3 29742.1 533.880   1
   9   1  -6 2226.17 140.200   1
  -9  -1   6 2356.49 188.370   1
   9  -1  -6 2289.99 141.420   1
  -9   1   6 2388.35 184.370   1
  -9   1   6 2225.02 151.860   1
  -9  -1   6 2316.34 168.070   1
   6   2 -10 66625.4 828.500   1
  -6  -2  10 74948.7 1204.69   1
   6  -2 -10 65510.3 1037.10   1
  -8  -2   8 34720.3 686.160   1
   8  -2  -8 31309.2 685.740   1
  -8  -2   8 34909.2 725.570   1
   8   2  -8 38977.2 796.640   1
   8  -2  -8 30914.3 589.190   1
   8  -2  -8 34902.8 579.850   1
  -1   1 -10 1979.39 155.280   1
  -1  -1 -10 1964.48 162.020   1
   1  -1  10 1747.08 157.320   1
   1   1  10 1666.50 156.330   1
   1   1  10 1739.43 138.310   1
   1  -1  10 1849.77 157.990   1
  -6  -7   5 29324.9 529.690   1
  -6  -7   5 29172.7 656.170   1
   6  -7  -5 26633.8 483.560   1
   6  -7  -5 25602.1 464.640   1
   0  -5   9 21171.3 589.420   1
   0  -5   9 24979.6 533.410   1
   0   5  -9 24560.1 605.580   1
   0  -5  -9 25358.5 595.890   1
   0   5   9 22109.9 434.880   1
   0  -5  -9 22347.3 632.110   1
  -8  -2  -2 36847.4 652.540   1
   8  -2   2 42217.6 686.450   1
   8  -2   2 40618.5 791.180   1
  -8  -2  -2 34837.3 933.330   1
   8   2   2 40267.8 579.060   1
  -8   2  -2 35097.5 680.470   1
  -8   2  -2 39585.5 799.980   1
   8   2   2 37718.0 632.940   1
  -8  -2  -2 38891.0 611.440   1
  -5   0  -7 65.2100 66.2500   1
   5   0   7 107.710 66.3000   1
  -5   0  -7 69.5400 60.8000   1
  -4   0  -8 11834.0 435.060   1
  -4   0  -8 11067.3 315.630   1
   4   0   8 11449.0 373.610   1
   4   0   8 10882.2 384.520   1
  -2  -3  -9 17671.8 536.070   1
   2   3   9 18962.2 432.220   1
  -2  -3  -9 18318.1 427.760   1
  -2   3  -9 19593.4 460.710   1
  -2  -3  -9 19662.7 545.730   1
   2  -3   9 19301.2 419.740   1
   2  -3   9 18775.4 424.110   1
   2   3   9 18043.7 537.920   1
  -2   3  -9 17979.6 381.870   1
   4  -4 -10 22194.3 523.320   1
  -4  -4  10 22489.3 491.180   1
  -4  -4  10 23114.8 619.940   1
   4   4 -10 20483.4 435.200   1
   4  -4 -10 22306.7 454.460   1
   0  -8   6 19146.9 442.090   1
   0  -8   6 18896.4 593.740   1
   0  -8  -6 17802.5 398.560   1
   0   8  -6 17359.4 373.260   1
   0  -8  -6 19694.4 509.040   1
   2   1 -11 21931.9 448.850   1
   2  -1 -11 25350.7 596.220   1
   2   1 -11 24259.7 590.900   1
   2  -1 -11 20854.7 459.130   1
  -4  -1  11 47022.7 802.320   1
   4  -1 -11 48579.4 742.170   1
   4   1 -11 46574.9 733.940   1
   4  -1 -11 51586.8 949.500   1
  -7   4  -3 4120.67 228.400   1
   7  -4   3 4376.74 207.770   1
   7   4   3 4195.82 178.620   1
   7  -4   3 4089.27 223.050   1
  -7  -4  -3 4029.75 275.420   1
  -7  -4  -3 3661.41 207.090   1
   7  -4   3 4309.59 195.640   1
  -7  -4  -3 4396.13 205.220   1
  -9   2   1 1783.68 177.790   1
  -9  -2   1 1638.76 174.970   1
  -9  -2   1 1734.14 157.870   1
   9  -2  -1 1488.67 133.420   1
   9   2  -1 1724.27 129.600   1
   9  -2  -1 1747.02 154.180   1
   9   2  -1 1595.61 149.920   1
  -7   5  -2 9749.38 327.230   1
   7  -5   2 11858.7 347.700   1
   7  -5   2 11594.6 367.370   1
  -7  -5  -2 12390.3 505.200   1
  -7  -5  -2 13346.5 368.260   1
   7  -5   2 11593.7 363.170   1
  -7  -5  -2 12773.2 431.580   1
  -9  -3   4 567.940 121.900   1
   9  -3  -4 540.790 77.7300   1
   9  -3  -4 739.320 96.1100   1
   9  -3  -4 534.650 88.8000   1
  -9  -3   4 632.250 102.720   1
   9   3  -4 536.460 74.7700   1
   6  -7   1 15092.0 387.170   1
  -6  -7  -1 16798.1 495.840   1
   6  -7   1 16201.7 384.220   1
  -6  -7  -1 15245.7 466.840   1
   6  -7   1 14908.8 382.380   1
  -6   7  -1 14321.7 417.580   1
   3  -2 -11 12782.3 439.190   1
   3  -2 -11 13241.9 416.830   1
  -3  -2  11 12846.5 464.220   1
   3   2 -11 11906.5 358.880   1
  -6   0  -6 34202.4 713.260   1
   6   0   6 33326.3 610.660   1
  -6   0  -6 33634.1 708.770   1
  -6   0  -6 32290.8 552.480   1
  -8  -5   5 85643.4 1152.65   1
   8  -5  -5 84920.5 884.180   1
   8  -5  -5 83373.0 927.950   1
   8  -5  -5 82759.4 905.480   1
  -8  -5   1 24913.3 458.840   1
  -8  -5   1 25285.0 658.890   1
   8  -5  -1 26376.6 507.560   1
   8  -5  -1 27027.4 517.970   1
  -8  -5   1 26470.2 563.640   1
   8  -5  -1 27074.5 499.170   1
   3   0   9 -14.130 47.4000   1
  -3   0  -9 -15.120 53.2300   1
   3   0   9 16.8200 53.3000   1
   1   0 -11 -21.690 45.1100   1
   1   0 -11 9.72000 39.7900   1
  -2  -9  -3 8941.58 315.480   1
   2  -9   3 8310.45 320.390   1
   2  -9   3 9191.48 281.740   1
  -2  -9  -3 8967.76 336.320   1
  -9  -3   2 10700.2 472.100   1
   9  -3  -2 10981.2 316.060   1
   9  -3  -2 12377.5 363.340   1
   9   3  -2 12175.9 324.920   1
  -9  -3   2 11046.2 374.870   1
   9  -3  -2 12405.3 323.430   1
   5   0 -11 -68.480 63.4400   1
   5   0 -11 34.4000 46.0900   1
  -9  -1   0 3036.92 236.650   1
  -9  -1   0 3068.84 231.100   1
  -9   1   0 3556.34 251.960   1
   9   1   0 3589.69 169.460   1
   9  -1   0 3881.42 235.940   1
  -9   1   0 3704.31 205.420   1
  -9  -1   0 3321.71 207.090   1
   9  -1   0 3588.60 176.440   1
   3  -9  -4 26703.1 514.710   1
  -3  -9   4 26355.9 557.750   1
  -3  -9   4 26563.5 454.450   1
   3  -9  -4 27426.2 558.490   1
   5  -8   1 14162.0 388.510   1
  -5  -8  -1 13992.8 363.970   1
   5  -8   1 14814.2 405.780   1
  -5  -8  -1 15315.6 438.940   1
  -9   0   7 101.310 80.5400   1
  -9   0   7 -50.570 67.7800   1
   9   0  -7 50.4500 49.8100   1
  -5  -2  -7 288.400 102.230   1
   5  -2   7 167.180 54.9700   1
   5   2   7 201.850 94.4900   1
  -5  -2  -7 158.440 67.1900   1
  -5   2  -7 72.7900 42.0000   1
   5  -2   7 131.860 71.0400   1
  -5   2  -7 255.910 87.4500   1
   4   2   8 41869.6 640.090   1
  -4  -2  -8 47710.4 762.330   1
   4  -2   8 42983.0 616.390   1
   4  -2   8 43762.1 635.730   1
  -4  -2  -8 41980.0 718.900   1
  -4   2  -8 42371.1 619.800   1
  -4   2  -8 45248.6 720.530   1
   4  -8  -6 15497.0 370.760   1
  -4  -8   6 15291.7 413.490   1
  -4  -8   6 16396.0 513.570   1
   4  -8  -6 13526.3 340.660   1
  -4  -9   1 11439.9 335.790   1
   4  -9  -1 10334.9 283.540   1
   4  -9  -1 10467.0 303.160   1
  -4  -9   1 12197.7 472.660   1
  -1  -9  -4 4363.00 231.750   1
  -1  -9  -4 4717.64 241.250   1
   1  -9   4 4089.01 176.070   1
   1  -9   4 4691.73 249.500   1
  -1   9  -4 4576.67 219.880   1
  -1  -9  -4 4014.90 192.410   1
  -3  -6   9 6492.86 316.980   1
  -3  -6   9 6235.62 242.150   1
   3   6  -9 6127.47 238.100   1
   3  -6  -9 7365.36 287.260   1
   3   7  -8 42396.3 645.980   1
  -3  -7   8 47237.6 679.650   1
  -3  -7   8 41979.3 810.540   1
   3  -7  -8 40719.9 705.950   1
   3  -7  -8 41434.7 647.190   1
   3  -9   2 29348.5 482.020   1
   3  -9   2 29034.5 539.990   1
   3  -9   2 28536.8 495.460   1
  -3  -9  -2 35041.4 639.610   1
  -7  -3  -4 2517.60 228.590   1
  -7  -3  -4 2939.44 192.320   1
   7   3   4 3398.12 174.130   1
   7   3   4 3201.42 174.010   1
   7  -3   4 3639.51 180.210   1
  -7   3  -4 3007.60 192.820   1
   7  -3   4 2787.85 163.470   1
  -7  -3  -4 3475.90 183.590   1
   5  -8  -5 18611.6 452.320   1
   5  -8  -5 19632.3 433.920   1
  -5  -8   5 20202.3 557.000   1
  -5  -8   5 20600.4 531.040   1
   1   7  -8 7753.39 287.120   1
   1  -7  -8 7987.28 296.860   1
  -1  -7   8 7764.34 275.640   1
  -1  -7   8 8230.29 424.650   1
   1  -7  -8 6952.89 337.470   1
  -7  -1  10 152.000 99.2600   1
   7   1 -10 227.790 55.9400   1
   7  -1 -10 228.480 65.5600   1
   7  -1 -10 228.690 83.2900   1
  -7  -6  -1 48300.9 823.950   1
  -7  -6  -1 49717.3 750.310   1
   7  -6   1 50224.8 654.380   1
   7  -6   1 49576.1 685.900   1
   7  -6   1 45467.6 658.660   1
   0 -10   0 9212.48 316.630   1
   0 -10   0 8180.80 251.160   1
   4  -9  -3 27596.8 551.810   1
  -4  -9   3 28013.5 544.220   1
  -4  -9   3 24796.7 572.210   1
   4  -9  -3 25210.2 471.210   1
  -8   1   9 40523.5 791.310   1
  -8  -1   9 38692.8 738.140   1
  -8  -1   9 35348.2 702.080   1
   8  -1  -9 34896.5 571.210   1
   8   1  -9 34702.4 620.650   1
  -8  -1  -3 24746.0 861.820   1
  -8   1  -3 25445.4 693.050   1
  -8  -1  -3 25185.7 588.820   1
   8  -1   3 26194.2 558.140   1
   8   1   3 26895.5 577.530   1
  -8   1  -3 25871.3 518.800   1
  -8  -1  -3 25893.3 622.610   1
  -1  -6   9 42436.1 882.500   1
   1  -6  -9 39186.0 858.570   1
  -1  -6   9 43304.8 1093.77   1
   1   6  -9 37159.6 722.790   1
  -2  -9   5 15494.4 473.230   1
  -2  -9   5 15403.5 400.330   1
   2  -9  -5 15933.8 507.840   1
   2  -9  -5 16505.0 464.900   1
  -6  -2  -6 34829.4 748.860   1
   6  -2   6 34861.5 728.930   1
  -6  -2  -6 33433.5 824.190   1
   6   2   6 29864.5 611.880   1
   6   2   6 33904.8 740.860   1
   6  -2   6 33976.6 717.090   1
  -6  -2  -6 30740.0 738.270   1
  -6   2  -6 32718.8 816.170   1
   3  -2   9 833.960 99.5900   1
  -3  -2  -9 752.890 99.3100   1
  -3   2  -9 838.950 110.650   1
  -3   2  -9 691.160 77.1600   1
   3  -2   9 730.100 96.5400   1
  -3  -2  -9 668.550 93.9100   1
   3   2   9 732.080 86.4800   1
   4  -6   6 29430.4 662.500   1
   4  -6   6 30043.5 679.930   1
  -4   6  -6 27011.3 611.500   1
  -4  -6  -6 29108.1 755.560   1
  -4  -6  -6 28889.0 832.970   1
   0  -4  10 23906.9 581.450   1
   0  -4 -10 25219.7 613.880   1
   0   4 -10 24519.1 574.360   1
   0   4  10 22828.8 596.100   1
   1  -2 -11 2936.00 182.370   1
   1   2 -11 2903.24 180.880   1
   1  -2 -11 2764.79 177.980   1
  -1 -10   1 9001.03 315.950   1
  -1 -10   1 8727.71 300.460   1
   1 -10  -1 7741.85 275.050   1
   1 -10  -1 8339.53 302.150   1
   1 -10  -1 9465.37 334.960   1
   5  -2 -11 6011.82 294.250   1
   5   2 -11 5402.74 240.130   1
   5  -2 -11 6284.05 284.290   1
  -5  -2  11 6083.02 307.900   1
  -9  -3   6 11811.9 428.430   1
   9  -3  -6 10726.4 384.310   1
   9  -3  -6 9728.60 351.690   1
   9  -3  -6 12353.2 369.100   1
  -9  -3   6 10952.0 485.330   1
   9   3  -6 8639.55 280.610   1
   3   5 -10 5396.96 224.030   1
  -3  -5  10 6028.32 260.950   1
  -3  -5  10 5832.60 350.850   1
  -3   5  10 5630.52 248.190   1
   3  -5 -10 5790.53 249.840   1
  -1   3 -10 628.710 82.4800   1
   1  -3  10 768.880 100.470   1
  -1  -3 -10 624.320 98.3200   1
  -1   3 -10 688.730 94.5600   1
  -7  -7   2 27396.2 715.470   1
  -7  -7   2 27333.8 625.330   1
  -7  -7   2 24220.0 589.870   1
   7  -7  -2 25684.8 574.840   1
   7  -7  -2 26633.9 630.340   1
   7  -7  -2 25606.7 568.800   1
   9  -2  -7 1328.53 121.900   1
  -9  -2   7 1402.47 154.850   1
   9  -2  -7 1300.03 111.130   1
   9  -2  -7 1219.73 125.550   1
   9   2  -7 1296.36 127.320   1
  -9  -2   7 1212.40 127.440   1
  -3   7  -6 12627.0 362.870   1
   3  -7   6 13134.4 383.950   1
  -3  -7  -6 14177.2 452.150   1
  -3  -7  -6 13880.5 476.410   1
  -3   6  -7 22610.4 544.490   1
   3  -6   7 25291.0 599.840   1
  -3  -6  -7 24281.7 637.130   1
  -3  -6  -7 23147.2 666.750   1
   7  -5  -8 8549.00 354.090   1
  -7  -5   8 9757.65 437.110   1
  -7  -5   8 8888.93 335.090   1
   7  -5  -8 8345.85 290.980   1
  -7   0  -5 34.2300 50.9800   1
  -7   0  -5 -25.890 57.3400   1
  -7   0  -5 4.33000 39.5100   1
   7   0   5 -34.160 60.9900   1
   4  -7   5 33197.4 689.890   1
   4  -7   5 28449.8 661.890   1
  -4   7  -5 32215.6 743.580   1
  -4  -7  -5 31475.9 740.800   1
  -4  -7  -5 33297.7 811.250   1
  -6  -5   9 40609.3 971.270   1
   6  -5  -9 40074.2 775.680   1
   6   5  -9 39734.0 848.610   1
   6  -5  -9 37967.4 888.180   1
  -6  -5   9 41235.4 982.330   1
   0  -9   5 154.290 49.5500   1
   0   9  -5 245.600 57.7600   1
   0  -9   5 137.650 73.9400   1
   0  -9  -5 50.7000 42.0000   1
   0  -9  -5 92.0200 77.4800   1
  -1  -8   7 13445.7 385.250   1
   1  -8  -7 12890.9 404.840   1
   1   8  -7 11446.8 322.960   1
   1  -8  -7 12896.3 395.800   1
  -1  -8   7 12944.0 503.360   1
  -6  -8   2 8907.97 438.550   1
  -6  -8   2 9140.28 383.300   1
  -6  -8   2 7594.16 321.710   1
   6  -8  -2 8450.45 303.230   1
   6  -8  -2 9317.21 320.460   1
   6  -6  -8 27743.2 661.960   1
  -6  -6   8 32712.5 776.730   1
   6   6  -8 28830.0 606.580   1
   6  -6  -8 29406.0 645.880   1
  -6  -6   8 30126.3 793.330   1
   1 -10   1 20212.5 505.510   1
  -1 -10  -1 19151.7 503.200   1
   1 -10   1 20380.7 506.120   1
  -1 -10  -1 20718.3 473.750   1
   2  -3 -11 33102.6 691.540   1
   2   3 -11 37433.6 816.640   1
   2  -3 -11 34826.0 729.820   1
  -2  -3  11 35513.5 954.360   1
  -2   0 -10 22001.5 558.330   1
   2   0  10 20008.3 629.770   1
   2   0  10 21076.3 646.380   1
   4  -3 -11 49562.7 991.030   1
   4   3 -11 52311.8 1036.92   1
   4  -3 -11 51993.6 1029.94   1
  -4  -3  11 52311.0 1086.47   1
   9  -4  -3 14364.9 417.970   1
   9  -4  -3 14235.7 399.370   1
   9  -4  -3 14894.5 426.030   1
  -9  -4   3 13651.3 538.040   1
  -9  -4   3 14125.5 450.810   1
  -3  -8   7 35019.1 838.280   1
   3  -8  -7 33280.1 675.260   1
  -3  -8   7 39820.8 807.760   1
   3  -8  -7 36717.4 752.890   1
   3   8  -7 36515.5 709.100   1
  -7  -4   9 21623.8 577.150   1
   7  -4  -9 23793.7 591.890   1
  -7  -4   9 24549.6 655.720   1
   7   4  -9 22347.8 526.760   1
  -7  -7   4 34194.9 830.570   1
  -7  -7   4 32967.8 855.340   1
   7  -7  -4 30663.8 640.260   1
   7  -7  -4 30604.1 644.100   1
   5  -6   5 8354.79 298.570   1
  -5   6  -5 7312.48 345.960   1
   5  -6   5 8436.49 293.110   1
  -5  -6  -5 7806.53 341.890   1
  -5  -6  -5 8299.51 365.610   1
   9   0   1 -63.610 46.2700   1
  -9   0  -1 47.5700 49.6700   1
  -9   0  -1 15.8600 64.3800   1
  -9   0  -1 -19.820 80.8700   1
   9   0   1 15.6500 40.8600   1
   0 -10   2 5987.88 261.220   1
   0 -10  -2 6296.78 280.950   1
   0 -10  -2 5710.43 232.410   1
   0 -10  -2 5477.29 228.330   1
   0 -10   2 5681.84 267.810   1
   4  -9   1 24768.9 570.580   1
  -4  -9  -1 25498.4 639.900   1
   4  -9   1 24553.2 542.100   1
  -4  -9  -1 24632.6 626.340   1
   4  -5   7 34276.6 734.430   1
   4  -5   7 33974.6 724.730   1
  -4   5  -7 37923.6 812.690   1
   4   5   7 35696.9 774.290   1
  -4  -5  -7 32797.4 749.630   1
  -4  -5  -7 35152.6 840.800   1
   0   1 -11 36799.1 799.400   1
   0  -1 -11 31338.4 659.540   1
   2  -7   7 12921.0 382.470   1
  -2   7  -7 12007.6 411.780   1
  -2  -7  -7 11930.1 473.040   1
  -2  -7  -7 12746.0 427.060   1
   6  -1 -11 63265.5 1196.98   1
   6  -1 -11 58960.8 1091.62   1
   6   1 -11 64557.7 1175.44   1
  -6  -1  11 62618.9 1199.67   1
   7  -6  -7 1495.52 130.510   1
   7  -6  -7 1552.61 113.100   1
  -7  -6   7 1771.02 172.110   1
  -7  -6   7 1714.94 139.770   1
   5  -5   6 4304.83 195.810   1
  -5  -5  -6 4781.26 269.770   1
   5  -5   6 4507.63 211.860   1
  -5  -5  -6 4437.17 294.530   1
  -5   5  -6 4406.14 256.420   1
   5   5   6 3749.95 184.160   1
   2 -10   0 25649.3 539.740   1
  -2 -10   0 27118.5 599.700   1
   2 -10   0 25330.5 540.740   1
   2 -10   0 25138.8 558.570   1
  -2 -10   0 24805.4 575.770   1
  -1   5  10 9142.69 354.090   1
   1   5 -10 10444.2 386.870   1
   1  -5 -10 8126.36 324.660   1
  -1  -5  10 8579.00 280.720   1
  -9  -4   5 3701.32 237.500   1
   9  -4  -5 3724.84 210.940   1
  -9  -4   5 3714.85 266.040   1
   9  -4  -5 3758.12 176.750   1
   9  -4  -5 3751.06 230.740   1
  -6  -8   4 8413.89 306.370   1
  -6  -8   4 7941.97 331.550   1
   6  -8  -4 7546.55 288.980   1
   6  -8  -4 8769.20 292.150   1
  -5   7  -4 16021.9 469.210   1
   5  -7   4 16868.2 434.070   1
   5  -7   4 15318.4 433.410   1
  -5  -7  -4 15437.5 474.730   1
  -5  -7  -4 17197.8 534.080   1
   5  -7   4 16507.7 427.760   1
   5  -7   4 15413.4 467.100   1
  -8  -6   4 10274.8 476.170   1
  -8  -6   4 11881.7 415.840   1
   8  -6  -4 12128.1 376.860   1
   8  -6  -4 12234.4 378.080   1
   8  -6  -4 11586.5 341.200   1
  -8  -6   2 26342.7 702.530   1
  -8  -6   2 29385.8 684.650   1
   8  -6  -2 28405.7 688.380   1
   8  -6  -2 25846.1 634.110   1
   8  -6  -2 26721.7 633.160   1
   2  -6   8 7585.49 285.710   1
  -2   6  -8 8241.72 306.020   1
  -2  -6  -8 8627.19 403.260   1
  -2  -6  -8 7581.90 323.130   1
  -2 -10   2 21299.0 625.590   1
   2 -10  -2 20652.7 500.960   1
  -2 -10   2 19143.0 447.540   1
   2 -10  -2 20109.8 526.090   1
   9  -3   0 6069.93 244.430   1
   9  -3   0 6308.25 253.310   1
   9   3   0 6278.85 273.680   1
  -9  -3   0 6538.71 315.980   1
   9  -3   0 6099.45 243.940   1
  -9  -3   0 5915.52 397.200   1
   9   3   0 6866.51 261.920   1
  -6  -4  10 55162.8 1097.99   1
   6  -4 -10 56918.6 1195.30   1
   6   4 -10 54168.3 1028.82   1
   6  -4 -10 56217.4 1000.46   1
  -6  -4  10 52341.6 1062.30   1
   3  -8   5 5771.04 240.080   1
  -3   8  -5 4935.85 246.800   1
   3  -8   5 6084.74 285.520   1
  -3  -8  -5 5749.35 286.580   1
  -3  -8  -5 5293.08 268.650   1
   3  -5   8 808.500 101.750   1
  -3   5  -8 741.020 94.8900   1
   3  -5   8 628.220 86.8600   1
   3   5   8 583.960 92.1700   1
  -3  -5  -8 582.240 92.1500   1
  -3  -5  -8 479.100 106.870   1
   3   5   8 729.610 122.790   1
   8  -4  -8 32607.8 747.510   1
  -8  -4   8 35781.8 811.960   1
   8  -4  -8 33144.2 777.480   1
  -8  -4   8 37387.8 963.630   1
   8  -4  -8 34352.1 725.020   1
  -9  -1   8 2001.31 196.690   1
   9  -1  -8 1983.61 182.540   1
   9   1  -8 1950.57 143.240   1
   9  -1  -8 1810.59 143.190   1
  -9   1   8 1900.42 172.210   1
  -9  -1   8 1949.34 148.190   1
  -9   1   8 1930.34 187.140   1
   5  -6  -9 13338.1 410.440   1
   5   6  -9 15115.3 487.380   1
  -5  -6   9 13804.0 457.910   1
  -5  -6   9 14576.2 513.420   1
   8  -4   2 26355.6 677.060   1
   8  -4   2 27172.4 624.790   1
   8  -4   2 26029.3 608.420   1
  -8  -4  -2 24790.7 675.110   1
  -8   4  -2 23436.9 649.800   1
  -8  -4  -2 27186.0 608.310   1
  -8  -4  -2 25425.2 861.060   1
  -7   2  -5 3483.64 244.340   1
   7  -2   5 3246.82 180.690   1
   7   2   5 3470.11 204.130   1
   7   2   5 3476.60 199.470   1
  -7  -2  -5 3304.99 242.090   1
   7  -2   5 3087.05 176.790   1
  -7  -2  -5 3402.45 167.720   1
  -7  -2  -5 3030.99 183.540   1
   6  -7  -7 32311.7 755.380   1
  -6  -7   7 29982.4 806.140   1
   6  -7  -7 33693.9 748.710   1
  -6  -7   7 34749.8 840.430   1
  -2  -2 -10 19201.2 566.470   1
  -2   2 -10 16474.7 445.610   1
   2  -2  10 20057.2 600.970   1
   2  -2  10 19246.1 563.610   1
  -2   2 -10 17417.9 453.240   1
   2   2  10 16688.7 468.280   1
   1 -10  -3 34351.8 752.120   1
  -1 -10   3 32861.1 649.990   1
   1 -10  -3 33529.7 677.060   1
  -1 -10   3 36179.1 841.520   1
  -6  -8   0 9102.58 369.620   1
  -6  -8   0 8468.39 365.950   1
   6  -8   0 8195.35 291.560   1
   6  -8   0 9051.79 316.290   1
   4  -8   4 2285.19 152.960   1
  -4   8  -4 1971.07 142.370   1
   4  -8   4 2257.83 163.290   1
  -4  -8  -4 2745.52 167.960   1
  -4  -8  -4 2832.64 201.310   1
   8  -5  -7 29497.3 712.350   1
  -8  -5   7 28121.4 749.450   1
  -8  -5   7 32636.7 841.590   1
   8  -5  -7 28221.5 626.730   1
   8  -5  -7 31642.0 639.280   1
   2  -8   6 3290.09 202.850   1
   2  -8   6 3480.76 189.560   1
  -2   8  -6 3690.68 220.340   1
  -2  -8  -6 3206.10 197.540   1
  -2  -8  -6 3447.72 195.900   1
 -10   0   4 3993.91 224.680   1
  10   0  -4 4734.20 226.440   1
 -10   0   4 3996.22 302.390   1
   9   2   1 3048.60 210.140   1
   9   2   1 2417.32 135.050   1
  -9  -2  -1 2821.10 205.070   1
  -9   2  -1 3237.03 190.870   1
  -9  -2  -1 2871.51 240.280   1
   9  -2   1 3264.58 177.650   1
   9  -2   1 3349.67 227.010   1
  -8  -5  -1 16848.8 481.330   1
   8  -5   1 15747.3 427.740   1
  -8  -5  -1 14826.3 450.940   1
   8  -5   1 16132.3 436.100   1
  -8  -5  -1 15895.7 640.650   1
   8  -5   1 15659.7 455.620   1
  -7  -7   0 1680.04 161.720   1
  -7  -7   0 1698.48 147.690   1
  -7  -7   0 1715.88 161.060   1
   7  -7   0 1986.45 132.390   1
   7  -7   0 1837.83 143.530   1
   7  -7   0 1656.29 124.420   1
  -5  -7   8 5860.88 300.970   1
   5   7  -8 6357.55 267.530   1
   5  -7  -8 6445.36 253.300   1
  -5  -7   8 5943.87 269.010   1
   9  -4  -1 1114.56 101.480   1
   9  -4  -1 1081.12 105.340   1
  -9  -4   1 883.410 159.630   1
   9  -4  -1 1017.97 95.0800   1
  -9  -4   1 1175.81 111.610   1
   9   4  -1 995.190 83.2800   1
   7  -3 -10 12532.9 436.700   1
   7   3 -10 9507.79 310.450   1
  -7  -3  10 10784.4 430.170   1
  -5  -9   2 15306.6 560.870   1
  -5  -9   2 14090.5 421.710   1
   5  -9  -2 16587.1 471.430   1
   5  -9  -2 14920.8 458.330   1
   5   5 -10 9638.84 372.890   1
  -5  -5  10 9472.84 406.500   1
   5  -5 -10 10090.0 361.260   1
   5  -5 -10 9827.95 422.300   1
  -5  -5  10 9145.16 370.320   1
  -6  -6  -4 25153.9 676.780   1
   6  -6   4 25300.4 551.980   1
  -6  -6  -4 25125.1 645.130   1
   6  -6   4 26580.8 589.970   1
  -6   6  -4 21967.6 594.490   1
   6  -6   4 22500.0 533.590   1
  -8  -3   9 61325.3 1214.99   1
  -8  -3   9 57087.7 1078.40   1
   8  -3  -9 66307.0 1166.12   1
   8   3   3 23668.3 577.880   1
  -8  -3  -3 21302.5 724.230   1
  -8   3  -3 20609.0 559.100   1
   8  -3   3 24585.7 592.140   1
   8   3   3 23337.3 534.290   1
  -8  -3  -3 24624.7 590.570   1
   8  -3   3 25450.5 588.710   1
  -8  -3  -3 23860.8 651.130   1
   6  -5   5 22973.4 620.430   1
   6  -5   5 23429.3 560.950   1
  -6   5  -5 19047.5 552.920   1
  -6  -5  -5 20707.0 651.280   1
  -6  -5  -5 21911.2 703.940   1
   4  -9  -5 41933.1 790.330   1
   4  -9  -5 38605.4 736.560   1
  -4  -9   5 39378.1 962.990   1
  -4  -9   5 41522.7 826.580   1
   3  -4 -11 1185.37 114.290   1
   3   4 -11 1113.72 125.390   1
   3  -4 -11 891.340 106.250   1
  -3  -4  11 924.060 136.970   1
  10  -1  -3 33743.7 766.510   1
 -10  -1   3 31502.4 824.570   1
 -10   1   3 30706.5 842.540   1
 -10   1   3 30170.8 780.590   1
 -10  -1   3 31794.8 806.500   1
  10   1  -3 29951.7 716.650   1
  10  -1  -3 28933.5 689.260   1
  -1  -9   6 17218.4 502.870   1
   1  -9  -6 17062.2 478.900   1
  -1  -9   6 16216.8 387.610   1
   1  -9  -6 17638.6 474.560   1
   1   9  -6 17533.6 464.430   1
 -10  -1   5 68185.6 1251.95   1
 -10   1   5 68677.5 1208.69   1
  10   1  -5 73004.8 1289.15   1
  10  -1  -5 67993.6 1159.08   1
  10  -1  -5 75229.3 1343.08   1
 -10  -1   5 67396.8 1317.23   1
 -10   1   5 70748.4 1448.15   1
  -3 -10   1 20533.1 525.300   1
   3 -10  -1 20190.0 466.610   1
  -3 -10   1 21750.6 550.820   1
   3 -10  -1 22844.9 520.820   1
 -10   0   2 43235.6 1142.56   1
 -10   0   2 45137.5 993.120   1
  10   0  -2 43919.0 844.620   1
  -1   7  -8 6336.52 281.090   1
   1  -7   8 6454.91 246.100   1
  -1  -7  -8 6319.70 297.130   1
  -1  -7  -8 6124.56 307.920   1
   5  -4   7 430.580 64.2700   1
   5  -4   7 372.070 63.5500   1
  -5  -4  -7 374.720 77.1700   1
   5   4   7 585.310 92.3200   1
  -5   4  -7 426.340 79.6500   1
   5   4   7 546.110 99.8100   1
   4   4   8 18484.5 613.320   1
   4   4   8 18308.4 504.890   1
  -4   4  -8 16661.2 470.330   1
  -4  -4  -8 15719.2 580.930   1
   4  -4   8 18405.7 499.020   1
   4  -4   8 19075.3 538.280   1
  -8   0  10 29693.6 750.940   1
   2  -5   9 47033.2 972.080   1
  -2   5  -9 52024.0 1009.72   1
  -2  -5  -9 46209.9 936.150   1
   2   5   9 49557.4 1012.84   1
   2   5   9 45703.9 1021.08   1
   8   0   4 25652.3 604.740   1
  -8   0  -4 26367.4 692.710   1
  -8   0  -4 25756.3 748.600   1
   2 -10   2 4628.74 217.200   1
   2 -10   2 4183.42 221.420   1
  -2 -10  -2 4616.50 215.950   1
  -2 -10  -2 4658.69 261.140   1
   1 -10   3 31309.8 744.910   1
   1 -10   3 33665.9 735.610   1
  -1 -10  -3 30255.4 725.670   1
  -1 -10  -3 30314.4 686.440   1
  -5  -9   0 15377.5 521.600   1
  -5  -9   0 15067.1 454.580   1
   5  -9   0 15377.5 451.620   1
   5  -9   0 15105.9 422.570   1
   3  -9  -6 8871.67 342.420   1
  -3  -9   6 8205.65 290.410   1
   3  -9  -6 8532.31 308.320   1
  -3  -9   6 8365.89 375.190   1
   4   0 -12 62413.8 1235.03   1
   4   0 -12 62537.6 1243.16   1
  -5   1  -8 474.170 102.420   1
  -5  -1  -8 464.910 79.5100   1
   5  -1   8 310.200 73.6700   1
   5   1   8 229.120 69.1900   1
  -5  -1  -8 369.310 67.1300   1
   5  -1   8 302.780 75.8800   1
  -5  -1  -8 261.190 64.7000   1
  -5   1  -8 300.190 67.0000   1
  -5   8  -3 21616.6 658.620   1
   5  -8   3 22952.4 547.430   1
   5  -8   3 21994.1 543.400   1
  -5  -8  -3 22643.2 622.200   1
  -5  -8  -3 22373.0 701.230   1
  -7  -7   6 11852.2 407.340   1
  -7  -7   6 11975.6 542.110   1
   7  -7  -6 12862.5 406.670   1
   7  -7  -6 11247.6 377.390   1
   6  -7   3 12542.4 374.020   1
   6  -7   3 11431.0 349.010   1
  -6   7  -3 11314.2 372.500   1
   6  -7   3 12646.9 378.050   1
  -6  -7  -3 12698.3 408.350   1
  -6  -7  -3 12926.0 476.300   1
  -2  -7   9 3045.23 173.620   1
   2  -7  -9 3101.64 182.360   1
  -2  -7   9 3180.01 242.730   1
   2   7  -9 3540.10 211.520   1
  10   2  -4 19730.3 574.880   1
  10   2  -4 19519.8 561.490   1
 -10   2   4 19666.1 573.570   1
 -10  -2   4 18941.1 598.510   1
  10  -2  -4 19659.0 517.170   1
 -10  -2   4 16825.2 617.080   1
  10  -2  -4 21152.9 588.410   1
   3   1 -12 1343.20 128.200   1
   3  -1 -12 1381.61 129.730   1
   3  -1 -12 1374.70 159.690   1
   3   1 -12 1159.64 123.120   1
  -1   0 -11 -33.210 55.0400   1
   1  -8   7 22722.0 531.180   1
  -1   8  -7 20626.4 516.820   1
   1  -8   7 22314.8 764.470   1
  -1  -8  -7 21601.7 665.540   1
  -1  -8  -7 19841.2 534.370   1
  -1  -8  -7 21296.6 580.480   1
 -10   0   6 3278.22 200.150   1
  10   0  -6 3539.95 207.660   1
 -10   0   6 3124.73 293.100   1
  -5  -9   4 24415.4 682.760   1
  -5  -9   4 24803.0 630.990   1
   5  -9  -4 22600.0 557.440   1
   5  -9  -4 23300.7 596.950   1
  -1   6  -9 7178.51 316.120   1
   1  -6   9 6272.23 263.480   1
  -1  -6  -9 7079.66 292.100   1
   2   0 -12 47115.7 954.870   1
   2   0 -12 42136.0 1033.35   1
   0  -3 -11 22194.0 623.700   1
   0   3 -11 19240.5 561.550   1
   0   3 -11 20716.2 535.710   1
  -7   0  11 -20.510 88.2000   1
   7   0 -11 35.1000 50.6700   1
  -9  -5   4 2073.30 191.970   1
  -9  -5   4 2182.03 171.150   1
   9  -5  -4 2089.46 164.420   1
   9  -5  -4 2082.03 144.740   1
   9  -5  -4 1932.32 146.140   1
  -8  -6   6 12433.3 476.060   1
  -8  -6   6 14558.7 506.480   1
   8  -6  -6 15266.8 528.040   1
   8  -6  -6 15378.3 445.950   1
   8  -6  -6 14844.5 527.900   1
   4   1   9 44101.4 1027.84   1
  -4  -1  -9 39973.6 995.320   1
  -4   1  -9 40669.5 846.700   1
   4  -1   9 37103.7 754.870   1
  -4   1  -9 42711.6 954.120   1
  -4  -1  -9 46641.3 996.330   1
   4  -1   9 45379.5 1025.79   1
  -8  -6   0 39069.9 803.830   1
  -8  -6   0 40811.5 1024.67   1
  -8  -6   0 39034.5 926.760   1
   8  -6   0 37987.0 764.110   1
   8  -6   0 39141.6 845.030   1
   8  -6   0 39251.8 788.980   1
  -9  -1  -2 -12.380 51.2800   1
  -9  -1  -2 43.2500 55.9000   1
  -9   1  -2 64.1000 63.5400   1
   9  -1   2 72.0900 54.5600   1
   9   1   2 55.0700 46.8800   1
  -9   1  -2 51.1000 52.4800   1
  -9  -1  -2 48.4000 49.1100   1
  -3 -10   3 13872.4 503.280   1
   3 -10  -3 12066.2 366.850   1
   3 -10  -3 12112.1 364.180   1
  -3 -10   3 12136.4 367.560   1
  -6   1  -7 22625.7 555.650   1
   6  -1   7 25084.5 665.170   1
   6  -1   7 23178.3 603.010   1
  -6   1  -7 22078.5 610.920   1
  -6  -1  -7 24835.4 618.460   1
  -6  -1  -7 21643.2 573.100   1
   6   1   7 21717.9 553.550   1
  -6  -1  -7 20200.3 553.000   1
   6  -3 -11 12326.0 481.460   1
  -6  -3  11 12363.3 468.480   1
   6  -3 -11 12345.7 417.270   1
   6   3 -11 11737.9 450.720   1
  -6   4  -6 18067.4 518.960   1
  -6  -4  -6 19627.8 602.430   1
   6  -4   6 20371.7 523.390   1
   6   4   6 20932.8 584.950   1
   6   4   6 19995.0 552.890   1
   6  -4   6 20177.4 531.370   1
  -2  -8   8 15782.9 429.460   1
   2  -8  -8 13783.8 422.730   1
   2   8  -8 16001.5 483.600   1
  -2  -8   8 17300.7 606.830   1
   2  -8  -8 16809.9 470.230   1
   3  -9   4 28767.1 622.520   1
   3  -9   4 27876.5 653.300   1
  -3   9  -4 27199.9 619.820   1
  -3  -9  -4 28729.4 735.840   1
  -3  -9  -4 28325.9 696.080   1
  -3  -4  -9 12291.5 417.800   1
   3   4   9 15305.8 477.310   1
   3  -4   9 14128.7 425.720   1
  -3   4  -9 14237.9 497.250   1
   3   4   9 13581.9 452.860   1
   3  -4   9 14846.0 447.260   1
  -5  -8   7 15333.4 437.930   1
   5  -8  -7 14390.5 417.490   1
  -5  -8   7 17178.2 560.430   1
   5  -8  -7 14823.4 442.180   1
  -2  -6  10 27729.7 876.440   1
   2  -6 -10 24974.9 586.250   1
   2   6 -10 28701.5 709.550   1
  -2   6  10 26333.1 678.070   1
  -2  -6  10 27195.4 610.000   1
   1  -4 -11 942.020 112.850   1
   1   4 -11 1323.48 136.730   1
   1  -4 -11 916.760 99.3500   1
  -2 -10   4 2640.10 156.640   1
   2 -10  -4 2271.50 157.100   1
   2 -10  -4 2378.99 145.700   1
  -2 -10   4 2589.32 179.900   1
  -9  -5   2 5334.35 307.860   1
  -9  -5   2 7356.42 374.220   1
   9  -5  -2 6123.36 274.130   1
   9  -5  -2 5835.91 266.350   1
   9  -5  -2 6224.73 257.300   1
   2  -9   5 29616.2 792.860   1
  -2   9  -5 28983.9 659.120   1
   2  -9   5 28051.8 636.460   1
  -2  -9  -5 28362.5 662.500   1
  -2  -9  -5 27673.1 663.020   1
  -3 -10  -1 49251.4 983.810   1
   3 -10   1 47401.1 894.480   1
   3 -10   1 45519.1 887.330   1
  -3 -10  -1 49442.7 978.520   1
   3 -10   1 51024.1 944.630   1
  -5  -4  11 5463.35 340.280   1
   5   4 -11 5716.16 306.350   1
   5  -4 -11 5809.71 290.150   1
   5  -4 -11 5435.95 278.390   1
   0 -10   4 9638.58 396.180   1
   0 -10   4 9022.15 286.150   1
   0 -10  -4 9452.34 335.980   1
   0 -10  -4 9514.30 351.970   1
   0 -10  -4 9251.34 305.040   1
  -9   0   9 -9.8800 59.0000   1
  10  -2  -2 28078.3 690.810   1
  10   2  -2 24341.2 553.130   1
 -10   2   2 27013.6 719.770   1
 -10  -2   2 23305.2 623.170   1
  10   2  -2 24052.9 631.420   1
 -10  -2   2 22520.4 756.760   1
  10  -2  -2 26459.4 688.470   1
  -9  -4   7 2521.68 206.230   1
  -9  -4   7 2279.48 206.640   1
   9  -4  -7 2508.16 182.720   1
   9  -4  -7 2591.40 159.480   1
   9  -4  -7 2496.46 175.000   1
   9  -3  -8 842.610 98.0900   1
   9  -3  -8 995.960 98.3900   1
  -9  -3   8 849.640 122.940   1
   9  -3  -8 944.030 107.920   1
  -9  -3   8 675.090 95.2700   1
   9   3  -8 818.680 104.460   1
   4   7  -9 31844.3 685.050   1
  -4  -7   9 32177.7 693.370   1
  -4  -7   9 34541.4 912.970   1
   4  -7  -9 34425.9 760.320   1
   8  -2 -10 33096.2 718.330   1
  -8  -2  10 34489.9 884.120   1
  -6  -8   6 6561.04 325.290   1
  -6  -8   6 6783.15 314.780   1
   6  -8  -6 5857.16 269.640   1
   6  -8  -6 5901.82 284.620   1
   8  -2   4 29884.1 705.120   1
   8   2   4 26428.9 634.730   1
  -8   2  -4 24568.3 681.590   1
   8   2   4 25550.2 595.830   1
  -8  -2  -4 31671.8 766.160   1
   8  -2   4 29903.5 665.440   1
  -8  -2  -4 25282.7 696.620   1
  -8  -2  -4 24437.6 626.800   1
  -4  -6  10 29651.1 841.920   1
   4   6 -10 30212.8 661.380   1
  -4  -6  10 26540.5 653.700   1
   4  -6 -10 27663.1 646.670   1
  10   1  -1 19876.2 513.790   1
 -10  -1   1 21385.1 609.390   1
  10  -1  -1 21446.0 561.910   1
 -10  -1   1 21559.2 851.070   1
 -10   1   1 19728.1 682.040   1
 -10   1   1 21508.7 573.130   1
  10  -1  -1 20275.0 501.540   1
  -4  -2  12 36859.8 935.480   1
   4  -2 -12 34719.8 806.260   1
   4   2 -12 39320.3 980.150   1
   4  -2 -12 37370.0 867.470   1
   5   1 -12 6.41000 37.9600   1
   5  -1 -12 41.9600 45.9800   1
   5  -1 -12 24.8100 51.4400   1
   7   5   4 1831.31 131.890   1
  -7  -5  -4 1558.91 171.340   1
   7  -5   4 1748.98 127.330   1
  -7   5  -4 1717.21 159.840   1
  -7  -5  -4 1785.88 193.250   1
   7  -5   4 2040.36 140.270   1
  -1   2 -11 4148.08 227.250   1
  -1  -2 -11 4843.84 252.680   1
  -1   2 -11 4425.55 216.120   1
  10   2  -6 52125.0 1003.60   1
  10  -2  -6 56345.9 1162.52   1
  10  -2  -6 56410.3 1082.11   1
  10  -2  -6 56210.4 1168.68   1
 -10  -2   6 50124.0 1156.95   1
 -10  -2   6 50786.5 1115.62   1
   4  -9   3 9735.63 342.990   1
   4  -9   3 8642.40 309.360   1
  -4   9  -3 8616.83 325.280   1
   4  -9   3 8795.62 332.800   1
  -4  -9  -3 9270.11 387.600   1
  -4  -9  -3 9295.86 397.400   1
   7  -6   3 7356.35 281.720   1
  -7  -6  -3 8119.13 426.760   1
   7  -6   3 7150.00 282.140   1
  -7   6  -3 6594.04 312.810   1
  -7  -6  -3 6487.19 335.950   1
   7  -6   3 6798.52 282.700   1
   2  -2 -12 12150.8 497.430   1
   2  -2 -12 14755.2 489.200   1
   2   2 -12 13465.1 472.490   1
  -7  -2  11 228.570 81.4300   1
   7  -2 -11 237.930 86.5900   1
   7   2 -11 225.720 64.6000   1
  -3   1 -10 85.0500 43.9200   1
   3   1  10 83.2800 52.3900   1
   3  -1  10 115.880 45.1300   1
   3   1  10 81.1800 45.0100   1
   3  -1  10 62.9500 41.3100   1
  -3  -1 -10 105.590 67.5000   1
  -3   1 -10 96.3600 47.7700   1
  -7  -8   3 4358.24 232.460   1
  -7  -8   3 3723.76 235.930   1
   7  -8  -3 4444.43 235.810   1
   7  -8  -3 4131.09 212.070   1
  10   3  -3 29860.5 645.380   1
 -10  -3   3 26675.9 707.910   1
  10  -3  -3 28250.0 623.650   1
 -10  -3   3 26611.7 830.840   1
  10  -3  -3 27033.8 607.720   1
  10   3  -3 27568.3 660.260   1
  10  -3  -3 27326.5 605.970   1
   1  -9   6 8173.35 381.400   1
   1  -9   6 7707.37 295.100   1
  -1   9  -6 7792.24 332.920   1
  -1  -9  -6 7863.16 362.920   1
  -1  -9  -6 8685.53 326.990   1
  -1  -9  -6 7183.90 284.480   1
  -4  -8   8 17980.3 491.070   1
   4  -8  -8 16367.4 463.760   1
   4   8  -8 16667.1 455.990   1
  -4  -8   8 17230.2 629.880   1
   7  -1   6 1152.14 119.060   1
  -7  -1  -6 1176.22 131.230   1
   7   1   6 1187.41 108.790   1
  -7  -1  -6 1292.56 132.140   1
  -7   1  -6 1182.15 130.290   1
  -7  -1  -6 1086.37 98.7500   1
   7  -1   6 1131.98 107.650   1
 -10   1   7 45455.1 1099.75   1
 -10  -1   7 42455.5 1005.75   1
 -10  -1   7 47860.5 1144.54   1
  10  -1  -7 48653.3 1022.90   1
  10  -1  -7 41694.4 845.730   1
 -10   1   7 45468.3 1054.79   1
  10   1  -7 41672.6 909.410   1
   1  -1 -12 3317.67 194.750   1
   1   1 -12 2681.45 177.260   1
   4 -10  -2 5883.90 238.530   1
  -4 -10   2 6013.59 295.610   1
  -4 -10   2 6065.08 306.960   1
   4 -10  -2 5877.56 264.270   1
  10   3  -5 14673.0 474.120   1
 -10  -3   5 12677.2 468.960   1
 -10  -3   5 12317.8 474.850   1
  10  -3  -5 14646.9 426.920   1
  10  -3  -5 14139.9 436.440   1
  10  -3  -5 13836.8 461.280   1
  -8  -7   3 8177.02 317.830   1
  -8  -7   3 6754.98 347.980   1
   8  -7  -3 7164.51 277.220   1
   8  -7  -3 8319.84 323.220   1
   8  -7  -3 7489.10 277.930   1
  -9  -5   6 4207.40 293.350   1
  -9  -5   6 4997.02 273.500   1
   9  -5  -6 4841.02 260.150   1
   9  -5  -6 4628.99 224.750   1
   9  -5  -6 4757.89 252.360   1
   9  -2  -9 3658.86 196.790   1
   9   2  -9 3538.37 186.650   1
  -9  -2   9 3268.90 237.330   1
  -9  -2   9 3445.59 238.700   1
  -1   5 -10 8646.23 308.600   1
   1  -5  10 9322.88 394.700   1
   1   5  10 9249.80 346.380   1
   0  -7   9 14950.1 408.480   1
   0   7  -9 13937.0 398.910   1
   0  -7  -9 14345.3 457.280   1
   6  -8   2 14985.2 461.390   1
  -6   8  -2 12365.5 405.800   1
  -6  -8  -2 14135.4 485.350   1
   6  -8   2 12527.5 404.040   1
  -6  -8  -2 12680.1 474.970   1
  -7  -4  -5 2094.92 173.350   1
   7  -4   5 1924.88 133.180   1
  -7  -4  -5 2200.65 149.020   1
  -7   4  -5 1618.27 138.830   1
   7  -4   5 2211.88 160.460   1
   7   4   5 2200.27 148.790   1
   7   4   5 2058.01 139.670   1
   0   8  -8 7656.55 297.040   1
   0  -8   8 7211.78 264.800   1
   0  -8   8 7277.59 398.450   1
   0  -8  -8 6761.73 289.930   1
   0  -8  -8 6585.30 262.560   1
   2  -9  -7 3889.50 198.950   1
  -2  -9   7 4214.43 201.860   1
   2   9  -7 4987.51 244.570   1
   2  -9  -7 5267.92 251.770   1
  -2  -9   7 4849.02 271.460   1
   2  -5 -11 24597.4 664.450   1
   2   5 -11 24869.2 653.960   1
   2  -5 -11 21555.0 553.040   1
  -2   5  11 19845.5 528.330   1
  -7  -8   1 5706.93 294.250   1
   7  -8  -1 5001.23 226.750   1
  -7  -8   1 5483.32 253.730   1
   7  -8  -1 5002.92 218.960   1
  -7  -8   1 5888.27 323.520   1
   2   4  10 16060.2 496.130   1
   2  -4  10 15969.3 476.600   1
  -2   4 -10 15489.0 502.390   1
   4  -5 -11 17228.3 479.250   1
  -4  -5  11 21750.9 684.950   1
   4  -5 -11 18619.5 606.170   1
   4   5 -11 19160.8 534.580   1
   5   3   8 1100.82 118.400   1
  -5  -3  -8 967.000 131.310   1
  -5  -3  -8 930.660 116.680   1
  -5   3  -8 849.480 105.750   1
   5  -3   8 809.380 87.4700   1
   5  -3   8 934.840 101.630   1
   5   3   8 1052.93 103.560   1
  -4 -10   0 3301.36 217.640   1
   4 -10   0 3355.07 193.450   1
   4 -10   0 3228.07 174.760   1
  -4 -10   0 2939.64 217.510   1
   9  -4   1 302.230 59.0000   1
  -9  -4  -1 343.430 59.9300   1
  -9  -4  -1 455.780 141.360   1
   9  -4   1 229.400 68.9400   1
   9  -4   1 247.290 61.9800   1
   9   4   1 402.040 73.7900   1
   9   4   1 227.490 80.1000   1
  -9  -4  -1 332.350 91.5700   1
   1 -10  -5 27054.3 631.230   1
  -1 -10   5 29360.5 743.240   1
  -1 -10   5 29683.6 690.220   1
   1 -10  -5 29646.4 697.410   1
 -10   0   0 23215.2 678.250   1
  10   0   0 27282.0 652.510   1
  10   0   0 24163.7 692.690   1
 -10   0   0 21364.2 728.640   1
  -3  -3  12 966.450 123.140   1
   3  -3 -12 875.490 99.4200   1
   3   3 -12 837.590 113.950   1
   3  -3 -12 963.960 115.310   1
   6   0 -12 34101.8 871.060   1
   6   0 -12 29946.3 684.150   1
   7  -7   2 2819.47 174.880   1
  -7  -7  -2 2628.87 267.740   1
   7  -7   2 2397.12 162.360   1
  -7  -7  -2 2356.24 185.250   1
   7  -7   2 2643.33 159.880   1
  -7   7  -2 2440.92 184.480   1
  -6  -9   3 5985.10 344.520   1
  -6  -9   3 5832.71 288.980   1
   6  -9  -3 4897.70 212.960   1
   6  -9  -3 5247.72 228.020   1
  -4  -3  -9 11979.1 408.820   1
   4   3   9 12372.0 420.720   1
   4  -3   9 12614.1 413.810   1
  -4  -3  -9 13079.4 401.840   1
  -4   3  -9 13381.5 452.400   1
   4  -3   9 13806.7 418.990   1
   9   3   2 907.570 125.710   1
   9  -3   2 919.640 87.8400   1
  -9  -3  -2 726.310 93.9600   1
   9   3   2 871.730 87.6600   1
   9  -3   2 925.020 96.0000   1
  -9  -3  -2 779.320 139.770   1
  -5  -9  -2 15540.0 465.660   1
   5  -9   2 15262.4 454.400   1
   5  -9   2 16588.5 478.590   1
  -5  -9  -2 15588.2 494.210   1
   6   3   7 8788.27 369.490   1
  -6  -3  -7 7230.96 334.240   1
   6  -3   7 7207.91 276.430   1
  -6   3  -7 7511.24 324.770   1
   6  -3   7 7362.47 287.390   1
   6   3   7 7700.09 300.220   1
  -6  -9   1 7918.71 374.460   1
  -6  -9   1 8401.50 378.960   1
   6  -9  -1 8029.14 313.870   1
   6  -9  -1 7641.50 296.100   1
   8  -7  -5 8105.53 308.780   1
  -8  -7   5 10045.2 422.400   1
   8  -7  -5 10411.0 366.820   1
  -8  -7   5 8978.35 463.370   1
  -8  -7   1 4868.52 249.660   1
  -8  -7   1 4982.14 319.120   1
  -8  -7   1 5120.98 242.890   1
   8  -7  -1 6137.37 279.490   1
   8  -7  -1 5140.08 235.900   1
   8  -7  -1 5242.32 268.980   1
   0  -6  10 13328.4 449.270   1
   0   6 -10 14677.2 456.520   1
   0  -6 -10 12465.5 402.770   1
   0   6  10 14318.2 504.370   1
  -7  -8   5 11430.5 396.570   1
  -7  -8   5 11167.5 441.160   1
   7  -8  -5 10075.8 321.150   1
   7  -8  -5 12005.8 366.890   1
   9  -5   0 5351.34 228.710   1
   9  -5   0 5165.77 242.730   1
  -9  -5   0 5197.67 320.550   1
   9  -5   0 5306.33 228.480   1
  -9  -5   0 5513.44 238.880   1
  -9  -5   0 5547.60 302.500   1
  -9   0  -3 -10.670 47.7100   1
   9   0   3 12.5000 73.3200   1
  -9   0  -3 7.31000 77.1400   1
   0 -11   1 1265.51 106.690   1
   0 -11  -1 1253.07 104.930   1
   0 -11   1 1161.47 115.870   1
   0 -11  -1 1434.09 122.150   1
   1 -11   0 34668.0 722.010   1
  -1 -11   0 30582.4 746.890   1
  -1 -11   0 31238.1 706.060   1
   1 -11   0 31590.3 677.910   1
  -5  -9   6 21986.1 696.160   1
  -5  -9   6 21597.3 601.800   1
   5  -9  -6 20876.7 517.660   1
   5  -9  -6 22923.9 635.420   1
  -3 -10   5 15989.0 550.240   1
   3 -10  -5 17636.0 498.400   1
  -3 -10   5 17509.2 454.060   1
   3 -10  -5 16477.6 499.100   1
   4 -10  -4 4939.31 217.390   1
  -4 -10   4 5517.12 274.110   1
   4 -10  -4 5645.50 258.860   1
  -4 -10   4 5265.14 292.590   1
  10   0  -8 21526.8 601.390   1
 -10   0   8 19297.5 653.670   1
 -10   0   8 19436.4 583.550   1
   0   0 -12 13738.1 485.290   1
  10  -3  -1 19114.7 507.070   1
 -10  -3   1 18698.6 600.180   1
  10   3  -1 19124.7 578.380   1
  10   3  -1 19713.5 501.650   1
 -10  -3   1 18309.6 761.760   1
  10  -3  -1 18829.3 532.350   1
  10  -3  -1 18767.6 474.790   1
   0  -9   7 11721.3 439.390   1
   0   9  -7 11671.9 367.130   1
   0  -9   7 13250.5 417.840   1
   0  -9  -7 12265.4 401.460   1
   0  -9  -7 10930.8 374.710   1
  -9  -6   3 4558.39 259.680   1
  -9  -6   3 4672.16 300.200   1
   9  -6  -3 4318.15 203.280   1
   9  -6  -3 5096.69 230.190   1
   9  -6  -3 4671.32 219.980   1
  -2   1 -11 24128.1 572.860   1
  -2  -1 -11 21211.9 548.830   1
   5  -3 -12 4243.63 222.060   1
   5   3 -12 4318.05 243.790   1
   5  -3 -12 5129.32 266.640   1
  -5  -3  12 4944.92 271.130   1
  -7  -6   9 9236.28 390.410   1
   7  -6  -9 8133.51 300.510   1
  -7  -6   9 8151.84 434.160   1
  10  -4  -4 31829.3 723.190   1
 -10  -4   4 27380.0 880.300   1
  10   4  -4 30339.4 693.970   1
  10  -4  -4 28337.4 632.460   1
 -10  -4   4 29910.3 815.880   1
  10  -4  -4 28941.8 642.460   1
  10   2   0 25751.0 678.560   1
 -10   2   0 27651.6 699.100   1
 -10  -2   0 23999.3 634.730   1
 -10  -2   0 21002.6 755.670   1
  10  -2   0 22485.3 603.160   1
  10  -2   0 28203.8 683.640   1
  10   2   0 25703.8 579.780   1
   6   2 -12 19338.5 532.670   1
  -6  -2  12 20089.3 608.900   1
   6  -2 -12 19373.5 522.630   1
   6  -2 -12 18944.2 639.460   1
   2 -10   4 9824.52 380.300   1
   2 -10   4 9469.08 322.690   1
  -2 -10  -4 10006.2 382.760   1
  -2 -10  -4 9759.82 387.830   1
   7  -5 -10 2721.74 165.930   1
   7   5 -10 3278.04 213.790   1
  -7  -5  10 2934.63 237.580   1
  -7  -5  10 3380.65 254.110   1
  -4  -9   7 1960.45 186.840   1
  -4  -9   7 1864.19 135.900   1
   4  -9  -7 1901.08 145.950   1
   4  -9  -7 2156.13 177.070   1
  -8  -1  11 33035.6 756.040   1
   8  -1 -11 31094.4 707.100   1
   8  -5  -9 16845.4 477.700   1
  -8  -5   9 15466.5 530.510   1
  -8  -5   9 17481.9 643.510   1
   3 -10   3 20754.2 574.480   1
   3 -10   3 19514.2 474.890   1
  -3 -10  -3 23138.3 744.480   1
  -3 -10  -3 18479.8 509.500   1
  -3   3 -10 9.88000 58.8600   1
   3  -3  10 8.23000 61.8500   1
   3  -3  10 -13.400 63.9700   1
  -3  -3 -10 54.5900 94.4200   1
  -3   3 -10 34.1600 45.8000   1
  -1 -11   2 19158.7 549.520   1
   1 -11  -2 17764.8 472.760   1
   1 -11  -2 16930.9 490.030   1
  -1 -11   2 17732.6 484.360   1
   1 -11  -2 17430.3 449.270   1
   8  -1   5 8983.51 361.370   1
  -8  -1  -5 7562.18 329.310   1
  -8   1  -5 7483.01 359.410   1
   8   1   5 8460.81 302.000   1
  -8   1  -5 7287.89 371.370   1
  -8  -1  -5 8388.44 345.170   1
  -8  -1  -5 7898.23 281.290   1
  -8  -5  -3 8076.06 406.520   1
   8   5   3 8876.80 328.830   1
   8  -5   3 9568.77 333.980   1
  -8  -5  -3 9389.57 323.330   1
  -8   5  -3 7118.09 319.290   1
   8  -5   3 8897.06 315.890   1
  -8  -5  -3 8461.95 392.730   1
  -9  -6   5 7085.72 326.450   1
  -9  -6   5 7155.68 402.830   1
   9  -6  -5 6444.67 265.100   1
   9  -6  -5 6295.73 276.050   1
   9  -6  -5 7367.72 329.900   1
   9  -1 -10 1802.26 147.590   1
  -9  -1  10 1331.58 148.070   1
  -7   3  -6 8065.62 395.460   1
   7   3   6 9343.02 332.540   1
   7   3   6 9254.08 309.120   1
  -7  -3  -6 8212.42 342.490   1
   7  -3   6 8565.41 288.510   1
  -7  -3  -6 10804.1 365.450   1
   7  -3   6 8821.33 323.520   1
  10   3  -7 20881.8 540.400   1
  10  -3  -7 19978.6 559.110   1
 -10  -3   7 19459.9 577.930   1
 -10  -3   7 20178.1 662.650   1
  10  -3  -7 23674.2 575.300   1
  10  -3  -7 20173.8 595.990   1
   1  -3 -12 4050.71 234.470   1
   1   3 -12 3243.08 210.580   1
  -2 -11   1 6497.58 262.710   1
   2 -11  -1 6245.36 234.580   1
   2 -11  -1 6247.86 277.260   1
   2 -11  -1 6311.16 263.280   1
  -2 -11   1 6160.44 272.040   1
  -9  -2  -3 358.340 80.8700   1
   9  -2   3 349.480 63.0400   1
  -9  -2  -3 209.240 79.4600   1
   9  -2   3 386.160 74.1700   1
   9   2   3 335.700 68.8200   1
  -6  -6  10 8628.58 389.420   1
   6  -6 -10 8758.02 333.060   1
   6   6 -10 9261.92 333.310   1
  -6  -6  10 8119.50 376.000   1
  -3  -7  10 4812.77 309.430   1
   3  -7 -10 4213.41 216.090   1
   3   7 -10 4822.66 225.300   1
  -3  -7  10 4581.93 205.880   1
   1 -10   5 13596.2 470.510   1
   1 -10   5 12559.7 355.410   1
  -1  10  -5 14430.9 440.570   1
  -1 -10  -5 12992.4 425.310   1
  -1 -10  -5 13950.9 475.490   1
  -8  -6   8 22935.4 606.050   1
  -8  -6   8 23390.0 767.270   1
   8  -6  -8 21460.3 570.050   1
  10  -4  -2 15932.3 455.530   1
 -10  -4   2 14081.8 570.330   1
  10  -4  -2 17019.0 495.780   1
  10   4  -2 19462.0 484.210   1
 -10  -4   2 15612.4 494.140   1
  10  -4  -2 16995.6 463.530   1
  -6  -9   5 6916.80 336.290   1
  -6  -9   5 7286.36 360.130   1
   6  -9  -5 6640.58 269.140   1
   6  -9  -5 6566.57 312.010   1
  -8  -6  -2 24308.8 653.940   1
  -8  -6  -2 21045.0 680.870   1
  -8  -6  -2 22151.2 600.770   1
   8  -6   2 20580.3 516.620   1
   8  -6   2 21366.3 526.930   1
   7  -7  -8 15041.5 471.390   1
  -7  -7   8 13172.3 482.540   1
  -7  -7   8 14574.1 532.030   1
   8  -4 -10 12429.8 411.090   1
  -8  -4  10 12602.1 479.650   1
  -6  -7   9 12009.0 563.600   1
  -6  -7   9 12463.2 466.520   1
   6  -7  -9 11843.0 408.250   1
   6   7  -9 10868.1 364.820   1
   3   8  -9 9782.70 374.710   1
  -3  -8   9 9202.59 380.070   1
   3  -8  -9 7721.96 287.040   1
  -3  -8   9 8281.92 408.700   1
  10  -2  -8 25981.4 656.350   1
  10  -2  -8 26716.9 706.670   1
 -10  -2   8 23257.1 646.890   1
  10  -2  -8 29965.5 713.900   1
 -10  -2   8 27634.9 812.320   1
  10   2  -8 25862.9 600.960   1
   8  -4   4 11497.7 379.080   1
  -8   4  -4 9772.20 387.310   1
   8  -4   4 10413.6 364.680   1
   8   4   4 11440.9 415.350   1
   8   4   4 10270.2 356.370   1
  -8  -4  -4 10062.6 444.150   1
  -8  -4  -4 11586.5 375.010   1
   0  -2 -12 16797.5 480.850   1
   0   2 -12 17053.3 518.240   1
  -1 -11  -2 10973.2 421.920   1
  -1 -11  -2 9182.72 331.300   1
   1 -11   2 10024.2 324.890   1
   1 -11   2 9652.54 391.080   1
  -4  -4  12 11225.7 437.690   1
   4  -4 -12 12070.5 453.320   1
   4   4 -12 11844.5 404.640   1
   4  -4 -12 10710.8 383.260   1
  -1  -4 -11 14659.0 451.720   1
  -1   4 -11 13187.7 397.570   1
  10  -4  -6 19221.0 503.030   1
  10  -4  -6 19125.5 524.290   1
 -10  -4   6 19538.3 658.880   1
 -10  -4   6 20312.5 645.910   1
  10  -4  -6 20050.1 488.740   1
  -5 -10   1 16060.7 488.390   1
  -5 -10   1 18192.3 611.840   1
   5 -10  -1 17135.8 512.580   1
   5 -10  -1 15325.1 411.540   1
  10  -1   1 12489.5 364.130   1
 -10  -1  -1 11011.1 529.860   1
 -10  -1  -1 11600.5 410.800   1
 -10   1  -1 12267.2 463.070   1
  10   1   1 12895.7 375.200   1
   4 -10   2 5246.83 245.890   1
   4 -10   2 5601.85 274.100   1
   4 -10   2 5119.77 221.200   1
  -4 -10  -2 5159.94 283.920   1
  -4 -10  -2 5585.35 312.350   1
  -9  -6   1 7567.79 416.790   1
  -9  -6   1 8807.18 370.000   1
   9  -6  -1 8800.42 315.870   1
   9  -6  -1 7567.04 277.860   1
   9  -6  -1 8315.72 330.060   1
  -5   0  -9 -45.600 41.2100   1
   5   0   9 21.3400 46.8900   1
   5   0   9 13.5100 42.7600   1
  -5   0  -9 12.4600 53.0700   1
  -2 -10   6 21186.2 511.090   1
   2 -10  -6 21130.7 568.330   1
  -2 -10   6 23247.1 709.200   1
   2 -10  -6 20441.2 541.560   1
   7  -8   1 10561.1 379.780   1
  -7  -8  -1 12228.8 532.170   1
   7  -8   1 12154.8 395.930   1
  -7  -8  -1 10713.7 380.120   1
   7  -8   1 12014.5 412.800   1
  -4  -7  -7 12601.9 501.850   1
  -4   7  -7 11328.5 407.510   1
  -4  -7  -7 11956.4 429.360   1
   4  -7   7 14198.8 458.120   1
  -5 -10   3 12528.1 492.020   1
  -5 -10   3 12369.3 394.740   1
   5 -10  -3 11577.9 353.280   1
   5 -10  -3 12580.8 435.190   1
  -2 -11  -1 6858.41 299.870   1
   2 -11   1 7037.84 284.640   1
  -2 -11  -1 7597.89 298.410   1
   2 -11   1 7584.66 282.670   1
   2   4 -12 20039.2 516.950   1
   2  -4 -12 20895.3 573.180   1
   2  -4 -12 20690.2 618.480   1
   0   5 -11 10596.9 402.300   1
   0  -5  11 11211.0 376.330   1
   0   5  11 10106.9 416.090   1
  -7  -4  11 2445.63 218.240   1
   7   4 -11 2018.08 139.400   1
   7  -4 -11 2336.52 173.590   1
   7   1 -12 119.150 63.4200   1
  -7  -1  12 108.280 107.230   1
   7  -1 -12 119.280 51.0100   1
   6   0   8 9346.38 379.730   1
  -6   0  -8 9390.71 416.490   1
   6   0   8 9390.80 389.400   1
  -6   0  -8 10190.4 353.800   1
  -1  -8   9 12413.0 378.300   1
   1   8  -9 12284.2 438.590   1
   1  -8  -9 11649.8 370.260   1
   6  -9   1 6873.87 271.520   1
  -6  -9  -1 7399.43 340.100   1
   6  -9   1 6852.44 276.090   1
  -6  -9  -1 7259.25 308.940   1
   3   6 -11 11112.2 379.610   1
   3  -6 -11 10461.8 353.680   1
  -3  -6  11 11167.6 454.880   1
   0 -11  -3 8585.74 367.520   1
   0 -11  -3 9061.37 344.030   1
   0 -11   3 9202.96 373.500   1
   0 -11   3 9266.59 309.400   1
  -6  -5  11 27613.1 734.310   1
   6   5 -11 26768.4 689.200   1
   6  -5 -11 27531.9 688.200   1
  -5  -7  -6 3851.25 302.290   1
   5  -7   6 3285.47 193.330   1
  -5  -7  -6 4002.15 277.440   1
  -5   7  -6 3506.14 199.660   1
   1   7 -10 4455.27 221.930   1
  -1  -7  10 4528.96 224.570   1
   1  -7 -10 4019.06 233.250   1
  -4   8  -6 9961.12 357.930   1
   4  -8   6 9274.86 313.180   1
  -4  -8  -6 10386.1 462.430   1
  -4  -8  -6 9797.84 453.690   1
  -2 -11   3 2184.81 176.400   1
   2 -11  -3 2749.58 193.930   1
   2 -11  -3 2312.79 150.020   1
  -2 -11   3 2419.64 145.620   1
  -9  -4   9 1758.85 181.470   1
   9  -4  -9 1244.38 136.730   1
  -9  -4   9 1393.87 133.930   1
  -3   7  -8 8139.62 313.900   1
   3  -7   8 7879.91 321.990   1
  -3  -7  -8 7971.11 419.500   1
  -3  -7  -8 8893.00 413.830   1
   3   0 -13 47.3600 60.8000   1
  -9  -5   8 15790.4 526.370   1
  -9  -5   8 15598.9 527.320   1
   9  -5  -8 18446.6 517.150   1
   3  -8   7 6497.50 296.050   1
  -3   8  -7 6547.06 275.370   1
  -3  -8  -7 6836.15 337.920   1
  -3  -8  -7 5715.74 307.460   1
  -4   0 -10 11046.0 407.950   1
  -4   0 -10 9549.87 349.720   1
   4   0  10 9056.22 337.690   1
   4   0  10 9450.28 408.950   1
   5  -6   7 5630.18 259.130   1
   5   6   7 6139.51 311.310   1
   5  -6   7 5712.47 284.780   1
  -5   6  -7 5553.15 265.240   1
  -5  -6  -7 5318.35 352.470   1
  -4   6  -8 9372.01 365.870   1
   4  -6   8 8927.15 301.130   1
  -4  -6  -8 8162.59 388.360   1
   4   6   8 8042.98 307.080   1
   4   6   8 8905.25 355.150   1
  11   0  -5 27.4600 51.9300   1
 -11   0   5 -42.390 54.2500   1
 -11   0   5 -18.320 64.9600   1
   6  -8  -8 19119.7 525.630   1
  -6  -8   8 16727.1 560.660   1
  -6  -8   8 17125.9 553.040   1
   0 -10  -6 8700.21 351.400   1
   0 -10   6 9301.77 316.590   1
   0 -10   6 8540.21 421.930   1
   0 -10  -6 8697.49 316.120   1
   0  10  -6 9686.07 366.990   1
   4   1 -13 18922.6 554.120   1
   4  -1 -13 17402.0 524.780   1
   4  -1 -13 18005.7 563.170   1
   4   1 -13 18258.3 523.640   1
 -11  -1   4 1567.54 199.050   1
  11  -1  -4 1398.77 125.190   1
  11  -1  -4 1476.85 149.880   1
  11   1  -4 1407.31 145.980   1
 -11   1   4 1568.22 223.260   1
 -11  -1   4 1467.75 160.110   1
 -11   1   4 1662.63 168.880   1
  11   0  -3 -41.950 58.4200   1
  11   0  -3 -13.240 53.3000   1
 -11   0   3 -4.8000 82.4700   1
 -11   0   3 0.53000 79.4700   1
  -3  -9   8 11483.7 517.030   1
   3   9  -8 10839.8 350.840   1
   3  -9  -8 11223.1 371.560   1
  -3  -9   8 11262.7 387.760   1
  -2   3 -11 21050.8 582.780   1
  -2   3 -11 18953.6 517.770   1
  -2  -3 -11 20873.2 608.860   1
   8  -7  -7 10434.4 369.120   1
  -8  -7   7 11295.6 418.440   1
   8  -7  -7 9099.12 381.300   1
  -8  -7   7 10430.1 443.740   1
   5  -8   5 20464.4 533.500   1
  -5   8  -5 16287.4 511.130   1
  -5  -8  -5 16600.3 503.950   1
  -5  -8  -5 16786.5 559.970   1
  -3 -11   2 25099.6 622.230   1
   3 -11  -2 24559.0 564.050   1
  -3 -11   2 21913.3 506.910   1
   3 -11  -2 26736.2 533.640   1
  -8  -7  -1 5910.54 406.290   1
   8  -7   1 4857.87 250.030   1
   8  -7   1 5563.89 254.470   1
  -8  -7  -1 5392.84 289.040   1
   8  -7   1 6006.36 274.000   1
  -8  -7  -1 5681.81 266.940   1
 -10  -1   9 17109.0 583.390   1
  10  -1  -9 20087.1 503.680   1
 -10   1   9 15952.3 526.770   1
   1   9  -8 18720.8 461.420   1
   1  -9  -8 16756.0 448.010   1
  -1  -9   8 17168.4 439.580   1
  -1  -9   8 17294.3 610.630   1
  -7   0  -7 51.4300 61.2700   1
   7   0   7 -15.910 72.6900   1
  -7   0  -7 -16.600 46.2800   1
  -7   0  -7 39.9700 66.6800   1
  -3 -11   0 14432.3 410.480   1
  -3 -11   0 14032.4 503.260   1
   3 -11   0 12323.0 341.710   1
   3 -11   0 13286.7 352.330   1
   3 -11   0 13269.5 366.670   1
  -5  -2  -9 1093.68 122.870   1
   5   2   9 1137.62 103.290   1
  -5   2  -9 1210.67 131.490   1
   5  -2   9 1239.05 139.140   1
  -5  -2  -9 1313.30 123.670   1
   5  -2   9 1171.02 132.310   1
  -5   2  -9 1221.17 133.310   1
  -5  -7  10 19023.5 517.590   1
   5   7 -10 18621.3 473.230   1
   5  -7 -10 20438.0 533.370   1
  -5  -7  10 19645.6 611.360   1
  -8  -3  11 17406.8 579.780   1
   8  -3 -11 17850.2 453.580   1
   5   0 -13 41.4000 46.3200   1
   5   0 -13 37.8900 66.8100   1
  -6  -2  -8 12447.3 373.860   1
   6  -2   8 11032.3 340.870   1
   6   2   8 12800.5 411.000   1
  -6  -2  -8 12211.0 439.890   1
   6  -2   8 11478.4 330.330   1
  -6  -2  -8 13395.7 373.050   1
  -6   2  -8 13500.7 433.940   1
  -8  -3  -5 9713.27 329.450   1
   8  -3   5 7975.00 266.110   1
  -8  -3  -5 7837.07 335.250   1
   8   3   5 8322.25 281.530   1
   8   3   5 10069.7 320.170   1
   8  -3   5 7166.24 282.410   1
  -8   3  -5 7890.57 365.920   1
  -6  -7  -5 5375.84 281.010   1
   6  -7   5 5186.48 217.260   1
  -6   7  -5 4900.51 270.610   1
   6  -7   5 4983.81 222.110   1
  -6  -7  -5 4829.55 311.500   1
  -1  -1 -12 1040.37 113.130   1
  -1   1 -12 966.330 138.930   1
 -10  -5   3 7125.83 317.110   1
 -10  -5   3 6735.09 444.990   1
  10  -5  -3 7445.24 320.010   1
  10  -5  -3 7482.83 289.690   1
  10  -5  -3 7558.68 301.810   1
   6  -6   6 7481.55 284.210   1
  -6   6  -6 6271.80 314.360   1
   6  -6   6 7323.77 287.290   1
   6   6   6 6568.63 238.670   1
  -6  -6  -6 6538.42 313.970   1
  -7  -8   7 15952.5 514.140   1
  -7  -8   7 14906.1 564.890   1
   7  -8  -7 16379.0 437.240   1
   7  -8  -7 13737.7 375.560   1
   9  -3 -10 94.5700 68.9700   1
  -9  -3  10 33.1000 73.1600   1
   2   1 -13 27882.3 681.240   1
   2  -1 -13 25999.2 583.820   1
  -3   6  -9 9198.74 334.900   1
   3  -6   9 9488.21 335.740   1
  -3  -6  -9 7810.65 309.120   1
   3   6   9 9457.65 323.110   1
   3   6   9 9514.44 360.360   1
  -1  -6  11 4569.27 242.620   1
   1   6 -11 5011.25 236.520   1
   1  -6 -11 5071.76 275.090   1
  -1   6  11 4596.42 226.440   1
   1 -11  -4 7419.04 287.340   1
  -1 -11   4 7546.88 249.600   1
   1 -11  -4 8188.08 288.260   1
  -1 -11   4 7013.28 330.900   1
  -8  -8   4 23183.7 696.480   1
  -8  -8   4 25210.8 656.090   1
   8  -8  -4 22752.3 509.710   1
   8  -8  -4 22983.1 532.280   1
  -8  -8   2 16520.2 514.520   1
  -8  -8   2 17301.9 624.670   1
   8  -8  -2 14487.8 388.130   1
   8  -8  -2 15828.8 416.490   1
   8  -8  -2 16417.6 418.050   1
  10  -5  -5 8387.99 341.740   1
  10  -5  -5 8176.52 289.760   1
 -10  -5   5 7817.69 392.480   1
 -10  -5   5 8712.80 346.480   1
  10  -5  -5 8688.46 347.860   1
   2  -8   8 9123.70 316.310   1
  -2   8  -8 9988.78 362.690   1
  -2  -8  -8 9454.30 346.850   1
  -2  -8  -8 8587.20 325.200   1
   5  -6 -11 14218.5 456.110   1
  -5  -6  11 12737.2 474.260   1
   5  -6 -11 11806.8 418.640   1
   5   6 -11 12722.0 381.360   1
  11   1  -6 193.010 59.5600   1
 -11   1   6 231.310 102.630   1
  11  -1  -6 187.730 51.0500   1
  11  -1  -6 261.870 101.850   1
 -11  -1   6 358.630 126.490   1
 -11   1   6 174.570 60.2700   1
 -11  -1   6 193.380 75.0100   1
   3  -2 -13 1529.94 160.300   1
   3   2 -13 1845.28 154.910   1
  -7  -9   2 12554.4 466.370   1
  -7  -9   2 13157.6 441.780   1
   7  -9  -2 11170.0 334.650   1
   7  -9  -2 11285.5 328.600   1
   5 -10   1 8101.22 318.360   1
  -5 -10  -1 8021.88 378.000   1
  -5 -10  -1 7756.78 300.790   1
   5 -10   1 7539.41 269.580   1
  -9  -6   7 13323.3 537.860   1
  -9  -6   7 12635.3 431.190   1
   9  -6  -7 13588.8 454.330   1
   9  -6  -7 14056.4 431.300   1
   9  -6  -7 13370.1 410.590   1
   5   8  -9 4515.71 255.470   1
  -5  -8   9 3706.14 251.350   1
   5  -8  -9 3884.51 215.520   1
  -5  -8   9 3836.62 214.090   1
   3  -9   6 19804.6 458.480   1
  -3  -9  -6 18952.9 528.310   1
  -3   9  -6 18890.3 511.880   1
  -3  -9  -6 19953.9 590.680   1
   4   2  10 9725.51 389.480   1
  -4   2 -10 9848.07 365.630   1
   4  -2  10 9602.47 347.730   1
  -4   2 -10 9745.15 331.380   1
  -4  -2 -10 9923.76 329.580   1
   4  -2  10 9574.87 343.750   1
  -4  -9  -5 5622.41 334.710   1
  -4   9  -5 4765.28 237.310   1
  -4  -9  -5 5177.65 252.270   1
   4  -9   5 4456.25 192.170   1
  11  -2  -5 2748.87 186.140   1
 -11  -2   5 2671.36 217.570   1
 -11  -2   5 2429.22 184.480   1
  11  -2  -5 2885.98 194.670   1
  11   2  -5 2577.22 170.170   1
  11  -2  -5 2597.29 171.930   1
  -2   7  -9 7061.73 298.900   1
   2  -7   9 7404.08 281.410   1
  -2  -7  -9 7095.74 362.650   1
   4 -10  -6 1640.04 139.920   1
  -4 -10   6 1610.01 119.800   1
   4 -10  -6 1870.69 146.400   1
  -4 -10   6 1768.66 218.360   1
  -9  -1  -4 791.670 108.050   1
  -9   1  -4 854.840 119.740   1
   9  -1   4 907.120 125.800   1
   9   1   4 1147.22 110.990   1
  -9   1  -4 980.040 141.770   1
  -9  -1  -4 739.160 99.1000   1
 -11  -1   2 380.130 102.500   1
 -11   1   2 569.410 101.790   1
  11  -1  -2 635.350 95.0600   1
  11   1  -2 523.470 84.8900   1
  11  -1  -2 613.390 119.920   1
 -11  -1   2 626.720 126.410   1
 -11   1   2 505.590 105.860   1
 -11  -2   3 46.0200 82.7000   1
  11   2  -3 40.0700 68.4800   1
 -11   2   3 34.0100 62.3400   1
  11   2  -3 20.0400 47.5600   1
  11  -2  -3 35.7300 54.7000   1
  11  -2  -3 31.4300 61.0800   1
 -11  -2   3 0.57000 74.8800   1
  -3   0 -11 19.6700 58.9900   1
   5   5   8 5523.96 251.250   1
  -5  -5  -8 4715.38 309.100   1
   5  -5   8 5960.84 295.140   1
   5   5   8 6152.28 296.830   1
   5  -5   8 5805.02 313.670   1
  -5   5  -8 5360.10 307.580   1
  -5 -10   5 16258.9 474.610   1
  -5 -10   5 16735.7 518.070   1
   5 -10  -5 17799.4 531.440   1
   5 -10  -5 14089.8 370.890   1
  -7  -9   4 18364.9 559.810   1
   7  -9  -4 17644.2 461.030   1
  -7  -9   4 17344.1 478.570   1
   7  -9  -4 16905.8 431.870   1
 -10  -4   0 15387.3 681.340   1
 -10  -4   0 17796.6 537.220   1
  10  -4   0 16594.0 464.400   1
  10  -4   0 17100.9 431.040   1
  10   4   0 19691.3 477.980   1
  10   4   0 15631.4 486.270   1
  10  -4   0 18009.2 438.580   1
   3   5 -12 10861.3 343.070   1
   3  -5 -12 10814.0 398.380   1
   3  -5 -12 10118.6 381.600   1
  -6  -4  12 30200.5 763.870   1
   6  -4 -12 28131.0 600.300   1
   6   4 -12 30830.0 745.760   1
 -10   0  -2 20050.8 610.980   1
  10   0   2 19660.2 514.610   1
 -10  -3  -1 4597.06 289.340   1
  10  -3   1 5458.08 213.880   1
  10   3   1 5283.61 255.220   1
 -10  -3  -1 5027.53 418.490   1
  10   3   1 5974.07 326.960   1
  10  -3   1 5042.92 212.240   1
   7  -2   7 618.770 83.2400   1
  -7  -2  -7 429.710 85.4100   1
  -7   2  -7 507.320 89.4200   1
  -7  -2  -7 582.780 104.680   1
  -7  -2  -7 652.820 101.120   1
   7  -2   7 511.410 94.1800   1
   7   2   7 626.000 96.8200   1
  -6  -8  -4 10813.4 439.900   1
  -6  -8  -4 12023.6 445.640   1
  -6   8  -4 9345.23 368.650   1
   6  -8   4 10683.4 361.270   1
   5   2 -13 25.6300 43.8000   1
   5  -2 -13 45.8300 52.2800   1
  -5  -2  13 43.4200 84.6700   1
   5  -2 -13 4.06000 49.1700   1
   9  -7  -4 9005.99 300.810   1
  -9  -7   4 10036.0 412.420   1
   9  -7  -4 8303.03 283.580   1
   9  -7  -4 9174.91 318.400   1
  -9  -7   4 8603.86 419.530   1
  -9   0  11 -6.9900 113.530   1
   4  -5   9 8553.11 352.490   1
  -4   5  -9 8185.84 322.790   1
   4  -5   9 7803.49 337.620   1
  -4  -5  -9 6717.59 309.520   1
   4   5   9 8835.63 357.400   1
   4   5   9 7677.75 315.430   1
   7   3 -12 1284.77 155.180   1
  -7  -3  12 1253.15 148.670   1
   7  -3 -12 1305.33 115.930   1
   2  -9   7 15886.9 431.130   1
  -2   9  -7 15074.1 438.600   1
  -2  -9  -7 15854.9 479.330   1
  -2  -9  -7 16036.6 551.980   1
  -9  -5  -2 6306.72 416.180   1
   9   5   2 8504.84 291.480   1
  -9  -5  -2 6826.03 313.440   1
  -9  -5  -2 7711.22 331.430   1
   9  -5   2 7630.38 281.310   1
   9  -5   2 7669.36 273.740   1
 -11   0   7 7.91000 63.7300   1
  11   0  -7 29.1000 44.5800   1
 -11   0   7 -27.440 106.440   1
  -6  -5  -7 12537.9 484.050   1
  -6   5  -7 13300.3 427.510   1
   6  -5   7 13481.1 404.820   1
   6   5   7 14382.5 461.950   1
   6   5   7 14513.9 416.340   1
   6  -5   7 14105.1 407.440   1
   1   0 -13 19.8200 53.5000   1
   2 -11   3 4360.70 247.940   1
   2 -11   3 4203.42 200.180   1
  -2 -11  -3 3988.96 218.390   1
  -2 -11  -3 4583.05 228.390   1
   5  -9   4 7979.96 261.430   1
  -5   9  -4 8706.59 358.960   1
  -5  -9  -4 8425.31 369.190   1
  -5  -9  -4 9488.68 386.990   1
   8   0 -12 1609.00 137.230   1
  -9  -7   2 4710.87 268.310   1
  -9  -7   2 4908.21 319.300   1
   9  -7  -2 5049.37 253.400   1
   9  -7  -2 4948.51 243.750   1
   9  -7  -2 4707.10 241.320   1
   9   4   3 4446.04 222.630   1
   9   4   3 4049.00 205.530   1
   9  -4   3 4722.19 227.740   1
  -9  -4  -3 4181.03 259.170   1
  -9  -4  -3 4904.95 244.690   1
   9  -4   3 4531.82 261.240   1
   3 -11  -4 9516.39 305.320   1
  -3 -11   4 10705.3 372.390   1
   3 -11  -4 8856.82 334.430   1
  -3 -11   4 10387.7 361.110   1
  -8   0  -6 7841.15 363.870   1
  -8   0  -6 7409.67 328.850   1
   8   0   6 7919.50 312.370   1
   6  -1 -13 6877.29 362.080   1
   6   1 -13 5510.58 231.060   1
   6  -1 -13 7357.24 302.680   1
   6   1 -13 7006.25 330.320   1
  11   0  -1 11.5100 64.9500   1
 -11   0   1 35.4700 57.4900   1
  11   0  -1 14.5700 57.4200   1
 -11   0   1 -12.570 73.7000   1
  -7  -6  -5 4004.69 297.200   1
  -7   6  -5 3760.36 221.570   1
   7   6   5 4865.53 243.070   1
  -7  -6  -5 4740.73 293.370   1
   7  -6   5 5430.45 256.040   1
   7  -6   5 5033.49 261.340   1
   4 -11  -1 5695.66 249.820   1
  -4 -11   1 5559.88 260.710   1
   4 -11  -1 5427.41 249.770   1
  -4 -11   1 4739.51 231.920   1
   1 -11   4 17732.3 451.820   1
  -1 -11  -4 17100.5 443.720   1
  -1 -11  -4 17549.0 491.390   1
   1 -11   4 17017.9 493.720   1
  -1 -10   7 11234.9 491.580   1
  -1 -10   7 11534.7 355.880   1
   1  10  -7 10896.2 330.330   1
   1 -10  -7 11032.7 348.440   1
   1 -10  -7 10261.0 360.730   1
 -10  -4   8 17039.1 573.680   1
  10  -4  -8 18599.6 454.510   1
 -10  -4   8 17465.1 567.240   1
  10   4  -8 17949.0 502.370   1
  -6 -10   2 10580.6 445.600   1
  -6 -10   2 9499.05 340.840   1
   6 -10  -2 9160.81 306.130   1
   6 -10  -2 8744.02 314.670   1
   0   4 -12 22213.1 511.960   1
   0  -4 -12 21456.2 513.280   1
   4  -3 -13 32302.3 655.210   1
   4   3 -13 34105.8 1062.19   1
   4  -3 -13 33416.5 1076.27   1
  10   5  -1 12872.3 339.540   1
 -10  -5   1 12476.0 420.200   1
 -10  -5   1 13346.2 618.250   1
  10  -5  -1 12226.1 343.690   1
  10  -5  -1 11840.9 392.510   1
  10  -5  -1 12627.3 376.340   1
  11  -3  -4 388.080 98.4100   1
 -11  -3   4 110.190 110.920   1
 -11  -3   4 340.420 103.940   1
  11   3  -4 373.690 81.4000   1
  11  -3  -4 321.590 80.0600   1
  11  -3  -4 213.810 62.7800   1
  -6  -9   7 10028.0 333.170   1
   6  -9  -7 10004.7 322.640   1
  -6  -9   7 10682.7 408.310   1
  -2   6 -10 7224.89 333.030   1
   2  -6  10 6729.07 266.250   1
   2   6  10 7378.70 316.120   1
   3 -11   2 8489.54 323.860   1
   3 -11   2 8495.24 295.710   1
  -3 -11  -2 8797.87 363.280   1
  -3 -11  -2 9142.29 391.180   1
   3 -10  -7 9991.84 325.610   1
  -3 -10   7 10454.9 466.370   1
   3 -10  -7 9926.66 353.730   1
  -3 -10   7 10684.2 364.160   1
   5  -5 -12 4197.64 234.350   1
  -5  -5  12 3965.45 302.730   1
   5   5 -12 4203.12 209.760   1
   5  -5 -12 3627.95 220.790   1
  -3   2 -11 -27.100 55.2700   1
  -3  -2 -11 7.10000 51.3900   1
  -3   2 -11 -1.3000 77.3400   1
  -7  -7  -4 3871.83 236.300   1
  -7  -7  -4 4321.03 310.720   1
  -7   7  -4 3346.56 253.780   1
   7  -7   4 3781.71 224.590   1
   7  -7   4 3475.42 202.890   1
  -9  -6  -1 571.740 109.930   1
  -9  -6  -1 422.000 132.340   1
  -9  -6  -1 530.120 103.320   1
   9  -6   1 615.200 79.2800   1
   9  -6   1 601.460 79.9800   1
  -7  -9   0 15362.1 584.040   1
  -7  -9   0 14903.9 454.270   1
   7  -9   0 15783.8 448.310   1
   7  -9   0 14504.8 430.270   1
  10  -3  -9 22461.0 583.550   1
 -10  -3   9 21952.2 732.720   1
  10  -2   2 11267.9 363.340   1
  10   2   2 11197.4 376.170   1
  10  -2   2 11374.9 344.210   1
 -10  -2  -2 11606.8 442.860   1
  -5  -9   8 8320.95 390.240   1
  -5  -9   8 9600.67 403.070   1
   5  -9  -8 8082.07 270.030   1
   1  -8   9 6242.19 286.840   1
  -1   8  -9 5218.60 237.550   1
  -1  -8  -9 4113.38 219.540   1
  -1  -8  -9 4932.24 275.380   1
  -4 -11   3 1168.71 126.660   1
  -4 -11   3 1666.62 161.140   1
   4 -11  -3 1313.06 120.830   1
   4 -11  -3 1362.83 124.300   1
  -9  -2  11 304.590 105.200   1
   9  -2 -11 546.010 107.280   1
  -8  -8   6 15037.4 471.600   1
  -8  -8   6 14789.4 530.650   1
   8  -8  -6 13509.1 419.640   1
   8  -8  -6 17013.5 624.960   1
  -3   5 -10 86.1500 72.2500   1
   3  -5  10 6.29000 75.8700   1
   3   5  10 -2.2900 72.6200   1
 -10   0  10 37895.1 864.890   1
  -8  -8   0 14787.5 574.560   1
  -8  -8   0 14709.6 586.480   1
  -8  -8   0 14187.3 605.010   1
   8  -8   0 13551.6 480.290   1
   8  -8   0 13719.5 481.480   1
   8  -8   0 13912.8 511.960   1
  -1   3 -12 753.110 110.610   1
  -1  -3 -12 937.630 130.190   1
   2 -11  -5 4549.74 238.790   1
  -2 -11   5 4797.31 298.120   1
  -2 -11   5 4581.96 262.340   1
   2 -11  -5 4739.72 261.520   1
  11  -2  -7 28.8700 73.2000   1
 -11  -2   7 -11.230 62.0400   1
  11  -2  -7 6.14000 75.9200   1
  11   2  -7 -24.930 64.6300   1
 -11  -2   7 46.7500 75.4400   1
  11  -2  -7 33.9500 68.1100   1
   1   2 -13 256.280 78.8400   1
   1  -2 -13 239.850 67.3900   1
   2   3 -13 16242.4 620.280   1
   2  -3 -13 15212.9 545.260   1
   7  -5   6 2287.17 167.620   1
  -7  -5  -6 1982.43 183.160   1
   7   5   6 1961.20 166.300   1
  -7   5  -6 1953.14 157.850   1
   7  -5   6 2303.98 168.760   1
   7   5   6 2125.69 169.840   1
 -10  -5   7 14193.2 647.290   1
 -10  -5   7 16223.4 741.290   1
  10  -5  -7 14562.4 526.300   1
  10  -5  -7 15848.6 541.940   1
  10  -5  -7 14618.5 512.900   1
   2   8 -10 13148.4 552.370   1
  -2  -8  10 11889.6 488.130   1
   2  -8 -10 11172.4 466.070   1
  -6 -10   4 8873.11 402.150   1
   6 -10  -4 9315.17 377.350   1
  -6 -10   4 8855.79 426.840   1
   6 -10  -4 8751.70 392.700   1
   1   5 -12 1298.03 155.330   1
   1  -5 -12 1166.30 120.220   1
  -8  -2  12 33485.2 733.890   1
   8  -2 -12 37155.9 748.460   1
  -9  -7   6 6255.64 373.090   1
  -9  -7   6 5532.70 354.920   1
   9  -7  -6 5277.82 275.140   1
   9  -7  -6 4614.41 286.710   1
  11  -3  -6 1291.25 118.480   1
 -11  -3   6 1392.08 149.760   1
  11   3  -6 1576.13 142.370   1
  11  -3  -6 1333.66 116.040   1
 -11  -3   6 1560.51 198.320   1
  11  -3  -6 1801.53 179.800   1
   3 -10   5 4328.49 218.790   1
  -3  10  -5 4730.32 266.070   1
  -3 -10  -5 4467.03 285.850   1
  -3 -10  -5 4408.33 259.560   1
   1  -7  10 7248.35 350.430   1
  -1  -7 -10 6110.93 301.000   1
  -1   7 -10 6506.50 301.370   1
   8   2   6 17332.7 646.420   1
  -8  -2  -6 14809.7 569.180   1
  -8   2  -6 14617.6 595.570   1
  -8  -2  -6 17182.1 577.800   1
   8  -2   6 16453.8 584.320   1
   8  -2   6 16617.4 581.070   1
  -8  -2  -6 16880.3 675.890   1
  -1   9  -8 7356.19 322.980   1
   1  -9   8 8747.87 374.140   1
  -1  -9  -8 7489.71 357.630   1
  -1  -9  -8 7797.27 353.820   1
 -11  -2   1 1561.28 263.520   1
  11  -2  -1 1469.33 127.130   1
  11  -2  -1 1628.41 161.890   1
  11   2  -1 1551.24 132.410   1
 -11  -2   1 1468.33 141.560   1
   0 -11   5 4647.75 297.090   1
   0 -11   5 4898.67 233.430   1
   0 -11  -5 5030.20 269.670   1
   0 -11  -5 4429.18 235.340   1
   0 -11  -5 4724.43 280.750   1
   9  -3   4 431.380 87.7000   1
   9   3   4 434.350 90.8800   1
   9   3   4 321.310 77.9900   1
  -9  -3  -4 463.520 86.0300   1
  -9  -3  -4 604.460 86.6000   1
   9  -3   4 417.640 70.2400   1
   4  -8 -10 4593.90 236.660   1
  -4  -8  10 5153.60 283.230   1
   4   8 -10 6092.76 295.340   1
  -4  -8  10 5870.55 394.000   1
  11  -3  -2 1162.14 125.320   1
  11  -3  -2 1208.99 129.580   1
  11   3  -2 1092.61 120.940   1
 -11  -3   2 992.030 166.830   1
  11   3  -2 1181.51 123.680   1
 -11  -3   2 956.980 130.880   1
  11  -3  -2 1108.37 116.720   1
   2   7 -11 5450.24 321.830   1
   2  -7 -11 5725.64 336.810   1
  -2   0 -12 18530.2 697.190   1
  -6 -10   0 7170.48 369.880   1
   6 -10   0 6261.08 281.880   1
   6 -10   0 5596.84 265.070   1
  -6 -10   0 6698.49 360.400   1
  -4  -7  11 13236.1 623.220   1
   4  -7 -11 13862.1 555.880   1
   4   7 -11 13341.2 496.380   1
   4 -10   4 3487.42 212.040   1
  -4  10  -4 3423.21 227.190   1
  -4 -10  -4 3742.33 242.540   1
  -4 -10  -4 3551.14 285.920   1
   2 -10   6 1654.28 129.820   1
  -2  10  -6 1487.59 122.750   1
  -2 -10  -6 1516.66 152.970   1
  -2 -10  -6 1278.91 137.600   1
  -7  -9   6 13248.6 505.040   1
  -7  -9   6 13102.3 582.520   1
   7  -9  -6 13407.6 485.050   1
   7  -9  -6 11704.2 463.700   1
  -6  -9  -3 11962.5 562.150   1
   6  -9   3 10017.8 410.940   1
   6  -9   3 12463.6 502.590   1
  -6  -9  -3 10999.2 476.790   1
  -6   9  -3 9913.10 436.840   1
   2  -9  -9 13273.4 523.490   1
  -2  -9   9 12346.2 581.460   1
  -2  -9   9 12590.8 496.940   1
   2   9  -9 13684.4 524.500   1
 -10  -6   4 18985.9 751.900   1
 -10  -6   4 16858.1 786.940   1
  10  -6  -4 16053.9 571.250   1
  10  -6  -4 16020.7 562.240   1
  10  -6  -4 16708.1 603.320   1
 -11  -1   8 392.270 100.590   1
  11  -1  -8 343.440 96.2100   1
 -11   1   8 247.590 125.160   1
 -11  -1   8 285.080 72.3500   1
  11   1  -8 332.050 68.0900   1
   4 -11   1 9843.95 387.500   1
  -4 -11  -1 9586.99 449.630   1
   4 -11   1 9089.86 378.660   1
   4 -11   1 8915.28 370.990   1
  -4 -11  -1 8537.92 379.950   1
  -7  -8  -3 6796.42 417.940   1
  -7  -8  -3 6811.27 351.250   1
   7  -8   3 6956.01 332.720   1
   7  -8   3 7350.77 343.720   1
  -5  -4  -9 583.850 83.0700   1
   5  -4   9 677.310 95.7600   1
  -5  -4  -9 548.980 101.800   1
  -5   4  -9 609.060 106.030   1
   5   4   9 661.200 96.0800   1
   5   4   9 574.630 100.290   1
   5  -4   9 538.700 89.6500   1
   0 -12   0 986.290 123.150   1
   0 -12   0 891.880 108.150   1
   7   0 -13 -9.1000 56.9700   1
   6  -4   8 12604.0 518.900   1
   6  -4   8 13050.6 533.090   1
  -6  -4  -8 10797.4 504.310   1
   6   4   8 11525.5 463.430   1
  -6   4  -8 10755.4 460.430   1
   6   4   8 11286.2 434.100   1
  10  -2 -10 17845.8 628.310   1
 -10  -2  10 15249.1 664.890   1
   0   1 -13 12829.8 486.450   1
   0  -1 -13 13371.2 508.690   1
 -11  -1   0 180.550 93.1100   1
  11  -1   0 64.4500 59.0900   1
 -11  -1   0 76.6600 79.3500   1
  11   1   0 165.210 79.4800   1
 -11   1   0 81.1600 57.6400   1
   1 -12  -1 18883.6 668.980   1
  -1 -12   1 17688.0 589.690   1
   1 -12  -1 17416.9 585.400   1
  -1 -12   1 19472.1 739.590   1
  -9  -7   0 3846.74 280.780   1
  -9  -7   0 3556.05 228.340   1
  -9  -7   0 3505.02 297.500   1
   9  -7   0 3586.74 231.610   1
   9  -7   0 3184.54 210.850   1
   9  -7   0 3375.37 213.200   1
   3   4 -13 6261.16 308.500   1
   3  -4 -13 5756.12 300.210   1
 -10  -6   2 12251.0 688.130   1
 -10  -6   2 10637.0 474.150   1
  10  -6  -2 11060.6 427.920   1
  10  -6  -2 10888.2 434.130   1
  10  -6  -2 10481.2 424.470   1
   6   3 -13 18723.5 670.580   1
   6  -3 -13 20686.5 716.050   1
  -6  -3  13 20370.7 782.580   1
   4  -4  10 16078.6 582.990   1
   4  -4  10 16825.8 602.090   1
  -4  -4 -10 18471.9 648.550   1
  -4   4 -10 18406.1 681.210   1
   4  -9  -9 6755.49 334.180   1
  -4  -9   9 7308.22 438.550   1
  -4  -9   9 6883.00 315.480   1
   4   9  -9 7177.75 346.910   1
  -8  -6  10 9257.54 465.250   1
   8  -6 -10 10594.6 436.830   1
  11   4  -5 5316.64 298.440   1
 -11  -4   5 4109.40 376.420   1
 -11  -4   5 4248.31 305.210   1
  11  -4  -5 5027.35 289.230   1
  11  -4  -5 5048.84 257.720   1
  11  -4  -5 4788.33 291.790   1
   8   6   4 5523.92 292.090   1
  -8  -6  -4 5104.91 280.540   1
  -8  -6  -4 4656.15 292.620   1
   8  -6   4 4547.91 247.680   1
   8  -6   4 4881.89 259.300   1
  -1 -12  -1 15058.5 582.450   1
   1 -12   1 15172.2 556.550   1
  -1 -12  -1 16061.6 672.160   1
   1 -12   1 16182.5 576.920   1
  -9   0  -5 34.3800 66.8500   1
   9   0   5 82.5600 49.9000   1
  -9   0  -5 -1.1600 70.6200   1
  11   4  -3 260.170 73.5000   1
 -11  -4   3 297.470 94.2400   1
  11   4  -3 211.740 75.8300   1
 -11  -4   3 353.710 81.3400   1
  11  -4  -3 126.320 74.3200   1
  11  -4  -3 290.580 75.2300   1
  11  -4  -3 285.750 77.2000   1
  -2  -2 -12 11594.2 519.060   1
  -2   2 -12 9684.72 412.840   1
  -2   2 -12 10791.8 438.130   1
   4   6 -12 13311.9 527.420   1
   4  -6 -12 11417.7 506.610   1
   4  -6 -12 11864.6 482.760   1
  -2  -5 -11 8453.38 367.660   1
   2  -5  11 7551.79 339.860   1
   2   5  11 8822.87 385.080   1
  -2   5 -11 8711.19 420.930   1
  -5 -10  -3 4361.12 287.690   1
  -5 -10  -3 4330.09 286.910   1
   5 -10   3 4691.23 267.230   1
 -10   1  -3 7514.14 401.270   1
 -10  -1  -3 7383.96 359.490   1
  10  -1   3 7670.04 376.380   1
  10   1   3 8216.60 370.590   1
   1  -6  11 2925.91 216.010   1
  -1   6 -11 3034.88 218.400   1
   1   6  11 2751.45 190.440   1
   0 -12   2 3745.00 237.280   1
   0 -12  -2 3899.54 236.360   1
   0 -12  -2 3312.13 208.830   1
   0 -12   2 3203.62 192.970   1
  -1  10  -7 10471.4 423.760   1
   1 -10   7 9039.32 350.350   1
  -1 -10  -7 9379.11 482.410   1
  -1 -10  -7 9800.49 414.310   1
  10  -6  -6 11101.9 421.460   1
  10  -6  -6 12366.9 498.400   1
 -10  -6   6 11714.6 499.090   1
  10  -6  -6 11595.2 482.530   1
 -10  -6   6 10732.5 589.160   1
  -6  -1  -9 6344.43 337.190   1
  -6  -1  -9 5994.91 296.430   1
  -6   1  -9 6765.30 357.300   1
   6  -1   9 5740.12 314.400   1
  -6   1  -9 6091.88 304.070   1
   6  -1   9 5576.71 285.540   1
  -6  -1  -9 5468.42 302.050   1
   6   1   9 6372.07 320.090   1
   7  -4   7 1819.25 157.800   1
  -7  -4  -7 1659.85 180.440   1
   7   4   7 2003.02 189.850   1
  -7   4  -7 1333.35 140.150   1
  -7  -4  -7 2128.45 144.790   1
   7  -4   7 1945.84 176.300   1
   7   4   7 1813.80 175.520   1
  -7  -7  10 6724.84 360.110   1
  -7  -7  10 6469.88 367.650   1
   7  -7 -10 7120.11 331.240   1
  -5 -11   2 12927.5 487.910   1
  -5 -11   2 14090.3 663.790   1
   5 -11  -2 13964.1 533.660   1
   5 -11  -2 12431.0 447.520   1
  -8  -5  11 29170.8 786.440   1
   8   5 -11 25216.9 869.120   1
   8  -5 -11 25539.5 495.060   1
   7  -2 -13 954.270 121.720   1
  -7  -2  13 1339.22 171.980   1
   2  -6 -12 10778.8 469.930   1
   2  -6 -12 12720.6 568.540   1
   2   6 -12 11237.9 432.290   1
   5   4 -13 2604.12 214.240   1
   5  -4 -13 2261.87 207.240   1
  -5  -4  13 2549.25 247.370   1
   5  -4 -13 2310.91 201.020   1
   7   6 -11 3389.16 226.450   1
   7  -6 -11 3749.79 258.340   1
  -7  -6  11 3617.46 271.760   1
  -5   1 -10 937.210 120.740   1
  -5  -1 -10 891.000 112.440   1
   5  -1  10 1063.60 122.970   1
  -5  -1 -10 1144.50 113.780   1
  -5   1 -10 1088.65 105.990   1
   5   1  10 1125.05 117.800   1
   5  -1  10 1043.62 119.180   1
   5   1  10 1011.00 118.160   1
  -8  -7   9 16347.8 703.020   1
  -8  -7   9 15584.0 659.040   1
   8  -7  -9 14813.1 515.960   1
  -8  -5  -5 10433.8 451.590   1
   8  -5   5 11722.5 489.310   1
  -8  -5  -5 12423.3 497.890   1
  -8   5  -5 9752.79 465.600   1
   8  -5   5 11216.2 449.780   1
   8   5   5 11729.3 457.180   1
   8   5   5 12867.4 526.500   1
  -8  -7  -3 10106.9 626.830   1
   8  -7   3 11556.0 462.580   1
  -8  -7  -3 11649.7 496.880   1
  -8  -7  -3 11148.7 532.390   1
   8  -7   3 11974.7 483.840   1
  -4 -11   5 4248.20 227.560   1
  -4 -11   5 5221.01 348.790   1
   4 -11  -5 4792.40 283.380   1
   4 -11  -5 4599.67 257.860   1
  -2 -12   0 2876.15 198.250   1
   2 -12   0 2821.55 176.410   1
  -2 -12   0 3001.47 209.160   1
   2 -12   0 3305.92 230.200   1
  -1 -11   6 20393.2 685.560   1
  -1 -11   6 18635.2 719.900   1
   1 -11  -6 19855.5 694.870   1
   1 -11  -6 18529.8 707.630   1
  -2 -10   8 4389.91 261.370   1
   2  10  -8 4481.38 259.260   1
   2 -10  -8 3581.34 227.740   1
  -2 -10   8 3920.78 303.640   1
  -9  -5  10 3438.41 274.790   1
   9  -5 -10 3534.79 233.910   1
  -5 -10   7 17836.0 640.570   1
  -5 -10   7 19122.7 765.220   1
   5 -10  -7 17227.3 587.380   1
   0  -8  10 3467.01 234.380   1
   0   8 -10 3649.22 235.570   1
   0  -8 -10 3510.28 220.030   1
  -8  -9   3 4052.89 293.330   1
  -8  -9   3 4209.13 316.710   1
   8  -9  -3 3260.38 205.960   1
   8  -9  -3 3392.13 211.400   1
  -2 -12   2 4643.46 283.500   1
   2 -12  -2 4761.21 260.960   1
   2 -12  -2 5478.51 315.040   1
  -2 -12   2 5356.05 283.610   1
   2 -12  -2 5001.43 267.950   1
  -9  -6   9 2938.24 226.820   1
  -9  -6   9 2865.19 285.280   1
   9  -6  -9 2528.80 169.670   1
 -11   0   9 24.8100 74.7400   1
   7   1   8 83.9300 70.4700   1
  -7  -1  -8 26.4800 57.6200   1
   7  -1   8 32.6700 55.0900   1
  -7  -1  -8 102.830 49.6300   1
  -7   1  -8 58.7600 79.6600   1
  -7  -1  -8 46.0700 87.3800   1
   7  -1   8 66.9100 61.4000   1
   0  -9   9 8836.20 381.530   1
   0   9  -9 7665.30 337.340   1
   0  -9  -9 8259.28 388.290   1
   4   0 -14 7033.29 335.580   1
  -6 -10   6 8130.57 473.280   1
  -6 -10   6 6505.82 332.630   1
   6 -10  -6 7394.58 344.220   1
   6 -10  -6 6049.49 294.810   1
  -5 -11   0 8753.43 417.770   1
   5 -11   0 8069.33 376.240   1
  -5 -11   0 7764.39 394.540   1
   5 -11   0 7671.71 331.750   1
   9  -2   5 1993.57 148.540   1
  -9  -2  -5 1702.49 162.970   1
   9  -2   5 1898.72 139.660   1
   9   2   5 2075.19 154.930   1
  -9  -2  -5 1944.81 174.620   1
  -9  -2  -5 1909.34 145.770   1
  -3 -11   6 12796.2 407.710   1
  -3 -11   6 12094.1 436.070   1
   3 -11  -6 11549.5 360.170   1
   3 -11  -6 12353.1 409.860   1
   1 -12  -3 16638.2 446.410   1
   1 -12  -3 15885.8 453.320   1
  -1 -12   3 14547.0 468.240   1
  -1 -12   3 16882.9 461.680   1
  -9  -8   3 19225.4 560.570   1
  -9  -8   3 18979.5 590.040   1
   9  -8  -3 19685.5 504.510   1
   9  -8  -3 19589.6 488.780   1
   9  -8  -3 17722.7 417.690   1
   9  -1 -12 1664.49 158.820   1
  -9  -1  12 1540.98 210.330   1
  -7  -8   9 24716.2 656.700   1
  -7  -8   9 28180.7 688.170   1
   7  -8  -9 30108.0 598.420   1
  -3  -4 -11 3599.69 244.740   1
  -3   4 -11 3413.64 213.570   1
  11   3  -8 2246.22 171.310   1
 -11  -3   8 2518.08 257.150   1
  11  -3  -8 2812.21 180.180   1
 -11  -3   8 2195.54 199.360   1
  -4  -1 -11 6704.01 267.510   1
  -4   1 -11 6031.18 240.100   1
  -4   1 -11 7151.76 337.220   1
 -10  -4  -2 9657.26 390.060   1
  10  -4   2 9297.50 285.940   1
  10  -4   2 9353.80 289.250   1
  10   4   2 10288.0 425.200   1
  10   4   2 12054.3 356.060   1
 -10  -5  -1 10703.0 548.250   1
  10  -5   1 11646.7 396.980   1
  10   5   1 11536.1 346.390   1
  10   5   1 11199.4 386.320   1
 -10  -5  -1 11206.4 386.180   1
  10  -5   1 12271.5 378.430   1
  -5 -11   4 13543.4 375.440   1
  -5 -11   4 14071.8 492.190   1
   5 -11  -4 11278.2 316.090   1
   5 -11  -4 13238.8 375.940   1
   3   1 -14 1534.05 139.660   1
   3  -1 -14 1330.18 160.870   1
  -7  -9  -2 9800.92 424.110   1
  -7  -9  -2 10116.0 402.500   1
   7  -9   2 9435.04 371.740   1
   7  -9   2 9976.02 316.670   1
   0  -7  11 10443.7 371.250   1
   0   7 -11 12650.0 370.310   1
   0   7  11 11102.3 413.860   1
   9  -4 -11 2461.77 154.010   1
  -9  -4  11 2463.91 245.710   1
  -7  -5  12 4101.94 290.110   1
   7   5 -12 4305.81 261.300   1
   7  -5 -12 4023.19 218.980   1
 -11   0  -1 -92.220 89.0600   1
  11   0   1 -34.600 65.2400   1
  -7 -10   3 12448.8 374.650   1
   7 -10  -3 11062.2 351.340   1
   7 -10  -3 11916.6 393.290   1
  -7 -10   3 10974.6 412.410   1
  11   4  -7 2608.27 204.860   1
 -11  -4   7 2459.58 214.500   1
 -11  -4   7 2218.98 229.230   1
  11  -4  -7 2577.79 175.060   1
  11  -4  -7 2265.41 167.320   1
  11  -4  -7 2305.52 178.220   1
  -6  -7  11 2699.43 218.590   1
   6   7 -11 2856.19 191.000   1
   6  -7 -11 2470.99 165.980   1
 -10  -1  11 14039.5 511.330   1
  10  -1 -11 12836.5 383.590   1
   1  -4 -13 3491.52 193.670   1
   1   4 -13 3776.07 215.830   1
   5  -1 -14 -6.2500 62.1200   1
   5   1 -14 -12.170 66.4500   1
   5  -1 -14 34.8500 60.6200   1
   5   1 -14 6.99000 79.7600   1
  -8  -9   5 12414.5 374.530   1
  -8  -9   5 11291.2 422.250   1
   8  -9  -5 11139.6 413.930   1
   8  -9  -5 11935.3 357.820   1
   0   3 -13 5497.97 262.400   1
   0  -3 -13 5194.08 241.140   1
  -9  -8   5 5063.56 341.670   1
  -9  -8   5 5217.60 252.980   1
   9  -8  -5 5352.96 236.340   1
   9  -8  -5 4880.64 241.720   1
  -8  -9   1 4429.67 237.580   1
  -8  -9   1 4724.53 310.770   1
   8  -9  -1 4331.51 220.890   1
   8  -9  -1 4505.64 223.420   1
   3 -11   4 9168.57 386.240   1
   3 -11   4 10685.9 312.370   1
  -3 -11  -4 10492.1 389.300   1
  -3 -11  -4 11156.4 402.320   1
  -4 -10   8 5367.87 287.730   1
   4 -10  -8 5627.23 256.020   1
  -4 -10   8 5433.25 380.930   1
 -11  -3   0 201.040 120.820   1
  11  -3   0 228.660 64.3900   1
  11   3   0 387.490 83.7000   1
  11   3   0 297.430 66.1700   1
 -11  -3   0 290.760 75.2400   1
  11  -3   0 301.570 78.3100   1
  -8  -4  12 10774.2 451.160   1
   8  -4 -12 10638.5 345.530   1
   2 -11   5 2438.05 183.920   1
   2 -11   5 2873.01 156.280   1
  -2 -11  -5 3049.47 205.660   1
  -2 -11  -5 2839.03 205.710   1
  -1   0 -13 -31.210 47.6600   1
  -6  -8  10 15074.2 573.470   1
  -6  -8  10 15800.5 531.410   1
   6  -8 -10 16228.5 416.220   1
  -3 -12   1 7251.49 298.640   1
   3 -12  -1 6030.54 250.480   1
  -3 -12   1 6421.56 275.580   1
   3 -12  -1 6240.42 277.480   1
   3 -12  -1 6387.95 255.160   1
  -8  -8   8 1110.96 167.440   1
  -8  -8   8 1199.23 177.330   1
   8  -8  -8 1200.15 130.290   1
 -11  -2   9 408.280 110.860   1
  11  -2  -9 467.440 90.5800   1
   2   0 -14 12406.7 405.480   1
   8  -4   6 7651.57 284.870   1
   8   4   6 8063.29 291.850   1
   8   4   6 7236.57 275.740   1
   8  -4   6 8043.47 278.820   1
  -8  -4  -6 8956.81 334.130   1
  -8  -4  -6 7805.81 347.300   1
  -8   4  -6 6292.33 286.170   1
  -9  -7   8 8241.62 390.690   1
  -9  -7   8 9136.53 366.670   1
   9  -7  -8 9583.89 320.870   1
  -8  -8  -2 3485.20 250.930   1
  -8  -8  -2 3885.06 233.620   1
  -8  -8  -2 3699.12 223.330   1
   8  -8   2 3531.15 200.440   1
   8  -8   2 3551.15 232.510   1
  -6 -10  -2 5603.11 274.540   1
  -6 -10  -2 6494.63 391.560   1
   6 -10   2 5076.52 234.870   1
   6 -10   2 4567.09 202.750   1
 -11  -4   1 775.410 181.540   1
  11  -4  -1 1049.32 116.520   1
 -11  -4   1 1105.20 128.560   1
  11   4  -1 873.050 112.670   1
  11   4  -1 1083.02 107.260   1
  11  -4  -1 968.340 100.690   1
   4  -2 -14 7674.18 311.210   1
   4   2 -14 7580.98 360.870   1
   0 -10   8 1961.62 142.640   1
   0  10  -8 2249.46 191.250   1
   0 -10  -8 1990.28 159.830   1
   0 -10  -8 2199.07 158.940   1
  -8  -1  13 34851.6 735.000   1
   8  -1 -13 43404.7 859.290   1
  12   0  -4 46912.1 846.580   1
 -12   0   4 45981.1 926.090   1
  12   0  -4 46024.8 855.460   1
 -12   0   4 41258.8 1034.46   1
   4   5 -13 7633.84 277.580   1
   4  -5 -13 7186.36 282.770   1
   4  -5 -13 7121.00 285.480   1
 -11  -5   4 4424.32 316.170   1
 -11  -5   4 4721.01 282.760   1
  11  -5  -4 4323.27 231.920   1
  11  -5  -4 4767.54 270.000   1
  11  -5  -4 4750.71 238.180   1
  11   5  -4 4781.51 218.480   1
  -2 -12  -2 1093.06 122.650   1
   2 -12   2 1289.84 144.280   1
  -2 -12  -2 1404.53 149.150   1
   2 -12   2 1510.83 153.850   1
   1 -12   3 9332.69 448.000   1
   1 -12   3 8550.41 261.750   1
  -1 -12  -3 9912.54 443.770   1
  -1 -12  -3 9586.06 359.290   1
  -7 -10   1 11944.3 477.770   1
  -7 -10   1 13238.2 509.430   1
   7 -10  -1 12442.5 387.290   1
   7 -10  -1 10867.1 359.640   1
   8  -1   7 10828.0 351.400   1
  -8  -1  -7 10147.5 375.170   1
  -8   1  -7 9575.04 389.680   1
   8  -1   7 11496.2 376.990   1
   8   1   7 11090.5 382.590   1
  -8  -1  -7 9909.92 398.600   1
  -8  -1  -7 12461.3 368.430   1
  10  -3   3 9499.32 291.310   1
 -10  -3  -3 8799.80 398.920   1
  10   3   3 7974.31 334.060   1
  10   3   3 8757.60 302.650   1
  10  -3   3 8603.42 295.770   1
  10   6   0 4278.69 175.070   1
 -10  -6   0 4841.91 367.110   1
 -10  -6   0 4859.45 249.820   1
  10  -6   0 5022.58 241.760   1
  10  -6   0 4928.16 262.160   1
   6   6 -12 12439.3 346.460   1
  -6  -6  12 14001.2 545.010   1
   6  -6 -12 11768.8 376.020   1
  -4 -11  -3 2437.74 210.050   1
  -4 -11  -3 2172.20 169.750   1
   4 -11   3 2123.08 182.610   1
   4 -11   3 2102.98 134.740   1
 -10  -5   9 2446.25 227.320   1
 -10  -5   9 2294.26 199.450   1
  10  -5  -9 2511.02 169.980   1
  12  -1  -5 8829.08 325.020   1
  12   1  -5 8705.44 338.600   1
  12  -1  -5 8602.00 324.260   1
 -12  -1   5 7961.44 441.750   1
 -12   1   5 7948.21 384.940   1
 -12  -1   5 8271.61 412.610   1
 -12   1   5 8113.72 364.350   1
  -6   3  -9 7566.22 344.570   1
  -6  -3  -9 7042.91 227.440   1
   6  -3   9 8360.65 326.610   1
  -6  -3  -9 7652.46 332.200   1
   6   3   9 8209.88 366.430   1
   6  -3   9 7541.00 329.840   1
  -6  -3  -9 8164.58 304.310   1
  -9  -8   1 14768.4 580.310   1
  -9  -8   1 17669.1 501.790   1
   9  -8  -1 13807.5 393.970   1
   9  -8  -1 14728.3 432.140   1
   9  -8  -1 14950.3 378.870   1
   6   0 -14 54348.9 881.870   1
   6   0 -14 57978.8 974.170   1
   5  -3  10 1323.61 152.720   1
   5  -3  10 1378.67 121.380   1
  -5  -3 -10 1730.53 166.930   1
  -5   3 -10 1168.72 125.850   1
  12   0  -6 13924.0 448.230   1
  12   0  -6 14993.0 396.820   1
 -12   0   6 13904.4 537.400   1
 -12   0   6 14893.3 515.660   1
  11   2   1 289.300 63.4600   1
 -11  -2  -1 206.740 63.2300   1
  11  -2   1 219.440 74.0700   1
  11  -2   1 240.310 63.0700   1
  10  -4 -10 20551.9 450.100   1
 -10  -4  10 19153.6 559.960   1
  -1   5 -12 3714.98 229.840   1
  -1  -5 -12 3217.16 247.490   1
   3 -12  -3 12891.0 407.400   1
   3 -12  -3 12776.8 354.190   1
  -3 -12   3 12211.5 472.780   1
  -3 -12   3 11824.2 343.390   1
   3   8 -11 7919.82 281.090   1
   3  -8 -11 8716.38 364.130   1
 -10  -7   3 15993.1 492.340   1
 -10  -7   3 13937.3 613.250   1
  10  -7  -3 14350.0 388.160   1
  10  -7  -3 15046.3 505.560   1
  10  -7  -3 14029.6 407.610   1
  -1 -11  -6 8811.78 361.450   1
   1 -11   6 9814.38 305.470   1
  -1 -11  -6 9859.52 415.830   1
   2   5 -13 5900.74 242.410   1
   2  -5 -13 5963.70 286.410   1
   2 -12  -4 4300.59 255.000   1
   2 -12  -4 3753.95 195.050   1
  -2 -12   4 4392.18 249.780   1
  -2 -12   4 4583.05 284.880   1
  -7 -10   5 8079.32 421.440   1
  -7 -10   5 7122.20 337.930   1
   7 -10  -5 6743.76 250.900   1
   7 -10  -5 6197.75 248.390   1
 -12   1   3 3033.05 270.730   1
  12   1  -3 2512.20 160.660   1
  12  -1  -3 3274.74 238.710   1
  12  -1  -3 2937.53 225.070   1
 -12  -1   3 2501.91 307.460   1
 -12   1   3 2357.83 231.490   1
 -12  -1   3 2410.75 182.390   1
 -10  -7   5 9338.50 558.260   1
 -10  -7   5 7839.46 326.790   1
  10  -7  -5 7588.08 340.870   1
  10  -7  -5 8116.23 384.710   1
  10  -7  -5 8334.03 299.300   1
  -3 -12  -1 7066.82 341.360   1
   3 -12   1 6718.82 268.140   1
  -3 -12  -1 6301.98 303.390   1
   3 -12   1 6300.06 315.810   1
  -1  -2 -13 1964.26 185.170   1
  -1   2 -13 1737.49 141.030   1
  -3   1 -12 269.220 71.3900   1
  -3  -1 -12 314.110 75.5000   1
  -3   1 -12 249.520 99.4800   1
   0 -12  -4 764.350 119.570   1
   0 -12  -4 830.900 112.780   1
   0 -12   4 756.580 104.370   1
   0 -12   4 844.540 118.080   1
  -9  -6  -3 839.570 111.740   1
   9   6   3 1316.00 126.030   1
  -9  -6  -3 855.800 112.800   1
   9  -6   3 912.690 96.6700   1
   9  -6   3 822.170 100.520   1
  11   5  -6 1944.51 154.750   1
 -11  -5   6 1534.49 192.670   1
 -11  -5   6 1764.57 199.580   1
  11  -5  -6 1526.97 154.670   1
  11  -5  -6 1959.24 163.420   1
  11  -5  -6 2002.31 156.710   1
   3   9 -10 10905.2 348.070   1
  -3  -9  10 10054.5 406.780   1
   3  -9 -10 9784.34 371.840   1
   2   2 -14 19075.7 494.740   1
   2  -2 -14 17877.8 445.400   1
  -7   3  -8 563.020 97.9200   1
   7   3   8 793.990 96.3300   1
  -7  -3  -8 586.610 113.430   1
   7  -3   8 877.350 99.4300   1
  -7  -3  -8 644.800 81.4600   1
   7  -3   8 632.930 90.8900   1
  -7  -3  -8 600.410 83.6900   1
  -7  -9   8 3551.02 257.900   1
  -7  -9   8 4033.76 245.840   1
   7  -9  -8 4078.78 211.860   1
  -5  -8  -7 4014.96 283.170   1
  -5   8  -7 4035.17 228.560   1
   5  -8   7 4684.57 224.200   1
  -4  -8  -8 7107.60 367.380   1
   4  -8   8 7655.10 274.760   1
  -4   8  -8 8137.13 335.950   1
  -6  -9   9 925.200 141.660   1
  -6  -9   9 953.430 119.470   1
   6  -9  -9 837.160 114.920   1
  -9  -5  -4 2930.27 234.550   1
   9   5   4 3200.85 204.440   1
   9   5   4 3299.11 204.750   1
  -9  -5  -4 3078.51 185.800   1
   9  -5   4 2715.47 171.160   1
   9  -5   4 2932.03 170.920   1
 -10  -6   8 16508.5 527.250   1
 -10  -6   8 14848.9 567.160   1
  10  -6  -8 16271.3 393.290   1
  -2 -11   7 846.240 105.030   1
  -2 -11   7 548.520 120.190   1
 -12  -2   4 10573.5 422.380   1
 -12  -2   4 11113.3 609.810   1
  12  -2  -4 12724.9 401.240   1
 -10   0  -4 10745.2 394.710   1
  11  -5  -2 3636.09 214.060   1
 -11  -5   2 3248.40 210.520   1
 -11  -5   2 3175.28 284.800   1
  -9  -3  12 1922.84 175.560   1
;
_shelx_hkl_checksum              38733
_olex2_exptl_crystal_mounting_method Grease
_olex2_submission_special_instructions 'No special instructions were received'
loop_
_space_group_symop_operation_xyz
'x, y, z'
'-x+1/2, y, -z'
'x+1/2, y+1/2, z+1/2'
'-x+1, y+1/2, -z+1/2'
'-x, -y, -z'
'x-1/2, -y, z'
'-x+1/2, -y+1/2, -z+1/2'
'x, -y+1/2, z+1/2'
loop_
_atom_site_label
_atom_site_type_symbol
_atom_site_fract_x
_atom_site_fract_y
_atom_site_fract_z
_atom_site_U_iso_or_equiv
_atom_site_adp_type
_atom_site_occupancy
_atom_site_site_symmetry_order
_atom_site_calc_flag
_atom_site_refinement_flags_posn
_atom_site_refinement_flags_adp
_atom_site_refinement_flags_occupancy
_atom_site_disorder_assembly
_atom_site_disorder_group
C1 C 0.3905(2) 0.1059(2) 0.20266(19) 0.0242(4) Uani 1 1 d . . . . .
C2 C 0.4493(2) 0.0519(2) 0.0994(2) 0.0227(4) Uani 1 1 d . . . . .
C3 C 0.5155(2) 0.1367(2) 0.0315(2) 0.0246(4) Uani 1 1 d . . . . .
C4 C 0.5638(2) 0.0870(2) -0.0657(2) 0.0238(4) Uani 1 1 d . . . . .
O1 O 0.30265(19) 0.20984(19) 0.16828(15) 0.0332(4) Uani 1 1 d . . . . .
O2 O 0.0721(2) 0.4506(2) 0.19406(17) 0.0380(4) Uani 1 1 d . . . . .
F1 F 0.53573(17) 0.27093(14) 0.06136(14) 0.0357(3) Uani 1 1 d . . . . .
F2 F 0.36987(16) 0.82434(14) 0.12436(14) 0.0336(3) Uani 1 1 d . . . . .
Cs1 Cs 0.2500 0.48440(2) 0.0000 0.03034(10) Uani 1 2 d S T P . .
loop_
_atom_site_aniso_label
_atom_site_aniso_U_11
_atom_site_aniso_U_22
_atom_site_aniso_U_33
_atom_site_aniso_U_23
_atom_site_aniso_U_13
_atom_site_aniso_U_12
C1 0.0285(8) 0.0247(10) 0.0232(9) -0.0020(8) 0.0137(7) 0.0024(8)
C2 0.0259(9) 0.0219(9) 0.0230(9) -0.0011(8) 0.0116(7) 0.0054(8)
C3 0.0301(9) 0.0192(8) 0.0281(9) -0.0034(8) 0.0142(7) 0.0020(7)
C4 0.0278(9) 0.0210(9) 0.0275(10) 0.0015(8) 0.0158(7) 0.0017(7)
O1 0.0432(8) 0.0348(9) 0.0284(8) 0.0028(7) 0.0208(7) 0.0171(7)
O2 0.0525(10) 0.0401(10) 0.0273(8) 0.0062(8) 0.0211(8) 0.0149(9)
F1 0.0520(8) 0.0190(6) 0.0462(8) -0.0067(6) 0.0299(7) -0.0022(6)
F2 0.0460(7) 0.0261(7) 0.0393(7) 0.0028(6) 0.0285(6) -0.0026(6)
Cs1 0.03369(14) 0.02893(14) 0.03218(15) 0.000 0.01583(10) 0.000
loop_
_atom_type_symbol
_atom_type_description
_atom_type_scat_dispersion_real
_atom_type_scat_dispersion_imag
_atom_type_scat_source
C C 0.0033 0.0016 'International Tables Vol C Tables 4.2.6.8 and 6.1.1.4'
Cs Cs -0.3680 2.1192 'International Tables Vol C Tables 4.2.6.8 and 6.1.1.4'
F F 0.0171 0.0103 'International Tables Vol C Tables 4.2.6.8 and 6.1.1.4'
O O 0.0106 0.0060 'International Tables Vol C Tables 4.2.6.8 and 6.1.1.4'
loop_
_geom_angle_atom_site_label_1
_geom_angle_atom_site_label_2
_geom_angle_atom_site_label_3
_geom_angle
_geom_angle_site_symmetry_1
_geom_angle_site_symmetry_3
O1 C1 C2 113.67(18) . .
O2 C1 C2 119.42(19) 7 .
O2 C1 O1 126.9(2) 7 .
C3 C2 C1 122.6(2) . .
C3 C2 C4 116.38(18) . 5_655
C4 C2 C1 121.03(19) 5_655 .
C4 C3 C2 122.0(2) . .
F1 C3 C2 119.63(19) . .
F1 C3 C4 118.38(19) . .
C3 C4 C2 121.62(19) . 5_655
F2 C4 C2 120.24(18) 5_665 5_655
F2 C4 C3 118.09(19) 5_665 .
C1 O1 Cs1 142.61(14) . .
C1 O2 Cs1 129.60(15) 7 .
C1 O2 Cs1 131.08(16) 7 5_565
Cs1 O2 Cs1 96.50(5) . 5_565
C3 F1 Cs1 121.30(12) . .
C3 F1 Cs1 133.73(12) . 5_665
Cs1 F1 Cs1 90.75(3) . 5_665
C4 F2 Cs1 122.33(12) 5_665 .
O1 Cs1 O1 67.25(6) . 2
O1 Cs1 F1 136.44(4) . 5_665
O1 Cs1 F1 117.87(4) . 6_565
O1 Cs1 F1 63.86(4) 2 .
O1 Cs1 F1 63.86(4) . 2
O1 Cs1 F1 52.35(4) 2 2
O1 Cs1 F1 117.87(4) 2 5_665
O1 Cs1 F1 136.44(4) 2 6_565
O1 Cs1 F1 52.35(4) . .
O1 Cs1 F2 162.58(4) 2 .
O1 Cs1 F2 162.58(4) . 2
O1 Cs1 F2 124.48(4) . .
O1 Cs1 F2 124.48(4) 2 2
O2 Cs1 O1 80.37(5) 5_565 2
O2 Cs1 O1 107.26(5) . 2
O2 Cs1 O1 61.90(5) . .
O2 Cs1 O1 119.96(5) 5_565 .
O2 Cs1 O1 61.90(5) 2 2
O2 Cs1 O1 107.26(5) 2 .
O2 Cs1 O1 119.96(5) 6_665 2
O2 Cs1 O1 80.37(5) 6_665 .
O2 Cs1 O2 156.99(8) 6_665 5_565
O2 Cs1 O2 98.92(5) 2 5_565
O2 Cs1 O2 167.98(8) . 2
O2 Cs1 O2 98.92(5) . 6_665
O2 Cs1 O2 83.50(5) 2 6_665
O2 Cs1 O2 83.50(5) . 5_565
O2 Cs1 F1 59.89(5) . 2
O2 Cs1 F1 56.24(4) . 6_565
O2 Cs1 F1 59.19(4) 5_565 6_565
O2 Cs1 F1 59.19(4) 6_665 5_665
O2 Cs1 F1 134.88(5) 2 6_565
O2 Cs1 F1 143.72(5) 5_565 .
O2 Cs1 F1 103.10(5) 6_665 6_565
O2 Cs1 F1 111.68(4) . .
O2 Cs1 F1 56.34(5) 6_665 .
O2 Cs1 F1 134.88(5) . 5_665
O2 Cs1 F1 111.68(4) 2 2
O2 Cs1 F1 56.24(4) 2 5_665
O2 Cs1 F1 143.72(5) 6_665 2
O2 Cs1 F1 103.10(5) 5_565 5_665
O2 Cs1 F1 56.34(5) 5_565 2
O2 Cs1 F1 59.89(5) 2 .
O2 Cs1 F2 90.13(5) . .
O2 Cs1 F2 100.90(4) . 2
O2 Cs1 F2 56.29(5) 5_565 2
O2 Cs1 F2 100.90(4) 2 .
O2 Cs1 F2 101.01(5) 6_665 2
O2 Cs1 F2 56.29(5) 6_665 .
O2 Cs1 F2 101.01(5) 5_565 .
O2 Cs1 F2 90.13(5) 2 2
F1 Cs1 F1 89.25(4) 2 6_565
F1 Cs1 F1 101.70(5) 2 .
F1 Cs1 F1 156.47(5) 2 5_665
F1 Cs1 F1 156.47(5) . 6_565
F1 Cs1 F1 88.59(5) 5_665 6_565
F1 Cs1 F1 89.25(3) . 5_665
F1 Cs1 F2 44.76(3) 6_565 2
F1 Cs1 F2 142.14(3) . 2
F1 Cs1 F2 111.29(3) 2 2
F1 Cs1 F2 142.14(3) 2 .
F1 Cs1 F2 111.29(3) . .
F1 Cs1 F2 53.37(3) 5_665 2
F1 Cs1 F2 44.76(3) 5_665 .
F1 Cs1 F2 53.37(3) 6_565 .
F2 Cs1 F2 48.20(5) . 2
loop_
_geom_bond_atom_site_label_1
_geom_bond_atom_site_label_2
_geom_bond_distance
_geom_bond_site_symmetry_2
C1 C2 1.512(3) .
C1 O1 1.279(3) .
C1 O2 1.215(3) 7
C2 C3 1.386(3) .
C2 C4 1.392(3) 5_655
C3 C4 1.380(3) .
C3 F1 1.341(2) .
C4 C2 1.392(3) 5_655
C4 F2 1.343(2) 5_665
O1 Cs1 3.1956(17) .
O2 C1 1.215(3) 7
O2 Cs1 3.1270(18) .
O2 Cs1 3.1591(19) 5_565
F1 Cs1 3.2769(14) .
F1 Cs1 3.3129(14) 5_665
F2 C4 1.343(2) 5_665
F2 Cs1 3.6092(14) .
Cs1 O1 3.1956(17) 2
Cs1 O2 3.1271(18) 2
Cs1 O2 3.1591(19) 5_565
Cs1 O2 3.1591(19) 6_665
Cs1 F1 3.2769(14) 2
Cs1 F1 3.3129(14) 6_565
Cs1 F1 3.3129(14) 5_665
Cs1 F2 3.6092(14) 2
loop_
_geom_torsion_atom_site_label_1
_geom_torsion_atom_site_label_2
_geom_torsion_atom_site_label_3
_geom_torsion_atom_site_label_4
_geom_torsion
_geom_torsion_site_symmetry_1
_geom_torsion_site_symmetry_2
_geom_torsion_site_symmetry_3
_geom_torsion_site_symmetry_4
C1 C2 C3 C4 -177.6(2) . . . .
C1 C2 C3 F1 3.3(3) . . . .
C2 C1 O1 Cs1 -36.6(3) . . . .
C2 C3 C4 C2 -1.1(3) . . . 5_655
C2 C3 C4 F2 -178.4(2) . . . 5_665
C2 C3 F1 Cs1 162.31(14) . . . 5_665
C2 C3 F1 Cs1 -70.6(2) . . . .
C4 C2 C3 C4 1.1(3) 5_655 . . .
C4 C2 C3 F1 -178.06(18) 5_655 . . .
C4 C3 F1 Cs1 -16.8(3) . . . 5_665
C4 C3 F1 Cs1 110.24(18) . . . .
O1 C1 C2 C3 50.7(3) . . . .
O1 C1 C2 C4 -127.9(2) . . . 5_655
O2 C1 C2 C3 -129.7(2) 7 . . .
O2 C1 C2 C4 51.7(3) 7 . . 5_655
O2 C1 O1 Cs1 143.8(2) 7 . . .
F1 C3 C4 C2 178.02(19) . . . 5_655
F1 C3 C4 F2 0.7(3) . . . 5_665
