#------------------------------------------------------------------------------
#$Date: 2015-07-16 18:05:34 +0300 (Thu, 16 Jul 2015) $
#$Revision: 152130 $
#$URL: svn://www.crystallography.net/cod/cif/7/11/75/7117545.cif $
#------------------------------------------------------------------------------
#
# This file is available in the Crystallography Open Database (COD),
# http://www.crystallography.net/
#
# All data on this site have been placed in the public domain by the
# contributors.
#
data_7117545
loop_
_publ_author_name
'L. H. Blair'
'A. Colakel'
'R. M. Vrcelj'
'I. Sinclair'
'S. J. Coles'
_publ_section_title
;
 Metal-organic fireworks: MOFs as integrated structural scaffolds for
 pyrotechnic materials
;
_journal_name_full               Chem.Commun.
_journal_page_first              12185
_journal_paper_doi               10.1039/C5cc04174K
_journal_volume                  51
_journal_year                    2015
_chemical_formula_moiety         'C32 H8 F16 O20 Sr3, 2(C5 H6 N)'
_chemical_formula_sum            'C42 H20 F16 N2 O20 Sr3'
_chemical_formula_weight         1439.46
_chemical_name_systematic
;
 ?
;
_space_group_crystal_system      monoclinic
_space_group_IT_number           5
_space_group_name_Hall           'C 2y'
_space_group_name_H-M_alt        'C 1 2 1'
_symmetry_space_group_name_Hall  'C 2y'
_symmetry_space_group_name_H-M   'C 1 2 1'
_atom_sites_solution_hydrogens   mixed
_atom_sites_solution_primary     iterative
_audit_creation_date             2015-01-30
_audit_creation_method
;
Olex2 1.2
(compiled 2015.01.26 svn.r3150 for OlexSys, GUI svn.r4998)
;
_audit_update_record
;
2015-01-30 deposited with the CCDC.
2015-06-23 downloaded from the CCDC.
;
_cell_angle_alpha                90
_cell_angle_beta                 97.569(7)
_cell_angle_gamma                90
_cell_formula_units_Z            2
_cell_length_a                   32.076(3)
_cell_length_b                   6.1638(3)
_cell_length_c                   11.5618(7)
_cell_measurement_temperature    100(2)
_cell_measurement_theta_max      27.5
_cell_measurement_theta_min      2.6
_cell_volume                     2266.0(3)
_computing_cell_refinement
;
CrysAlisPro, Agilent Technologies,
Version 1.171.37.35 (release 13-08-2014 CrysAlis171 .NET)
(compiled Aug 13 2014,18:06:01)
;
_computing_data_collection
'CrystalClear-SM Expert 3.1 b27 (Rigaku, 2013)'
_computing_data_reduction
;
CrysAlisPro, Agilent Technologies,
Version 1.171.37.35 (release 13-08-2014 CrysAlis171 .NET)
(compiled Aug 13 2014,18:06:01)
;
_computing_molecular_graphics    'Olex2 (Dolomanov et al., 2009)'
_computing_publication_material  'Olex2 (Dolomanov et al., 2009)'
_computing_structure_refinement  'ShelXL (Sheldrick, 2008)'
_computing_structure_solution
;
Superflip (Palatinus & Chapuis, 2007;Palatinus & van der Lee, 2008;
Palatinus et al., 2012)
;
_diffrn_ambient_temperature      100(2)
_diffrn_detector                 'CCD area detector'
_diffrn_detector_area_resol_mean 28.5714
_diffrn_detector_type            'Rigaku HG Saturn724+ (2x2 bin mode)'
_diffrn_measured_fraction_theta_full 0.999
_diffrn_measured_fraction_theta_max 0.995
_diffrn_measurement_details
;
scan:
    Number of images: 109
               Slice: -87.0000 - 22.0000
         Image width: 1.0000
            Exp time: 10.0000
       Rotation axis: Omega
               Omega: 0.0000
               Kappa: -72.0000
                 Phi: 0.0000
                 XTD: 44.9220
              2theta: -17.2093
scan:
    Number of images: 95
               Slice: -22.0000 - 73.0000
         Image width: 1.0000
            Exp time: 10.0000
       Rotation axis: Omega
               Omega: 0.0000
               Kappa: 54.0000
                 Phi: 120.0000
                 XTD: 44.9220
              2theta: -17.2093
scan:
    Number of images: 86
               Slice: -64.0000 - 22.0000
         Image width: 1.0000
            Exp time: 10.0000
       Rotation axis: Omega
               Omega: 0.0000
               Kappa: -72.0000
                 Phi: -180.0000
                 XTD: 44.9220
              2theta: -17.2093
scan:
    Number of images: 76
               Slice: -52.0000 - 24.0000
         Image width: 1.0000
            Exp time: 10.0000
       Rotation axis: Omega
               Omega: 0.0000
               Kappa: 0.0000
                 Phi: 150.0000
                 XTD: 44.9220
              2theta: -17.2093
scan:
    Number of images: 15
               Slice: 3.0000 - 18.0000
         Image width: 1.0000
            Exp time: 10.0000
       Rotation axis: Omega
               Omega: 0.0000
               Kappa: -54.0000
                 Phi: -180.0000
                 XTD: 44.9220
              2theta: -17.2093
scan:
    Number of images: 149
               Slice: -92.0000 - 57.0000
         Image width: 1.0000
            Exp time: 10.0000
       Rotation axis: Omega
               Omega: 0.0000
               Kappa: 0.0000
                 Phi: -30.0000
                 XTD: 44.9220
              2theta: -17.2093
scan:
    Number of images: 31
               Slice: -98.0000 - -67.0000
         Image width: 1.0000
            Exp time: 10.0000
       Rotation axis: Omega
               Omega: 0.0000
               Kappa: -72.0000
                 Phi: -30.0000
                 XTD: 44.9220
              2theta: -17.2093
;
_diffrn_measurement_device       'four-circle \k diffractometer'
_diffrn_measurement_device_type  'Rigaku AFC12 (Right)'
_diffrn_measurement_method       'profile data from \w-scans'
_diffrn_measurement_specimen_support 'MiTeGen MicroMesh'
_diffrn_orient_matrix_type       d*Trek
_diffrn_orient_matrix_UB_11      -0.143850
_diffrn_orient_matrix_UB_12      -0.054081
_diffrn_orient_matrix_UB_13      -0.059947
_diffrn_orient_matrix_UB_21      -0.028329
_diffrn_orient_matrix_UB_22      0.081699
_diffrn_orient_matrix_UB_23      -0.011815
_diffrn_orient_matrix_UB_31      0.010647
_diffrn_orient_matrix_UB_32      0.003677
_diffrn_orient_matrix_UB_33      -0.061927
_diffrn_radiation_collimation    0.3
_diffrn_radiation_monochromator  'Confocal mirrors, VHF Varimax'
_diffrn_radiation_probe          x-ray
_diffrn_radiation_type           MoK\a
_diffrn_radiation_wavelength     0.71073
_diffrn_reflns_av_R_equivalents  0.0584
_diffrn_reflns_av_unetI/netI     0.0588
_diffrn_reflns_laue_measured_fraction_full 0.999
_diffrn_reflns_laue_measured_fraction_max 0.995
_diffrn_reflns_limit_h_max       41
_diffrn_reflns_limit_h_min       -37
_diffrn_reflns_limit_k_max       7
_diffrn_reflns_limit_k_min       -7
_diffrn_reflns_limit_l_max       15
_diffrn_reflns_limit_l_min       -15
_diffrn_reflns_number            14120
_diffrn_reflns_point_group_measured_fraction_full 0.985
_diffrn_reflns_point_group_measured_fraction_max 0.966
_diffrn_reflns_theta_full        25.242
_diffrn_reflns_theta_max         27.545
_diffrn_reflns_theta_min         1.777
_diffrn_source                   'Rotating Anode'
_diffrn_source_current           55.0
_diffrn_source_power             2.475
_diffrn_source_target            Mo
_diffrn_source_type              'Rotating Anode'
_diffrn_source_voltage           45.0
_exptl_absorpt_coefficient_mu    3.672
_exptl_absorpt_correction_T_max  1.000
_exptl_absorpt_correction_T_min  0.423
_exptl_absorpt_correction_type   multi-scan
_exptl_absorpt_process_details
;
CrysAlisPro, Agilent Technologies,
Version 1.171.37.35 (release 13-08-2014 CrysAlis171 .NET)
(compiled Aug 13 2014,18:06:01)
;
_exptl_crystal_colour            colourless
_exptl_crystal_colour_primary    colourless
_exptl_crystal_density_diffrn    2.110
_exptl_crystal_description       plate
_exptl_crystal_F_000             1408
_exptl_crystal_size_max          0.16
_exptl_crystal_size_mid          0.03
_exptl_crystal_size_min          0.01
_refine_diff_density_max         1.908
_refine_diff_density_min         -2.311
_refine_diff_density_rms         0.257
_refine_ls_abs_structure_details
;
 Flack x determined using 1758 quotients [(I+)-(I-)]/[(I+)+(I-)]
 (Parsons and Flack (2004), Acta Cryst. A60, s61).
;
_refine_ls_abs_structure_Flack   0.047(9)
_refine_ls_extinction_coef       .
_refine_ls_extinction_method     none
_refine_ls_goodness_of_fit_ref   1.160
_refine_ls_hydrogen_treatment    constr
_refine_ls_matrix_type           full
_refine_ls_number_parameters     376
_refine_ls_number_reflns         5028
_refine_ls_number_restraints     328
_refine_ls_restrained_S_all      1.130
_refine_ls_R_factor_all          0.0906
_refine_ls_R_factor_gt           0.0838
_refine_ls_shift/su_max          0.000
_refine_ls_shift/su_mean         0.000
_refine_ls_structure_factor_coef Fsqd
_refine_ls_weighting_details
'w=1/[\s^2^(Fo^2^)+(0.0753P)^2^+73.7223P] where P=(Fo^2^+2Fc^2^)/3'
_refine_ls_weighting_scheme      calc
_refine_ls_wR_factor_gt          0.2130
_refine_ls_wR_factor_ref         0.2190
_reflns_Friedel_coverage         0.775
_reflns_friedel_fraction_full    0.968
_reflns_friedel_fraction_max     0.932
_reflns_number_gt                4546
_reflns_number_total             5028
_reflns_threshold_expression     'I > 2\s(I)'
_cod_data_source_file            c5cc04174k2.cif
_cod_data_source_block           sr_altfbdc_2
_cod_database_code               7117545
_shelxl_version_number           2013-3
_shelx_space_group_comment
;
The symmetry employed for this shelxl refinement is uniquely defined
by the following loop, which should always be used as a source of
symmetry information in preference to the above space-group names.
They are only intended as comments.
;
_olex2_refinement_description
;
1. Fixed Uiso
 At 1.2 times of:
  All C(H) groups, {H1Wa,H1Wb} of O1W, All N(H) groups
 At 1.5 times of:
  {H2Wa,H2Wb} of O2W
2. Rigid body (RIGU) restrains
 All non-hydrogen atoms
 with sigma for 1-2 distances of 0.002 and sigma for 1-3 distances of 0.002
3.a Rotating group:
 O2W(H2Wa,H2Wb)
3.b Secondary CH2 refined with riding coordinates:
 O1W(H1Wa,H1Wb)
3.c Aromatic/amide H refined with riding coordinates:
 N101(H101), C101(H10a), C102(H102), C103(H103), C104(H104), C105(H105)
;
_shelx_res_file
;
TITL 2014lhb061 in C2
CELL 0.71073 32.076085 6.163779 11.561837 90 97.5692 90
ZERR 2 0.002529 0.000349 0.000675 0 0.0067 0
LATT -7
SYMM -X,+Y,-Z
SFAC C H F N O Sr
UNIT 84 40 32 4 40 6
EQIV $1 1-X,+Y,-Z
EQIV $2 +X,-1+Y,+Z
EQIV $3 1-X,1+Y,-Z
RIGU 0.002 0.002

L.S. 10 0 0
PLAN  20
TEMP -173
HTAB O1W O12_$2
HTAB O2W O4_$3
HTAB N101 O2W_$2
FREE Sr1 Sr2_$1
FREE Sr1 Sr2
FREE Sr1 C11_$1
FREE Sr1 C11
FREE Sr2 C18
MORE -1
BOND $H
CONF
fmap 2 53
acta
REM <olex2.extras>
REM <HklSrc "%.\\Sr_altfBDC.hkl">
REM </olex2.extras>

WGHT    0.075300   73.722290
FVAR       2.88235
SR1   6    0.500000    0.661309    0.000000    10.50000    0.03359    0.02036 =
         0.01428    0.00000    0.00515    0.00000
SR2   6    0.527136    1.337321   -0.283600    11.00000    0.03360    0.02145 =
         0.01102   -0.00001    0.00479    0.00000
F1    3    0.652102    1.297945    0.466061    11.00000    0.04300    0.03012 =
         0.02495   -0.00354    0.00614   -0.00124
F2    3    0.707549    1.019755    0.394719    11.00000    0.04144    0.03847 =
         0.02718    0.00300    0.00684    0.00098
F3    3    0.679532    0.657831    0.272697    11.00000    0.04214    0.03687 =
         0.03038   -0.00726    0.00973    0.00608
F4    3    0.598439    0.591028    0.215012    11.00000    0.04165    0.03190 =
         0.02534   -0.00515    0.01191    0.00146
F11   3    0.636877    1.220819    0.081766    11.00000    0.04864    0.03256 =
         0.02603   -0.00580    0.00722   -0.00217
F12   3    0.717251    1.082983    0.140619    11.00000    0.04529    0.04427 =
         0.02885   -0.00490    0.00247   -0.00766
F13   3    0.741026    0.691934    0.064912    11.00000    0.03685    0.04299 =
         0.03547    0.00079    0.00203   -0.00420
F14   3    0.686260    0.437590   -0.066899    11.00000    0.03795    0.03420 =
         0.02924   -0.00373    0.00057    0.00273
O1    5    0.567384    1.190652    0.558121    11.00000    0.03706    0.02151 =
         0.01600   -0.00016    0.00757    0.00339
O1W   5    0.525722    0.318990    0.123212    11.00000    0.02201    0.01467 =
         0.02780   -0.00723    0.00021    0.00057
AFIX  23  0.9300
H1WA  2    0.553634    0.331854    0.156457    11.00000   -1.20000
H1WB  2    0.522281    0.192305    0.079301    11.00000   -1.20000
AFIX   0
O2    5    0.548096    1.388319    0.396855    11.00000    0.05037    0.01989 =
         0.01682    0.00139    0.01059    0.00834
O2W   5    0.548338    1.673597   -0.403208    11.00000    0.03762    0.00714 =
         0.01646   -0.00487    0.00813    0.00607
AFIX   7
H2WA  2    0.530575    1.793637   -0.397690    11.00000   -1.50000
H2WB  2    0.547096    1.642515   -0.483233    11.00000   -1.50000
AFIX   0
O3    5    0.518606    0.718074    0.222157    11.00000    0.04639    0.01840 =
         0.01416   -0.00220    0.00552    0.00452
O4    5    0.510940    0.963341    0.354389    11.00000    0.04080    0.02321 =
         0.02096   -0.00826    0.00887    0.00451
O11   5    0.566926    1.038876   -0.167985    11.00000    0.03524    0.03013 =
         0.01912    0.00434    0.00518   -0.00270
O12   5    0.550209    0.986057    0.016334    11.00000    0.03547    0.01779 =
         0.01119   -0.00022    0.00768    0.00149
O13   5    0.608307    0.450440   -0.216401    11.00000    0.03719    0.02879 =
         0.01866   -0.00077    0.00943   -0.00101
O14   5    0.563189    0.540291   -0.093986    11.00000    0.03356    0.02312 =
         0.02209    0.00285    0.00719    0.00175
C1    1    0.566059    1.232223    0.452038    11.00000    0.03736    0.01704 =
         0.01684   -0.00081    0.00782   -0.00066
C2    1    0.594337    1.082475    0.386935    11.00000    0.04066    0.01731 =
         0.01215    0.00283    0.00709    0.00304
C3    1    0.636725    1.120361    0.406287    11.00000    0.04099    0.02543 =
         0.01389    0.00234    0.00728    0.00130
C4    1    0.666185    0.980250    0.368472    11.00000    0.04288    0.02987 =
         0.02085   -0.00036    0.00898    0.00257
C5    1    0.651951    0.799368    0.309083    11.00000    0.04012    0.02804 =
         0.02023    0.00006    0.01052    0.00384
C6    1    0.609966    0.765445    0.281478    11.00000    0.04145    0.02659 =
         0.02576   -0.00294    0.00952    0.00414
C7    1    0.579235    0.899982    0.319874    11.00000    0.03974    0.01988 =
         0.01201    0.00079    0.00557    0.00311
C8    1    0.532005    0.852358    0.295828    11.00000    0.03957    0.01903 =
         0.01083   -0.00064    0.00537    0.00563
C11   1    0.574448    0.976152   -0.062889    11.00000    0.03550    0.01502 =
         0.01490   -0.00206    0.00629   -0.00140
C12   1    0.618911    0.896179   -0.023484    11.00000    0.03590    0.02445 =
         0.01301    0.00223    0.00689   -0.00112
C13   1    0.648178    1.027230    0.041611    11.00000    0.03951    0.02875 =
         0.01570   -0.00019    0.00651   -0.00561
C14   1    0.689850    0.962616    0.073311    11.00000    0.03844    0.03127 =
         0.01249    0.00503    0.00752   -0.00672
C15   1    0.701591    0.763401    0.030543    11.00000    0.03690    0.03408 =
         0.01659    0.00254    0.00529   -0.00531
C16   1    0.672562    0.630478   -0.034855    11.00000    0.03457    0.03105 =
         0.02330   -0.00038    0.00337   -0.00038
C17   1    0.630172    0.695892   -0.063016    11.00000    0.03485    0.02361 =
         0.00997    0.00391    0.00617   -0.00208
C18   1    0.598517    0.552079   -0.130736    11.00000    0.03153    0.02449 =
         0.01474    0.00011    0.00503    0.00158

N101  4    0.629866    0.860179   -0.341066    11.00000    0.04139    0.03164 =
         0.01988    0.00261    0.00844   -0.00274
AFIX  43
H101  2    0.602194    0.857954   -0.350804    11.00000   -1.20000
AFIX   0
C101  1    0.649722    1.031397   -0.292021    11.00000    0.04533    0.03102 =
         0.02156    0.00247    0.00850   -0.00387
AFIX  43
H10A  2    0.634247    1.151275   -0.268418    11.00000   -1.20000
AFIX   0
C102  1    0.693127    1.034697   -0.275352    11.00000    0.04501    0.03930 =
         0.01641    0.00553    0.00784   -0.00383
AFIX  43
H102  2    0.707651    1.155049   -0.237806    11.00000   -1.20000
AFIX   0
C103  1    0.714786    0.867933   -0.312182    11.00000    0.04718    0.04118 =
         0.03025    0.00224    0.00995   -0.00265
AFIX  43
H103  2    0.744659    0.870413   -0.301822    11.00000   -1.20000
AFIX   0
C104  1    0.692983    0.689662   -0.366164    11.00000    0.04629    0.03907 =
         0.03271    0.00153    0.01045    0.00079
AFIX  43
H104  2    0.707567    0.571292   -0.394901    11.00000   -1.20000
AFIX   0
C105  1    0.650596    0.692223   -0.375829    11.00000    0.04714    0.03312 =
         0.01486    0.00577    0.01007   -0.00120
AFIX  43
H105  2    0.635261    0.570067   -0.408483    11.00000   -1.20000
AFIX   0
HKLF 4

REM  2014lhb061 in C2
REM R1 =  0.0838 for    4546 Fo > 4sig(Fo)  and  0.0906 for all    5028 data
REM    376 parameters refined using    328 restraints

END

WGHT      0.0748     73.5074

REM Highest difference peak  1.908,  deepest hole -2.311,  1-sigma level  0.257
Q1    1   0.5024  1.6684 -0.3737  11.00000  0.05    1.91
Q2    1   0.4966  1.3433 -0.2938  11.00000  0.05    1.89
Q3    1   0.5215  1.3414  0.3503  11.00000  0.05    1.76
Q4    1   0.5000  0.5204  0.0000  10.50000  0.05    1.55
Q5    1   0.5610  1.3434 -0.2708  11.00000  0.05    1.37
Q6    1   0.4971  1.0233  0.4210  11.00000  0.05    1.35
Q7    1   0.5000  0.8016  0.0000  10.50000  0.05    1.28
Q8    1   0.5255  1.4834 -0.2814  11.00000  0.05    1.24
Q9    1   0.4602  0.6568 -0.0030  11.00000  0.05    1.23
Q10   1   0.5244  1.2020 -0.2823  11.00000  0.05    1.00
Q11   1   0.5370  0.9901  0.3165  11.00000  0.05    0.92
Q12   1   0.5539  1.0203  0.6590  11.00000  0.05    0.88
Q13   1   0.6988  1.2356  0.4229  11.00000  0.05    0.82
Q14   1   0.4820  0.9607  0.3291  11.00000  0.05    0.81
Q15   1   0.5487  0.6935  0.2436  11.00000  0.05    0.80
Q16   1   0.5356  1.3523  0.5148  11.00000  0.05    0.79
Q17   1   0.5794  0.9831  0.5552  11.00000  0.05    0.77
Q18   1   0.6852  1.2656  0.4418  11.00000  0.05    0.76
Q19   1   0.7226  0.9211  0.3835  11.00000  0.05    0.76
Q20   1   0.6006  0.5856 -0.4927  11.00000  0.05    0.75
;
_shelx_res_checksum              79203
_shelx_hkl_file
;
   0  -6   0 90369.3 3529.58   3
   0  -6   0 83042.5 1997.17   1
   0  -6   1 2526.56 1325.21   3
   0  -6  -1 4554.02 1312.96   3
   0  -6  -1 2282.15 772.170   1
   0  -6  -2 4043.18 935.114   1
   0  -6  -2 4134.84 1182.48   3
   0  -6   2 2960.99 1345.08   3
   0  -6   2 5625.13 906.480   4
   0  -6   3 50826.2 1971.39   4
   0  -6   3 46561.0 2755.92   3
   0  -6  -3 41714.7 2049.28   1
   0  -6  -3 47261.4 2358.44   3
   0  -6   4 28555.1 1659.09   4
   0  -6   4 29602.3 2376.54   3
   0  -6  -4 25135.5 1785.14   3
   0  -6   5 6135.60 1696.77   3
   0  -6   5 10650.7 1315.30   4
   0  -6  -5 8547.73 1196.60   3
   0  -6  -5 9085.05 1395.51   1
   0  -6  -6 5604.17 1453.11   1
   0  -6   6 4154.38 1642.82   3
   0  -6  -6 5128.05 992.428   3
   0  -6   6 5832.68 1330.64   4
   0  -6  -7 36187.7 1716.62   3
   0  -6   7 42923.6 2398.37   4
   0  -6   7 41647.5 2773.94   3
   0  -6  -8 5990.74 1622.90   1
   0  -6  -8 2305.65 839.033   3
   0  -6   8 4188.72 1394.89   4
   0  -6   8 2831.23 1641.42   3
   0  -6   9 10708.7 1683.69   4
   0  -6  -9 6301.86 1735.94   1
   0  -6   9 7875.28 1824.05   3
   0  -4   0 10126.2 1279.95   3
   0  -4   0 9511.65 1130.73   6
   0  -4   0 9465.47 671.670   4
   0  -4   0 6951.66 754.317   2
   0  -4   0 8843.24 773.386   1
   0  -4   1 23249.0 896.523   1
   0  -4  -1 20493.4 1279.12   2
   0  -4   1 23570.2 1887.47   3
   0  -4   1 16760.3 646.867   2
   0  -4   1 24169.9 1099.34   4
   0  -4  -1 25299.7 1322.26   1
   0  -4   1 15611.6 831.783   2
   0  -4   1 20422.3 1738.56   6
   0  -4  -1 17260.1 970.932   6
   0  -4  -1 26472.6 1788.97   3
   0  -4  -2 137118. 3343.92   2
   0  -4  -2 149418. 3554.34   3
   0  -4  -2 163385. 3377.16   1
   0  -4   2 150206. 1773.86   1
   0  -4   2 154666. 4663.56   6
   0  -4   2 163263. 2905.83   4
   0  -4   2 147319. 3997.00   3
   0  -4   2 164749. 4062.95   5
   0  -4   3 43143.0 1791.73   4
   0  -4  -3 41455.3 2162.03   2
   0  -4  -3 37513.9 1796.91   3
   0  -4   3 44298.6 2335.78   5
   0  -4   3 40430.7 2863.39   6
   0  -4   3 34004.6 1399.86   2
   0  -4   4 12377.5 1587.88   5
   0  -4   4 15233.5 1367.26   4
   0  -4  -4 9540.75 1432.77   2
   0  -4   4 10378.2 1110.88   2
   0  -4  -4 12279.1 1160.90   3
   0  -4  -5 60195.9 1721.93   6
   0  -4  -5 90933.2 2329.99   3
   0  -4   5 97367.7 2997.25   2
   0  -4   5 94756.7 2594.20   7
   0  -4   5 102618. 3569.35   5
   0  -4  -5 67509.5 1561.85   6
   0  -4   5 106764. 3151.68   4
   0  -4  -6 11001.8 878.142   6
   0  -4  -6 11635.4 982.632   3
   0  -4   6 6457.64 1067.33   7
   0  -4  -6 8420.36 1078.65   6
   0  -4   6 12201.4 1513.37   4
   0  -4   6 6225.69 1300.48   2
   0  -4   6 10631.2 1597.68   5
   0  -4   7 110499. 3663.83   4
   0  -4   7 106890. 3774.53   2
   0  -4   7 100098. 3171.49   7
   0  -4   7 107999. 3799.97   5
   0  -4  -7 96387.7 3213.07   6
   0  -4  -7 91568.9 2117.10   3
   0  -4  -8 10791.4 883.328   3
   0  -4   8 18324.0 1894.08   5
   0  -4   8 16622.3 2022.33   2
   0  -4   8 15194.7 1655.82   7
   0  -4   8 22966.3 2024.82   4
   0  -4  -8 10336.6 1536.46   6
   0  -4   9 21920.8 2079.78   5
   0  -4  -9 20433.3 1169.68   3
   0  -4   9 28618.3 2545.87   2
   0  -4  -9 24862.1 2232.82   6
   0  -4   9 23142.8 2206.31   4
   0  -4  10 23768.0 2121.31   5
   0  -4  10 23449.2 2518.37   2
   0  -4  10 21568.1 2128.95   4
   0  -4  11 2750.47 1571.29   4
   0  -4  11 1904.71 1738.18   2
   0  -4  11 4152.29 1512.29   5
   0  -4  12 28090.1 3049.14   2
   0  -4  12 29523.6 2556.78   4
   0  -4  12 29277.4 2344.29   5
   0  -2   0 17437.3 652.294   4
   0  -2   0 17235.1 882.830   2
   0  -2   0 18469.0 805.559   1
   0  -2   0 17918.3 1120.71   5
   0  -2   0 16857.6 1075.40   6
   0  -2   0 17000.3 1166.59   3
   0  -2   1 100391. 1781.26   4
   0  -2   1 103143. 2968.45   6
   0  -2   1 104539. 2446.95   5
   0  -2  -1 99016.0 2369.78   2
   0  -2   1 104255. 1207.03   1
   0  -2  -2 160655. 2639.69   3
   0  -2   2 165825. 1700.25   1
   0  -2   2 174646. 2621.70   2
   0  -2  -2 160503. 1783.50   6
   0  -2   2 174871. 2890.44   4
   0  -2  -2 147928. 3302.27   2
   0  -2   2 171060. 4443.98   6
   0  -2  -3 63644.4 2628.27   2
   0  -2   3 61185.8 1792.12   7
   0  -2   3 63396.8 2050.34   4
   0  -2  -3 69326.8 2103.80   6
   0  -2   3 51577.1 3017.50   6
   0  -2  -3 60940.3 1537.78   3
   0  -2   3 50468.0 2024.22   2
   0  -2   4 85934.5 2530.91   4
   0  -2   4 91431.5 4051.57   6
   0  -2  -4 91579.7 2913.64   6
   0  -2   4 95944.7 3133.66   2
   0  -2   4 87949.8 2374.31   7
   0  -2  -4 92604.3 3340.58   2
   0  -2  -4 87825.2 1711.84   3
   0  -2  -5 262444. 6150.92   2
   0  -2  -5 272771. 5570.26   6
   0  -2  -5 278292. 2826.79   3
   0  -2   5 299326. 4667.02   7
   0  -2   5 304303. 7756.47   6
   0  -2   5 276776. 4667.23   4
   0  -2   5 306757. 5754.02   2
   0  -2   6 15364.8 1579.51   4
   0  -2  -6 17785.3 2259.78   6
   0  -2   6 9466.84 1800.70   2
   0  -2   6 11489.0 1537.52   7
   0  -2   7 44828.8 2855.18   2
   0  -2  -7 44125.4 3051.87   6
   0  -2   7 46359.5 2330.56   7
   0  -2   7 40384.7 2216.49   4
   0  -2  -8 54292.7 3493.30   6
   0  -2   8 52109.8 3278.66   2
   0  -2   8 53937.9 2633.50   4
   0  -2   9 31034.3 2286.48   4
   0  -2   9 26881.0 2716.30   2
   0  -2  -9 30977.8 2969.33   6
   0  -2  10 3376.60 1867.68   2
   0  -2 -10 2176.89 1959.36   6
   0  -2  10 8408.29 1751.05   4
   0  -2  11 10530.8 1742.12   4
   0  -2 -11 11501.8 2493.66   6
   0  -2  11 8672.82 2210.71   2
   0  -2 -12 23187.7 3116.32   6
   0  -2  12 32640.0 2631.99   4
   0  -2  12 31218.1 3277.65   2
   0  -2  13 9863.47 2719.51   2
   0  -2  13 6629.04 1319.29   5
   0  -2  13 7848.89 1750.30   4
   0  -2 -13 9399.56 2635.62   6
   0  -2 -14 5737.03 2664.41   6
   0  -2  14 11722.4 2811.59   2
   0  -2  14 6605.38 1776.99   4
   0   0  -1-46.4288 184.537   6
   0   0   1-92.1403 266.178   6
   0   0  -1-342.801 209.430   7
   0   0   1-52.8953 149.139   2
   0   0  -1-195.869 243.688   2
   0   0  -2 1417.99 784.328   2
   0   0   2 1492.39 806.369   2
   0   0   2 1182.60 828.346   6
   0   0  -2 1164.37 624.750   7
   0   0  -2 1147.34 897.685   6
   0   0  -3 867128. 8322.36   2
   0   0  -3 878999. 9175.52   6
   0   0   3 921346. 8672.86   2
   0   0  -3 930293. 6837.91   7
   0   0  -4 26925.6 2237.24   6
   0   0  -4 21890.1 1868.04   2
   0   0  -4 27766.4 1566.40   7
   0   0   4 30028.0 2335.18   6
   0   0   4 29180.6 2019.73   2
   0   0  -5 9400.95 1659.51   2
   0   0  -5 11575.4 1906.95   6
   0   0  -5 14650.8 1387.60   7
   0   0   5 8536.63 1801.53   2
   0   0   6 36466.8 3027.80   2
   0   0  -6 40101.3 2930.62   2
   0   0  -6 40053.4 3746.67   6
   0   0   6 40333.8 3103.62   6
   0   0   7 97096.1 4281.44   2
   0   0  -7 92090.4 4636.24   6
   0   0   8 1107.53 659.343   3
   0   0   8 2003.10 1505.30   2
   0   0  -8 1056.99 1625.47   6
   0   0   9 50110.3 3598.62   2
   0   0   9 45332.9 2389.12   4
   0   0  -9 44511.8 3862.57   6
   0   0   9 43951.2 1477.17   3
   0   0  10 56625.3 2710.08   4
   0   0  10 57987.6 4092.08   2
   0   0  11 28606.0 2175.68   4
   0   0  11 34312.6 3451.05   2
   0   0 -12 28446.4 3689.29   6
   0   0  12 31173.4 2349.76   4
   0   0  12 30554.0 3475.42   2
   0   0  13 11151.7 1941.50   4
   0   0  13 12584.4 2816.91   2
   0   0 -13 6375.77 2690.66   6
   0   0 -14 42210.2 4573.36   6
   0   0  14 49763.3 4600.12   2
   0   0  14 54727.6 3300.16   4
   0   2   0 9889.74 850.313   6
   0   2   0 8579.68 533.878   4
   0   2  -1 83269.1 2550.57   6
   0   2   1 87406.7 1997.04   5
   0   2   2 169889. 2607.36   5
   0   2  -2 179730. 4380.13   6
   0   2   2 175400. 3759.59   2
   0   2  -3 78220.7 2010.19   2
   0   2  -3 77209.0 1215.75   1
   0   2   3 75431.1 2991.11   2
   0   2   4 92005.6 3587.92   2
   0   2  -4 88192.0 4009.35   6
   0   2  -4 94776.4 2577.59   2
   0   2   4 92745.2 2185.03   3
   0   2  -5 275944. 4965.84   2
   0   2  -5 272068. 7449.22   6
   0   2   5 281220. 6659.62   2
   0   2  -5 289577. 4084.05   1
   0   2  -6 6470.72 1501.90   2
   0   2  -6 9251.88 1309.67   1
   0   2   6 12760.7 967.791   3
   0   2   6 13327.9 2373.57   2
   0   2  -6 5417.52 2269.78   6
   0   2  -7 38204.2 2074.65   1
   0   2   7 41291.9 3386.76   2
   0   2  -7 40563.7 3610.67   6
   0   2   7 32167.1 1405.66   3
   0   2  -8 38971.3 3705.81   6
   0   2  -8 42478.8 2408.60   1
   0   2   8 33989.0 1432.21   3
   0   2   9 41109.0 2084.83   4
   0   2   9 45894.9 3690.69   2
   0   2  10 7180.00 1366.78   4
   0   2 -10 6765.96 2674.96   6
   0   2  10 3578.74 2295.09   2
   0   2 -11 6721.87 2554.78   6
   0   2  11 6723.07 2442.97   2
   0   2  11 12199.7 1596.11   4
   0   2  12 32366.6 2276.83   4
   0   2  12 38495.4 4039.94   2
   0   2 -13 7430.78 2827.97   6
   0   2  13 8714.07 1600.12   4
   0   2  13 5042.93 2501.71   2
   0   2  14 3798.67 2640.05   2
   0   2 -14-63.9979 2409.22   6
   0   2  14 7304.50 1642.57   4
   0   4   0 14103.5 1004.90   6
   0   4   1 26219.7 854.252   6
   0   4  -1 29801.2 1729.91   6
   0   4  -2 169200. 4412.26   6
   0   4  -3 51149.4 2890.02   6
   0   4   4 16278.6 1846.91   2
   0   4  -4 10286.5 1848.14   6
   0   4  -5 106072. 4827.24   6
   0   4   5 104749. 4202.71   2
   0   4  -6 2674.78 1929.15   6
   0   4  -6 924.333 231.010   1
   0   4   6 7574.25 696.980   4
   0   4   6 5087.52 1735.62   2
   0   4   7 105442. 4866.93   2
   0   4  -7 97686.0 5376.17   6
   0   4   8 15934.1 1165.84   4
   0   4  -8 14314.4 2668.23   6
   0   4   8 11388.9 2368.14   2
   0   4   9 30916.4 1605.70   4
   0   4   9 30788.7 3347.06   2
   0   4  10 21349.4 3202.56   2
   0   4 -10 20368.7 3404.94   6
   0   4  11 6959.33 2591.14   2
   0   4 -11 9392.29 2974.76   6
   0   4  12 35764.7 3972.51   2
   0   4 -12 30461.3 4185.71   6
   0   6  -1 1585.64 788.960   6
   0   6  -2 4274.97 1105.43   6
   0   6  -3 51943.7 2858.51   6
   0   6  -4 22885.8 2314.68   6
   0   6  -5 12306.2 2123.49   6
   0   6  -6 3116.31 1802.01   6
   0   6  -7 45532.2 3757.51   6
   0   6  -8 7231.50 2276.69   6
   0   6  -9 8325.69 2570.30   6
  -1  -7   7 27509.9 2516.11   3
   1  -7  -7 21518.8 2028.64   1
  -1  -7   6 936.590 1417.32   3
   1  -7  -6 2349.89 1216.75   1
   1  -7  -6 2588.08 1003.88   3
  -1  -7   5 31558.7 2590.98   3
   1  -7  -5 30924.8 2050.86   1
   1  -7  -5 25768.0 1797.81   3
   1  -7  -4 20448.7 1732.03   3
   1  -7  -4 23222.8 1748.98   1
  -1  -7   4 20136.1 2169.57   3
   1  -7  -3 11682.2 1546.60   3
  -1  -7   3 13494.5 1952.43   3
   1  -7  -2 34532.7 2263.99   3
  -1  -7   2 39260.2 2715.56   3
  -1  -7   1 7617.29 1596.35   3
   1  -7  -1 7373.02 1501.56   3
   1  -7   0 9238.25 1672.80   3
  -1  -7   0 9313.88 1695.97   3
  -1  -7  -1 1437.94 1158.92   3
   1  -7   1 3239.78 1530.75   3
   1  -7   2 34574.6 2564.52   3
  -1  -7  -2 36799.0 2290.47   3
  -1  -7  -3 7942.75 1413.27   3
   1  -7   3 10401.6 1841.33   3
   1  -7   4 15733.5 2033.78   3
  -1  -7  -4 12141.7 1450.69   3
  -1  -7  -5 11837.9 1388.73   3
  -1  -7  -5 15191.7 1610.47   1
   1  -7   5 14536.8 2111.74   3
   1  -7   6 3169.48 1658.82   3
  -1  -7  -6 7244.56 1491.74   1
  -1  -7  -6 3527.09 1063.56   3
  -1  -7  -7 25793.7 2257.57   1
   1  -7   7 20313.9 2325.77   3
  -1  -7  -7 20095.0 1479.63   3
  -1  -5  11 170.791 1371.00   3
  -1  -5  11 2182.35 1550.25   4
  -1  -5  11 1222.13 1406.19   5
  -1  -5  10 6156.01 1526.44   3
  -1  -5  10 7394.75 1667.00   5
  -1  -5  10 7443.50 1748.34   4
  -1  -5   9 17182.9 1990.23   4
  -1  -5   9 15500.9 1962.15   5
  -1  -5   8 8913.05 1737.39   5
  -1  -5   8 9316.04 1589.78   4
   1  -5  -8 5898.02 880.920   3
  -1  -5   8 5557.84 1312.39   7
  -1  -5   7 20398.3 1987.79   3
   1  -5  -7 21847.3 2111.99   1
  -1  -5   7 22598.0 1931.55   4
  -1  -5   7 14569.6 1477.17   7
   1  -5  -7 15972.4 1157.66   3
  -1  -5   7 22861.5 2166.19   5
   1  -5  -6 7661.79 965.343   3
  -1  -5   6 8223.27 1617.61   5
   1  -5  -6 9021.99 1571.34   1
  -1  -5   6 7637.47 1154.95   7
  -1  -5   6 12005.4 1542.37   4
  -1  -5   6 7199.60 1451.98   3
  -1  -5   6 5149.98 1129.91   2
  -1  -5   5 68754.5 2610.66   4
   1  -5  -5 56156.2 2113.36   3
  -1  -5   5 44167.4 1793.97   2
  -1  -5   5 66200.8 3184.53   5
   1  -5  -5 66938.7 3000.92   1
  -1  -5   5 51398.7 1928.87   7
  -1  -5   5 60865.9 3021.71   3
  -1  -5   4 520.878 1186.60   3
   1  -5  -4 490.190 963.191   1
  -1  -5   4 765.514 746.762   7
  -1  -5   4 2116.13 908.947   4
   1  -5  -4 1844.84 956.214   3
  -1  -5   4 229.449 476.766   2
   1  -5  -3 2707.96 1079.41   2
  -1  -5   3 4131.54 941.936   4
   1  -5  -3 3242.37 1034.04   3
   1  -5  -3 2457.25 1021.96   1
  -1  -5   3 3147.89 1359.46   3
  -1  -5   2 55990.0 1889.63   4
   1  -5  -2 40454.9 1969.21   2
   1  -5  -2 47587.5 1951.50   1
  -1  -5   2 54768.8 2740.13   3
  -1  -5   2 41777.4 925.169   1
  -1  -5   2 51972.9 2946.49   6
   1  -5  -2 52715.2 2403.13   3
  -1  -5   1 10032.9 885.860   4
   1  -5  -1 9419.69 990.112   1
  -1  -5   1 7735.41 642.176   1
  -1  -5   1 7571.45 1415.30   3
   1  -5  -1 6474.67 930.518   2
   1  -5  -1 6882.64 1358.87   3
  -1  -5   1 7698.47 1446.30   6
  -1  -5   0 10895.2 710.288   4
  -1  -5   0 4037.05 336.811   2
  -1  -5   0 8731.58 1164.04   6
   1  -5   0 12096.2 693.752   4
  -1  -5   0 11953.5 872.687   1
  -1  -5   0 10334.0 1458.73   3
   1  -5   0 11675.1 958.562   1
   1  -5   0 9514.31 1481.89   3
   1  -5   0 6683.50 774.023   2
   1  -5   1 6805.93 509.114   2
   1  -5   1 6076.72 635.124   2
   1  -5   1 17233.8 1010.16   4
  -1  -5  -1 14624.1 1561.40   3
   1  -5   1 11359.6 842.052   1
  -1  -5  -1 11813.3 1015.16   1
  -1  -5  -1 9348.83 850.352   2
   1  -5   1 14314.5 1667.80   3
  -1  -5  -1 7468.03 774.568   6
   1  -5   1 12885.2 1498.61   6
   1  -5   2 63091.2 3095.42   6
  -1  -5  -2 65941.6 2337.70   1
  -1  -5  -2 63794.8 2593.13   3
  -1  -5  -2 49702.3 1966.27   2
   1  -5   2 56282.4 1276.98   1
   1  -5   2 70313.4 1997.06   4
   1  -5   2 68672.6 3161.26   3
   1  -5   3 1100.96 308.183   1
   1  -5   3 5362.14 927.712   4
   1  -5   3 1667.41 1313.86   3
  -1  -5  -3 3473.86 1033.25   2
   1  -5   3 1820.33 1196.17   5
  -1  -5  -3 4838.27 1123.55   1
  -1  -5  -3 2396.48 994.476   3
   1  -5   3 1660.04 587.050   2
   1  -5   4 11369.3 1709.54   3
   1  -5   4 13674.4 1731.91   5
   1  -5   4 8603.48 1001.25   2
   1  -5   4 16210.5 1451.57   4
  -1  -5  -4 11439.0 1521.06   1
  -1  -5  -4 10738.7 1272.10   3
   1  -5   5 41838.5 1969.59   2
   1  -5   5 47256.1 2214.33   4
   1  -5   5 44216.8 1903.68   7
  -1  -5  -5 42334.4 1861.67   3
   1  -5   6 46574.2 2337.83   4
  -1  -5  -6 37479.7 1695.27   3
   1  -5   6 43655.9 2697.53   5
   1  -5   6 36121.0 2080.35   2
   1  -5   6 34256.8 1840.03   7
   1  -5   7 2650.40 1204.92   2
  -1  -5  -7 6929.37 931.316   3
   1  -5   7 5585.94 1504.26   5
   1  -5   7 7579.61 1536.49   4
   1  -5   7 7235.76 1235.91   7
   1  -5   8 5285.46 1358.54   4
  -1  -5  -8 4981.12 866.280   3
   1  -5   8 6280.88 1309.06   7
   1  -5   9 16958.4 2018.15   5
   1  -5   9 14726.0 1745.52   7
  -1  -5  -9 12298.9 1057.86   3
   1  -5  10 3304.00 1531.10   5
   1  -5  10 3013.54 1442.39   4
   1  -5  11 2882.88 1518.49   5
   1  -5  11 6899.84 1716.77   4
  -1  -3  13 8531.80 1632.43   5
  -1  -3  13 11631.1 1953.88   4
  -1  -3  12 8925.06 1515.08   5
   1  -3 -12 6133.56 2158.73   6
  -1  -3  12 9167.62 1897.71   4
  -1  -3  12 10984.0 2461.02   2
  -1  -3  11 19468.9 1841.56   5
  -1  -3  11 19495.6 2185.14   4
   1  -3 -11 15821.5 2456.85   6
  -1  -3  11 18229.9 2518.64   2
  -1  -3  10 41613.2 2384.73   5
  -1  -3  10 42482.4 3289.27   2
  -1  -3  10 48780.4 2712.01   4
  -1  -3   9 20444.6 2393.29   2
  -1  -3   9 16428.0 1878.39   4
   1  -3  -9 19799.7 2320.39   6
   1  -3  -8 24213.1 2328.31   6
  -1  -3   8 24707.4 2303.00   2
  -1  -3   8 29858.5 2140.88   4
   1  -3  -8 22888.6 1049.04   3
  -1  -3   7 81007.0 2936.98   7
   1  -3  -7 78537.9 1722.20   3
  -1  -3   7 81555.5 3496.12   2
   1  -3  -7 79401.8 3420.36   6
  -1  -3   7 87948.5 3185.97   4
  -1  -3   6 30031.7 2188.14   2
  -1  -3   6 29272.6 1879.75   4
  -1  -3   6 25583.4 1691.33   7
   1  -3  -6 28748.3 1130.21   3
   1  -3  -6 29534.3 2046.14   6
  -1  -3   5 13962.9 1520.39   2
  -1  -3   5 8815.34 1292.35   5
  -1  -3   5 11345.7 1114.82   7
   1  -3  -5 9922.32 1224.08   6
  -1  -3   5 10150.1 1282.35   4
   1  -3  -5 10333.5 777.692   3
  -1  -3   4 45947.0 1977.07   4
  -1  -3   4 44638.4 3218.27   6
   1  -3  -4 41361.2 1108.91   6
   1  -3  -4 43460.8 2484.42   2
  -1  -3   4 38949.5 1575.19   7
   1  -3  -4 42453.1 1532.58   3
  -1  -3   4 44314.5 1973.25   2
  -1  -3   4 42064.0 2124.55   5
  -1  -3   3 210223. 4280.24   5
   1  -3  -3 200806. 4483.77   2
  -1  -3   3 208261. 5739.81   6
   1  -3  -3 210834. 3413.52   3
  -1  -3   3 202151. 3325.95   2
  -1  -3   3 206521. 3580.57   4
   1  -3  -2 33876.2 1669.52   3
  -1  -3   2 26613.5 996.117   2
  -1  -3   2 36365.9 2376.68   6
  -1  -3   2 35071.9 1459.32   4
  -1  -3   2 38601.4 1917.98   5
   1  -3  -2 28216.2 1682.35   2
  -1  -3   2 31575.8 638.577   1
  -1  -3   1 33480.1 1235.69   4
   1  -3  -1 33887.5 1436.53   1
   1  -3  -1 32929.9 1613.63   2
  -1  -3   1 38008.2 1881.41   5
  -1  -3   1 34036.6 888.474   1
   1  -3  -1 34494.0 1703.91   3
  -1  -3   1 36680.7 1895.93   3
  -1  -3   1 32241.9 1984.65   6
  -1  -3   0 439406. 5639.69   3
   1  -3   0 414368. 4498.77   2
  -1  -3   0 447776. 5545.35   6
  -1  -3   0 474275. 3654.81   4
  -1  -3   0 468240. 4049.19   1
   1  -3   0 443258. 5136.76   6
   1  -3   0 467360. 5556.68   5
   1  -3   0 436066. 3138.30   4
   1  -3   0 455555. 5776.80   3
   1  -3   0 446831. 3942.89   1
   1  -3   1 8947.63 613.929   1
   1  -3   1 7950.60 729.902   4
   1  -3   1 7336.57 1200.57   6
   1  -3   1 9270.11 1097.43   5
  -1  -3  -1 9254.52 1197.97   3
  -1  -3  -1 9339.29 960.556   2
  -1  -3  -1 8029.72 843.744   6
  -1  -3  -2 13432.1 1247.09   2
  -1  -3  -2 13741.6 1174.37   3
   1  -3   2 14274.8 667.812   1
   1  -3   2 14847.4 1046.11   4
   1  -3   2 16284.8 1787.84   6
   1  -3   2 14296.8 880.818   2
   1  -3   2 12958.0 1344.17   5
  -1  -3  -3 67615.2 1578.66   6
   1  -3   3 64174.6 2058.91   2
   1  -3   3 66340.1 3291.30   6
  -1  -3  -3 67891.7 2655.15   2
  -1  -3  -3 70000.9 2065.67   3
   1  -3   3 73529.6 2226.20   4
   1  -3   3 56745.3 1369.35   1
  -1  -3  -3 62471.1 1769.02   6
  -1  -3  -4 66414.1 1669.24   6
   1  -3   4 71543.3 2443.07   4
  -1  -3  -4 66179.1 1859.93   3
  -1  -3  -4 75668.5 3073.48   2
   1  -3   4 70547.4 2491.51   2
   1  -3   4 68525.7 2131.67   7
   1  -3   4 64791.8 3705.80   6
  -1  -3  -4 60953.1 2144.28   6
   1  -3   5 35206.7 1961.23   4
  -1  -3  -5 32187.3 1373.35   6
   1  -3   5 36930.3 2184.27   2
   1  -3   5 31878.1 1687.43   7
  -1  -3  -5 30772.4 1929.61   6
  -1  -3  -5 33050.5 1291.92   3
  -1  -3  -5 37604.8 2565.04   2
   1  -3   6 5759.09 1329.08   2
  -1  -3  -6 9975.92 1543.86   6
   1  -3   6 7356.88 1169.18   7
   1  -3   6 9148.11 1500.11   4
  -1  -3  -6 12897.7 877.520   3
  -1  -3  -7 67144.8 1687.85   3
   1  -3   7 72792.9 2829.27   7
  -1  -3  -7 66777.3 3366.20   6
   1  -3   7 76111.8 3035.62   4
   1  -3   7 66327.4 3286.67   2
  -1  -3  -8 65220.1 3500.34   6
   1  -3   8 64862.8 2873.76   7
  -1  -3  -8 63615.5 1722.38   3
   1  -3   8 74629.2 3673.62   2
   1  -3   8 73588.6 3121.08   4
   1  -3   9 71584.0 3308.86   4
   1  -3   9 65275.1 3651.98   2
  -1  -3  -9 72403.0 3898.78   6
  -1  -3 -10 18625.2 2647.95   6
   1  -3  10 25430.3 2358.58   4
   1  -3  10 25510.5 2672.76   2
   1  -3  11 41820.3 3390.15   2
  -1  -3 -11 43767.8 3619.31   6
   1  -3  11 40697.7 2781.78   4
   1  -3  12 1814.95 1528.67   4
  -1  -3 -12 2749.69 2003.89   6
   1  -3  12 488.078 1828.99   2
   1  -3  13 6333.35 2447.16   2
   1  -3  13 6495.37 1496.02   5
   1  -3  13 7086.78 1825.71   4
  -1  -1  14 10365.0 1926.82   4
   1  -1 -14 12504.3 3027.74   6
  -1  -1  14 18178.9 3199.65   2
  -1  -1  13 5076.90 2283.74   2
   1  -1 -13 3317.28 2421.13   6
  -1  -1  13 4311.61 1803.14   4
  -1  -1  12 48874.4 2866.17   4
   1  -1 -12 45019.9 4064.39   6
  -1  -1  12 51689.9 4080.26   2
   1  -1 -11 10879.8 2501.60   6
  -1  -1  11 11690.5 1806.01   4
  -1  -1  11 17467.2 2718.51   2
  -1  -1  10 29277.1 3091.92   2
  -1  -1  10 32231.1 2333.71   4
   1  -1 -10 25915.6 3126.30   6
  -1  -1   9 31107.8 3012.62   2
  -1  -1   9 26636.1 2186.11   4
   1  -1  -9 26338.2 2967.52   6
  -1  -1   8 50040.8 2475.68   4
  -1  -1   8 52583.2 3288.88   2
   1  -1  -8 54778.6 3669.46   6
  -1  -1   7 67732.4 2670.38   4
  -1  -1   7 74044.1 3618.74   2
   1  -1  -7 77710.8 4087.92   6
   1  -1  -6 131252. 4785.48   6
  -1  -1   6 126165. 4243.20   2
  -1  -1   5 333344. 4935.81   4
   1  -1  -5 329933. 6607.51   2
  -1  -1   5 338745. 6362.85   2
  -1  -1   4 77611.8 3521.67   6
   1  -1  -4 72337.1 2985.27   2
   1  -1  -4 74784.3 3103.44   6
  -1  -1   4 69632.4 2216.92   4
  -1  -1   4 77972.7 2347.85   7
  -1  -1   4 76328.3 2870.14   2
   1  -1  -3 491616. 6124.65   6
   1  -1  -3 523291. 2769.05   3
   1  -1  -3 423727. 6326.24   2
  -1  -1   3 463949. 5738.45   2
  -1  -1   3 453699. 4648.68   4
  -1  -1   3 430822. 7285.05   6
  -1  -1   3 454668. 4763.52   7
   1  -1  -2 88639.9 2038.84   6
  -1  -1   2 91870.5 1705.26   7
  -1  -1   2 87790.9 2089.32   2
   1  -1  -2 82289.1 1328.00   3
  -1  -1   2 90829.5 3025.38   6
   1  -1  -2 79870.8 2474.87   2
  -1  -1   2 92549.6 1928.93   4
  -1  -1   1 114999. 1655.07   4
  -1  -1   1 107076. 2515.71   6
  -1  -1   1 111743. 1910.60   5
   1  -1  -1 116973. 1664.78   3
   1  -1  -1 108375. 2220.01   2
  -1  -1   0 4385.31 538.056   6
  -1  -1   0 5907.51 386.324   4
   1  -1   0 4494.80 372.599   1
  -1  -1   0 4034.67 551.623   3
   1  -1   1 144503. 1732.53   2
  -1  -1  -1 143907. 1548.84   6
  -1  -1  -1 114861. 2140.02   2
  -1  -1  -1 122552. 1834.44   3
   1  -1   1 134597. 2857.50   6
   1  -1   1 149366. 1357.44   1
  -1  -1  -2 1377.36 929.500   2
  -1  -1  -2 2484.92 439.129   3
   1  -1   2 3772.11 1198.27   6
   1  -1   2 2012.29 742.352   2
   1  -1   3 731053. 5819.62   7
   1  -1   3 715635. 7325.77   2
  -1  -1  -3 708206. 7723.34   6
  -1  -1  -4 63843.9 2881.90   2
   1  -1   4 57324.7 3174.24   6
  -1  -1  -4 72406.2 1390.20   3
   1  -1   4 68345.2 2791.51   2
   1  -1   4 57174.3 2099.45   7
  -1  -1  -4 65381.3 2950.06   6
  -1  -1  -5 85529.6 3002.85   7
  -1  -1  -5 87556.6 3724.86   2
   1  -1   5 106293. 4450.43   6
   1  -1   5 99352.3 3857.42   2
   1  -1   6 101228. 3286.23   7
   1  -1   6 104928. 4121.54   2
  -1  -1  -7 46286.1 3399.53   6
   1  -1   7 51628.4 3218.50   2
  -1  -1  -8 31696.0 3116.70   6
   1  -1   8 34736.7 2876.17   2
   1  -1   9 103486. 4725.83   2
  -1  -1  -9 103021. 5198.13   6
   1  -1   9 92800.8 3379.83   4
   1  -1  10 35961.1 3271.56   2
   1  -1  10 33146.0 2256.04   4
  -1  -1 -11 27350.3 3393.44   6
   1  -1  11 22358.8 2081.78   4
   1  -1  11 26777.1 3203.36   2
   1  -1  12 24538.7 3187.22   2
  -1  -1 -12 21047.2 3201.31   6
   1  -1  12 17053.0 2160.28   4
   1  -1  13 25110.0 3251.92   2
   1  -1  13 20694.1 2346.24   4
  -1  -1 -13 17179.0 3219.85   6
   1  -1  14 13129.1 2928.18   2
   1  -1  14 9640.41 2012.72   4
  -1  -1 -14 9310.90 2973.96   6
   1   1 -14 12531.2 3282.53   6
  -1   1  14 16665.7 3001.79   2
  -1   1  14 13562.8 1892.26   4
  -1   1  13 2847.53 2451.45   2
  -1   1  13 3665.70 1555.15   4
   1   1 -13 3968.02 2354.08   6
  -1   1  12 46886.6 4105.43   2
  -1   1  12 49003.0 2770.32   4
   1   1 -11 5807.90 2226.81   6
  -1   1  11 7926.42 2306.65   2
  -1   1  11 8431.38 1480.26   4
  -1   1  10 33917.4 2123.55   4
  -1   1  10 33725.3 3392.04   2
  -1   1  10 23974.9 1030.91   3
   1   1 -10 28992.3 3753.41   6
  -1   1   9 27300.3 3214.28   2
  -1   1   9 24490.3 1811.23   4
  -1   1   9 18889.1 894.271   3
   1   1  -9 22505.9 3177.28   6
  -1   1   8 46601.4 3423.45   2
  -1   1   8 45515.8 1228.65   3
  -1   1   8 46404.0 2136.03   4
   1   1  -8 46103.6 3722.31   6
  -1   1   7 69759.5 3886.87   2
  -1   1   7 66859.9 1393.77   3
  -1   1   6 160556. 5315.23   2
   1   1  -6 155374. 3591.49   7
  -1   1   6 154155. 1961.10   3
   1   1  -6 147115. 5622.96   6
  -1   1   6 159388. 4961.62   6
   1   1  -6 159405. 4626.06   2
  -1   1   5 320912. 6870.41   2
   1   1  -5 313242. 7694.01   6
  -1   1   5 323636. 2756.65   3
   1   1  -5 332761. 4855.61   7
   1   1  -5 313922. 5880.97   2
   1   1  -4 99612.4 3083.61   2
  -1   1   4 92602.5 3148.83   6
   1   1  -4 83874.9 3784.78   6
  -1   1   4 91985.5 3447.39   2
  -1   1   4 85625.8 1364.83   3
   1   1  -4 89806.1 2360.08   7
   1   1  -3 452166. 5494.78   2
  -1   1   3 419381. 3074.26   3
   1   1  -3 437367. 7165.85   6
  -1   1   3 424701. 6548.41   2
  -1   1   3 462917. 5938.92   6
   1   1  -3 441367. 4431.94   7
  -1   1   2 119956. 2971.69   2
  -1   1   2 120927. 1662.24   3
  -1   1   2 117312. 2287.20   6
  -1   1   1 115744. 2351.27   2
   1   1  -1 120532. 1781.28   4
  -1   1   0 7070.32 462.104   1
   1   1   0 7590.97 597.648   6
   1   1   0 8533.21 625.041   5
   1   1   0 8367.32 417.919   4
   1   1   0 7859.00 645.696   3
   1   1   1 123946. 2256.53   2
   1   1   1 126276. 1867.97   3
  -1   1  -2 15623.5 1620.43   6
   1   1   2 18877.5 815.472   3
   1   1   2 15137.1 1349.75   2
  -1   1  -2 19635.0 894.188   1
  -1   1  -2 16560.7 970.958   2
  -1   1  -3 738630. 6888.43   2
   1   1   3 757419. 8258.48   2
   1   1   3 742655. 4158.45   3
   1   1   4 61214.9 2875.83   2
   1   1   4 64543.9 1332.18   3
  -1   1  -4 62097.6 2426.69   2
   1   1   5 104738. 4382.76   2
   1   1   5 113075. 1816.13   3
  -1   1  -5 101476. 4768.85   6
  -1   1  -6 89839.1 4624.71   6
   1   1   6 110583. 4600.76   2
  -1   1  -6 97110.3 3610.16   2
  -1   1  -6 96297.0 3026.12   7
   1   1   6 114474. 1894.81   3
  -1   1  -7 29621.0 3091.28   6
   1   1   7 33857.1 2800.38   2
   1   1   7 31922.4 1112.54   3
  -1   1  -8 33389.1 3498.35   6
   1   1   8 34861.3 1209.65   3
   1   1   8 29628.6 2933.31   2
   1   1   9 75210.1 1773.59   3
  -1   1  -9 87244.0 5149.69   6
   1   1   9 87724.6 4684.06   2
   1   1  10 36645.1 3737.23   2
  -1   1 -10 26846.2 3594.35   6
   1   1  10 34367.6 2158.36   4
  -1   1 -11 19960.6 3271.13   6
   1   1  11 22169.7 3106.01   2
   1   1  11 23572.1 1931.59   4
   1   1  12 34698.7 2292.81   4
   1   1  12 38161.1 3897.26   2
   1   1  13 24542.0 3554.03   2
  -1   1 -13 21830.2 3659.70   6
   1   1  13 27646.8 2332.89   4
   1   1  14 20488.0 3488.46   2
  -1   1 -14 10525.3 2939.06   6
   1   1  14 15913.8 2067.49   4
  -1   3  13 8663.15 3006.47   2
   1   3 -13 15783.9 3631.79   6
  -1   3  13 14567.2 1758.69   4
  -1   3  12 4572.57 2520.29   2
   1   3 -12 1249.89 2496.54   6
  -1   3  12 8720.81 1387.73   4
   1   3 -11 16102.1 3285.50   6
  -1   3  11 20608.2 1696.87   4
  -1   3  11 20165.5 3128.34   2
  -1   3  10 59881.4 2432.00   4
  -1   3  10 58444.1 4311.16   2
   1   3  -9 20895.7 3206.35   6
  -1   3   9 24709.1 1613.40   4
  -1   3   9 26484.1 3153.87   2
  -1   3   8 36172.0 3345.62   2
   1   3  -8 27243.7 3134.01   6
   1   3  -8 31628.0 1674.58   1
  -1   3   8 31505.8 1587.59   4
  -1   3   7 81922.4 2187.67   4
   1   3  -7 88105.6 2199.72   1
   1   3  -7 83089.6 4628.70   6
  -1   3   6 24392.8 1555.85   3
  -1   3   6 27597.9 1292.69   4
   1   3  -6 23669.2 1671.66   2
   1   3  -6 21891.3 2689.63   6
   1   3  -6 24578.0 1071.46   1
  -1   3   6 20543.4 1003.08   5
  -1   3   5 10427.6 834.445   5
  -1   3   5 13048.5 2017.52   2
   1   3  -5 10965.7 2097.00   6
   1   3  -5 13559.6 626.693   1
  -1   3   5 11238.0 1096.45   3
   1   3  -5 13426.1 1134.79   2
   1   3  -4 38657.2 2934.41   6
  -1   3   4 37815.2 1436.58   5
  -1   3   4 44685.0 2729.68   2
  -1   3   3 234354. 5075.34   2
   1   3  -3 228646. 5653.92   6
   1   3  -2 38312.1 2218.91   6
   1   3  -1 33443.7 1800.29   6
  -1   3   0 435367. 4506.96   6
   1   3   0 427113. 4548.92   6
  -1   3  -1 4644.33 985.943   6
   1   3   1 5678.08 479.751   4
   1   3   2 18890.0 1222.39   5
  -1   3  -2 21270.5 1942.11   6
  -1   3  -2 18358.1 720.601   1
   1   3   2 19035.3 1460.57   2
   1   3   3 61419.4 1136.88   4
   1   3   3 61231.8 1946.99   5
   1   3   3 62342.3 2257.78   3
   1   3   3 61556.6 2718.14   2
  -1   3  -3 56562.5 3004.99   6
   1   3   4 75684.5 3301.47   2
  -1   3  -4 64780.2 1208.34   1
   1   3   4 71074.4 2385.91   3
  -1   3  -4 74553.9 3793.52   6
   1   3   5 31533.1 2611.38   2
  -1   3  -5 30484.3 2731.50   6
   1   3   5 28694.9 1631.93   3
  -1   3  -5 26451.7 1019.28   1
  -1   3  -6 6398.99 823.846   1
   1   3   6 8346.10 1112.29   3
  -1   3  -6 4454.58 2098.70   6
  -1   3  -7 68944.9 2087.11   1
  -1   3  -7 70711.8 4466.61   6
   1   3   8 68917.7 4155.53   2
  -1   3  -8 54904.3 2106.00   1
  -1   3  -8 63942.8 4376.30   6
  -1   3  -9 77729.2 5144.13   6
   1   3   9 89573.0 4988.39   2
   1   3   9 80398.9 2625.26   4
   1   3  10 17502.4 2969.68   2
  -1   3 -10 17818.9 3307.53   6
   1   3  10 18124.7 1590.00   4
   1   3  11 30328.0 3661.56   2
   1   3  11 35625.6 2099.99   4
  -1   3 -12 638.696 2190.18   6
   1   3  12 2949.20 1322.89   4
   1   3  12 3120.22 2366.01   2
  -1   3 -13 4711.66 2803.44   6
   1   3  13 3997.60 1428.62   4
   1   3  13 3191.42 2572.83   2
   1   5 -11 8016.96 2791.34   6
  -1   5  11 2985.55 2453.24   2
   1   5 -10 6197.72 2621.77   6
  -1   5  10 8398.86 2425.72   2
   1   5  -9 12531.1 2837.02   6
  -1   5   9 23551.6 3006.26   2
   1   5  -8 11093.3 2489.91   6
  -1   5   8 10811.4 2250.26   2
  -1   5   7 22788.0 2560.12   2
   1   5  -7 20170.2 2856.71   6
   1   5  -6 4199.46 1899.89   6
   1   5  -5 74084.6 4064.77   6
   1   5  -4 645.843 1394.50   6
   1   5  -3 2164.40 1295.78   6
   1   5  -2 55254.2 2660.75   6
   1   5  -1 5245.67 1013.42   6
   1   5   0 10266.0 955.464   6
  -1   5   0 8856.08 835.215   6
   1   5   1 9151.50 579.711   6
  -1   5  -1 15757.8 1325.16   6
  -1   5  -2 57352.5 2696.50   6
  -1   5  -3 4620.55 1501.38   6
  -1   5  -4 8660.03 1799.74   6
  -1   5  -5 44447.9 3202.93   6
  -1   5  -6 50268.0 3629.03   6
   1   5   6 61748.7 3428.19   2
  -1   5  -7 6553.96 2262.86   6
   1   5   7 2991.10 1743.15   2
   1   5   8 11552.2 2346.75   2
  -1   5  -8 10234.5 2420.15   6
   1   5   9 25114.7 3122.73   2
  -1   5  -9 13246.1 3028.71   6
  -1   5 -10 1546.00 2288.03   6
   1   5  10 4002.35 2236.49   2
  -1   5 -11 3829.82 2605.45   6
   1   5  11 5474.43 2500.73   2
  -2  -6   9 1679.57 1659.21   3
  -2  -6   9 2824.34 1337.24   4
   2  -6  -9 1428.37 1501.88   1
  -2  -6   8 5405.04 1633.95   3
   2  -6  -8 5792.17 1670.91   1
  -2  -6   8 8497.19 1585.60   4
  -2  -6   7 55162.9 2664.71   4
   2  -6  -7 60256.7 3117.17   1
  -2  -6   7 60183.1 3219.78   3
   2  -6  -6 5097.75 1033.03   3
  -2  -6   6 5663.23 1482.49   3
  -2  -6   6 6160.58 1292.36   4
   2  -6  -6 4943.65 1324.21   1
   2  -6  -5 8849.99 1225.92   3
  -2  -6   5 6077.75 1555.26   3
  -2  -6   5 9525.26 1243.30   4
   2  -6  -5 8275.36 1353.22   1
   2  -6  -4 16390.7 1512.24   1
  -2  -6   4 20956.6 1537.26   4
  -2  -6   4 16858.9 1984.38   3
   2  -6  -4 18464.6 1618.56   3
   2  -6  -3 35744.0 2120.34   3
  -2  -6   3 31774.1 2380.12   3
  -2  -6   3 38533.9 1830.41   4
   2  -6  -2 3858.03 1305.22   3
  -2  -6   2 4874.93 1454.87   3
   2  -6  -2 3884.21 946.680   1
  -2  -6   2 3286.27 862.065   4
  -2  -6   1 12345.0 1741.21   3
  -2  -6   1 12797.5 965.482   4
   2  -6  -1 18920.5 1352.27   1
   2  -6  -1 16491.7 1768.88   3
   2  -6   0 55248.9 2834.55   3
   2  -6   0 58748.2 1746.91   1
  -2  -6   0 53369.5 2706.91   3
  -2  -6  -1 35446.8 2247.60   3
   2  -6   1 37516.7 2547.75   3
  -2  -6  -1 35199.9 1562.90   1
  -2  -6  -2 13041.2 1173.88   1
   2  -6   2 10013.1 1696.05   3
  -2  -6  -2 11126.9 1471.31   3
   2  -6   3 26734.6 1483.70   4
  -2  -6  -3 24864.7 1717.00   1
   2  -6   3 23534.2 2321.94   3
  -2  -6  -3 22790.8 1840.92   3
   2  -6   4 25634.4 2277.93   5
   2  -6   4 28819.9 1691.11   4
   2  -6   4 28890.7 2411.79   3
  -2  -6  -4 23543.7 1708.76   3
  -2  -6  -4 25104.5 1895.18   1
  -2  -6  -5 6405.80 1150.07   3
   2  -6   5 6864.55 1693.39   3
   2  -6   5 4262.63 1125.68   4
   2  -6   5 3774.24 1467.47   5
   2  -6   5 2866.24 989.367   7
  -2  -6  -5 6579.35 1422.16   1
   2  -6   6 16646.0 1636.94   4
   2  -6   6 16232.7 2050.81   5
  -2  -6  -6 14459.1 1335.94   3
   2  -6   6 14293.3 1935.71   3
  -2  -6  -6 16567.1 1901.60   1
   2  -6   7 38960.2 2396.64   4
   2  -6   7 42883.8 2834.91   5
  -2  -6  -7 40010.1 2723.51   1
   2  -6   7 40556.7 2793.04   3
  -2  -6  -8 3966.31 935.172   3
  -2  -6  -8 4166.54 1540.32   1
   2  -6   8 9030.21 1829.14   3
   2  -6   8 4892.17 1572.15   5
   2  -6   8 7941.37 1596.47   4
   2  -6   9 5704.23 1700.21   5
  -2  -6  -9 10121.3 1956.19   1
   2  -6   9 6936.16 1741.45   3
   2  -6   9 10416.8 1730.46   4
  -2  -4  12 32164.8 3120.35   2
  -2  -4  12 37542.7 2530.73   5
  -2  -4  11 9222.03 2095.74   2
  -2  -4  11 12389.1 1745.12   5
  -2  -4  11 8818.46 1800.71   4
  -2  -4  10 24959.2 2193.96   5
  -2  -4  10 26315.6 2608.43   2
  -2  -4  10 25471.7 2315.27   4
   2  -4  -9 44478.8 1436.44   3
  -2  -4   9 55532.0 2826.15   4
  -2  -4   9 51581.1 2832.16   5
  -2  -4   9 54299.9 3146.22   2
   2  -4  -8 16524.8 976.927   3
  -2  -4   8 20464.2 1947.01   5
  -2  -4   8 23364.8 1971.28   4
   2  -4  -8 19482.1 1751.76   6
  -2  -4   8 21347.2 2087.40   2
  -2  -4   7 14162.7 1482.80   7
  -2  -4   7 15458.4 1762.22   2
   2  -4  -7 13154.5 957.754   3
   2  -4  -7 9443.20 1218.43   6
  -2  -4   7 17970.2 1856.49   5
  -2  -4   7 11168.1 1690.58   4
  -2  -4   6 513.114 1127.81   5
   2  -4  -6 764.958 555.700   6
  -2  -4   6 756.795 1046.82   4
   2  -4  -6 2189.77 495.948   6
   2  -4  -6 2228.58 669.788   3
  -2  -4   6 115.132 944.263   7
  -2  -4   6 852.212 1094.39   2
  -2  -4   5 71721.3 2603.00   4
   2  -4  -5 63685.2 1973.24   3
  -2  -4   5 66512.6 2394.63   2
  -2  -4   5 68853.5 3005.58   5
  -2  -4   5 61961.4 2035.06   7
   2  -4  -4 15432.9 1555.89   1
  -2  -4   4 15176.1 1107.96   7
  -2  -4   4 13293.3 1039.84   2
   2  -4  -4 15107.9 1236.30   3
  -2  -4   4 15729.0 1658.73   3
  -2  -4   4 15920.5 1639.13   5
   2  -4  -4 14192.8 1687.63   2
  -2  -4   4 15530.8 1374.45   4
   2  -4  -3 42074.3 2014.51   1
   2  -4  -3 39495.8 1846.09   3
   2  -4  -3 31866.9 2021.74   2
  -2  -4   3 38588.9 2238.24   5
  -2  -4   3 37643.3 2258.15   3
  -2  -4   3 38616.9 1714.91   4
  -2  -4   3 38124.3 2893.32   6
   2  -4  -2 68075.0 2572.93   2
  -2  -4   2 106512. 3975.65   6
  -2  -4   2 97155.4 2334.15   4
   2  -4  -2 87705.7 2815.58   3
   2  -4  -2 79207.3 2443.41   1
  -2  -4   2 83322.8 1046.76   1
  -2  -4   2 84774.4 3087.66   3
  -2  -4   1 592.809 975.866   3
   2  -4  -1 1893.28 710.362   1
   2  -4  -1 604.650 942.911   3
  -2  -4   1 829.558 1069.99   6
  -2  -4   1 1977.16 449.176   1
   2  -4  -1 2041.04 917.752   2
  -2  -4   1 2838.30 676.353   4
   2  -4   0 40690.0 2160.16   3
   2  -4   0 39466.3 1382.19   1
  -2  -4   0 38449.8 1308.98   1
   2  -4   0 39505.6 2004.01   5
   2  -4   0 32692.4 1614.74   2
   2  -4   0 39068.1 1105.21   4
  -2  -4   0 41489.3 2091.24   3
  -2  -4   0 37283.1 1201.51   4
  -2  -4   0 34536.6 1893.88   6
   2  -4   1 2932.77 1055.12   3
   2  -4   1 3771.81 605.183   1
  -2  -4  -1 4837.98 792.017   1
   2  -4   1 3139.57 1093.32   6
  -2  -4  -1 3632.62 817.968   6
  -2  -4  -1 4341.37 684.269   2
   2  -4   1 4064.84 669.717   4
   2  -4   1 5635.34 1188.92   5
  -2  -4  -1 3971.26 1015.86   3
   2  -4   2 48172.7 2336.92   5
  -2  -4  -2 44230.6 1888.03   2
   2  -4   2 47147.6 1656.26   4
   2  -4   2 45099.5 1221.19   1
   2  -4   2 47881.2 2749.51   6
  -2  -4  -2 42978.0 1996.59   3
  -2  -4  -3 43415.3 1323.22   6
  -2  -4  -3 61838.3 2254.51   3
   2  -4   3 68514.7 2836.50   5
   2  -4   3 54264.0 1870.64   2
   2  -4   3 59404.7 3319.24   6
   2  -4   3 51807.6 1315.43   1
   2  -4   3 69842.1 2243.87   4
  -2  -4  -3 66495.9 2592.77   2
  -2  -4  -4 37955.2 1486.52   6
   2  -4   4 50922.3 2075.23   4
   2  -4   4 45807.9 2009.76   2
  -2  -4  -4 47695.2 1840.79   3
  -2  -4  -4 44024.8 2425.30   2
  -2  -4  -4 33481.8 1250.64   6
  -2  -4  -5 102410. 2811.97   6
  -2  -4  -5 117767. 2677.24   3
   2  -4   5 133104. 3723.39   2
  -2  -4  -5 108472. 2384.43   6
   2  -4   5 129740. 3119.59   7
   2  -4   6 67999.2 2494.14   7
  -2  -4  -6 59803.2 1954.15   6
   2  -4   6 77438.8 3101.36   2
  -2  -4  -6 65292.4 1922.73   3
   2  -4   6 82116.9 3019.89   4
  -2  -4  -6 69637.1 2753.24   6
   2  -4   7 38755.4 2144.03   7
  -2  -4  -7 38822.1 1489.23   3
   2  -4   7 39542.3 2568.03   2
  -2  -4  -7 37468.5 2322.45   6
  -2  -4  -8 7799.37 883.944   3
   2  -4   8 11879.1 1696.07   4
   2  -4   8 8650.39 1416.90   7
  -2  -4  -8 8231.34 1608.38   6
   2  -4   8 9810.65 1695.03   2
   2  -4   9 51295.9 3193.60   2
   2  -4   9 51545.1 2749.10   7
  -2  -4  -9 50655.4 3087.98   6
   2  -4   9 58017.3 2967.43   4
   2  -4  10 16142.9 2047.03   4
   2  -4  10 19641.7 2019.76   5
   2  -4  10 16701.9 2298.90   2
   2  -4  11 10537.1 2199.11   2
   2  -4  11 10403.9 1824.44   4
   2  -4  11 11544.3 1735.96   5
   2  -4  12 6646.10 2370.87   2
   2  -4  12 4082.44 1479.04   5
   2  -4  12 5443.50 1693.39   4
   2  -2 -14 13550.3 3212.27   6
  -2  -2  14 16308.8 3029.95   2
  -2  -2  14 20254.2 2282.93   4
   2  -2 -13 8535.75 2771.96   6
  -2  -2  13 11751.8 1971.58   4
  -2  -2  13 11990.8 1524.78   5
  -2  -2  13 11927.0 2770.74   2
  -2  -2  12 57086.3 2521.89   5
  -2  -2  12 64347.4 3285.59   4
   2  -2 -12 59502.1 4257.18   6
  -2  -2  12 60130.0 4338.45   2
   2  -2 -11 2734.75 1845.09   6
  -2  -2  11 2948.49 1990.54   2
  -2  -2  11 663.799 1271.74   4
  -2  -2  11 3773.93 1134.76   5
  -2  -2  10 12895.1 2386.72   2
   2  -2 -10 7915.08 2262.36   6
  -2  -2  10 13189.2 1849.17   4
   2  -2  -9 95615.6 4745.75   6
  -2  -2   9 89409.1 4332.00   2
  -2  -2   9 87164.2 3547.82   4
   2  -2  -8 9333.48 1883.54   6
  -2  -2   8 11081.1 1492.96   4
  -2  -2   8 8088.63 1896.19   2
  -2  -2   7 115131. 4314.55   2
  -2  -2   7 109144. 3426.71   4
   2  -2  -7 115277. 4426.48   6
   2  -2  -6 149115. 4615.95   6
  -2  -2   6 145857. 4433.63   2
  -2  -2   6 136419. 3652.51   4
  -2  -2   5 230049. 4228.25   7
  -2  -2   5 220341. 4281.96   4
   2  -2  -5 188353. 4567.36   6
  -2  -2   5 220633. 6645.83   6
   2  -2  -5 186116. 5202.99   2
  -2  -2   5 216563. 4841.83   2
   2  -2  -5 204259. 2270.20   3
  -2  -2   4 41831.4 1722.29   7
  -2  -2   4 40532.8 2813.18   6
  -2  -2   4 38952.7 1869.21   4
   2  -2  -4 39027.1 1163.15   3
  -2  -2   4 38756.5 2028.39   2
   2  -2  -4 40392.1 2462.43   2
   2  -2  -4 39540.1 1908.56   6
   2  -2  -3 89697.4 1919.85   3
  -2  -2   3 98041.1 2471.97   4
  -2  -2   3 91499.9 2549.11   5
  -2  -2   3 98429.7 2045.65   7
  -2  -2   3 106897. 3991.94   6
   2  -2  -3 95733.3 3256.26   2
  -2  -2   3 99137.0 2581.15   2
   2  -2  -3 94870.7 2153.09   6
   2  -2  -2 233517. 4393.35   2
  -2  -2   2 247803. 3276.12   4
  -2  -2   2 223339. 3827.24   5
  -2  -2   2 255073. 5254.16   6
   2  -2  -2 252251. 3301.30   3
  -2  -2   2 241651. 2943.17   2
  -2  -2   1 58326.8 2292.64   6
   2  -2  -1 62115.9 1652.47   5
   2  -2  -1 60334.4 1661.09   1
  -2  -2   1 63154.2 1503.57   4
   2  -2  -1 61100.3 2060.41   2
  -2  -2   1 59364.0 2010.86   3
   2  -2  -1 56588.2 1737.05   3
  -2  -2   0 128661. 2693.10   6
   2  -2   0 127960. 2370.32   6
   2  -2   0 131785. 1945.51   1
  -2  -2   0 136245. 2756.94   3
   2  -2   0 128453. 1531.20   4
  -2  -2  -1 63965.0 1699.19   2
   2  -2   1 66129.2 1212.02   1
   2  -2   1 63941.2 2370.19   6
  -2  -2  -1 67754.1 1894.69   3
   2  -2   2 372701. 6365.83   6
  -2  -2  -2 359701. 4939.37   2
   2  -2   2 367137. 3034.29   1
  -2  -2  -2 364791. 3970.79   3
   2  -2   2 369104. 3887.79   2
  -2  -2  -3 40010.8 2180.23   2
  -2  -2  -3 38400.4 1265.24   3
   2  -2   4 3726.27 922.727   7
   2  -2   4 2260.33 1529.73   6
   2  -2   4 3741.54 1053.14   2
  -2  -2  -4 2743.74 1070.19   6
  -2  -2  -4 3521.10 1287.62   2
  -2  -2  -4 2748.03 560.142   3
  -2  -2  -5 111237. 4052.26   2
  -2  -2  -5 112439. 3891.57   6
  -2  -2  -5 129256. 2118.59   3
   2  -2   5 132513. 4049.49   2
   2  -2   5 137791. 3292.90   7
  -2  -2  -6 12065.0 1994.51   6
   2  -2   6 9671.38 1772.99   2
   2  -2   6 10480.2 1471.76   7
   2  -2   7 40129.3 2222.74   4
  -2  -2  -7 39207.1 2976.48   6
   2  -2   7 41170.3 2802.21   2
   2  -2   7 46289.3 2351.20   7
   2  -2   8 21491.2 2375.00   2
   2  -2   8 20319.1 1879.84   4
   2  -2   8 20774.2 1877.72   7
  -2  -2  -8 19336.1 2423.31   6
  -2  -2  -9 91493.2 4841.55   6
   2  -2   9 91428.5 4449.07   2
   2  -2   9 95582.0 3476.84   4
   2  -2  10 15119.9 1965.19   4
  -2  -2 -10 9744.01 2327.23   6
   2  -2  10 11716.6 2264.41   2
   2  -2  11 9137.42 2212.15   2
  -2  -2 -11 10936.9 2524.04   6
   2  -2  11 9211.96 1729.31   4
   2  -2  12 28955.5 2549.61   4
   2  -2  12 33407.0 3338.35   2
  -2  -2 -13 19949.8 3190.74   6
   2  -2  13 21212.0 2400.35   4
   2  -2  13 19300.0 3076.78   2
   2  -2  14 12787.8 2127.07   4
  -2  -2 -14 9975.11 2593.40   6
   2  -2  14 9118.63 2726.83   2
  -2   0  14 44486.6 4282.57   2
  -2   0  14 38133.4 2726.06   4
   2   0 -14 36561.2 4494.14   6
   2   0 -13 9394.03 2974.10   6
  -2   0  13 11722.0 1931.68   4
  -2   0  13 11044.7 2695.55   2
  -2   0  12 17423.9 2917.89   2
   2   0 -12 9961.33 2848.20   6
  -2   0  12 11521.8 2004.64   4
   2   0 -11 60999.1 4584.93   6
  -2   0  11 64339.8 4403.13   2
  -2   0  11 72897.4 3162.14   4
  -2   0  10 94875.2 5018.49   2
  -2   0  10 96252.7 1915.66   3
  -2   0  10 105250. 3701.40   4
  -2   0   9 12504.2 838.948   3
  -2   0   9 12200.7 2174.30   2
   2   0  -9 12626.9 2432.12   6
  -2   0   9 10644.7 1487.76   4
   2   0  -8 5588.85 1937.24   6
  -2   0   8 6257.23 1818.09   2
  -2   0   8 6835.14 1248.56   4
   2   0  -7 155545. 5784.86   6
  -2   0   7 146931. 3561.48   4
  -2   0   7 151964. 5269.49   2
   2   0  -6 22172.8 1727.04   7
  -2   0   6 23033.5 2448.70   6
   2   0  -6 18307.0 2015.46   2
   2   0  -6 18726.1 2394.58   6
  -2   0   6 20803.0 1483.06   4
  -2   0   6 20812.7 2292.02   2
   2   0  -5 21898.8 2074.19   2
   2   0  -5 18209.5 2269.17   6
   2   0  -5 28586.0 1714.88   7
  -2   0   5 25356.6 1508.12   4
  -2   0   5 26152.2 2367.06   6
  -2   0   5 22350.6 2218.42   2
  -2   0   4 24467.4 1318.69   4
  -2   0   4 29538.3 2161.05   2
  -2   0   4 23092.3 2033.80   6
   2   0  -4 29250.0 2218.24   6
   2   0  -4 22133.1 1860.12   2
   2   0  -3 141754. 4473.83   6
   2   0  -3 184752. 3824.59   2
  -2   0   3 184454. 3066.77   4
  -2   0   3 75047.2 3542.72   6
  -2   0   3 110604. 4077.01   2
   2   0  -2 143372. 1977.04   4
   2   0  -2 158707. 3007.68   2
  -2   0   2 144996. 2022.14   4
  -2   0   2 158741. 3086.87   2
   2   0  -2 156291. 3127.02   6
  -2   0   2 148313. 3083.11   6
  -2   0   1-164.177 333.166   6
   2   0  -1-115.363 165.264   1
  -2   0   1-194.806 174.836   4
  -2   0   1-207.068 161.001   1
  -2   0   1 90.2701 239.743   2
   2   0  -1-60.5603 219.766   6
   2   0  -1-184.728 350.875   2
   2   0  -1-290.953 186.672   4
  -2   0  -1 1779.84 500.990   1
  -2   0  -1 1162.60 352.886   2
   2   0   2 5538.16 742.995   7
  -2   0  -2 2684.23 1015.41   6
  -2   0  -2 5397.47 726.262   7
  -2   0  -2 4849.70 879.318   2
   2   0   2 5681.43 931.633   2
  -2   0  -3 6915.68 1567.43   6
  -2   0  -3 6429.28 955.205   7
   2   0   3 7396.81 1138.16   7
   2   0   3 7947.02 1387.05   2
  -2   0  -3 5778.33 1118.40   2
  -2   0  -4 221936. 5585.06   6
   2   0   4 226670. 4079.16   7
   2   0   4 228979. 5068.44   2
  -2   0  -4 202548. 3663.18   7
  -2   0  -4 206893. 4597.16   2
   2   0   4 225993. 5468.81   6
  -2   0  -5 17155.4 2080.04   2
  -2   0  -5 24494.7 2734.90   6
   2   0   5 25147.0 2386.92   6
   2   0   5 20157.1 2450.82   2
   2   0   6 25773.3 2934.63   2
  -2   0  -6 17573.0 3096.17   6
  -2   0  -7 190084. 6664.82   6
   2   0   7 217907. 6199.41   2
  -2   0  -8 39445.6 3560.98   6
   2   0   8 37977.7 3018.71   2
   2   0   8 45904.8 1604.37   3
  -2   0  -9 9139.86 2842.60   6
   2   0   9 11833.9 2362.78   2
   2   0   9 5257.05 857.378   3
  -2   0 -10 49624.1 4263.35   6
   2   0  10 55651.8 4023.21   2
   2   0  11 26132.8 2174.47   4
  -2   0 -11 19082.1 3138.02   6
   2   0  11 23111.9 2877.34   2
   2   0  12 3648.08 2288.59   2
  -2   0 -12 2137.50 2358.95   6
   2   0  12 1388.88 1363.53   4
   2   0  13 7629.42 1693.12   4
  -2   0 -13 6520.87 2765.52   6
   2   0  13 8460.62 2761.55   2
   2   0  14 22249.7 2517.28   4
   2   0  14 28134.6 3626.30   2
  -2   0 -14 18273.5 3662.51   6
  -2   2  14 19070.0 1947.90   4
  -2   2  14 17402.4 3325.29   2
   2   2 -14 20706.3 3634.38   6
   2   2 -13 11317.0 3312.49   6
  -2   2  13 15132.2 3130.49   2
  -2   2  13 12729.2 1737.29   4
  -2   2  12 66638.7 2866.39   4
  -2   2  12 68973.0 4855.00   2
   2   2 -12 59073.3 4975.83   6
   2   2 -11 3351.06 2405.80   6
  -2   2  11 4595.19 2356.01   2
  -2   2  11 7429.80 1385.67   4
  -2   2  10 5779.35 2453.37   2
   2   2 -10 9811.48 2706.91   6
  -2   2  10 11405.2 1604.22   4
  -2   2   9 93648.4 2975.02   4
  -2   2   9 95603.6 5085.59   2
  -2   2   8 8891.47 1185.98   4
  -2   2   8 8086.01 2177.39   2
  -2   2   8 4075.37 725.984   3
   2   2  -8 6441.22 2092.26   6
  -2   2   7 112858. 5001.64   2
  -2   2   7 106114. 2148.90   3
   2   2  -7 114364. 5187.66   6
  -2   2   7 114423. 2768.40   4
  -2   2   6 133275. 2805.90   4
   2   2  -6 107331. 5091.96   6
  -2   2   6 131326. 5070.14   2
  -2   2   6 119428. 2335.61   3
   2   2  -6 117252. 3729.72   2
  -2   2   5 225304. 3177.02   4
   2   2  -5 231567. 6561.68   6
  -2   2   5 234013. 6129.60   2
   2   2  -4 42856.7 1854.27   2
  -2   2   4 38317.3 1185.55   4
   2   2  -4 32928.7 2539.71   6
   2   2  -4 40782.5 1300.15   1
  -2   2   4 32447.8 2380.68   2
  -2   2   4 36392.0 1376.21   3
  -2   2   4 35889.8 1005.93   5
  -2   2   3 125503. 3742.61   2
  -2   2   3 118737. 1537.37   4
   2   2  -3 121199. 4363.65   6
   2   2  -2 272960. 3540.78   4
  -2   2   2 262402. 4575.11   2
   2   2  -1 60780.2 2203.57   6
   2   2  -1 60349.5 1529.17   4
   2   2   0 145278. 2512.38   6
   2   2   0 143521. 1884.21   4
  -2   2  -1 47769.4 1087.41   1
   2   2   1 52889.0 1091.23   4
  -2   2  -1 49201.7 2100.73   6
   2   2   1 56293.9 1302.26   6
   2   2   1 53108.7 1698.66   2
   2   2   1 54885.5 1852.02   3
  -2   2  -2 304812. 2575.97   1
   2   2   2 290708. 4713.31   2
  -2   2  -2 303680. 5828.07   6
   2   2   2 293432. 3965.10   3
  -2   2  -3 32805.3 1086.57   1
   2   2   3 34552.2 2171.36   2
   2   2   4 3230.96 745.725   3
  -2   2  -4 3315.42 737.419   1
  -2   2  -4 1073.42 1508.38   6
  -2   2  -4 3874.95 925.274   2
   2   2   4 3461.68 1372.81   2
  -2   2  -5 109525. 4916.78   6
   2   2   5 102505. 4225.44   2
  -2   2  -5 113776. 2728.79   1
  -2   2  -5 108395. 3210.44   2
  -2   2  -6 16710.7 2906.02   6
   2   2   6 23183.2 1261.64   3
  -2   2  -6 19979.5 1525.35   1
  -2   2  -6 17175.1 1703.40   2
  -2   2  -7 47938.5 3780.33   6
   2   2   7 45655.3 3430.35   2
   2   2   7 38499.7 1513.67   3
  -2   2  -7 43966.1 2182.45   1
   2   2   8 29719.2 3084.84   2
   2   2   8 19573.9 1246.15   3
  -2   2  -8 25678.8 3275.81   6
   2   2   9 129794. 5700.46   2
  -2   2  -9 105598. 5789.99   6
  -2   2 -10 14917.2 3073.56   6
   2   2  10 19515.5 3092.84   2
  -2   2 -11 6212.13 2717.59   6
   2   2  11 14160.9 1655.81   4
   2   2  11 9462.33 2832.30   2
   2   2  12 28396.0 2072.99   4
  -2   2 -12 27929.5 3842.74   6
   2   2  12 22162.5 3322.06   2
   2   2  13 23106.3 2149.79   4
   2   2  13 23729.9 3682.89   2
  -2   2 -13 24983.6 3794.78   6
   2   2  14 11669.9 3044.95   2
   2   2  14 11892.6 1868.04   4
  -2   4  12 55776.5 4639.87   2
   2   4 -12 30874.8 4269.89   6
   2   4 -11 6697.51 2587.10   6
  -2   4  11 7688.15 2671.49   2
   2   4 -10 22348.9 3304.98   6
  -2   4  10 28947.1 3367.81   2
  -2   4   9 75237.7 2139.74   4
  -2   4   9 81864.1 4698.99   2
   2   4  -8 22889.0 3034.54   6
  -2   4   8 22324.7 2783.19   2
  -2   4   8 25345.7 1235.37   4
  -2   4   7 12856.2 2448.07   2
  -2   4   7 10654.8 808.056   4
   2   4  -7 11051.2 2386.80   6
  -2   4   6 1790.31 413.599   4
   2   4  -6 899.970 1699.16   6
  -2   4   6 4110.31 1742.91   2
   2   4  -5 73545.1 3983.15   6
  -2   4   5 74519.0 3638.07   2
   2   4  -4 24317.4 2351.69   6
   2   4  -3 33039.6 2473.18   6
   2   4  -2 80178.6 3164.02   6
   2   4  -1 4204.48 1014.52   6
  -2   4   0 34377.1 1413.42   6
   2   4   0 37617.2 1524.15   6
  -2   4  -1 3441.84 965.880   6
   2   4   1 3472.03 574.034   6
   2   4   1 2220.06 476.414   4
  -2   4  -2 45822.8 2455.07   6
   2   4   2 26401.0 791.420   4
   2   4   3 69005.1 2748.13   2
  -2   4  -3 66195.7 3388.42   6
   2   4   4 34932.1 939.206   4
  -2   4  -4 49462.6 3213.86   6
  -2   4  -4 30428.4 844.548   1
   2   4   4 39472.8 1836.09   5
   2   4   4 57254.9 2898.88   2
   2   4   5 98615.2 2727.79   5
  -2   4  -5 138094. 5360.44   6
   2   4   5 146531. 4927.93   2
   2   4   6 60088.7 2077.14   5
  -2   4  -6 72122.0 4110.43   6
  -2   4  -6 53528.1 1219.69   1
   2   4   6 79627.4 3994.37   2
  -2   4  -7 53612.0 3939.25   6
   2   4   7 69756.7 4186.16   2
  -2   4  -8 11653.1 2503.54   6
   2   4   8 8209.87 2218.46   2
   2   4   9 52035.2 1995.82   4
  -2   4  -9 47019.2 4147.20   6
   2   4  10 17228.5 2964.66   2
  -2   4 -10 19202.4 3250.43   6
   2   4  11 11843.1 2780.90   2
  -2   4 -11 16041.4 3235.22   6
  -2   4 -12 4679.35 2654.57   6
   2   4  12 2927.35 2426.70   2
   2   6  -9 1736.02 2132.25   6
   2   6  -8 4429.33 2167.28   6
   2   6  -7 54599.9 3986.99   6
   2   6  -6 8930.65 2207.99   6
   2   6  -5 4809.14 1715.78   6
   2   6  -4 16406.2 2042.63   6
   2   6  -3 29606.0 2250.21   6
   2   6  -2 1788.09 1039.46   6
   2   6  -1 10857.2 1231.72   6
  -2   6  -1 37730.2 1660.52   6
  -2   6  -2 19007.4 1672.19   6
  -2   6  -3 24842.0 2094.72   6
  -2   6  -4 22711.2 2382.37   6
  -2   6  -5 5763.17 1828.44   6
  -2   6  -6 15015.1 2441.35   6
  -2   6  -7 42788.9 3615.47   6
  -2   6  -8 6664.47 2349.16   6
  -2   6  -9 4215.84 2181.18   6
   3  -7  -7 6932.47 1435.63   1
  -3  -7   7 5901.34 1620.32   3
   3  -7  -6 4160.72 1096.69   3
   3  -7  -6 5873.99 1321.04   1
  -3  -7   6 5945.55 1743.81   3
  -3  -7   5 30478.8 2508.13   3
   3  -7  -5 29624.8 2078.23   1
   3  -7  -5 26139.6 1823.04   3
   3  -7  -4 7331.85 1270.46   1
   3  -7  -4 4098.64 1227.55   3
  -3  -7   4 6462.62 1726.19   3
   3  -7  -3 16657.6 1732.59   3
  -3  -7   3 15544.6 2047.83   3
   3  -7  -2 12434.1 1674.41   3
  -3  -7   2 11049.2 1802.40   3
  -3  -7   1 11610.4 1699.72   3
   3  -7  -1 6255.61 1492.46   3
  -3  -7   0 10169.1 1613.15   3
   3  -7   0 15166.6 1943.52   3
   3  -7   1 2134.54 1387.38   3
  -3  -7  -1 1852.33 1273.87   3
   3  -7   2 40717.5 2778.38   3
  -3  -7  -2 40431.0 2391.63   3
  -3  -7  -3 5934.85 1347.68   3
   3  -7   3 3683.41 1499.67   3
  -3  -7  -4 6855.25 1320.99   3
   3  -7   4 7518.22 1724.71   3
   3  -7   5 15430.7 2169.64   3
  -3  -7  -5 16635.2 1759.58   1
  -3  -7  -5 13800.8 1452.80   3
  -3  -7  -6 9818.34 1668.57   1
  -3  -7  -6 5159.04 1132.64   3
   3  -7   6 6266.12 1801.60   3
  -3  -7  -7 7071.60 1648.70   1
  -3  -5  11 2952.23 1539.34   4
   3  -5 -11 1271.34 1519.13   1
  -3  -5  11 840.815 1320.70   3
   3  -5 -10 13828.9 2179.42   1
  -3  -5  10 10213.0 1737.93   4
  -3  -5  10 10878.1 1785.56   3
  -3  -5   9 23384.8 2138.17   3
  -3  -5   9 22942.7 2136.15   4
   3  -5  -9 24179.9 2336.72   1
   3  -5  -8 12272.2 967.797   3
  -3  -5   8 14649.4 1885.68   3
  -3  -5   8 14970.6 1703.30   4
   3  -5  -8 18122.0 2138.37   1
   3  -5  -7 10633.4 1799.43   1
  -3  -5   7 9593.52 1700.97   3
  -3  -5   7 9181.61 1448.06   4
   3  -5  -7 10051.4 985.581   3
  -3  -5   7 6515.85 1170.28   7
  -3  -5   6 2015.88 1120.33   4
  -3  -5   6 2570.70 938.970   7
   3  -5  -6 3045.99 796.620   3
  -3  -5   6 2623.77 1375.21   3
   3  -5  -6 5223.03 1379.62   1
  -3  -5   5 108836. 3164.85   4
   3  -5  -5 103551. 2818.71   3
   3  -5  -5 112277. 3665.46   1
  -3  -5   4 10451.5 928.872   7
  -3  -5   4 14866.7 1335.17   4
   3  -5  -4 13865.9 1339.01   3
  -3  -5   4 14882.5 1766.55   3
   3  -5  -4 14891.7 1533.51   1
  -3  -5   3 6790.59 1479.02   3
  -3  -5   3 5868.34 975.773   4
   3  -5  -3 5950.91 1220.75   2
   3  -5  -3 8698.93 1249.84   3
   3  -5  -3 6412.41 1108.63   1
   3  -5  -2 82988.1 2965.94   3
   3  -5  -2 77253.9 2448.38   1
  -3  -5   2 81774.3 2335.82   4
  -3  -5   2 84476.1 3298.45   3
  -3  -5   2 85009.2 3797.08   6
  -3  -5   1 10187.8 695.012   1
  -3  -5   1 7400.23 1466.73   6
   3  -5  -1 11076.8 1541.64   3
  -3  -5   1 9807.31 940.400   4
  -3  -5   1 11639.9 1546.06   3
   3  -5  -1 13049.8 1111.14   1
   3  -5  -1 9378.96 1243.70   2
   3  -5   0 62694.8 2794.02   3
  -3  -5   0 61534.4 2678.49   3
  -3  -5   0 64487.6 1686.02   1
  -3  -5   0 55430.2 2526.14   6
   3  -5   0 59830.9 1783.63   1
   3  -5   0 56749.4 1241.36   4
   3  -5   1 28692.9 2091.15   5
   3  -5   1 15312.8 1193.58   2
  -3  -5  -1 23841.6 1804.26   3
  -3  -5  -1 13180.7 609.545   2
   3  -5   1 28289.1 1156.53   4
   3  -5   1 25578.7 2067.72   3
   3  -5   1 23394.4 1118.69   1
  -3  -5  -1 24617.2 1379.66   1
  -3  -5  -1 17574.4 1351.27   6
  -3  -5  -2 45120.5 1597.68   2
   3  -5   2 35297.0 1326.68   2
   3  -5   2 55197.9 2786.60   3
  -3  -5  -2 29862.5 1298.05   6
  -3  -5  -2 53640.9 2377.67   3
   3  -5   2 53447.1 2659.76   5
  -3  -5  -2 54414.6 2124.24   1
   3  -5   2 53637.2 1775.65   4
   3  -5   2 44990.6 1339.48   1
  -3  -5  -3 1783.28 364.337   6
  -3  -5  -3 4908.09 1080.05   3
  -3  -5  -3 3544.72 948.448   2
   3  -5   3 3922.00 561.569   1
   3  -5   3 5005.39 1372.41   5
   3  -5   3 5381.10 1010.01   4
   3  -5   3 2966.19 757.530   2
  -3  -5  -3 1992.16 383.111   6
   3  -5   4 40652.5 2481.30   5
  -3  -5  -4 35300.6 1829.56   3
   3  -5   4 37685.0 1897.59   4
   3  -5   5 27820.5 1818.56   4
   3  -5   5 24818.6 1578.97   7
   3  -5   5 23503.6 1744.83   2
   3  -5   6 39608.5 2276.53   2
   3  -5   6 39449.2 1997.92   7
   3  -5   6 54006.7 2556.66   4
   3  -5   6 53123.9 2918.40   5
  -3  -5  -6 45367.0 1850.37   3
  -3  -5  -7 1996.66 818.035   3
   3  -5   7 3750.95 1274.16   4
   3  -5   7 2767.28 1273.08   2
   3  -5   7 3864.22 1095.41   7
   3  -5   7 4223.11 1434.34   5
   3  -5   8 9352.35 1482.24   7
   3  -5   8 9419.83 1722.83   5
  -3  -5  -8 6641.19 908.042   3
   3  -5   8 8060.09 1555.03   2
   3  -5   9 32246.9 2399.79   4
  -3  -5  -9 23536.8 1381.15   3
   3  -5   9 32331.4 2525.42   5
   3  -5   9 26916.9 2068.66   7
   3  -5  10 8541.71 1646.89   7
   3  -5  10 11636.3 1871.04   5
   3  -5  10 11039.6 1861.23   4
   3  -5  11 10661.9 1867.26   5
   3  -5  11 13974.1 2009.16   4
  -3  -3  13 11416.4 2524.23   2
  -3  -3  13 8444.14 1515.91   5
  -3  -3  13 7673.77 1870.55   4
  -3  -3  12 13376.1 2062.09   4
  -3  -3  12 7342.68 1498.69   5
  -3  -3  12 8812.03 2273.64   2
   3  -3 -12 12253.0 2487.07   6
  -3  -3  11 9559.54 1781.32   4
  -3  -3  11 10145.2 2190.04   2
   3  -3 -11 11596.1 2358.42   6
  -3  -3  11 9673.15 1513.34   5
  -3  -3  10 127522. 5163.26   2
  -3  -3  10 116269. 3751.81   5
   3  -3 -10 122634. 5059.80   6
  -3  -3  10 123280. 4296.02   4
  -3  -3   9 33840.3 2817.69   2
  -3  -3   9 37186.0 2446.29   4
   3  -3  -9 37662.4 2780.24   6
  -3  -3   9 30754.2 2133.56   5
  -3  -3   8 9483.13 1534.18   4
   3  -3  -8 9908.06 1758.11   6
   3  -3  -8 8139.10 723.851   3
  -3  -3   8 11083.1 1852.53   2
  -3  -3   8 9222.81 1442.58   5
   3  -3  -7 103038. 1801.06   3
  -3  -3   7 107472. 4020.73   2
  -3  -3   7 104667. 3423.37   5
  -3  -3   7 108338. 3527.24   4
   3  -3  -7 100187. 3580.52   6
  -3  -3   6 33288.3 2025.88   4
  -3  -3   6 34278.4 1892.82   7
  -3  -3   6 39129.8 2164.49   5
  -3  -3   6 39150.0 2349.07   2
   3  -3  -6 34523.8 1167.06   3
   3  -3  -6 39846.1 2164.34   6
  -3  -3   5 11869.1 1398.19   2
   3  -3  -5 10916.7 1077.71   6
  -3  -3   5 14482.4 1411.23   4
   3  -3  -5 11724.6 864.546   3
  -3  -3   5 12874.3 1172.69   7
  -3  -3   5 14417.3 1491.57   5
   3  -3  -4 6856.34 488.074   6
   3  -3  -4 6038.16 1423.12   2
  -3  -3   4 8051.10 1089.23   2
   3  -3  -4 4087.93 498.522   6
  -3  -3   4 7081.43 1173.07   5
  -3  -3   4 5560.81 774.171   7
  -3  -3   4 9316.33 2050.71   6
  -3  -3   4 7107.66 1087.76   4
   3  -3  -4 8155.33 848.447   3
  -3  -3   3 79148.2 2691.33   3
   3  -3  -3 72034.3 2093.00   3
   3  -3  -3 72622.0 2468.72   1
  -3  -3   3 69645.1 1690.87   7
  -3  -3   3 71525.5 2181.18   4
   3  -3  -3 73307.6 2956.73   2
  -3  -3   3 76568.3 3651.43   6
  -3  -3   3 68855.9 1830.69   2
   3  -3  -2 14715.5 1164.64   3
   3  -3  -2 13973.8 1388.88   2
   3  -3  -2 15133.1 1168.32   1
  -3  -3   2 17217.0 1873.47   6
  -3  -3   2 17366.2 1122.80   4
  -3  -3   1 21772.1 1528.87   3
  -3  -3   1 15729.4 629.568   1
   3  -3  -1 22468.9 1526.70   3
   3  -3  -1 22427.3 1535.71   2
   3  -3  -1 19358.5 1116.93   1
  -3  -3   1 18408.1 1664.39   6
  -3  -3   1 18362.7 1076.34   4
   3  -3   0 137967. 3088.62   5
  -3  -3   0 138803. 2181.46   4
  -3  -3   0 132641. 3246.21   6
  -3  -3   0 139533. 3363.50   3
   3  -3   0 129434. 1729.22   4
   3  -3   0 137616. 2340.11   1
  -3  -3  -1 100162. 2707.75   3
  -3  -3  -1 103321. 2100.76   2
  -3  -3  -1 95025.1 2397.82   6
   3  -3   1 103330. 1827.12   1
   3  -3   1 106013. 3142.34   6
   3  -3   1 93071.1 1943.49   4
  -3  -3  -2 38380.6 1420.27   6
   3  -3   2 47862.4 2655.84   6
   3  -3   2 42323.1 1217.56   1
   3  -3   2 44362.5 1607.57   4
   3  -3   2 43455.0 1484.07   2
  -3  -3  -2 47033.6 1855.09   3
  -3  -3  -2 47432.1 1868.65   2
  -3  -3  -3 105855. 2479.78   3
   3  -3   3 93019.8 2512.62   2
   3  -3   3 104668. 2100.24   1
  -3  -3  -3 127144. 3428.53   2
   3  -3   3 110813. 2676.29   4
   3  -3   3 87802.0 3821.05   6
  -3  -3  -3 119944. 2494.44   6
   3  -3   4 114381. 4638.13   6
  -3  -3  -4 93155.3 2270.94   6
   3  -3   4 113301. 3197.69   2
   3  -3   4 101715. 2832.20   4
  -3  -3  -4 109462. 3577.62   2
  -3  -3  -4 99900.1 2298.51   3
   3  -3   5 8246.70 1332.61   2
  -3  -3  -5 6036.93 1273.14   6
   3  -3   5 7393.31 1080.66   7
  -3  -3  -5 4921.94 827.487   6
  -3  -3  -5 7525.98 798.732   3
   3  -3   5 8193.27 1263.36   4
   3  -3   6 14184.7 1619.77   4
  -3  -3  -6 17803.7 1040.58   3
  -3  -3  -6 12025.5 1867.08   6
   3  -3   6 2730.04 1309.14   2
   3  -3   6 7056.29 1250.79   7
  -3  -3  -6 16926.9 1356.41   6
   3  -3   7 59822.1 3193.94   2
   3  -3   7 61847.9 2717.44   4
  -3  -3  -7 58632.0 3267.55   6
   3  -3   7 58312.4 2545.15   7
  -3  -3  -7 49843.3 2152.63   6
  -3  -3  -7 56271.5 1662.21   3
   3  -3   8 76010.6 3078.02   4
   3  -3   8 62301.6 3410.31   2
  -3  -3  -8 65503.7 1874.58   3
  -3  -3  -8 71901.3 3741.96   6
   3  -3   8 70447.4 2989.43   7
   3  -3   9 12854.7 2266.79   2
   3  -3   9 22366.7 2246.60   4
   3  -3   9 9503.26 1691.10   7
  -3  -3  -9 20503.6 2687.62   6
  -3  -3 -10 4716.90 1959.68   6
   3  -3  10 6663.54 2049.54   2
  -3  -3 -11 12062.9 2391.11   6
   3  -3  11 11940.6 1994.59   4
   3  -3  11 11287.2 2171.13   2
  -3  -3 -12 79.6861 1970.53   6
   3  -3  12-1123.39 1859.27   2
   3  -3  12 1616.63 1571.67   4
   3  -3  13 3062.84 1595.31   4
  -3  -3 -13 4297.77 2314.03   6
   3  -3  13 7262.05 2353.64   2
  -3  -1  14 1965.51 2301.70   2
   3  -1 -14 2594.68 2416.52   6
  -3  -1  14 1614.31 1550.70   4
   3  -1 -13 4643.99 2428.15   6
  -3  -1  13 5365.69 1616.27   4
  -3  -1  13 7325.46 2415.56   2
  -3  -1  12 71532.9 3374.55   4
  -3  -1  12 82181.4 4923.20   2
   3  -1 -12 73339.7 4925.18   6
  -3  -1  12 67952.4 2444.22   5
  -3  -1  11 640.672 1881.16   2
  -3  -1  11 3947.34 1415.97   4
   3  -1 -11 4700.90 2026.75   6
  -3  -1  10 32613.7 3198.87   2
   3  -1 -10 24930.6 3017.30   6
  -3  -1  10 29610.9 2328.75   4
  -3  -1   9 56122.2 3675.73   2
  -3  -1   9 54675.7 2691.18   4
   3  -1  -9 50751.9 3732.37   6
  -3  -1   8 44468.4 3120.55   2
   3  -1  -8 40797.2 3274.91   6
  -3  -1   8 41518.5 2325.90   4
  -3  -1   7 111832. 4448.20   2
   3  -1  -7 106374. 4529.50   6
  -3  -1   7 105681. 3287.11   4
   3  -1  -6 45655.4 3262.81   6
  -3  -1   6 46010.3 2256.70   4
  -3  -1   6 39291.1 2662.15   2
  -3  -1   5 131454. 4513.96   2
  -3  -1   5 149595. 3553.96   4
   3  -1  -5 138751. 4736.98   2
  -3  -1   5 141738. 5163.47   6
  -3  -1   4 51817.6 1953.24   4
  -3  -1   4 53124.2 3064.87   6
  -3  -1   4 50249.1 2381.96   2
   3  -1  -4 57785.9 2613.35   6
   3  -1  -4 60864.1 882.407   3
   3  -1  -4 52746.1 2682.51   2
  -3  -1   3 934029. 10220.9   6
  -3  -1   3 938836. 6700.10   4
  -3  -1   3 892534. 7959.57   2
   3  -1  -3 971736. 8018.74   6
  -3  -1   3 904126. 6274.47   5
   3  -1  -3 944923. 9341.95   2
  -3  -1   2 84979.7 2828.60   6
   3  -1  -2 89270.2 1295.87   4
   3  -1  -2 92327.7 1957.30   6
   3  -1  -2 90134.8 1307.07   3
  -3  -1   2 89326.6 1963.59   5
  -3  -1   2 86712.8 1911.80   4
   3  -1  -2 89888.3 2766.20   2
  -3  -1   2 96228.3 1851.39   3
  -3  -1   2 99953.4 2191.20   2
  -3  -1   1 107213. 1742.86   4
  -3  -1   1 107501. 2596.40   6
   3  -1   0 294437. 2479.97   1
  -3  -1   0 293424. 2894.75   3
  -3  -1  -1 5739.85 639.359   6
  -3  -1  -1 6298.72 601.461   7
   3  -1   1 8069.35 660.169   1
  -3  -1  -1 6327.06 696.024   2
  -3  -1  -1 6160.99 567.878   3
   3  -1   2 370432. 4141.14   2
  -3  -1  -2 378617. 3034.63   3
  -3  -1  -2 334388. 3817.37   7
   3  -1   2 390097. 3972.70   1
  -3  -1  -2 360231. 3756.42   6
  -3  -1  -2 358104. 4605.47   2
  -3  -1  -3 155882. 3667.01   2
   3  -1   3 148742. 3473.19   2
  -3  -1  -3 170689. 3181.44   7
   3  -1   3 164951. 2998.65   7
   3  -1   4 63824.1 2669.70   2
  -3  -1  -4 57628.2 2237.29   7
  -3  -1  -4 54965.2 2572.45   2
  -3  -1  -4 61536.4 2956.13   6
  -3  -1  -4 67414.7 1598.04   3
   3  -1   4 61946.3 2089.57   7
   3  -1   4 62022.9 3328.40   6
   3  -1   5 188972. 5024.56   2
   3  -1   5 194601. 4119.83   7
  -3  -1  -5 182103. 5315.26   6
  -3  -1  -5 180426. 4082.10   7
   3  -1   6 109881. 3321.49   7
   3  -1   6 103749. 4071.04   2
  -3  -1  -6 103782. 4404.40   6
   3  -1   7 97796.2 3374.58   7
   3  -1   7 93360.4 4106.79   2
  -3  -1  -7 89242.6 4404.17   6
   3  -1   8 25166.9 2563.26   2
  -3  -1  -8 29921.9 3066.06   6
  -3  -1  -9 98805.6 5233.04   6
   3  -1   9 101345. 4761.79   2
   3  -1  10 25510.2 2949.73   2
  -3  -1 -10 25281.7 3286.66   6
   3  -1  11 40894.3 3595.87   2
   3  -1  11 40967.2 2642.61   4
  -3  -1 -11 50838.3 4209.60   6
  -3  -1 -12 21349.1 3336.94   6
   3  -1  12 14736.2 2004.64   4
   3  -1  12 16126.9 2825.69   2
   3  -1  13 59946.6 3280.63   4
   3  -1  13 53669.1 4406.92   2
   3  -1  14 12128.8 2916.54   2
   3  -1  14 8696.28 2032.10   4
  -3  -1 -14 6098.29 2605.12   6
  -3   1  14 8845.93 2926.33   2
  -3   1  14 8277.13 1681.79   4
  -3   1  13 10964.5 1663.92   4
   3   1 -13 6804.80 2916.71   6
   3   1 -12 74732.7 5284.55   6
  -3   1  12 78065.4 5110.83   2
  -3   1  12 79046.4 3169.12   4
   3   1 -11 2863.75 2115.05   6
  -3   1  11 6079.01 2356.73   2
  -3   1  11 3927.34 1352.56   4
   3   1 -10 31649.0 3548.64   6
  -3   1  10 47748.6 3758.41   2
  -3   1  10 46990.3 2468.73   4
  -3   1  10 33274.1 1054.40   3
  -3   1   9 54409.7 3972.74   2
   3   1  -9 54294.0 4150.85   6
  -3   1   9 64498.3 2672.62   4
  -3   1   8 34351.5 1896.94   4
  -3   1   8 36923.7 3130.93   2
   3   1  -8 33760.5 3205.95   6
  -3   1   8 28680.3 913.736   3
   3   1  -7 112136. 5242.21   6
  -3   1   7 105982. 4406.57   6
  -3   1   7 102673. 1515.68   3
  -3   1   7 116444. 3006.68   4
  -3   1   7 113118. 4861.95   2
  -3   1   6 31378.9 2948.26   2
  -3   1   6 27012.9 2298.74   6
   3   1  -6 26986.2 1813.93   7
  -3   1   6 24318.2 824.594   3
   3   1  -6 25322.1 2875.33   6
   3   1  -6 32520.2 2635.89   2
  -3   1   6 33655.5 1909.53   4
  -3   1   5 130908. 1603.41   3
  -3   1   5 157944. 4894.76   6
  -3   1   5 147210. 5220.64   2
   3   1  -5 165938. 5511.86   6
   3   1  -5 164679. 4707.70   2
  -3   1   5 146035. 3330.61   4
  -3   1   4 68126.2 2735.23   6
  -3   1   4 59959.9 1053.03   3
   3   1  -4 69323.3 2664.80   2
   3   1  -4 68144.8 2045.88   7
  -3   1   4 61632.7 2978.86   2
  -3   1   4 62260.4 1696.60   4
  -3   1   3 870321. 9505.37   2
   3   1  -3 850048. 9972.30   6
  -3   1   3 862332. 3984.21   3
  -3   1   3 875452. 5225.09   4
   3   1  -3 914709. 7756.07   2
   3   1  -3 882466. 6557.80   4
   3   1  -3 900502. 6009.02   7
  -3   1   2 82775.5 1937.17   6
   3   1  -2 84652.9 1487.32   7
  -3   1   2 84865.9 1237.89   4
  -3   1   2 89793.2 2692.17   2
   3   1  -2 80280.5 1004.31   1
   3   1  -2 81002.5 1895.46   4
   3   1  -2 85510.8 2782.33   6
   3   1  -2 86874.6 2078.83   2
   3   1  -1 119712. 2706.34   6
   3   1  -1 118016. 1859.91   4
   3   1   0 278406. 3121.79   6
  -3   1   0 275543. 2444.29   1
   3   1   0 308744. 2617.65   4
   3   1   0 309236. 3103.93   3
   3   1   1 3770.59 593.577   3
  -3   1  -1 2991.99 516.379   1
  -3   1  -1 3278.36 974.325   6
   3   1   1 3796.54 584.814   6
   3   1   1 3629.90 737.395   2
   3   1   2 370193. 3155.47   3
  -3   1  -2 383214. 3572.19   1
   3   1   2 374345. 5096.24   2
  -3   1  -3 153450. 3200.20   2
  -3   1  -3 127856. 4663.54   6
   3   1   3 166611. 4005.45   2
  -3   1  -3 140264. 3045.79   1
   3   1   3 177256. 2252.35   3
  -3   1  -4 79150.6 2539.56   1
  -3   1  -4 80859.0 3783.04   6
   3   1   4 85735.0 1656.12   3
  -3   1  -4 73479.1 2580.05   2
   3   1   4 82801.1 3322.14   2
  -3   1  -5 183534. 6127.13   6
  -3   1  -5 171170. 4291.32   1
   3   1   5 172476. 5225.68   2
   3   1   5 177586. 2487.11   3
  -3   1  -5 177877. 4366.01   2
   3   1   6 133466. 2214.42   3
   3   1   6 124813. 4657.53   2
  -3   1  -7 87661.8 4936.40   6
   3   1   7 78667.4 4031.26   2
   3   1   7 84713.3 1841.65   3
   3   1   8 25898.0 2734.26   2
   3   1   8 22440.1 1129.50   3
  -3   1  -8 29325.8 3361.81   6
  -3   1  -9 109076. 5787.43   6
   3   1   9 111499. 5302.68   2
   3   1  10 25428.8 3215.49   2
  -3   1 -10 19807.1 3300.03   6
  -3   1 -11 38508.9 3999.28   6
   3   1  11 42190.7 3853.27   2
   3   1  12 21506.3 3249.81   2
   3   1  12 22359.4 1987.31   4
  -3   1 -12 14256.8 3184.16   6
   3   1  13 50585.8 4550.87   2
   3   1  13 46348.2 2734.85   4
  -3   1 -13 38293.7 4530.19   6
   3   1  14 7795.88 2727.87   2
   3   1  14 4660.81 1683.16   4
  -3   1 -14 1907.45 2426.58   6
   3   3 -13 5125.83 2826.59   6
  -3   3  13 14924.4 3267.07   2
  -3   3  12 5803.37 2666.61   2
  -3   3  12 8082.48 1451.76   4
   3   3 -12 4875.02 2670.72   6
  -3   3  11 17163.5 1553.41   4
   3   3 -11 10901.1 2795.29   6
  -3   3  11 11853.2 2833.78   2
  -3   3  10 126221. 6060.65   2
  -3   3  10 131236. 3268.41   4
   3   3 -10 125015. 6695.72   6
   3   3  -9 32423.2 3756.92   6
  -3   3   9 37298.0 3576.10   2
  -3   3   9 39582.1 1833.44   4
   3   3  -8 7605.11 2367.46   6
   3   3  -8 9665.77 1125.92   1
  -3   3   8 7970.00 2264.73   2
  -3   3   8 10552.2 1039.99   4
  -3   3   7 81869.4 2106.61   4
   3   3  -7 104021. 2284.43   1
  -3   3   7 90125.0 4595.18   2
   3   3  -7 105728. 5356.20   6
  -3   3   6 35466.4 2943.36   2
  -3   3   6 40059.3 1353.57   4
   3   3  -6 36825.1 1082.79   1
   3   3  -6 36847.1 1946.42   2
   3   3  -5 8393.63 354.726   1
  -3   3   5 8454.80 1811.99   2
  -3   3   5 8774.52 674.350   4
   3   3  -5 10786.8 1066.70   2
   3   3  -5 8620.97 1871.57   6
   3   3  -4 15322.3 2009.23   6
  -3   3   4 16129.3 1882.44   2
   3   3  -4 17950.2 1071.66   2
   3   3  -3 79518.3 3506.14   6
   3   3  -2 20843.5 1826.16   6
   3   3  -2 15480.6 1140.12   4
   3   3  -1 20063.3 1511.54   6
   3   3  -1 19705.5 1119.81   4
   3   3   0 122561. 2111.44   4
  -3   3   0 118069. 2449.22   6
   3   3   0 119852. 2628.87   6
   3   3   1 116419. 3057.37   3
   3   3   1 97217.9 1671.94   4
  -3   3  -1 99658.8 1955.50   1
   3   3   1 109438. 2866.96   5
   3   3   1 108629. 2142.91   6
  -3   3  -1 108082. 3055.34   6
   3   3   2 35144.0 1838.78   2
   3   3   2 32825.8 1017.69   4
  -3   3  -2 41619.3 2408.93   6
   3   3   2 38100.0 1903.16   3
  -3   3  -2 30547.1 1008.60   1
  -3   3  -3 87953.0 3994.26   6
   3   3   3 90881.0 2742.24   3
  -3   3  -3 93189.7 1701.49   1
   3   3   4 115011. 4043.94   2
  -3   3  -4 110934. 4641.69   6
   3   3   4 106420. 2939.43   3
  -3   3  -5 8176.96 811.473   1
  -3   3  -5 10613.9 2203.93   6
   3   3   5 8257.97 1764.10   2
   3   3   5 7770.91 1154.29   3
  -3   3  -6 7727.82 942.409   1
  -3   3  -6 4500.55 2017.71   6
  -3   3  -7 69070.3 4497.54   6
   3   3   7 73154.1 4233.56   2
  -3   3  -8 63592.1 4506.37   6
   3   3   8 77495.8 4521.17   2
  -3   3  -9 8112.09 2689.82   6
   3   3   9 21086.9 3162.68   2
   3   3  10 8292.71 2664.91   2
  -3   3 -10 12230.3 3097.74   6
   3   3  11 16301.8 1645.06   4
  -3   3 -11 13383.1 3139.93   6
   3   3  11 9187.03 2829.40   2
   3   3  12 327.350 1110.48   4
  -3   3 -12-2316.60 2486.67   6
   3   3  12-2892.09 2450.75   2
   3   3  13 2250.07 2674.60   2
  -3   3 -13 1284.54 2561.08   6
   3   3  13 6656.55 1581.86   4
  -3   5  11 2715.25 2395.78   2
   3   5 -11-1483.77 2391.50   6
   3   5 -10 7149.74 2482.87   6
  -3   5  10 10457.7 2496.11   2
  -3   5   9 22249.3 2889.75   2
   3   5  -9 22346.3 3134.47   6
   3   5  -8 14834.0 2688.63   6
   3   5  -7 7241.56 2108.99   6
   3   5  -6 3873.67 1863.44   6
   3   5  -5 94435.9 4452.78   6
   3   5  -4 13713.3 2023.17   6
   3   5  -3 5463.65 1441.69   6
   3   5  -2 74704.5 3013.87   6
   3   5  -1 13155.1 1352.63   6
  -3   5   0 57374.9 1634.02   6
   3   5   0 66456.5 2162.70   6
  -3   5  -1 27965.6 1643.31   6
   3   5   1 19570.8 995.563   6
  -3   5  -2 57484.5 2698.06   6
  -3   5  -3 7679.94 1624.44   6
   3   5   3 2684.46 278.045   4
  -3   5  -4 47747.3 3102.30   6
  -3   5  -5 27715.4 2793.82   6
   3   5   5 27498.5 2347.25   2
   3   5   6 67012.0 3632.68   2
  -3   5  -6 58627.6 4007.09   6
   3   5   7 4666.98 1852.92   2
  -3   5  -7-18.0803 1965.22   6
  -3   5  -8 18816.3 3091.91   6
   3   5   8 10939.8 2257.69   2
   3   5   9 40714.7 3599.06   2
  -3   5  -9 40143.8 4238.29   6
   3   5  10 13947.5 2687.73   2
  -3   5 -10 8732.74 2852.91   6
   3   5  11 11240.5 2740.11   2
  -3   5 -11 7836.15 2852.88   6
  -4  -6   9 4328.01 1587.10   3
   4  -6  -9 3817.62 1569.49   1
  -4  -6   9 6209.14 1552.04   4
   4  -6  -8 4854.73 1555.25   1
  -4  -6   8 4456.69 1538.16   3
  -4  -6   8 5515.71 1430.00   4
  -4  -6   7 51147.6 2607.63   4
   4  -6  -7 43190.6 2678.44   1
  -4  -6   7 46971.7 2912.57   3
  -4  -6   6 13450.7 1871.08   3
  -4  -6   6 11040.5 1407.20   4
   4  -6  -6 11260.2 1207.45   3
   4  -6  -6 9481.37 1553.84   1
  -4  -6   5 14251.4 1940.07   3
   4  -6  -5 15541.3 1552.90   1
   4  -6  -5 12239.0 1301.95   3
  -4  -6   5 17662.0 1583.62   4
  -4  -6   4 15568.3 1969.60   3
  -4  -6   4 16484.5 1491.43   4
   4  -6  -4 12644.2 1414.67   1
   4  -6  -4 13809.7 1465.61   3
  -4  -6   3 53332.1 3023.37   3
   4  -6  -3 54756.2 2297.10   1
   4  -6  -3 48872.7 2433.58   3
   4  -6  -2 30035.8 1670.09   1
  -4  -6   2 28170.4 1475.28   4
   4  -6  -2 28082.3 2104.84   3
  -4  -6   2 30723.0 2308.54   3
   4  -6  -1 18587.8 1313.73   1
  -4  -6   1 16005.4 1123.11   4
  -4  -6   1 15911.4 1773.71   3
   4  -6   0 65117.5 1987.50   1
  -4  -6   0 60604.6 2872.80   3
   4  -6   0 64530.1 3031.21   3
   4  -6   1 53753.3 2905.64   3
  -4  -6  -1 50901.8 1786.96   1
  -4  -6  -1 45454.5 2471.97   3
  -4  -6  -2 21111.9 1463.42   1
  -4  -6  -2 21143.8 1817.63   3
   4  -6   2 20867.5 2169.86   3
   4  -6   3 20424.4 1373.07   4
   4  -6   3 20807.7 2106.93   5
  -4  -6  -3 17377.2 1591.18   3
  -4  -6  -3 18944.0 1576.35   1
   4  -6   4 29174.7 2392.52   3
   4  -6   4 29704.2 1727.72   4
  -4  -6  -4 29969.0 2032.62   1
  -4  -6  -4 28609.3 1796.06   3
   4  -6   4 29184.9 2316.79   5
  -4  -6  -5 6124.19 1113.34   3
   4  -6   5 5069.88 1082.03   7
   4  -6   5 5973.31 1200.20   4
   4  -6   5 4933.28 1534.73   5
  -4  -6  -6 8415.58 1143.65   3
   4  -6   6 9183.15 1771.92   5
   4  -6   6 10373.5 1462.63   4
  -4  -6  -7 13208.4 1263.27   3
   4  -6   7 18972.7 2188.57   5
   4  -6   7 9475.15 1343.57   7
   4  -6   7 23250.6 1970.75   4
   4  -6   8 14625.9 1805.58   4
   4  -6   8 14090.7 2018.55   5
   4  -6   9 9643.07 1674.57   4
   4  -6   9 9425.43 1823.66   5
  -4  -4  12 27049.1 2069.54   3
  -4  -4  12 27296.5 2480.91   4
   4  -4 -12 20129.7 2493.93   1
  -4  -4  12 27246.8 2969.23   2
  -4  -4  11 9056.00 1504.12   3
   4  -4 -11 13510.0 2061.84   1
  -4  -4  11 8841.45 1730.82   4
  -4  -4  11 10258.9 1685.16   5
  -4  -4  11 10430.0 2179.55   2
  -4  -4  10 23739.4 2500.66   2
  -4  -4  10 18687.9 2045.46   5
  -4  -4  10 21693.1 2149.97   4
  -4  -4  10 20047.5 1864.36   3
  -4  -4   9 37224.1 2345.23   3
  -4  -4   9 34605.7 2752.28   2
  -4  -4   9 35724.3 2554.52   4
  -4  -4   9 40187.6 2499.05   5
   4  -4  -8 17815.7 1577.77   6
  -4  -4   8 18612.3 1971.43   2
  -4  -4   8 17163.7 1984.35   5
  -4  -4   8 18132.8 1768.65   4
   4  -4  -8 20614.2 2189.57   1
   4  -4  -8 13502.7 875.139   3
  -4  -4   8 13953.3 1594.94   3
  -4  -4   7 32841.0 2151.71   3
   4  -4  -7 31953.7 1571.14   6
  -4  -4   7 40062.6 2402.95   2
  -4  -4   7 33751.2 2339.58   5
  -4  -4   7 35312.6 2212.99   4
   4  -4  -7 36790.3 1339.98   3
   4  -4  -7 42653.2 2584.58   1
  -4  -4   6 29909.2 1912.31   2
   4  -4  -6 20082.1 696.346   6
   4  -4  -6 23666.9 1226.77   3
  -4  -4   6 30117.6 2049.84   3
   4  -4  -6 25719.9 2076.86   1
  -4  -4   6 23172.2 1551.75   7
  -4  -4   6 23788.9 1878.32   4
  -4  -4   6 24612.6 2024.25   5
  -4  -4   5 64638.0 2081.01   7
  -4  -4   5 77631.4 3078.22   3
  -4  -4   5 69566.3 2319.06   2
   4  -4  -5 77293.2 3083.32   1
   4  -4  -5 65229.8 2063.69   3
  -4  -4   5 67031.8 2563.87   4
  -4  -4   4 31218.6 1771.92   4
  -4  -4   4 26555.9 1180.80   2
   4  -4  -4 37763.5 2130.25   1
  -4  -4   4 40849.5 2350.90   3
  -4  -4   4 26719.4 1227.17   7
   4  -4  -4 37479.2 1706.80   3
  -4  -4   3 69251.5 2811.12   3
  -4  -4   3 65816.2 2204.86   4
   4  -4  -3 73188.8 2559.13   1
  -4  -4   3 68457.8 3679.67   6
   4  -4  -3 72511.7 2503.13   3
   4  -4  -3 65270.4 2860.32   2
  -4  -4   2 50633.5 2422.23   3
  -4  -4   2 48151.8 2951.32   6
  -4  -4   2 51272.1 1849.22   4
   4  -4  -2 42383.9 2241.35   2
   4  -4  -2 49262.9 2167.22   3
   4  -4  -2 43739.5 1818.21   1
   4  -4  -1 29629.6 1843.54   2
  -4  -4   1 29182.7 893.682   1
   4  -4  -1 33307.8 1742.54   5
  -4  -4   1 35621.1 2065.65   3
  -4  -4   1 31679.3 2246.62   6
   4  -4  -1 32994.6 1488.20   1
   4  -4  -1 33969.0 1943.05   3
  -4  -4   1 32737.8 1410.09   4
  -4  -4   0 29467.2 1212.16   1
  -4  -4   0 23757.1 1081.05   4
  -4  -4   0 26688.7 1745.84   3
   4  -4   0 26887.7 1235.14   1
   4  -4   0 27514.4 1715.90   5
  -4  -4   0 24385.9 1723.92   6
   4  -4   0 23433.9 838.063   4
  -4  -4  -1 16641.5 1442.48   3
   4  -4   1 17066.2 1615.68   5
  -4  -4  -1 10929.9 1206.50   6
  -4  -4  -1 11853.8 675.200   2
   4  -4   1 16890.2 974.051   1
   4  -4   1 16664.3 987.837   4
  -4  -4  -2 23881.2 1385.14   6
  -4  -4  -2 29984.2 1746.93   3
  -4  -4  -2 30348.4 1412.46   2
   4  -4   2 34467.9 1464.83   4
   4  -4   2 31924.5 1201.52   1
   4  -4   2 26457.1 1241.73   2
   4  -4   3 16149.6 1291.22   4
  -4  -4  -3 15590.9 1273.62   3
   4  -4   3 11154.5 891.237   1
  -4  -4  -3 15872.8 1130.97   6
  -4  -4  -3 16845.0 1402.05   2
   4  -4   3 11414.5 1093.85   2
   4  -4   4 17216.9 1147.84   1
  -4  -4  -4 16882.9 1133.36   6
   4  -4   4 17161.6 1410.13   2
  -4  -4  -4 20006.0 1295.24   3
  -4  -4  -4 18226.0 1680.21   2
   4  -4   5 47388.6 2378.77   2
  -4  -4  -5 44817.3 1777.14   3
  -4  -4  -5 37805.8 2067.78   6
  -4  -4  -5 36860.1 1641.81   6
   4  -4   6 44916.3 2592.16   2
  -4  -4  -6 37860.0 1790.69   6
   4  -4   6 37662.2 2023.34   7
   4  -4   6 46153.7 2469.45   4
  -4  -4  -6 41416.0 1625.39   3
  -4  -4  -6 39749.3 2369.30   6
   4  -4   7 27319.7 1860.28   7
  -4  -4  -7 26329.7 2169.40   6
  -4  -4  -7 25557.6 1307.17   3
   4  -4   7 26981.0 2255.72   2
  -4  -4  -8 3833.39 1541.05   6
   4  -4   8 3137.45 1452.77   2
  -4  -4  -8 4618.37 850.600   3
   4  -4   8 5037.14 1287.15   7
   4  -4   8 4594.61 1475.77   4
  -4  -4  -9 15645.4 1194.38   3
  -4  -4  -9 16338.8 2222.44   6
   4  -4   9 15878.4 1997.87   4
   4  -4   9 16018.2 2204.76   2
   4  -4   9 14490.5 1734.85   7
   4  -4  10 8397.18 1860.22   4
   4  -4  10 7528.45 1919.01   2
   4  -4  10 8427.31 1635.81   7
   4  -4  11 18964.9 2603.81   2
   4  -4  11 20136.6 2222.10   4
   4  -4  12 5034.45 2046.40   2
   4  -4  12 6969.05 1833.39   4
  -4  -2  14 9839.38 2674.42   2
   4  -2 -14 9523.29 2758.33   6
  -4  -2  14 12348.7 2102.31   4
  -4  -2  13 2755.27 2130.54   2
  -4  -2  13 3555.60 1254.87   5
  -4  -2  13 4588.77 1630.44   4
   4  -2 -13 1987.77 2168.44   6
  -4  -2  12 87897.9 4892.10   2
  -4  -2  12 91290.0 3811.86   4
   4  -2 -12 83566.0 5098.61   6
  -4  -2  11 17683.0 1540.51   5
  -4  -2  11 19718.1 2727.05   2
  -4  -2  11 21565.9 2157.22   4
   4  -2 -11 16841.0 2741.87   6
  -4  -2  10 30114.6 1936.49   5
  -4  -2  10 30270.2 2307.17   4
   4  -2 -10 25678.4 2909.89   6
  -4  -2   9 92977.5 4474.73   2
  -4  -2   9 81544.0 3340.17   4
  -4  -2   9 86404.5 2892.82   5
   4  -2  -9 82942.9 4368.69   6
  -4  -2   8 17175.0 1724.13   4
   4  -2  -8 18518.6 2137.98   6
  -4  -2   8 20817.2 1546.59   5
  -4  -2   8 24200.4 2455.35   2
  -4  -2   7 4779.89 1577.05   2
   4  -2  -7 4568.99 1438.16   6
  -4  -2   7 5855.35 1476.98   4
  -4  -2   7 9322.78 1329.19   5
   4  -2  -6 93292.5 3448.71   6
  -4  -2   6 95270.0 3604.76   2
  -4  -2   6 82941.9 2918.91   4
  -4  -2   6 84734.0 2666.83   5
   4  -2  -6 95291.8 1367.23   3
  -4  -2   5 209678. 4915.82   2
   4  -2  -5 206045. 4683.81   6
   4  -2  -5 196678. 2090.69   3
  -4  -2   5 192421. 3945.53   5
  -4  -2   5 207114. 4185.98   4
   4  -2  -4 26009.6 1506.02   6
   4  -2  -4 26040.8 1014.26   3
   4  -2  -4 26330.1 2160.11   2
  -4  -2   4 28181.9 2491.16   6
  -4  -2   4 31073.6 1863.35   2
  -4  -2   4 29434.5 1627.21   4
  -4  -2   4 27013.4 1567.16   5
  -4  -2   3 121808. 2856.64   3
  -4  -2   3 123266. 4190.66   6
   4  -2  -3 106594. 2110.91   6
   4  -2  -3 128487. 2993.93   1
   4  -2  -3 121736. 3778.74   2
  -4  -2   3 121320. 2227.20   7
  -4  -2   3 106292. 2791.56   5
   4  -2  -3 122337. 2157.41   3
  -4  -2   3 128426. 2805.24   2
  -4  -2   3 114922. 2640.54   4
   4  -2  -2 95019.8 2386.78   1
   4  -2  -2 86647.3 2018.67   3
  -4  -2   2 83070.4 1433.33   7
   4  -2  -2 91029.1 1739.53   5
  -4  -2   2 85574.3 3290.20   6
  -4  -2   2 81795.4 1619.92   2
  -4  -2   2 99147.7 2329.10   4
  -4  -2   2 97450.6 2595.60   3
   4  -2  -2 85921.8 2865.87   2
   4  -2  -1 58847.0 1610.97   1
  -4  -2   1 65063.7 1722.95   4
  -4  -2   1 54774.4 1079.48   1
  -4  -2   1 70115.5 2126.38   3
  -4  -2   1 59941.2 2372.17   6
  -4  -2   0 72518.2 1560.26   4
  -4  -2   0 71214.5 2062.73   3
   4  -2   0 69902.4 1604.11   1
  -4  -2   0 66351.5 2173.30   6
   4  -2   1 94130.2 1702.25   1
  -4  -2  -1 97617.3 1889.47   2
   4  -2   2 305765. 3342.48   1
  -4  -2  -2 313390. 4343.54   2
   4  -2   3 105582. 2431.41   1
   4  -2   3 101661. 2753.59   2
  -4  -2  -3 96607.0 2266.12   6
  -4  -2  -3 104878. 2076.46   3
  -4  -2  -3 105189. 3103.04   2
  -4  -2  -4 105183. 2588.47   6
   4  -2   4 113218. 3330.71   2
   4  -2   4 123556. 4768.85   6
  -4  -2  -4 121821. 2174.24   3
  -4  -2  -4 107077. 3109.20   7
  -4  -2  -4 114120. 3605.71   2
   4  -2   5 94554.6 3407.98   2
  -4  -2  -5 86836.0 3515.89   2
   4  -2   5 99883.4 2904.00   7
  -4  -2  -5 86358.2 3551.52   6
  -4  -2  -5 99677.2 2008.04   3
  -4  -2  -5 85147.8 3029.24   7
  -4  -2  -6 74902.7 3736.04   6
  -4  -2  -6 83619.0 1973.38   3
   4  -2   6 75396.2 3474.48   2
  -4  -2  -7 43341.1 3132.51   6
   4  -2   7 37683.2 2804.20   2
   4  -2   7 43512.5 2389.96   7
  -4  -2  -8 44670.6 3392.63   6
   4  -2   8 48389.6 2557.03   7
   4  -2   8 44843.3 3165.38   2
   4  -2   9 51011.7 2796.77   7
  -4  -2  -9 46448.1 3565.50   6
   4  -2   9 48663.3 3454.82   2
   4  -2  10 12227.5 2405.58   2
   4  -2  10 16330.9 1949.01   4
   4  -2  11 19892.5 2136.63   4
  -4  -2 -11 20858.9 3071.26   6
   4  -2  11 17478.3 2513.59   2
  -4  -2 -12 10805.5 2613.35   6
   4  -2  12 6788.61 2117.92   2
   4  -2  12 6525.63 1791.45   4
  -4  -2 -13 26236.7 3513.79   6
   4  -2  13 30946.2 3516.15   2
   4  -2  13 32859.1 2810.89   4
   4  -2  14 4277.73 2259.18   2
  -4  -2 -14 2679.30 2514.87   6
   4  -2  14 6859.25 1994.23   4
   4   0 -15 884.753 2421.72   6
  -4   0  15 2703.60 2533.23   2
  -4   0  14 52833.8 4531.17   2
   4   0 -14 42610.8 4270.83   6
  -4   0  14 48230.7 2893.67   4
   4   0 -13 10387.3 2992.09   6
  -4   0  13 12519.5 2878.39   2
  -4   0  13 5310.35 1638.30   4
  -4   0  12 1817.65 2124.23   2
  -4   0  12 5239.77 954.890   5
   4   0 -12 1754.85 2198.53   6
  -4   0  12 3924.52 1415.47   4
  -4   0  11 28028.9 2090.92   4
  -4   0  11 27195.0 3187.84   2
  -4   0  11 25684.5 1340.55   5
   4   0 -11 25512.1 3226.00   6
  -4   0  10 112842. 1818.82   3
  -4   0  10 108639. 3657.46   4
   4   0 -10 109260. 5661.80   6
  -4   0  10 106436. 5234.29   2
   4   0  -9 1642.24 1787.53   6
  -4   0   9 227.937 528.387   3
  -4   0   9-688.874 1656.77   2
  -4   0   9 1085.07 1115.51   4
  -4   0   8 286.972 1546.65   2
  -4   0   8 2479.65 1085.16   4
   4   0  -8 1938.99 1704.04   6
  -4   0   7 210401. 4290.56   4
   4   0  -7 197520. 6275.14   6
  -4   0   6 155378. 3549.92   4
  -4   0   6 157503. 5082.18   2
   4   0  -6 143706. 5075.36   6
   4   0  -6 157594. 4853.08   2
   4   0  -5 33600.2 2480.88   6
  -4   0   5 35276.2 1677.78   4
  -4   0   5 38535.7 2555.13   2
   4   0  -5 36201.8 2431.08   2
   4   0  -4 30476.2 2090.20   2
  -4   0   4 30079.4 1359.10   4
  -4   0   4 32612.0 2184.96   2
   4   0  -4 31513.7 2237.81   6
  -4   0   4 28092.3 950.502   5
  -4   0   4 32165.1 2224.61   6
  -4   0   3 14931.6 1588.70   6
   4   0  -3 13735.7 1442.89   2
   4   0  -3 13646.1 1511.32   6
  -4   0   3 11729.4 1443.32   2
   4   0  -3 13177.1 923.112   4
  -4   0   3 11412.8 919.556   4
  -4   0   2 73520.4 1504.15   4
   4   0  -2 74960.7 2332.35   2
  -4   0   2 76776.5 2305.88   2
   4   0  -2 73759.1 1485.21   4
  -4   0   2 78548.7 2286.09   6
   4   0  -2 79580.7 2335.23   6
   4   0  -2 73446.7 1503.54   1
   4   0  -1 3793.39 583.607   6
  -4   0   1 4426.02 420.448   1
  -4   0   1 3825.08 260.420   3
  -4   0   1 4957.06 484.405   4
   4   0  -1 4004.66 263.246   3
  -4   0   1 3864.78 676.283   6
   4   0  -1 4564.45 446.432   4
   4   0  -1 3915.56 422.040   1
  -4   0   0 11028.6 619.738   1
  -4   0   0 9929.24 683.131   6
  -4   0  -1 162301. 2365.02   6
   4   0   1 154594. 2499.21   1
  -4   0  -2 3353.84 975.333   1
   4   0   2 4377.99 730.448   7
  -4   0  -2 3205.62 783.543   2
   4   0   2 3626.13 861.076   2
   4   0   3 318798. 4267.85   7
   4   0   3 296918. 5207.25   2
  -4   0  -3 286414. 5986.90   6
  -4   0  -3 257682. 3993.81   7
  -4   0  -3 255977. 4379.25   2
  -4   0  -4 25004.4 2274.73   6
  -4   0  -4 22973.5 1736.11   2
   4   0   4 26863.7 2054.56   2
   4   0   4 24493.1 1566.68   7
  -4   0  -4 23127.4 1468.67   7
  -4   0  -5 14311.1 1708.61   2
   4   0   5 15863.1 2006.66   2
  -4   0  -5 13436.4 1391.39   7
  -4   0  -5 16905.9 2116.81   6
   4   0   5 17175.6 1615.20   7
  -4   0  -6 32654.3 3213.66   6
   4   0   6 30452.4 2756.73   2
   4   0   7 121664. 4750.22   2
   4   0   7 127471. 2627.76   3
  -4   0  -7 116527. 5251.26   6
  -4   0  -8 115532. 5448.83   6
   4   0   8 126809. 2693.62   3
   4   0   8 122032. 5153.55   2
  -4   0  -9 8955.25 2584.80   6
   4   0   9 9275.35 2318.84   2
   4   0  10-255.399 1925.38   2
  -4   0 -10-971.646 1976.34   6
   4   0  11 26504.7 3225.75   2
  -4   0 -11 23649.4 3402.80   6
  -4   0 -12 3015.72 2452.55   6
   4   0  12 3018.48 2228.59   2
   4   0  12 4176.21 1485.00   4
   4   0  13 5858.37 2605.97   2
   4   0  13 6898.84 1785.48   4
  -4   0 -13 612.797 2232.26   6
   4   0  14 16172.5 3174.79   2
  -4   0 -14 20374.4 3746.47   6
   4   0  14 18262.9 2219.33   4
  -4   2  14 8398.38 1677.34   4
  -4   2  14 8077.78 2928.41   2
   4   2 -14 7954.96 2941.00   6
  -4   2  13 3587.27 2468.59   2
  -4   2  13 3692.18 1382.18   4
   4   2 -13 4272.34 2681.90   6
  -4   2  12 85314.0 5554.58   2
  -4   2  12 91384.2 3346.69   4
  -4   2  11 15194.6 2970.27   2
  -4   2  11 15422.1 1599.95   4
   4   2 -11 9853.68 2688.51   6
  -4   2  10 34603.4 3475.93   2
  -4   2  10 38127.5 2056.48   4
  -4   2   9 104347. 5224.39   2
   4   2  -9 103064. 5728.83   6
  -4   2   9 102527. 3008.67   4
  -4   2   8 17135.1 2508.34   2
  -4   2   8 10235.2 755.366   3
   4   2  -8 16806.8 2764.54   6
  -4   2   8 17921.3 1414.37   4
  -4   2   7 8516.25 2071.19   2
  -4   2   7 4473.40 1401.02   6
  -4   2   7 6691.58 1049.24   4
   4   2  -7 7645.43 2429.51   6
  -4   2   7 5550.15 662.601   3
   4   2  -6 83195.9 3189.91   2
   4   2  -6 81819.9 2522.08   7
  -4   2   6 81264.4 4059.93   2
   4   2  -6 80247.7 4606.15   6
  -4   2   6 94107.7 3439.22   6
  -4   2   6 80173.5 2092.77   4
  -4   2   5 182543. 5520.48   2
  -4   2   5 177004. 2849.92   4
  -4   2   5 178573. 4283.35   6
   4   2  -5 223745. 6749.41   6
   4   2  -5 213014. 4511.80   2
  -4   2   4 28367.6 2299.63   2
  -4   2   4 27339.5 1013.43   4
  -4   2   4 29962.1 1625.21   6
   4   2  -4 27638.7 2437.81   6
   4   2  -4 25427.7 800.150   1
   4   2  -4 32470.0 1747.10   2
   4   2  -3 137569. 4295.71   6
  -4   2   3 123349. 2291.53   6
  -4   2   3 127287. 1520.87   4
  -4   2   3 136151. 3937.67   2
   4   2  -3 139245. 2930.81   4
   4   2  -3 150224. 2819.42   2
   4   2  -2 108154. 3606.67   6
   4   2  -2 107609. 1731.45   2
   4   2  -2 119686. 2790.43   5
   4   2  -2 122679. 2515.02   4
   4   2  -1 95362.0 2735.28   6
   4   2  -1 94923.4 1974.48   4
   4   2   0 75803.6 2186.89   3
   4   2   0 73623.5 2011.29   6
  -4   2   0 75569.0 2027.15   6
   4   2   0 74285.0 1578.13   4
  -4   2  -1 86034.5 2793.90   6
   4   2   1 84277.3 1906.79   6
   4   2   1 80389.5 2052.55   2
  -4   2  -1 84219.6 1672.02   1
  -4   2  -2 256762. 5508.70   6
  -4   2  -2 258132. 2792.81   1
   4   2   2 260825. 4457.53   2
   4   2   2 264750. 3832.06   3
   4   2   3 88729.4 2283.10   3
   4   2   3 91802.0 3212.15   2
  -4   2  -3 79572.4 1863.75   1
  -4   2  -3 87770.8 3712.27   6
  -4   2  -4 91018.3 4165.32   6
   4   2   4 94944.7 2365.22   3
  -4   2  -4 90262.9 2219.00   1
   4   2   4 95252.7 3615.21   2
  -4   2  -5 126750. 5236.35   6
  -4   2  -5 125868. 2952.84   1
  -4   2  -5 122130. 3351.59   2
   4   2   5 116639. 2534.57   3
   4   2   5 129119. 4592.67   2
  -4   2  -6 46088.4 2105.84   1
   4   2   6 50343.0 1769.16   3
  -4   2  -6 47822.8 3815.72   6
   4   2   7 45702.0 3280.44   2
  -4   2  -7 42778.0 2290.72   1
  -4   2  -8 45533.5 4122.36   6
   4   2   8 36293.9 3324.64   2
   4   2   9 53220.6 4147.63   2
  -4   2  -9 46241.8 4271.27   6
   4   2  10 15086.4 3019.13   2
  -4   2 -10 8786.12 2828.64   6
   4   2  11 20993.6 3245.68   2
  -4   2 -11 15346.1 3275.11   6
   4   2  12 9093.74 1556.55   4
   4   2  12 6736.73 2672.03   2
  -4   2 -12 8201.71 2884.30   6
   4   2  13 32647.0 2367.71   4
  -4   2 -13 28018.3 4073.43   6
   4   2  13 34567.4 4052.09   2
  -4   2 -14 8977.46 3223.77   6
   4   2  14 5843.95 1555.90   4
   4   2  14 5812.74 2660.91   2
   4   4 -13 10718.8 3053.77   6
  -4   4  13 11379.6 3160.81   2
   4   4 -12 23337.1 3569.61   6
  -4   4  12 32925.7 3906.30   2
  -4   4  11 10144.4 2755.31   2
   4   4 -11 11041.7 2911.20   6
  -4   4  10 21117.9 3053.34   2
   4   4 -10 25636.1 3372.68   6
   4   4  -9 49388.2 4187.10   6
  -4   4   9 55816.6 1824.99   4
   4   4  -8 21040.2 2773.51   6
  -4   4   8 26786.4 1192.35   4
  -4   4   8 26861.7 3013.04   2
  -4   4   7 40244.6 1164.29   4
  -4   4   7 47462.4 3453.40   2
   4   4  -7 43548.9 3606.95   6
   4   4  -6 26527.4 2839.25   6
  -4   4   6 16832.3 623.106   4
   4   4  -5 91237.0 4390.52   6
   4   4  -4 35574.5 2778.89   6
   4   4  -3 85377.1 3624.29   6
   4   4  -2 45953.4 1813.87   4
   4   4  -2 49518.5 2559.55   6
   4   4  -1 19979.2 1518.66   6
   4   4  -1 15983.5 1111.29   4
   4   4   0 26946.5 1517.98   6
  -4   4   0 25258.0 1276.50   6
   4   4   0 28359.4 1219.98   4
   4   4   1 10485.2 780.417   4
   4   4   1 12208.7 944.217   6
  -4   4  -2 29909.9 1186.44   1
   4   4   2 28512.6 1137.80   6
   4   4   2 26534.5 979.933   4
  -4   4  -3 20548.3 2069.20   6
  -4   4  -3 19767.0 941.249   1
   4   4   3 24645.3 967.575   4
  -4   4  -4 18883.0 2304.51   6
  -4   4  -4 17639.8 847.615   1
   4   4   4 18139.5 938.425   4
   4   4   5 68736.8 3528.33   2
  -4   4  -5 67480.6 4007.39   6
  -4   4  -6 59044.8 4081.90   6
   4   4   6 66666.3 3794.14   2
   4   4   7 33733.0 3114.42   2
  -4   4  -7 26500.8 3078.43   6
   4   4   8 2750.36 1862.00   2
  -4   4  -8 4817.23 2186.99   6
   4   4   9 24332.8 3153.16   2
  -4   4  -9 19968.2 3354.04   6
   4   4  10 7910.42 2504.78   2
  -4   4 -10 6932.47 2585.64   6
  -4   4 -11 17566.9 3283.13   6
   4   4  11 16220.2 3157.41   2
  -4   4 -12 2279.44 2707.04   6
   4   4  12 6840.54 2683.87   2
   4   6  -9 3379.21 2227.28   6
   4   6  -8 2536.25 1943.73   6
   4   6  -7 44470.7 3713.66   6
   4   6  -6 8211.16 2148.71   6
   4   6  -5 12802.4 2067.91   6
   4   6  -4 19180.7 2131.70   6
   4   6  -3 37090.0 2404.19   6
   4   6  -2 30776.5 2020.61   6
   4   6  -1 14397.3 1404.70   6
   4   6   0 61103.6 1982.58   6
  -4   6  -2 18069.1 1695.41   6
  -4   6  -3 21150.3 2066.16   6
  -4   6  -4 32132.5 2692.56   6
  -4   6  -5 5524.00 1706.81   6
  -4   6  -6 7988.93 2224.21   6
  -4   6  -7 18400.7 2813.87   6
  -4   6  -8 9170.07 2404.61   6
  -4   6  -9 4220.19 2322.85   6
   5  -7  -7 19226.1 1972.17   1
  -5  -7   7 11282.1 2008.15   3
   5  -7  -6 7650.35 1191.34   3
  -5  -7   6 9762.57 1921.99   3
   5  -7  -6 9399.09 1505.87   1
   5  -7  -5 28224.7 2039.35   1
   5  -7  -5 23955.6 1813.59   3
   5  -7  -4 4156.10 1189.87   1
   5  -7  -4 5159.00 1257.47   3
  -5  -7   4 1282.38 1395.36   3
   5  -7  -3 13476.2 1699.04   3
  -5  -7   3 12102.5 1958.49   3
   5  -7  -2 5806.19 1476.22   3
  -5  -7   2 8152.35 1618.60   3
   5  -7  -1 8886.77 1730.96   3
  -5  -7   1 6279.96 1476.06   3
  -5  -7   0 6370.24 1512.45   3
   5  -7   0 7597.27 1701.97   3
  -5  -7  -1 23718.1 2066.01   3
   5  -7   1 23711.4 2246.35   3
   5  -7   2 9615.34 1831.95   3
  -5  -7  -2 9300.13 1509.34   3
   5  -7   3 5432.73 1700.98   3
  -5  -7  -3 6702.00 1315.15   3
   5  -7   4 24827.3 2646.37   3
  -5  -7  -4 19292.0 1670.27   3
  -5  -7  -5 3578.89 1065.85   3
   5  -7   5 6666.27 1804.63   3
   5  -7   6 15535.8 2211.03   3
  -5  -7  -6 17722.0 1931.01   1
   5  -7   6 17599.0 2268.14   5
  -5  -7  -6 9855.32 1302.03   3
   5  -5 -11 5981.04 1777.18   1
  -5  -5  11 6068.41 1632.39   4
  -5  -5  11 3707.15 1444.17   3
  -5  -5  10 9072.97 1644.38   3
  -5  -5  10 4341.94 1457.58   4
   5  -5 -10 8645.09 1920.14   1
  -5  -5   9 8640.02 1642.80   4
  -5  -5   9 3913.05 1478.53   3
   5  -5  -9 6110.94 1750.08   1
   5  -5  -8 31878.6 2579.81   1
  -5  -5   8 26492.9 2096.24   4
  -5  -5   8 27262.4 2258.26   3
  -5  -5   7 17786.0 1878.93   3
   5  -5  -7 12841.3 1014.88   3
   5  -5  -7 17861.0 2016.86   1
  -5  -5   7 16236.3 1760.93   4
   5  -5  -6 17265.1 1883.58   1
   5  -5  -6 15505.0 1165.47   3
  -5  -5   6 16182.4 1693.61   4
  -5  -5   6 13387.2 1822.92   3
   5  -5  -5 43894.5 2361.71   1
  -5  -5   5 42196.4 2511.93   3
   5  -5  -5 40926.2 1905.06   3
  -5  -5   5 44380.0 2204.84   4
  -5  -5   4 43796.3 2513.57   3
   5  -5  -4 46167.4 2232.08   1
   5  -5  -4 44314.7 2057.67   3
  -5  -5   4 40703.7 1958.02   4
  -5  -5   3 3074.41 994.293   4
  -5  -5   3 875.068 482.794   7
  -5  -5   3 540.267 1133.36   3
   5  -5  -3 3193.90 1093.19   3
   5  -5  -3 2771.43 964.864   1
   5  -5  -2 17550.1 1394.24   1
  -5  -5   2 13875.8 1707.41   3
  -5  -5   2 18557.1 2210.44   6
   5  -5  -2 16626.5 1598.76   3
  -5  -5   2 18471.5 1306.32   4
  -5  -5   1 66607.4 2860.33   3
  -5  -5   1 53641.6 1270.73   1
   5  -5  -1 48835.4 2335.15   2
   5  -5  -1 60478.5 2778.49   3
  -5  -5   1 49554.7 1633.84   1
  -5  -5   1 47338.4 2746.52   6
  -5  -5   1 57185.2 1822.16   4
   5  -5  -1 63378.2 2141.59   1
   5  -5   0 13239.2 1060.30   1
   5  -5   0 9975.53 1243.35   2
  -5  -5   0 11916.2 1522.94   6
   5  -5   0 14547.7 1627.51   3
  -5  -5   0 14811.4 943.662   1
  -5  -5   0 12399.2 1519.60   3
   5  -5   0 15721.5 1546.07   5
   5  -5   0 11706.1 636.752   4
   5  -5   1 8621.96 895.483   1
  -5  -5  -1 10001.3 1095.04   1
  -5  -5  -1 12487.2 1524.91   3
   5  -5   1 15480.6 1664.61   5
   5  -5   1 15625.5 995.022   4
  -5  -5  -2 83015.6 1805.17   2
  -5  -5  -2 87516.2 3001.60   3
  -5  -5  -2 71608.8 2468.13   6
   5  -5   2 98152.3 3468.29   5
   5  -5   2 71748.5 2050.55   2
   5  -5   2 79693.5 1926.61   1
   5  -5   2 94246.2 2291.94   4
   5  -5   3 23725.2 1156.46   1
  -5  -5  -3 29120.5 1716.64   3
   5  -5   3 32493.3 1630.62   4
   5  -5   3 34322.3 2311.61   5
   5  -5   3 22311.0 1394.09   2
  -5  -5  -3 31604.7 1556.17   2
   5  -5   4 7711.36 894.406   1
   5  -5   4 10000.7 1224.98   2
  -5  -5  -4 9916.36 1193.07   3
   5  -5   4 13300.4 1341.68   4
   5  -5   4 12639.6 1745.19   5
   5  -5   5 7184.66 1258.68   2
  -5  -5  -5 6094.60 1030.65   3
   5  -5   6 27731.6 1807.62   7
  -5  -5  -6 27975.0 1530.39   3
   5  -5   6 25770.0 2051.03   2
   5  -5   7 5423.60 1358.18   4
   5  -5   7 7560.12 1243.43   7
   5  -5   7 4983.28 1405.37   2
  -5  -5  -7 4333.65 914.421   3
   5  -5   8 19855.4 1719.68   7
   5  -5   8 16667.9 2005.36   2
   5  -5   8 23100.1 2069.42   4
   5  -5   9 13726.2 1824.33   7
   5  -5   9 15841.3 1919.84   4
  -5  -5  -9 9539.74 1103.05   3
   5  -5   9 15412.4 1939.76   5
   5  -5  10 14494.7 1897.69   4
   5  -5  10 13962.3 1913.56   5
   5  -5  10 16468.2 1971.60   7
   5  -5  11 16265.8 2140.47   4
   5  -5  11 16058.3 2096.62   5
  -5  -3  13 10927.2 2492.15   2
   5  -3 -13 10459.4 2150.08   1
  -5  -3  13 5130.25 1666.43   4
  -5  -3  12 10896.9 2371.16   2
   5  -3 -12 12388.2 2319.47   6
  -5  -3  12 12210.5 1450.47   3
  -5  -3  12 12808.8 1934.31   4
  -5  -3  11 19212.5 2554.46   2
  -5  -3  11 15417.8 1821.99   5
   5  -3 -11 16831.8 2391.28   6
   5  -3 -10 82907.2 4026.90   6
  -5  -3  10 88336.5 4323.04   2
  -5  -3  10 87947.4 3396.01   5
   5  -3  -9 4021.37 1499.52   6
  -5  -3   9 2804.87 1171.54   5
  -5  -3   9 676.055 1625.50   2
   5  -3  -8 13008.5 747.571   3
  -5  -3   8 15793.1 1627.67   5
  -5  -3   8 12503.9 1717.27   4
   5  -3  -8 18341.9 1905.33   6
  -5  -3   8 18934.0 2075.56   2
   5  -3  -7 52848.1 2550.84   6
  -5  -3   7 55362.0 3014.80   2
  -5  -3   7 58808.1 2708.78   5
   5  -3  -7 51993.4 1249.34   3
  -5  -3   6 29936.6 1892.75   4
  -5  -3   6 35669.1 1984.19   3
  -5  -3   6 36552.8 2217.00   2
  -5  -3   6 30427.3 2003.45   5
   5  -3  -6 31409.5 1104.03   3
   5  -3  -6 36616.3 1963.20   6
  -5  -3   5 11914.5 1361.89   3
   5  -3  -5 9993.83 1395.16   1
   5  -3  -5 10366.7 864.138   3
  -5  -3   5 12095.4 1347.45   4
  -5  -3   5 10112.1 1320.38   2
   5  -3  -5 8373.76 932.717   6
   5  -3  -4 10718.5 1308.97   1
  -5  -3   4 11341.5 1429.21   3
   5  -3  -4 5789.53 429.457   6
  -5  -3   4 8875.59 900.067   7
   5  -3  -4 11574.4 1737.25   2
  -5  -3   4 8441.96 1140.03   4
   5  -3  -4 11627.3 962.047   3
  -5  -3   4 8954.69 1047.69   2
  -5  -3   3 299917. 4977.30   3
   5  -3  -3 272162. 3940.14   3
  -5  -3   3 253902. 2991.34   2
  -5  -3   3 267571. 4189.23   4
  -5  -3   3 258531. 2969.40   7
   5  -3  -3 268087. 4519.47   1
  -5  -3   3 294371. 6903.02   6
   5  -3  -3 277840. 5783.50   2
   5  -3  -2 19963.8 1157.35   5
   5  -3  -2 18255.2 1281.43   3
  -5  -3   2 17454.0 1910.20   6
   5  -3  -2 13230.1 1063.55   1
   5  -3  -2 16198.7 1568.88   2
  -5  -3   2 20454.5 1546.55   3
  -5  -3   2 14335.8 606.589   7
  -5  -3   2 19201.1 1258.08   4
  -5  -3   1 47630.0 2114.49   3
  -5  -3   1 48272.5 1326.68   1
  -5  -3   1 49089.8 1665.22   4
  -5  -3   1 46421.1 2432.25   6
   5  -3  -1 52303.9 1729.31   1
  -5  -3   0 464524. 4315.67   4
  -5  -3   0 473657. 5795.93   3
   5  -3   0 477578. 4513.06   1
   5  -3   1 18363.6 970.374   1
  -5  -3  -1 16932.5 1286.66   6
  -5  -3  -1 17409.1 1364.71   3
  -5  -3  -1 19001.2 883.350   2
  -5  -3  -2 44406.1 1792.02   3
  -5  -3  -2 47701.1 1762.59   2
  -5  -3  -2 40813.0 1726.88   6
   5  -3   2 45101.9 1461.58   1
  -5  -3  -3 46366.3 1894.90   6
  -5  -3  -3 49842.4 1798.69   3
   5  -3   3 44414.2 1823.44   2
   5  -3   3 45270.8 1607.94   1
  -5  -3  -4 34191.8 1837.52   7
  -5  -3  -4 38488.9 1526.45   3
   5  -3   4 37984.6 1721.31   1
   5  -3   4 39464.7 2036.19   2
  -5  -3  -4 31572.1 1587.19   6
  -5  -3  -4 41385.2 2201.87   2
  -5  -3  -5 16586.6 1052.11   3
  -5  -3  -5 17394.5 1800.80   6
  -5  -3  -5 13515.8 1198.86   6
   5  -3   5 19709.8 1517.67   7
   5  -3   5 15874.5 1573.83   2
   5  -3   6 28653.9 1850.96   7
  -5  -3  -6 38224.6 1982.88   6
  -5  -3  -6 40467.5 2762.52   6
  -5  -3  -6 47776.3 1631.80   3
   5  -3   6 28047.2 2206.54   2
  -5  -3  -7 57838.4 3297.53   6
   5  -3   7 55817.7 2538.96   7
   5  -3   7 59422.9 3278.07   2
  -5  -3  -7 58113.8 1821.74   3
   5  -3   8 76339.4 3130.21   7
  -5  -3  -8 78922.1 4049.56   6
   5  -3   8 68833.1 3651.25   2
   5  -3   8 74747.6 3179.62   4
  -5  -3  -8 82004.8 2290.71   3
  -5  -3  -9 12127.3 2239.69   6
   5  -3   9 6843.42 1571.09   7
   5  -3   9 10002.5 1769.65   4
   5  -3   9 8813.52 2147.09   2
   5  -3  10-1881.94 1521.54   7
   5  -3  10 591.234 1281.59   4
   5  -3  10 1630.45 1800.95   2
  -5  -3 -10 1108.77 1741.16   6
  -5  -3 -11 39253.7 3544.16   6
   5  -3  11 41963.9 2868.38   4
   5  -3  11 46912.8 3667.16   2
   5  -3  12 2631.24 2031.52   2
  -5  -3 -12-1120.02 1991.79   6
   5  -3  12 1737.67 1489.79   4
   5  -3  13 6838.49 2367.98   2
  -5  -3 -13 3464.97 2480.95   6
   5  -3  13 8047.60 1948.46   4
  -5  -1  14 2099.19 2246.54   2
  -5  -1  14 317.471 1439.45   4
   5  -1 -14 6838.34 2672.61   6
  -5  -1  13 794.973 2149.84   2
   5  -1 -13 838.733 2130.39   6
  -5  -1  13 2019.47 1454.43   4
   5  -1 -12 33879.4 3978.26   6
  -5  -1  12 38035.6 2578.34   4
  -5  -1  12 34027.3 1847.27   5
  -5  -1  11 5505.21 1551.36   4
   5  -1 -11 5385.69 1967.31   6
  -5  -1  11 8097.00 2208.02   2
  -5  -1  11 3803.00 995.606   5
   5  -1 -10 20784.5 2955.07   6
  -5  -1  10 21981.6 1545.74   5
  -5  -1  10 26950.9 3097.78   2
  -5  -1   9 34747.9 3003.08   2
   5  -1  -9 36374.0 3286.08   6
  -5  -1   9 28565.6 1564.98   5
  -5  -1   9 27950.9 2051.72   4
  -5  -1   8 24005.2 1801.51   4
  -5  -1   8 18803.9 2428.73   2
  -5  -1   8 23159.0 1376.41   5
   5  -1  -8 24303.1 2543.63   6
  -5  -1   7 42430.9 1750.79   5
   5  -1  -7 46834.9 3100.33   6
  -5  -1   7 42846.2 3024.45   2
  -5  -1   7 40029.9 2146.05   4
  -5  -1   6 123062. 2815.03   5
   5  -1  -6 136267. 4773.37   6
  -5  -1   6 129557. 4606.93   2
  -5  -1   6 131708. 3464.39   4
  -5  -1   5 420280. 8554.83   6
  -5  -1   5 350369. 4458.61   5
   5  -1  -5 407246. 7234.16   6
  -5  -1   5 399691. 7071.15   2
  -5  -1   5 359950. 5126.68   4
   5  -1  -5 398410. 7463.83   2
   5  -1  -4 127966. 4056.67   2
  -5  -1   4 122455. 4277.43   6
  -5  -1   4 123458. 3599.10   2
  -5  -1   4 113201. 2738.09   4
  -5  -1   4 110558. 2460.78   5
   5  -1  -4 120983. 3465.23   6
  -5  -1   3 302614. 4003.20   4
  -5  -1   3 323102. 3514.64   3
   5  -1  -3 309815. 2033.09   3
   5  -1  -3 316922. 5660.30   2
  -5  -1   3 310257. 5963.96   6
   5  -1  -3 314767. 4680.93   6
   5  -1  -3 313361. 3204.18   4
  -5  -1   3 313776. 4887.00   2
   5  -1  -3 324378. 4257.65   1
  -5  -1   2 296633. 3241.89   3
   5  -1  -2 288149. 4887.40   2
   5  -1  -2 255902. 3357.11   1
   5  -1  -2 285741. 3427.65   6
  -5  -1   2 268745. 4920.36   6
   5  -1  -2 281890. 2397.87   4
  -5  -1   2 253885. 2065.84   1
  -5  -1   2 267220. 3359.67   4
   5  -1  -1 101601. 1326.16   4
  -5  -1   1 85279.6 2464.86   6
   5  -1  -1 98710.9 1685.48   6
  -5  -1   1 88671.8 1211.54   1
  -5  -1   1 90449.5 1832.09   3
   5  -1  -1 85455.8 1801.39   1
  -5  -1   1 101145. 1936.89   4
  -5  -1   0 11371.4 996.475   6
  -5  -1   0 13129.9 868.039   1
  -5  -1   0 11507.8 752.586   3
   5  -1   0 13003.6 782.481   1
  -5  -1  -1 78279.5 2307.87   1
  -5  -1  -1 82049.2 1470.60   7
  -5  -1  -1 84187.8 2104.59   6
  -5  -1  -1 88090.9 1593.06   3
   5  -1   1 87783.2 1776.81   1
   5  -1   2 147230. 2733.03   1
  -5  -1  -2 138938. 2691.11   6
  -5  -1  -2 150993. 2112.54   3
  -5  -1  -2 146928. 2496.26   7
   5  -1   2 142645. 2732.49   2
  -5  -1  -2 141447. 2831.52   2
  -5  -1  -3 30513.3 1597.91   7
   5  -1   3 30496.6 1790.80   2
  -5  -1  -3 29538.1 1806.75   2
   5  -1   3 24758.6 1845.12   1
  -5  -1  -4 151892. 3304.59   7
  -5  -1  -4 143036. 3931.15   2
   5  -1   4 154914. 3953.25   2
   5  -1   4 151230. 3347.03   7
  -5  -1  -5 10152.8 1320.09   7
   5  -1   5 15284.1 1492.40   7
  -5  -1  -5 15021.5 2074.04   6
  -5  -1  -5 8863.72 1539.98   2
   5  -1   5 16521.5 1815.69   2
   5  -1   6 55256.8 2622.01   7
   5  -1   6 59928.7 3389.34   2
   5  -1   7 66222.9 3596.59   2
   5  -1   7 63743.3 2869.44   7
  -5  -1  -7 59190.8 3784.44   6
   5  -1   8 26599.9 2111.39   7
  -5  -1  -8 21956.2 2778.91   6
  -5  -1  -9 41704.3 3702.56   6
   5  -1   9 46888.5 3470.24   2
  -5  -1 -10 23626.9 3097.83   6
   5  -1  10 18734.4 2770.78   2
  -5  -1 -11 26928.6 3408.54   6
   5  -1  11 28014.1 3224.55   2
   5  -1  12 24264.6 3150.93   2
   5  -1  12 19287.6 2155.81   4
   5  -1  13 34367.8 3717.12   2
  -5  -1 -13 24275.8 3934.22   6
   5  -1  13 34216.4 2617.34   4
   5  -1  14 7969.74 1947.68   4
  -5  -1 -14 5323.69 2784.27   6
   5  -1  14 3967.37 2282.53   2
  -5   1  14 1306.17 2412.56   2
  -5   1  14 452.031 1368.55   4
   5   1 -14 54.3483 2359.47   6
  -5   1  13 2385.84 2340.71   2
   5   1 -13 1396.71 2240.49   6
  -5   1  13 2083.40 1329.77   4
  -5   1  12 37607.0 3971.86   2
  -5   1  12 48241.4 2720.38   4
   5   1 -12 38953.1 4129.75   6
  -5   1  11 3727.27 2177.33   2
   5   1 -11 2938.34 2286.11   6
  -5   1  11 6568.80 1361.92   4
  -5   1  10 19050.0 2841.60   2
  -5   1  10 13019.9 606.401   3
  -5   1  10 21689.1 1827.52   4
   5   1 -10 14037.5 2942.70   6
  -5   1   9 39722.0 3388.38   2
  -5   1   9 42643.1 2158.02   4
   5   1  -9 39210.3 3794.82   6
  -5   1   8 37893.3 1899.73   4
   5   1  -8 43508.9 3649.89   6
  -5   1   8 36339.1 3099.92   2
  -5   1   7 43598.2 821.678   3
  -5   1   7 54345.8 3218.66   6
   5   1  -7 56752.6 3900.99   6
  -5   1   7 52760.7 2066.60   4
  -5   1   7 49781.3 3398.63   2
  -5   1   6 136928. 5140.53   2
   5   1  -6 143204. 4536.12   2
  -5   1   6 145113. 4747.08   6
   5   1  -6 144608. 5740.69   6
   5   1  -6 133951. 3433.89   7
  -5   1   6 132086. 3044.10   4
   5   1  -5 398429. 8313.95   6
  -5   1   5 384364. 7612.16   2
   5   1  -5 407929. 5388.78   7
   5   1  -5 377602. 6615.19   2
  -5   1   5 421593. 7184.01   6
  -5   1   5 388092. 4551.87   4
  -5   1   4 122562. 2285.89   4
   5   1  -4 123801. 2199.37   1
  -5   1   4 123263. 4042.97   2
  -5   1   4 131551. 3729.64   6
   5   1  -4 126800. 2772.04   7
   5   1  -4 121251. 4302.88   6
   5   1  -4 122777. 3514.95   2
   5   1  -3 360437. 6453.76   6
   5   1  -3 373325. 5219.33   2
  -5   1   3 351837. 5026.38   6
   5   1  -3 354509. 2909.00   1
  -5   1   3 357817. 6158.54   2
  -5   1   3 343045. 3266.33   4
   5   1  -3 358813. 4259.89   4
   5   1  -2 253399. 3687.44   2
   5   1  -2 270217. 3106.09   3
   5   1  -2 268813. 2039.83   1
  -5   1   2 244668. 3345.68   1
  -5   1   2 244180. 3410.42   6
   5   1  -2 251785. 3257.74   4
  -5   1   2 250005. 2379.49   4
   5   1  -2 240990. 4776.72   6
   5   1  -1 87473.0 1811.26   3
  -5   1   1 77236.3 1698.54   1
   5   1  -1 77842.8 2341.88   6
  -5   1   1 80520.7 1547.31   6
   5   1  -1 87664.3 1331.95   1
   5   1  -1 78824.5 1688.10   4
   5   1   0 17586.0 1101.06   1
  -5   1   0 19087.9 897.482   1
  -5   1   0 19821.4 926.600   6
   5   1   0 19256.2 982.599   3
   5   1   0 21974.3 1245.18   6
   5   1   0 21768.1 941.752   4
   5   1   1 81815.4 1885.25   2
   5   1   1 69423.9 1576.82   7
   5   1   1 78596.1 1869.97   6
  -5   1  -1 73110.1 1593.51   1
   5   1   1 75706.5 1588.91   3
  -5   1  -2 125678. 2331.01   1
   5   1   2 119729. 2008.56   3
   5   1   2 125323. 2521.91   7
   5   1   2 120013. 3012.22   2
  -5   1  -3 27337.7 2795.00   6
   5   1   3 55790.9 1469.47   3
  -5   1  -3 37737.3 1744.76   1
   5   1   3 50826.0 2494.65   2
  -5   1  -4 157648. 3614.02   1
  -5   1  -4 156003. 3692.30   2
  -5   1  -4 157423. 5089.89   6
   5   1   4 154139. 4532.92   2
   5   1   4 167655. 2517.14   3
  -5   1  -5 22197.3 2665.36   6
  -5   1  -5 19352.1 1717.74   1
   5   1   5 18445.3 1027.09   3
  -5   1  -5 15577.9 1612.08   2
   5   1   5 17544.0 2131.46   2
   5   1   6 90096.1 4075.98   2
  -5   1  -6 82256.0 4687.35   6
   5   1   6 93025.3 2023.53   3
   5   1   7 52084.9 1599.29   3
  -5   1  -7 49298.8 3871.95   6
   5   1   7 52309.9 3508.73   2
   5   1   8 26335.7 1298.86   3
   5   1   8 25326.4 2727.61   2
  -5   1  -9 46662.2 4203.80   6
   5   1   9 47380.3 3703.88   2
   5   1  10 27618.4 3195.43   2
  -5   1 -10 26727.3 3588.79   6
  -5   1 -11 44283.5 4361.21   6
   5   1  11 40474.7 3987.09   2
   5   1  12 16747.9 2983.83   2
  -5   1 -12 11826.7 3058.16   6
   5   1  13 33979.9 3891.53   2
  -5   1 -13 28355.5 3928.73   6
   5   1  13 30229.2 2422.35   4
  -5   1 -14 6741.96 3068.49   6
   5   1  14 4327.81 1591.64   4
   5   1  14 1745.52 2291.25   2
   5   3 -13 4405.96 2581.90   6
  -5   3  13 9575.85 2931.33   2
   5   3 -12 11723.1 2936.06   6
  -5   3  12 14961.8 1575.57   4
  -5   3  12 15099.0 3131.63   2
  -5   3  11 13473.3 2950.60   2
   5   3 -11 16120.6 3023.78   6
  -5   3  11 16834.4 1531.89   4
   5   3 -10 76428.9 2285.00   1
   5   3 -10 80424.0 5254.90   6
  -5   3  10 89151.8 2734.54   4
  -5   3  10 86200.3 5130.49   2
   5   3  -9 2369.81 2118.36   6
  -5   3   9 5499.11 1083.87   4
   5   3  -9 1211.22 698.060   1
   5   3  -8 23818.3 1469.50   1
   5   3  -8 20690.9 2858.70   6
   5   3  -8 21089.0 1088.97   1
  -5   3   8 22626.3 2959.07   2
  -5   3   8 26496.5 1395.33   4
  -5   3   7 42424.0 3456.50   2
   5   3  -7 37896.1 1171.79   1
   5   3  -7 38255.7 3349.66   6
   5   3  -7 51204.7 1626.96   1
  -5   3   7 42072.3 1512.08   4
   5   3  -7 46577.6 2471.96   2
  -5   3   6 34396.3 2912.15   2
   5   3  -6 32692.0 3049.82   6
   5   3  -6 32641.0 980.608   1
  -5   3   6 37959.0 1294.94   4
   5   3  -6 36086.7 1946.51   2
  -5   3   5 5766.64 1598.10   2
  -5   3   5 6414.36 610.095   4
   5   3  -4 14244.6 2061.99   6
   5   3  -4 15171.7 1004.68   2
   5   3  -3 311530. 6583.94   6
   5   3  -3 273437. 4318.03   4
   5   3  -2 25882.5 2025.78   6
   5   3  -2 27346.3 1437.42   4
   5   3  -1 38855.3 1960.34   6
   5   3  -1 41878.7 1962.16   5
   5   3  -1 40457.7 1533.50   4
  -5   3   0 501873. 5000.83   1
   5   3   0 471464. 6206.21   3
   5   3   0 505854. 5810.80   6
  -5   3   0 501379. 5423.91   6
   5   3   0 525225. 6335.00   5
   5   3   0 476329. 4389.82   4
   5   3   1 31472.7 1412.52   6
   5   3   1 31997.0 1868.39   3
  -5   3  -1 27128.5 1861.49   6
   5   3   1 28187.9 1164.16   4
   5   3   1 30389.0 1348.08   2
   5   3   2 50695.2 2152.62   2
   5   3   2 47308.4 1386.74   4
   5   3   2 44976.6 1521.28   6
  -5   3  -2 53594.9 2867.61   6
  -5   3  -2 43005.7 1374.80   1
   5   3   2 49707.2 2143.49   3
   5   3   3 56152.4 2610.87   2
  -5   3  -3 40576.3 3013.26   6
  -5   3  -3 41921.0 1340.80   1
   5   3   3 56059.2 2276.37   3
   5   3   4 40950.0 2573.83   2
  -5   3  -4 32430.9 1221.30   1
  -5   3  -4 39730.0 3107.56   6
   5   3   5 16643.6 2108.06   2
  -5   3  -5 18454.8 2505.19   6
  -5   3  -5 13659.7 1040.05   1
  -5   3  -6 35087.5 3676.01   6
  -5   3  -6 27315.9 1494.09   1
   5   3   7 76014.4 4204.42   2
  -5   3  -7 68864.4 4624.53   6
   5   3   8 95055.0 4898.72   2
  -5   3  -8 88360.8 5317.16   6
  -5   3  -9 7351.14 2847.80   6
   5   3   9 11389.7 2611.40   2
   5   3  10 3696.22 2262.69   2
  -5   3 -10-576.041 2330.64   6
  -5   3 -11 27095.3 4065.80   6
   5   3  11 44015.0 4229.61   2
   5   3  12 1763.56 2207.08   2
  -5   3 -12 769.433 2324.25   6
   5   3  12 2644.65 1279.57   4
   5   3  13 9876.90 3029.01   2
   5   3  13 6796.88 1611.29   4
  -5   3 -13 6475.07 2989.18   6
   5   5 -11 3333.67 2548.40   6
   5   5 -10 5803.77 2372.86   6
   5   5  -9 5492.20 2347.78   6
   5   5  -8 19991.3 2934.45   6
   5   5  -7 14682.2 2506.82   6
   5   5  -6 16494.6 2466.70   6
   5   5  -5 39821.2 3074.62   6
   5   5  -4 46020.7 2999.31   6
   5   5  -3 3853.89 1340.50   6
   5   5  -2 20359.2 1806.10   6
   5   5  -1 67957.9 2521.33   6
  -5   5   0 8977.89 757.965   6
   5   5   0 9931.39 1143.03   6
   5   5   0 9504.04 927.271   4
   5   5   1 10692.5 878.077   4
   5   5   1 11280.4 974.199   6
  -5   5  -2 78649.5 3097.80   6
   5   5   2 46749.9 1338.37   4
   5   5   3 13211.8 746.138   4
  -5   5  -3 25121.2 2243.98   6
  -5   5  -4 17054.7 2404.29   6
   5   5   4 18468.5 1814.87   2
   5   5   5 11615.0 1842.75   2
  -5   5  -5 13660.7 2344.47   6
  -5   5  -6 27980.9 2969.54   6
   5   5   6 37922.5 2896.74   2
   5   5   7 4320.30 1922.22   2
  -5   5  -7 5309.13 2148.69   6
  -5   5  -8 21388.9 3077.26   6
   5   5   8 19843.5 2767.12   2
  -5   5  -9 17228.2 2966.14   6
   5   5   9 22825.6 3016.97   2
  -5   5 -10 11994.7 2925.81   6
   5   5  10 12502.9 2709.31   2
  -5   5 -11 12227.1 3085.15   6
   5   5  11 15808.2 3083.93   2
   6  -6  -9 3921.04 1543.54   1
  -6  -6   9 5064.18 1626.61   3
  -6  -6   9 1921.51 1448.99   4
  -6  -6   8 2228.47 1490.56   3
   6  -6  -8 1629.21 1396.63   1
  -6  -6   8 678.872 1159.82   4
   6  -6  -7 24333.6 2049.81   1
   6  -6  -7 18769.2 1313.38   3
  -6  -6   7 22591.0 2172.40   3
  -6  -6   7 19826.7 1878.85   4
   6  -6  -6 31653.8 2145.01   1
  -6  -6   6 26295.6 1922.94   4
   6  -6  -6 26848.8 1614.28   3
   6  -6  -5 4097.55 1238.48   1
   6  -6  -5 3260.73 1025.22   3
  -6  -6   5 3843.29 1500.87   3
  -6  -6   5 2068.71 1172.03   4
  -6  -6   4 8721.02 1323.82   4
  -6  -6   4 7111.94 1643.38   3
   6  -6  -4 9903.73 1338.21   3
   6  -6  -4 9723.39 1350.02   1
  -6  -6   3 47157.1 2735.18   3
   6  -6  -3 42462.0 2089.67   1
   6  -6  -3 42934.9 2331.01   3
  -6  -6   2 21476.8 1398.74   4
   6  -6  -2 23026.3 1596.16   1
  -6  -6   2 23117.5 2070.55   3
   6  -6  -2 23447.9 1973.88   3
   6  -6  -1 11403.0 1613.36   3
  -6  -6   1 10216.4 1547.50   3
   6  -6  -1 10072.1 1060.21   1
   6  -6   0 63008.5 2004.59   1
  -6  -6   0 63524.0 2831.11   3
   6  -6   1 11345.2 1706.98   5
  -6  -6  -1 13142.2 1606.64   3
   6  -6   1 9310.54 997.862   1
  -6  -6  -1 11802.0 1079.15   1
  -6  -6  -2 17121.4 1435.80   1
   6  -6   2 13522.0 1888.61   3
  -6  -6  -2 16471.8 1594.95   3
  -6  -6  -3 12848.5 1391.58   1
  -6  -6  -3 10849.0 1370.81   3
   6  -6   3 11479.6 1118.50   4
   6  -6   3 10814.2 1689.22   5
   6  -6   4 17021.9 1973.56   5
   6  -6   4 17472.4 1465.02   4
  -6  -6  -4 14422.5 1413.04   3
  -6  -6  -5 1242.13 931.135   3
   6  -6   5 4446.41 1518.27   5
   6  -6   5 3461.35 1134.76   4
  -6  -6  -6 7792.70 1138.98   3
   6  -6   6 9225.81 1730.87   5
   6  -6   6 11204.0 1525.87   4
   6  -6   7 17413.3 1792.24   4
  -6  -6  -7 12215.7 1269.00   3
   6  -6   7 14367.5 1583.40   7
   6  -6   8 34466.2 2410.88   4
  -6  -6  -8 19759.5 1365.14   3
   6  -6   8 21498.6 1861.45   7
   6  -6   8 32930.1 2656.65   5
   6  -6   9 3403.25 1639.67   5
   6  -6   9 3089.29 1454.99   4
  -6  -4  12 26474.0 2028.04   3
   6  -4 -12 33809.2 2842.99   1
  -6  -4  12 34225.9 2747.93   4
   6  -4 -11 21067.8 2317.59   1
  -6  -4  11 18136.3 2390.73   2
  -6  -4  11 16765.6 2045.99   4
  -6  -4  11 20073.2 1945.12   3
   6  -4 -10 16520.1 2098.58   1
  -6  -4  10 15644.1 1791.54   3
  -6  -4  10 14712.2 2198.26   2
  -6  -4  10 14996.4 2013.74   4
  -6  -4   9 2297.16 1442.21   2
   6  -4  -9 6572.72 1777.24   1
  -6  -4   9 4313.12 1434.72   3
  -6  -4   8 50595.4 2650.32   3
  -6  -4   8 52361.1 2908.26   2
   6  -4  -8 51759.7 2121.13   6
   6  -4  -8 54605.6 2912.31   1
  -6  -4   8 48348.3 2596.30   4
  -6  -4   7 45328.1 2446.73   2
   6  -4  -7 40816.1 1409.20   3
   6  -4  -7 46047.8 2675.42   1
  -6  -4   7 51104.8 2582.61   3
  -6  -4   7 48087.0 2613.85   4
  -6  -4   6 12087.1 1509.47   4
  -6  -4   6 11835.6 1629.68   3
   6  -4  -6 13946.3 1003.04   3
   6  -4  -6 16372.0 1818.58   1
   6  -4  -5 126135. 2808.22   3
  -6  -4   5 140266. 3960.71   3
  -6  -4   5 136563. 2936.44   2
   6  -4  -5 138553. 4016.07   1
  -6  -4   5 129729. 3452.68   4
  -6  -4   4 32320.1 2060.34   3
   6  -4  -4 29626.0 1829.79   1
   6  -4  -4 28900.1 1581.39   3
  -6  -4   4 25394.0 1650.72   4
   6  -4  -3 59846.3 2228.10   3
  -6  -4   3 60369.8 2678.45   3
   6  -4  -3 52048.1 2776.20   2
  -6  -4   3 57451.5 2167.99   4
   6  -4  -3 55697.1 2148.20   1
   6  -4  -2 25718.1 1701.52   3
  -6  -4   2 15056.7 584.270   7
  -6  -4   2 24686.7 1846.38   3
  -6  -4   2 22656.2 2197.64   6
   6  -4  -2 18002.3 1694.77   2
   6  -4  -2 26635.2 1533.94   5
   6  -4  -2 22914.5 1405.87   1
  -6  -4   2 26980.1 1520.34   4
  -6  -4   1 114666. 2555.34   4
  -6  -4   1 118500. 2192.03   1
  -6  -4   1 116438. 4009.19   6
  -6  -4   1 131317. 3548.71   3
   6  -4  -1 135735. 2921.08   1
   6  -4  -1 114621. 3536.11   2
   6  -4  -1 132732. 3212.66   5
  -6  -4   1 118216. 1808.35   1
   6  -4   0 10865.1 660.794   4
  -6  -4   0 8932.23 1208.76   3
  -6  -4   0 10106.5 1342.38   6
   6  -4   0 10434.8 913.302   1
   6  -4   1 34356.7 1338.02   1
   6  -4   1 35258.9 1360.18   4
   6  -4   2 17447.5 1145.60   4
  -6  -4  -2 19471.1 1457.05   3
   6  -4   2 18534.9 1079.01   1
  -6  -4  -2 18771.6 1101.93   2
   6  -4   3 56860.5 2040.98   4
  -6  -4  -3 48848.2 2005.37   6
  -6  -4  -3 55432.0 2086.20   3
   6  -4   3 50237.4 1705.43   1
   6  -4   3 47377.9 1916.69   2
  -6  -4  -3 61414.7 2169.35   2
  -6  -4  -4 40987.8 1988.42   7
  -6  -4  -4 46608.4 2292.50   2
   6  -4   4 44388.4 1779.83   1
  -6  -4  -4 45449.0 1851.16   3
   6  -4   4 43236.6 2109.94   2
  -6  -4  -4 36975.0 1753.48   6
   6  -4   4 52082.2 2208.20   4
  -6  -4  -5 5396.11 891.500   3
  -6  -4  -5 3414.77 908.210   6
   6  -4   5 6180.67 1269.75   2
   6  -4   5 3760.42 1088.90   4
   6  -4   6 15951.7 1534.96   7
   6  -4   6 14045.6 1661.11   2
   6  -4   6 20303.3 1784.14   4
  -6  -4  -6 16745.3 1947.35   6
   6  -4   7 36032.4 2321.37   4
   6  -4   7 35081.0 2135.11   7
  -6  -4  -7 32796.0 2507.35   6
  -6  -4  -7 29589.3 1462.83   3
   6  -4   7 36165.7 2642.40   2
  -6  -4  -8 15098.0 1171.70   3
  -6  -4  -8 13986.1 2053.65   6
   6  -4   8 16689.3 1683.91   7
   6  -4   8 18731.7 1895.84   4
   6  -4   8 17043.4 2123.40   2
   6  -4   9 12839.9 2046.65   2
  -6  -4  -9 13409.7 2172.03   6
   6  -4   9 10586.1 1872.30   4
   6  -4   9 14126.7 1808.83   7
  -6  -4  -9 9958.87 1145.18   3
   6  -4  10 15632.9 2375.32   2
   6  -4  10 16865.4 1950.20   7
   6  -4  10 17485.3 2149.60   4
   6  -4  11 18500.3 2120.84   7
   6  -4  11 24782.5 2447.76   4
   6  -4  11 18382.8 2538.30   2
   6  -4  12 6163.96 2128.86   2
   6  -4  12 3023.37 1664.48   4
   6  -2 -14 5116.67 2456.69   6
   6  -2 -14 947.558 1465.05   1
  -6  -2  14 3096.70 1651.94   4
  -6  -2  14 2181.47 2080.66   2
  -6  -2  13 13825.1 2785.72   2
   6  -2 -13 12263.7 2582.26   6
  -6  -2  13 11393.3 1906.46   4
   6  -2 -12 30206.9 3276.41   6
  -6  -2  12 30803.8 3347.97   2
  -6  -2  12 37171.4 2718.72   4
   6  -2 -11 8943.21 2105.63   6
  -6  -2  11 9120.06 2232.24   2
  -6  -2  11 5592.20 1742.42   4
  -6  -2  10 43666.9 3309.54   2
  -6  -2  10 42301.8 2230.43   5
   6  -2 -10 51304.1 3536.04   6
  -6  -2  10 42459.6 2617.77   4
  -6  -2   9 19290.5 1664.99   5
   6  -2  -9 22122.1 2514.08   6
  -6  -2   9 23570.7 2064.62   4
  -6  -2   9 21033.5 2609.35   2
  -6  -2   8 80263.4 3064.59   4
  -6  -2   8 72826.3 2629.51   5
   6  -2  -8 78169.9 3715.22   6
  -6  -2   8 69054.3 3622.32   2
  -6  -2   7 29491.8 1975.35   4
   6  -2  -7 24826.3 2187.68   6
  -6  -2   7 28091.4 1750.31   5
  -6  -2   7 24496.6 2267.46   2
  -6  -2   6 54382.7 2885.76   2
   6  -2  -6 53439.7 946.157   3
   6  -2  -6 55546.0 2721.75   6
  -6  -2   6 55571.0 2294.51   5
  -6  -2   6 52927.2 2350.14   4
   6  -2  -5 132089. 4678.59   2
  -6  -2   5 135428. 3057.29   3
   6  -2  -5 134368. 3667.87   6
   6  -2  -5 126206. 3511.43   1
  -6  -2   5 128608. 3893.00   2
  -6  -2   5 133161. 3380.17   4
   6  -2  -5 128492. 1623.00   3
   6  -2  -4 173063. 3434.57   6
  -6  -2   4 182002. 3456.46   3
  -6  -2   4 173413. 5354.11   6
   6  -2  -4 169186. 4906.20   2
   6  -2  -4 175906. 2298.29   3
  -6  -2   4 182584. 3944.83   2
   6  -2  -4 165937. 3709.75   1
  -6  -2   4 158916. 3375.13   4
  -6  -2   3 8898.17 1811.65   6
   6  -2  -3 17935.9 974.390   3
  -6  -2   3 12469.8 1237.86   3
   6  -2  -3 25295.8 1085.04   6
  -6  -2   3 17049.9 1340.87   4
   6  -2  -3 18331.9 1382.90   1
   6  -2  -3 20878.7 805.843   5
   6  -2  -3 19824.8 1964.78   2
  -6  -2   3 11336.3 1271.54   2
   6  -2  -2 61353.8 1169.61   6
  -6  -2   2 59801.4 2824.00   6
   6  -2  -2 60831.1 2656.22   2
  -6  -2   2 71992.9 2016.97   4
  -6  -2   2 69416.7 2300.59   3
  -6  -2   2 50854.1 756.724   1
   6  -2  -2 46224.5 824.145   4
   6  -2  -2 55653.0 1829.06   1
  -6  -2   1 40713.1 1011.25   1
   6  -2  -1 40870.0 1494.41   1
  -6  -2   1 39430.0 2103.53   6
  -6  -2   1 40735.6 1619.25   3
  -6  -2   1 37262.4 1408.35   4
  -6  -2   0 109669. 2138.22   4
  -6  -2   0 111967. 2498.82   3
   6  -2   0 111390. 2158.57   1
  -6  -2   0 110087. 2914.35   6
  -6  -2   0 117512. 2426.99   1
  -6  -2  -1 109473. 2698.81   6
  -6  -2  -1 115768. 2436.66   3
   6  -2   1 118854. 2240.60   1
  -6  -2  -1 109707. 1793.52   7
   6  -2   2 150464. 2688.08   1
  -6  -2  -2 153423. 2711.64   7
  -6  -2  -2 149588. 2939.24   2
  -6  -2  -2 154961. 2684.81   3
  -6  -2  -3 286437. 4800.72   2
   6  -2   3 287703. 4264.92   1
  -6  -2  -3 289719. 3459.73   3
   6  -2   3 282303. 4574.46   2
  -6  -2  -4 19032.8 1662.41   2
  -6  -2  -4 15666.4 1321.23   7
  -6  -2  -4 19359.6 1061.74   3
  -6  -2  -4 15365.5 1266.58   6
   6  -2   4 17958.0 1498.83   2
   6  -2   5 27457.3 1710.46   7
  -6  -2  -5 22113.7 1728.38   7
  -6  -2  -5 26079.6 1210.80   3
   6  -2   5 26231.3 2020.06   2
  -6  -2  -5 24210.4 2075.53   2
   6  -2   6 178486. 4196.37   7
   6  -2   6 192666. 5262.60   2
  -6  -2  -6 181801. 5614.23   6
  -6  -2  -7 1225.12 1554.72   6
   6  -2   7 2636.93 1551.09   2
   6  -2   7 3285.92 1234.80   7
   6  -2   8 52154.2 2708.93   7
  -6  -2  -8 44240.2 3443.10   6
   6  -2   8 45194.3 3239.05   2
  -6  -2  -9 21553.8 2939.51   6
   6  -2   9 21638.6 2187.09   7
   6  -2   9 19898.4 2475.85   2
  -6  -2 -10 39086.3 3494.55   6
   6  -2  10 42020.0 2691.82   7
   6  -2  10 40318.4 3455.90   2
   6  -2  11 17280.9 2642.09   2
  -6  -2 -11 16623.3 2726.57   6
   6  -2  11 16341.1 2075.20   4
   6  -2  12 8320.83 2264.71   2
   6  -2  12 4456.36 1588.97   4
  -6  -2 -12 7998.19 2531.74   6
  -6  -2 -13 20769.1 3330.55   6
   6  -2  13 20361.8 2311.51   4
   6  -2  13 26806.6 3278.60   2
  -6   0  15-1429.47 2549.15   2
   6   0 -15 2938.97 1546.20   1
  -6   0  15 2917.61 1547.26   4
   6   0 -15 5872.78 2692.09   6
  -6   0  14 30226.7 3745.26   2
  -6   0  14 32901.7 2634.59   4
   6   0 -14 33736.1 3983.30   6
  -6   0  13 4244.62 2277.74   2
   6   0 -13 6286.29 2439.29   6
  -6   0  13 6992.45 1666.50   4
   6   0 -12 15364.2 2846.09   6
  -6   0  12 23147.5 3129.45   2
  -6   0  12 21938.4 2022.23   4
  -6   0  11 42505.1 3674.30   2
  -6   0  11 42057.0 2472.60   4
   6   0 -11 38959.2 3812.31   6
  -6   0  10 135580. 1706.06   3
   6   0 -10 125248. 5867.54   6
  -6   0  10 126595. 5699.78   2
  -6   0   9 17457.9 2963.74   2
   6   0  -9 11030.1 2559.89   6
  -6   0   9 16812.8 1708.20   4
  -6   0   9 13709.9 640.755   3
  -6   0   8 6872.38 1250.96   4
   6   0  -8 6332.32 1977.87   6
  -6   0   8 6076.68 1980.44   2
  -6   0   7 41206.5 2085.24   4
  -6   0   7 40517.5 2987.47   2
   6   0  -7 45032.9 3368.64   6
  -6   0   6 200102. 5981.05   6
   6   0  -6 200199. 5895.91   6
  -6   0   6 192266. 5609.84   2
   6   0  -6 199908. 5457.29   2
  -6   0   6 183747. 3701.75   4
   6   0  -5 136088. 4291.01   2
  -6   0   5 141859. 4538.78   2
   6   0  -5 136502. 4525.86   6
   6   0  -5 132367. 2915.59   4
  -6   0   5 130455. 2926.59   4
  -6   0   5 135010. 1494.24   3
  -6   0   4 26299.4 2088.64   6
   6   0  -4 26491.8 2040.41   2
  -6   0   4 22509.2 1914.72   2
  -6   0   4 23192.8 546.277   3
  -6   0   4 22138.9 1309.02   4
   6   0  -4 23312.7 1264.73   1
   6   0  -4 27017.5 2084.13   6
   6   0  -4 23504.1 1298.55   4
  -6   0   3 700711. 2488.55   3
   6   0  -3 753763. 8190.55   2
  -6   0   3 737146. 8379.54   6
   6   0  -3 735721. 8317.78   6
  -6   0   3 681945. 5383.71   4
   6   0  -3 757145. 5448.74   1
  -6   0   3 698705. 8072.44   2
   6   0  -3 714499. 5551.44   4
   6   0  -2 33469.3 1157.20   4
   6   0  -2 29530.8 673.010   3
  -6   0   2 32555.2 1719.33   6
   6   0  -2 32175.0 1687.28   6
   6   0  -2 33249.8 1741.85   2
  -6   0   2 33677.7 647.686   3
  -6   0   2 32493.3 1222.53   4
  -6   0   2 29134.9 1026.07   1
   6   0  -2 29610.3 1065.58   1
  -6   0   1 12940.5 823.079   4
  -6   0   1 12641.3 703.564   1
   6   0  -1 14136.5 782.700   1
   6   0  -1 14111.0 789.123   4
  -6   0   1 12546.0 1081.81   6
  -6   0   1 11504.2 563.122   3
   6   0  -1 11895.4 522.698   3
   6   0  -1 13288.6 1001.05   6
   6   0   0 294823. 2979.39   1
   6   0   0 293839. 3557.56   6
  -6   0   0 294171. 2951.67   1
  -6   0  -1 29561.8 1277.61   1
  -6   0  -1 29318.6 1342.09   6
   6   0   1 34008.5 1476.56   1
   6   0   1 33660.0 1393.03   6
   6   0   1 27794.4 1063.65   3
   6   0   2 47512.2 1760.10   2
   6   0   2 48137.6 2059.63   1
  -6   0  -2 44309.0 1864.26   1
  -6   0  -3 145022. 3659.32   1
  -6   0  -3 144354. 3399.17   2
   6   0   3 147408. 3607.90   2
  -6   0  -4 237582. 5069.84   1
   6   0   4 239046. 4138.11   7
  -6   0  -4 226856. 4563.43   2
  -6   0  -4 225851. 5853.87   6
  -6   0  -5 19968.8 2396.06   6
  -6   0  -5 16772.9 1718.21   2
   6   0   5 21065.8 1795.95   7
   6   0   5 24425.5 2207.24   2
   6   0   6 49225.8 2795.88   7
  -6   0  -6 48061.0 3684.59   6
   6   0   6 48620.4 1728.56   3
   6   0   7 25308.3 1997.96   7
   6   0   7 29968.9 1499.44   3
   6   0   7 28083.8 2729.44   2
  -6   0  -7 25330.4 2786.89   6
  -6   0  -8 88559.2 4899.92   6
   6   0   8 80890.5 4182.79   2
  -6   0  -9 69709.8 4659.52   6
   6   0   9 70023.6 4345.91   2
  -6   0 -10 13726.7 2817.55   6
   6   0  10 14024.4 2523.78   2
   6   0  11 38879.6 3575.44   2
  -6   0 -11 41021.6 4056.21   6
   6   0  12 1200.73 2052.35   2
  -6   0 -12 4861.51 2703.36   6
   6   0  13 7025.18 2609.79   2
   6   0  13 7650.97 1840.35   4
  -6   0 -13 2614.33 2677.85   6
   6   0  14 18316.9 3213.43   2
   6   0  14 13659.2 2052.51   4
  -6   2  14 3940.40 2883.68   2
  -6   2  14 7015.84 1548.42   4
   6   2 -14 3319.29 2433.60   6
   6   2 -13 19113.7 1704.08   1
   6   2 -13 13062.1 3124.70   6
  -6   2  13 18028.6 1808.11   4
  -6   2  13 13380.8 3203.19   2
   6   2 -12 28731.0 3952.31   6
   6   2 -12 32205.8 2000.48   1
  -6   2  12 37860.4 4048.24   2
  -6   2  12 32356.8 2189.58   4
   6   2 -11 5047.39 2413.23   6
  -6   2  11 2669.48 2404.67   2
  -6   2  11 4944.85 1281.95   4
   6   2 -10 37428.2 3735.52   6
  -6   2  10 38325.2 3655.95   2
  -6   2  10 46981.4 2210.85   4
  -6   2   9 27303.0 3163.31   2
  -6   2   9 29534.0 1803.89   4
   6   2  -8 80883.7 4690.68   6
  -6   2   8 80387.2 4605.34   2
  -6   2   8 92061.8 2645.37   4
   6   2  -7 19977.4 2611.37   6
  -6   2   7 20771.6 2528.30   2
   6   2  -7 21423.5 1220.66   1
  -6   2   7 22757.0 1375.37   4
  -6   2   7 19717.1 2050.30   6
  -6   2   6 61628.9 3576.46   2
   6   2  -6 63242.0 1701.85   1
   6   2  -6 64040.4 3957.47   6
   6   2  -6 61080.9 2173.99   7
   6   2  -6 66929.7 2965.46   2
  -6   2   6 66705.1 2964.37   6
  -6   2   6 67586.3 1908.30   4
   6   2  -5 130508. 4972.74   6
   6   2  -5 158367. 3007.07   7
  -6   2   5 132165. 4764.38   2
   6   2  -5 137275. 2044.94   1
  -6   2   5 135346. 3773.64   6
   6   2  -5 162214. 4106.71   2
  -6   2   5 142548. 2465.12   4
  -6   2   4 167075. 3496.07   6
   6   2  -4 180542. 2799.33   7
  -6   2   4 164804. 4824.73   2
   6   2  -4 175314. 5372.81   6
  -6   2   4 174902. 2302.92   4
   6   2  -4 176376. 3678.86   4
   6   2  -4 178043. 3790.66   2
   6   2  -4 170874. 1826.98   1
   6   2  -3 31885.8 1580.46   4
   6   2  -3 26537.9 2322.82   6
   6   2  -3 28230.5 1627.17   5
   6   2  -3 24203.2 1450.07   2
  -6   2   3 27894.5 1396.37   6
   6   2  -3 17929.0 558.565   1
  -6   2   3 36763.5 963.435   4
   6   2  -2 95306.3 2574.30   5
   6   2  -2 93768.8 2316.49   4
   6   2  -1 44320.3 2036.96   6
  -6   2   1 45520.5 1151.15   6
  -6   2   1 42964.7 1586.83   1
  -6   2   0 123920. 2137.17   6
  -6   2   0 111253. 2166.73   1
   6   2   0 132020. 2955.10   3
   6   2   0 122736. 2993.39   6
   6   2   0 110091. 1739.56   2
   6   2   0 131458. 2373.16   4
   6   2   1 112457. 2147.16   4
  -6   2  -1 104077. 2050.09   1
  -6   2  -1 105491. 3151.99   6
   6   2   1 113387. 2506.30   2
   6   2   1 110510. 2507.32   6
   6   2   1 119189. 2749.36   3
  -6   2  -2 98215.5 1999.34   1
  -6   2  -2 103291. 3705.76   6
   6   2   2 105629. 2438.60   6
   6   2   2 106529. 3027.67   2
   6   2   2 103349. 2587.80   3
   6   2   3 285547. 5431.46   2
  -6   2  -3 278619. 6522.67   6
   6   2   3 277195. 4009.16   3
   6   2   4 15993.3 1170.53   3
  -6   2  -4 18919.5 2378.51   6
   6   2   4 18364.1 1901.79   2
  -6   2  -4 17150.7 1217.80   1
  -6   2  -5 21045.1 1470.53   1
   6   2   5 19598.2 1272.63   3
  -6   2  -5 17526.8 2712.45   6
   6   2   5 23289.1 2313.95   2
   6   2   6 183160. 3321.60   3
  -6   2  -6 181312. 3907.69   1
  -6   2  -6 210001. 7014.42   6
   6   2   6 207060. 6218.92   2
  -6   2  -7 2475.02 2067.04   6
   6   2   7 2237.22 1690.99   2
  -6   2  -8 32058.9 3486.00   6
   6   2   8 36935.0 3214.45   2
   6   2   9 28972.7 3227.68   2
  -6   2  -9 27628.6 3492.48   6
   6   2  10 45672.8 3916.67   2
  -6   2 -10 60007.6 4855.28   6
   6   2  11 15044.7 2914.39   2
  -6   2 -11 8880.68 2938.99   6
  -6   2 -12 6889.17 2886.17   6
   6   2  12 8415.21 2777.79   2
   6   2  13 34501.5 4076.28   2
  -6   2 -13 34310.5 4252.11   6
   6   2  13 32374.5 2404.31   4
   6   4 -13 8800.27 2936.77   6
  -6   4  13 5404.99 2684.45   2
  -6   4  12 22622.0 3395.06   2
   6   4 -12 21443.2 3386.80   6
  -6   4  11 20300.5 3196.70   2
   6   4 -11 20383.2 3130.87   6
   6   4 -10 9461.59 2624.06   6
  -6   4  10 12221.9 2662.62   2
  -6   4   9 11282.2 2580.84   2
   6   4  -9 3723.10 2132.49   6
   6   4  -8 58548.1 4208.91   6
  -6   4   8 60949.8 1547.69   4
  -6   4   8 54399.5 3908.78   2
  -6   4   7 34832.4 1113.62   4
   6   4  -7 40482.1 3677.85   6
   6   4  -6 11279.2 2352.17   6
   6   4  -5 154921. 5516.16   6
   6   4  -4 20613.1 2267.17   6
   6   4  -3 51495.3 2913.81   6
   6   4  -2 18578.8 1367.00   4
   6   4  -2 18678.5 1766.15   6
   6   4  -1 100773. 3143.40   6
   6   4  -1 96962.6 2373.11   4
   6   4   0 12098.4 1238.78   6
   6   4   0 11212.2 952.103   4
  -6   4   0 9781.29 993.544   6
   6   4   1 45857.1 1758.45   6
  -6   4  -1 30241.1 1884.27   6
  -6   4  -1 30346.2 1432.27   1
   6   4   1 40642.1 1405.65   4
  -6   4  -2 17823.4 1055.26   1
   6   4   2 18865.7 1081.34   6
   6   4   2 17100.9 978.522   4
  -6   4  -3 68706.0 3494.32   6
   6   4   3 60787.6 1669.44   4
   6   4   3 74748.7 2904.15   2
  -6   4  -3 55537.0 1612.19   1
   6   4   4 30983.4 1294.65   4
  -6   4  -4 28176.5 1215.59   1
  -6   4  -5 4880.42 1894.91   6
   6   4   5 3037.79 1530.87   2
  -6   4  -5 2577.41 655.914   1
  -6   4  -6 12924.1 2625.90   6
  -6   4  -6 10373.4 925.203   1
  -6   4  -7 33258.5 3479.60   6
   6   4   7 37157.6 3232.24   2
  -6   4  -8 25430.5 3399.59   6
   6   4   8 27551.9 3165.05   2
   6   4   9 22619.7 3015.41   2
  -6   4  -9 14168.5 3079.80   6
   6   4  10 17555.3 3012.89   2
  -6   4 -10 9934.42 3011.67   6
  -6   4 -11 16198.2 3515.15   6
   6   4  11 24367.7 3542.43   2
  -6   4 -12 8412.76 3196.02   6
   6   4  12 7945.40 2708.76   2
   6   6  -9 2096.14 2202.60   6
   6   6  -8-600.049 1788.38   6
   6   6  -7 23042.1 2839.66   6
   6   6  -6 24163.8 2717.29   6
   6   6  -5 1167.30 1468.01   6
   6   6  -4 9616.73 1797.55   6
   6   6  -3 45566.5 2642.78   6
   6   6  -2 18809.6 1719.75   6
   6   6  -1 10631.8 1324.58   6
   6   6   0 52598.6 2071.08   6
  -6   6  -2 12812.0 1578.28   6
  -6   6  -3 9281.76 1716.77   6
  -6   6  -4 22339.2 2407.07   6
  -6   6  -5 6519.36 1946.95   6
  -6   6  -6 11027.8 2321.91   6
  -6   6  -7 15567.0 2886.12   6
  -6   6  -8 36903.9 3729.16   6
  -6   6  -9 3638.56 2416.76   6
  -7  -7   7 6477.57 1773.42   3
   7  -7  -7 6887.82 1475.56   1
   7  -7  -6 6514.79 1374.97   1
  -7  -7   6 7383.97 1719.15   3
   7  -7  -6 6621.33 1205.78   3
  -7  -7   5 21415.5 2207.00   3
   7  -7  -5 20625.3 1813.89   1
   7  -7  -5 19024.0 1640.75   3
  -7  -7   4 10145.8 1724.18   3
   7  -7  -4 11160.7 1485.02   3
   7  -7  -4 13629.0 1506.59   1
   7  -7  -3 18060.0 1806.78   3
  -7  -7   3 16519.5 2030.63   3
   7  -7  -3 22401.6 1675.09   1
   7  -7  -2 4570.33 1462.16   3
  -7  -7   2 4272.23 1436.54   3
  -7  -7   1 19290.7 1927.55   3
   7  -7  -1 21683.8 2151.81   3
   7  -7   0 1450.11 1395.84   3
  -7  -7   0 2401.27 1300.52   3
   7  -7   1 45536.1 2869.11   3
  -7  -7  -1 40594.4 2453.05   3
   7  -7   2 7362.64 1763.56   3
  -7  -7  -2 4797.63 1304.23   3
   7  -7   3 17314.9 2249.38   3
  -7  -7  -3 14792.1 1557.95   3
   7  -7   3 19303.9 2122.26   5
   7  -7   4 21234.7 2344.47   3
  -7  -7  -4 18074.5 1592.06   3
   7  -7   4 18298.5 2103.29   5
   7  -7   5 3042.66 1602.66   3
  -7  -7  -5 1698.25 1086.24   3
   7  -7   5-1106.86 1399.28   5
   7  -7   6 24361.9 2472.18   3
  -7  -7  -6 30003.4 2360.98   1
   7  -7   6 27688.3 2519.16   5
  -7  -5  11 9936.09 1606.09   3
   7  -5 -11 11890.0 2075.82   1
  -7  -5  11 5517.58 1645.68   4
  -7  -5  10 10257.3 1712.47   3
   7  -5 -10 7952.00 1829.86   1
  -7  -5  10 5891.11 1610.25   4
  -7  -5   9 5213.79 1515.62   3
   7  -5  -9 4261.57 1616.40   1
  -7  -5   9 4645.59 1453.12   4
  -7  -5   8 28825.4 2227.60   3
   7  -5  -8 26099.6 2326.97   1
  -7  -5   8 23169.3 2067.18   4
  -7  -5   7 8489.34 1535.81   3
  -7  -5   7 7595.16 1421.98   4
   7  -5  -7 6483.03 868.970   3
   7  -5  -7 8762.43 1515.87   1
   7  -5  -6 19678.7 1881.86   1
  -7  -5   6 13993.3 1858.42   3
  -7  -5   6 19073.7 1738.65   4
   7  -5  -6 19990.9 1371.69   3
   7  -5  -5 29424.8 1639.60   3
   7  -5  -5 30281.7 1980.67   1
  -7  -5   5 30082.0 1896.31   4
  -7  -5   4 32231.6 2352.54   3
   7  -5  -4 27322.3 1739.85   3
   7  -5  -4 27710.7 1859.41   1
  -7  -5   4 27110.8 1835.42   4
   7  -5  -3 24917.0 1722.94   3
  -7  -5   3 21163.7 1970.29   3
   7  -5  -3 24643.3 1627.02   1
  -7  -5   3 21207.8 1577.83   4
   7  -5  -2 54033.0 2517.84   3
  -7  -5   2 53701.2 2612.03   3
   7  -5  -2 53572.6 2173.46   1
  -7  -5   2 53770.7 2050.17   4
   7  -5  -1 104746. 2635.37   1
  -7  -5   1 88102.8 2369.71   4
   7  -5  -1 111354. 3553.58   3
  -7  -5   1 109820. 3464.31   3
   7  -5  -1 79733.3 3130.57   2
  -7  -5   1 88634.8 1539.50   1
  -7  -5   1 87247.0 3755.47   6
   7  -5  -1 108426. 3254.68   5
  -7  -5   1 92942.6 1923.12   1
  -7  -5   0 13405.2 963.838   1
   7  -5   0 12166.8 1107.48   1
  -7  -5   0 11317.2 1485.07   3
  -7  -5   0 14251.5 1279.51   1
   7  -5   0 14034.6 1497.51   5
  -7  -5   0 11914.9 1573.86   6
   7  -5   0 10277.9 628.223   4
   7  -5   0 8598.97 1376.07   2
   7  -5   1 14677.2 1598.41   5
  -7  -5  -1 5879.57 1337.43   6
   7  -5   1 8252.22 962.281   1
  -7  -5  -1 14204.6 1546.55   3
   7  -5   1 13251.1 915.765   4
  -7  -5  -2 77900.9 2784.75   3
   7  -5   2 74852.0 2037.40   1
   7  -5   3 69598.8 1992.43   1
   7  -5   3 70447.8 2350.53   2
   7  -5   4 18091.4 1324.29   1
   7  -5   4 17260.5 1506.46   2
   7  -5   4 24028.0 1714.04   4
  -7  -5  -4 21902.6 1510.01   3
  -7  -5  -5 2161.81 844.261   3
  -7  -5  -5 2709.15 1121.37   6
   7  -5   5 3076.66 1180.45   4
   7  -5   5 4089.30 1221.51   2
  -7  -5  -6 37710.3 1772.15   3
   7  -5   6 38935.5 2166.99   7
   7  -5   6 40659.3 2479.40   2
  -7  -5  -7-109.335 830.329   3
   7  -5   7 2878.29 1187.79   7
   7  -5   7 325.131 1306.67   2
   7  -5   8 14245.4 1893.29   2
   7  -5   8 17358.6 1753.86   7
  -7  -5  -8 13690.2 1249.44   3
   7  -5   9 23133.2 2058.38   7
  -7  -5  -9 17677.2 1369.79   3
   7  -5   9 27286.5 2361.54   4
   7  -5   9 22356.6 2449.47   2
   7  -5  10 17652.7 2006.34   7
   7  -5  10 19740.0 2212.06   4
   7  -5  11 9534.91 1732.41   7
  -7  -3  13 18488.5 2202.55   4
  -7  -3  13 21784.9 2836.09   2
   7  -3 -13 19372.4 2318.46   1
   7  -3 -12 15478.0 2373.99   6
  -7  -3  12 17797.5 2633.79   2
  -7  -3  12 16143.3 1591.64   3
   7  -3 -12 20951.0 2331.63   1
  -7  -3  12 13093.5 1957.18   4
  -7  -3  11 5793.78 1950.96   2
  -7  -3  11 3831.53 1220.06   3
   7  -3 -11 7411.00 1890.06   6
   7  -3 -11 4572.85 1663.71   1
  -7  -3  11 5591.00 1599.85   4
  -7  -3  10 32238.6 2080.88   3
  -7  -3  10 29930.7 2872.46   2
   7  -3 -10 27791.3 2590.78   6
   7  -3 -10 31593.3 2486.98   1
  -7  -3  10 31001.9 2547.62   4
  -7  -3   9 35636.7 2063.61   3
  -7  -3   9 35218.7 2879.01   2
  -7  -3   9 44754.5 2617.23   4
   7  -3  -9 49625.5 3052.96   6
   7  -3  -9 41903.9 2729.89   1
  -7  -3   8 53020.9 2446.14   3
   7  -3  -8 55752.1 2828.40   6
   7  -3  -8 46890.1 2824.55   1
  -7  -3   8 49252.3 2977.03   2
  -7  -3   8 42726.1 2640.36   4
   7  -3  -7 14761.5 734.929   3
  -7  -3   7 18275.5 1593.04   3
   7  -3  -7 14394.6 1789.45   1
   7  -3  -7 14462.2 1607.39   6
  -7  -3   7 16452.4 1892.79   2
  -7  -3   7 20010.6 1876.48   4
   7  -3  -6 67201.8 2334.26   6
  -7  -3   6 69361.4 2606.28   3
  -7  -3   6 62241.3 2808.50   2
   7  -3  -6 63247.9 2849.74   1
   7  -3  -6 55918.9 1388.72   3
  -7  -3   6 56065.6 2410.92   4
  -7  -3   5 17825.1 1498.87   3
   7  -3  -5 14268.5 985.402   6
   7  -3  -5 15604.4 968.301   3
  -7  -3   5 15247.7 1400.47   2
   7  -3  -5 13261.9 1532.64   1
  -7  -3   5 13882.2 1399.70   4
  -7  -3   4 6584.02 1135.17   3
   7  -3  -4 7697.22 1670.51   2
   7  -3  -4 5352.80 447.019   6
   7  -3  -4 6550.10 1151.10   1
   7  -3  -4 7644.66 913.403   3
  -7  -3   4 4892.52 1046.95   4
   7  -3  -3 136655. 2898.30   3
   7  -3  -3 138060. 2453.55   5
   7  -3  -3 131383. 3137.61   1
  -7  -3   3 123063. 2910.39   4
   7  -3  -3 124582. 4097.41   2
  -7  -3   3 141816. 3474.78   3
  -7  -3   3 125176. 4480.53   6
  -7  -3   2 43802.3 2123.16   3
  -7  -3   2 41268.7 2692.54   6
   7  -3  -2 36994.8 2284.63   2
  -7  -3   2 42370.4 1807.70   4
   7  -3  -2 40877.8 1752.87   1
  -7  -3   1 34494.2 1784.26   3
  -7  -3   1 31144.0 1091.70   1
  -7  -3   1 30957.4 1441.06   4
  -7  -3   1 29197.3 2121.37   6
  -7  -3   0 70907.2 2784.94   6
  -7  -3   0 70381.3 2360.67   3
  -7  -3   0 72374.5 2194.44   1
   7  -3   0 73434.2 1960.67   1
  -7  -3  -1 62888.3 2159.72   3
   7  -3   1 68648.5 1839.31   1
  -7  -3  -1 69206.7 1568.21   7
  -7  -3  -1 63436.9 2407.89   6
  -7  -3  -2 13777.1 1009.77   7
  -7  -3  -2 14318.7 1226.81   3
  -7  -3  -2 12782.9 1283.03   6
  -7  -3  -2 17348.9 1139.10   2
   7  -3   3 30474.3 1680.83   2
  -7  -3  -3 37184.1 1797.33   2
   7  -3   3 29687.7 1482.95   1
  -7  -3  -3 33004.6 1773.26   6
  -7  -3  -3 36978.5 1620.48   3
  -7  -3  -3 36465.8 1677.20   7
  -7  -3  -4 147428. 3444.89   7
  -7  -3  -4 147525. 2855.23   3
   7  -3   4 150159. 3374.50   1
  -7  -3  -4 149057. 3876.70   2
   7  -3   4 149507. 3779.26   2
  -7  -3  -5 10745.5 982.797   3
   7  -3   5 12399.0 1445.73   2
  -7  -3  -6 51542.4 1791.60   3
  -7  -3  -6 31341.2 1998.23   6
   7  -3   6 27053.8 1863.25   7
  -7  -3  -6 46529.7 2996.32   6
   7  -3   6 30049.6 2422.40   2
   7  -3   7 27774.6 1949.17   7
  -7  -3  -7 22379.1 2368.58   6
   7  -3   7 26828.2 2491.53   2
  -7  -3  -7 25808.3 1381.31   3
  -7  -3  -8 57319.8 2057.99   3
  -7  -3  -8 61472.4 3658.30   6
   7  -3   8 48576.6 2519.97   7
   7  -3   8 48372.1 3270.36   2
  -7  -3  -9 8036.63 2121.40   6
   7  -3   9 6074.12 1855.74   2
   7  -3   9 9787.63 1679.88   7
   7  -3  10 6163.08 1619.61   7
   7  -3  10 7972.64 1967.91   2
   7  -3  10 7785.45 1679.63   4
   7  -3  11 48769.3 2951.24   7
   7  -3  11 44579.6 3668.24   2
  -7  -3 -11 45114.0 3845.48   6
   7  -3  11 42296.3 2851.73   4
   7  -3  12 3426.65 2025.45   2
  -7  -3 -12-2248.32 2239.31   6
   7  -3  12 2806.61 1668.63   4
  -7  -3 -13 5021.61 2522.35   6
   7  -3  13 5501.43 2151.46   2
   7  -3  13 7190.46 1887.29   4
   7  -1 -14 4692.91 1723.53   1
  -7  -1  14 4381.26 2417.41   2
   7  -1 -14 1025.45 2068.68   6
  -7  -1  14 2306.61 1526.96   4
  -7  -1  13 19737.6 3019.10   2
   7  -1 -13 21387.9 2234.04   1
   7  -1 -13 20324.1 3009.64   6
  -7  -1  13 18298.9 2166.56   4
  -7  -1  12 26863.4 3157.10   2
   7  -1 -12 22399.8 3005.79   6
  -7  -1  12 26912.3 2347.75   4
   7  -1 -11 10508.2 2391.33   6
  -7  -1  11 14695.3 2535.47   2
  -7  -1  11 14640.8 1810.26   4
  -7  -1  10 45337.4 3583.78   2
  -7  -1  10 45633.8 2612.56   4
   7  -1 -10 42551.3 3500.37   6
  -7  -1   9 13612.3 2577.52   2
   7  -1  -9 13851.0 2770.60   6
  -7  -1   9 12369.3 1984.90   4
  -7  -1   8 90085.1 4281.18   2
  -7  -1   8 85861.8 3062.87   4
   7  -1  -8 94625.2 4372.99   6
   7  -1  -7 26128.3 2389.19   6
  -7  -1   7 26581.7 2465.97   2
  -7  -1   7 24288.4 1769.90   4
  -7  -1   6 9405.47 1057.91   3
  -7  -1   6 9199.33 2182.84   2
   7  -1  -6 18066.9 1852.12   1
   7  -1  -6 17352.6 2125.11   6
  -7  -1   6 11947.6 1578.33   4
  -7  -1   5 237259. 3164.07   3
   7  -1  -5 236962. 6035.36   2
   7  -1  -5 237789. 4361.40   1
  -7  -1   5 250757. 6790.77   6
   7  -1  -5 253085. 5620.98   6
  -7  -1   5 241243. 4302.92   4
  -7  -1   4 170878. 2586.60   3
  -7  -1   4 146368. 3122.95   4
  -7  -1   4 155474. 4724.55   6
   7  -1  -4 165953. 4696.14   2
   7  -1  -4 163293. 4035.67   6
  -7  -1   4 162634. 4146.17   2
   7  -1  -4 146342. 3279.78   1
   7  -1  -4 167382. 2770.79   4
  -7  -1   3 146458. 2355.47   3
  -7  -1   3 142516. 2091.02   1
   7  -1  -3 140137. 3206.98   6
   7  -1  -3 146422. 4098.02   2
   7  -1  -3 136844. 2162.89   4
  -7  -1   3 147954. 4247.70   6
   7  -1  -2 11569.5 889.060   6
  -7  -1   2 8578.61 798.502   3
  -7  -1   2 10589.0 1468.33   6
  -7  -1   2 12660.2 1058.98   4
   7  -1  -2 8810.05 875.531   1
  -7  -1   2 12046.5 631.224   1
   7  -1  -2 11874.5 715.045   4
  -7  -1   1 80639.9 1922.83   4
   7  -1  -1 83213.6 1542.31   4
   7  -1  -1 83241.9 1869.38   1
  -7  -1   1 78434.9 1643.03   3
   7  -1  -1 88352.2 1936.63   6
  -7  -1   1 79115.7 2572.25   6
  -7  -1   1 74861.2 1435.20   1
  -7  -1   0 59759.1 1615.97   1
  -7  -1   0 62391.1 1440.83   3
   7  -1   0 60112.4 1567.40   1
  -7  -1   0 59860.8 2059.83   6
   7  -1   0 62814.5 1698.61   6
  -7  -1  -1 114301. 2730.39   1
  -7  -1  -1 114432. 1949.60   3
   7  -1   1 114714. 2286.77   1
  -7  -1  -2 46521.6 1445.27   3
   7  -1   2 49605.8 1814.29   1
  -7  -1  -2 44423.6 1769.29   6
  -7  -1  -2 41260.7 2130.00   1
   7  -1   3 212889. 4049.05   2
   7  -1   3 214920. 4247.38   1
  -7  -1  -3 209479. 3529.98   7
  -7  -1  -3 197084. 3984.06   2
  -7  -1  -3 200374. 3930.13   6
   7  -1   4 274151. 4598.33   7
  -7  -1  -4 265488. 4332.07   7
   7  -1   5 89422.5 2905.27   7
  -7  -1  -5 83958.6 3307.88   2
   7  -1   5 87486.1 3495.96   2
  -7  -1  -5 83302.1 2846.90   7
   7  -1   6 190183. 4309.64   7
   7  -1   6 190262. 5395.09   2
  -7  -1  -6 175211. 5846.65   6
  -7  -1  -7 86874.8 4516.24   6
   7  -1   7 91398.9 3369.71   7
   7  -1   7 87474.2 4129.69   2
  -7  -1  -8 20261.0 2653.78   6
   7  -1   8 19335.3 2485.25   2
   7  -1   8 22600.8 2044.25   7
   7  -1   9 47611.6 2881.32   7
   7  -1   9 44747.9 3376.24   2
  -7  -1  -9 40586.7 3615.84   6
  -7  -1 -10 8487.25 2561.76   6
   7  -1  10 9096.76 2376.43   2
   7  -1  11 10105.7 2465.56   2
  -7  -1 -11 6718.36 2459.58   6
   7  -1  12 7199.68 2223.84   2
  -7  -1 -12 3902.61 2383.80   6
  -7  -1 -13 26318.8 3884.03   6
   7  -1  13 31123.2 3678.96   2
   7  -1  13 32165.6 2619.30   4
   7  -1  14 4170.85 2411.40   2
   7  -1  14 8924.51 1941.35   4
  -7  -1 -14 8410.45 3103.32   6
   7   1 -14 5654.17 2631.64   6
   7   1 -14 2791.61 1278.15   1
  -7   1  14 3892.46 1478.51   4
  -7   1  14 7344.28 2741.35   2
   7   1 -13 21159.5 3367.85   6
   7   1 -13 18583.1 1860.78   1
  -7   1  13 22554.7 2076.91   4
  -7   1  13 19098.6 3162.48   2
   7   1 -12 34417.9 3808.18   6
   7   1 -12 26950.2 2044.21   1
  -7   1  12 32892.5 2292.57   4
  -7   1  12 34218.0 3777.70   2
  -7   1  11 14669.0 2866.38   2
   7   1 -11 12683.0 2742.34   6
  -7   1  11 17148.5 1761.03   4
  -7   1  10 36544.9 3461.37   2
   7   1 -10 29509.6 3317.42   6
  -7   1  10 37426.8 2215.03   4
  -7   1   9 17583.9 3166.01   2
   7   1  -9 14352.6 2775.03   6
  -7   1   9 19960.2 2001.12   4
  -7   1   8 82586.3 4454.99   2
   7   1  -8 79602.8 4539.00   6
  -7   1   8 88165.7 2805.43   4
  -7   1   7 37383.9 2917.36   6
  -7   1   7 29873.8 2752.24   2
   7   1  -7 32790.9 1601.99   1
  -7   1   7 29597.6 1616.60   4
   7   1  -7 30636.2 2851.94   6
   7   1  -6 11658.5 1367.34   7
  -7   1   6 7438.03 2129.85   6
   7   1  -6 3938.36 1651.27   6
   7   1  -6 4933.83 918.621   1
  -7   1   6 8891.50 2188.22   2
   7   1  -6 5505.66 1638.81   2
  -7   1   6 8389.54 1290.79   4
   7   1  -5 256832. 3564.66   1
  -7   1   5 241572. 3684.68   4
  -7   1   5 249306. 5734.30   6
  -7   1   5 225164. 6046.74   2
   7   1  -5 251018. 6533.79   6
   7   1  -5 256870. 4340.63   4
   7   1  -5 232655. 5329.64   2
   7   1  -4 198081. 5400.74   6
   7   1  -4 196605. 4511.24   2
  -7   1   4 169057. 4732.86   2
  -7   1   4 186854. 2833.20   4
   7   1  -4 178206. 2511.62   1
  -7   1   4 183106. 4311.73   6
   7   1  -4 186516. 3540.24   4
   7   1  -3 99007.9 3601.52   6
   7   1  -3 98024.1 2927.92   2
  -7   1   3 93491.4 2695.09   6
   7   1  -3 101538. 2278.89   5
   7   1  -3 99953.6 2366.58   4
  -7   1   3 94598.1 1916.88   4
  -7   1   2 7046.70 659.198   4
   7   1  -2 8734.12 849.316   3
  -7   1   2 7315.63 943.357   6
   7   1  -2 9993.67 1430.38   6
   7   1  -2 8759.44 638.961   1
   7   1  -2 7523.48 1130.40   2
  -7   1   2 6736.05 837.681   1
   7   1  -2 9291.52 1014.02   4
   7   1  -1 80622.0 2469.85   6
   7   1  -1 89735.3 1901.60   3
  -7   1   1 87904.7 2053.56   6
  -7   1   1 78234.2 1847.29   1
   7   1  -1 82736.0 1625.10   1
   7   1  -1 77315.2 1943.67   4
   7   1   0 62799.9 1887.79   1
   7   1   0 64844.1 1703.74   4
  -7   1   0 63672.9 1625.06   1
   7   1   0 61266.8 1558.58   3
   7   1   0 64925.7 2140.37   6
  -7   1   0 62378.3 1750.09   6
   7   1   1 92090.0 1906.21   3
  -7   1  -1 93741.6 2064.21   1
   7   1   1 95012.2 1753.18   7
   7   1   1 109300. 2249.88   2
   7   1   1 102428. 2424.60   6
  -7   1  -1 101819. 2360.30   6
  -7   1  -2 43456.4 1639.19   1
   7   1   2 46888.7 1630.55   7
   7   1   2 48114.3 1966.26   2
   7   1   3 220056. 3018.92   3
   7   1   3 224435. 4725.09   2
   7   1   4 285192. 4997.63   7
  -7   1  -4 251646. 4568.41   1
  -7   1  -4 261095. 6613.19   6
   7   1   4 270595. 5825.80   2
   7   1   4 288036. 3467.45   3
  -7   1  -5 82164.9 4466.52   6
  -7   1  -5 81590.5 2968.61   2
   7   1   5 84344.7 3950.63   2
   7   1   5 82865.3 2084.81   3
  -7   1  -5 80964.1 3062.76   1
   7   1   6 158461. 2773.98   3
   7   1   6 156126. 5388.81   2
   7   1   7 85291.8 4287.16   2
  -7   1  -7 82284.2 4723.62   6
  -7   1  -8 22153.4 3179.34   6
   7   1   8 18661.7 2617.24   2
  -7   1  -9 42518.0 3953.37   6
   7   1   9 50640.9 3963.14   2
   7   1  10 19768.1 2967.14   2
  -7   1 -10 20900.9 3273.20   6
  -7   1 -11 18541.4 3313.97   6
   7   1  11 7690.99 2378.26   2
   7   1  12 1864.70 2252.02   2
  -7   1 -12 2822.17 2499.31   6
   7   1  13 30600.0 3759.01   2
  -7   1 -13 27569.6 3997.74   6
   7   1  14 6990.47 2671.40   2
  -7   1 -14 6478.83 3019.97   6
   7   1  14 7830.69 1777.81   4
  -7   3  13 28405.8 3868.55   2
   7   3 -13 29758.9 3904.46   6
  -7   3  12 16279.5 3276.90   2
   7   3 -12 17030.2 3068.33   6
  -7   3  12 15718.2 1601.64   4
   7   3 -11 6612.83 2512.48   6
  -7   3  11 3877.13 2347.01   2
  -7   3  11 9208.29 1301.58   4
   7   3 -10 48398.5 4124.06   6
   7   3 -10 52956.0 1817.72   1
  -7   3  10 46912.8 4144.06   2
  -7   3  10 56293.2 2219.93   4
   7   3  -9 39950.1 1464.74   1
  -7   3   9 44097.5 3857.23   2
   7   3  -9 36656.1 3498.07   6
   7   3  -8 62700.8 1542.62   1
   7   3  -8 60592.6 4207.73   6
  -7   3   8 60385.0 4099.03   2
  -7   3   8 68868.2 2071.95   4
  -7   3   7 16015.0 2423.37   2
   7   3  -7 19722.8 2963.34   6
   7   3  -7 19692.9 1801.34   2
   7   3  -7 15578.7 738.645   1
  -7   3   7 15697.1 1049.54   4
  -7   3   6 75389.4 1661.02   4
  -7   3   6 67683.8 3817.34   2
   7   3  -6 69575.7 4108.56   6
   7   3  -6 71429.9 2645.84   2
   7   3  -5 15130.8 2201.19   6
   7   3  -5 17022.7 1371.91   2
  -7   3   5 14292.9 761.895   4
   7   3  -4 10330.2 935.109   2
   7   3  -4 6899.45 1720.76   6
   7   3  -3 105195. 1727.10   2
   7   3  -3 112612. 2934.90   4
   7   3  -2 42224.0 2445.66   6
   7   3  -2 40236.5 1740.95   4
  -7   3   1 27378.8 1201.40   6
  -7   3   1 32590.3 985.395   6
   7   3  -1 34192.5 1967.41   6
  -7   3   1 29821.1 1542.93   1
   7   3  -1 30407.4 1424.65   4
  -7   3   0 68664.5 2325.09   6
   7   3   0 70942.3 2518.22   6
  -7   3   0 75208.7 1776.44   6
  -7   3   0 64799.1 1963.69   1
   7   3   0 64068.4 1810.56   4
   7   3   1 69738.2 1931.28   4
  -7   3  -1 70826.9 2891.55   6
   7   3   1 68748.9 2217.98   6
  -7   3  -1 65793.4 1849.36   1
   7   3   1 70407.1 1997.28   2
   7   3   2 20992.9 1140.48   4
  -7   3  -2 24588.3 2328.65   6
   7   3   2 16910.8 1177.10   6
  -7   3  -2 19011.7 1186.04   1
   7   3   2 21466.8 1588.93   2
  -7   3  -3 33920.6 1412.24   1
  -7   3  -3 36451.8 2773.58   6
  -7   3  -4 201982. 6172.87   6
   7   3   4 213807. 5372.49   2
   7   3   5 9026.31 1779.01   2
  -7   3  -5 9779.15 1031.42   1
  -7   3  -6 44651.1 4025.39   6
  -7   3  -6 36386.4 1766.39   1
   7   3   7 33459.7 3082.85   2
  -7   3  -7 29511.1 3296.06   6
   7   3   8 58798.1 4126.75   2
  -7   3  -8 67086.6 4846.39   6
  -7   3  -9 7855.92 2900.92   6
   7   3   9 11612.8 2511.38   2
   7   3  10 3596.78 2390.75   2
  -7   3 -10 6454.36 2691.14   6
   7   3  11 51201.4 4452.78   2
  -7   3 -11 46394.8 4793.43   6
   7   3  12 869.264 2319.73   2
  -7   3 -12 2166.52 2639.93   6
   7   3  13 6749.61 2743.25   2
  -7   3 -13 3869.02 2838.14   6
   7   3  13 4316.15 1479.25   4
   7   5 -11 12642.7 3001.07   6
   7   5 -10 11875.8 2759.91   6
   7   5  -9 7528.05 2443.90   6
   7   5  -8 27955.6 3217.17   6
   7   5  -7 6808.45 2199.23   6
   7   5  -6 27787.2 2855.47   6
   7   5  -5 50297.1 3345.92   6
   7   5  -4 35027.6 2789.87   6
   7   5  -3 37455.8 2607.68   6
   7   5  -2 62871.9 2843.49   6
   7   5  -1 97424.8 3161.14   6
   7   5  -1 84562.9 2453.80   4
   7   5   0 12692.9 1292.50   6
  -7   5   0 12000.1 746.575   6
  -7   5   0 10139.1 923.441   6
   7   5   0 11092.1 1036.33   4
   7   5   1 14815.5 1152.46   6
   7   5   1 14615.2 1055.46   4
   7   5   2 69292.0 1991.33   6
   7   5   2 58753.1 1692.24   4
   7   5   3 71719.9 1764.26   4
  -7   5  -3 105546. 4012.52   6
   7   5   3 111377. 3175.61   2
  -7   5  -3 79157.1 2059.41   1
  -7   5  -4 18642.7 2287.62   6
   7   5   4 28202.4 2088.52   2
   7   5   5 9544.14 1728.13   2
  -7   5  -5 8241.47 2029.24   6
   7   5   6 56441.8 3479.41   2
  -7   5  -6 54777.3 3861.52   6
  -7   5  -7 3938.24 2126.79   6
   7   5   7 3579.12 1843.62   2
   7   5   8 16976.3 2610.18   2
  -7   5  -8 18198.7 2985.67   6
  -7   5  -9 19064.7 3212.09   6
   7   5   9 28510.5 3263.42   2
   7   5  10 15991.1 2940.23   2
  -7   5 -10 6894.60 2726.81   6
  -7   5 -11 7528.31 2739.54   6
   7   5  11 10713.3 2860.20   2
   8  -6  -9 11189.1 1856.02   1
  -8  -6   9 10992.8 1883.06   3
  -8  -6   9 8569.82 1681.75   4
  -8  -6   8 6920.12 1717.20   3
  -8  -6   8 9496.39 1541.95   4
   8  -6  -8 4608.26 1404.23   1
  -8  -6   7 20642.2 2121.19   3
   8  -6  -7 17869.0 1913.09   1
  -8  -6   7 19734.7 1885.80   4
   8  -6  -6 24937.1 1640.96   3
  -8  -6   6 27812.1 2244.72   3
   8  -6  -6 28229.8 2164.54   1
  -8  -6   6 23724.2 1916.01   4
  -8  -6   5 5866.12 1271.62   4
  -8  -6   5 7702.52 1601.23   3
   8  -6  -5 4789.33 1226.17   1
   8  -6  -5 6194.52 1150.22   3
  -8  -6   4 4250.36 1161.39   4
   8  -6  -4 6816.51 1254.82   3
  -8  -6   4 6239.89 1587.29   3
   8  -6  -4 5172.93 1203.65   1
   8  -6  -3 30222.1 1916.73   1
  -8  -6   3 30558.6 2264.80   3
  -8  -6   3 24013.2 1604.95   4
   8  -6  -3 31200.4 2110.62   3
  -8  -6   2 17930.0 1401.41   4
   8  -6  -2 24165.9 2001.89   3
  -8  -6   2 20689.3 1993.78   3
   8  -6  -2 23209.1 1535.45   1
   8  -6  -1 15412.5 1752.78   3
   8  -6  -1 14523.9 1292.55   1
   8  -6   0 6996.44 1513.57   3
  -8  -6   0 6227.14 1420.56   3
   8  -6   0 6525.91 934.503   1
   8  -6   0 5119.27 1279.41   5
   8  -6   1 27888.5 2236.96   3
  -8  -6  -1 29336.8 1539.62   1
  -8  -6  -1 26783.5 2014.46   3
   8  -6   1 22397.9 1356.74   1
   8  -6   1 29143.8 2133.53   5
  -8  -6  -2 2244.21 1044.52   3
   8  -6   2 2849.26 1261.78   5
   8  -6   3 8242.90 1589.44   5
   8  -6   3 7708.15 1041.58   4
  -8  -6  -3 8025.12 1264.94   3
  -8  -6  -4 12771.7 1370.49   3
   8  -6   4 16519.0 1990.39   5
   8  -6   4 14074.1 1366.32   4
  -8  -6  -5 5194.87 1101.62   3
   8  -6   5 7196.13 1566.08   5
   8  -6   5 9619.49 1330.85   4
  -8  -6  -6 1495.25 920.822   3
   8  -6   6 2465.53 1399.18   5
   8  -6   6 1552.46 1145.18   7
  -8  -6  -7 4698.55 1060.63   3
   8  -6   7 6947.98 1836.58   5
   8  -6   7 4168.86 1249.66   7
   8  -6   7 3666.94 1314.92   4
   8  -6   8 13699.2 1630.44   7
  -8  -6  -8 10976.2 1212.45   3
   8  -6   8 19361.5 2261.71   5
   8  -6   8 17943.8 1984.30   4
   8  -6   9 2804.40 1586.97   5
   8  -6   9 5422.31 1507.97   4
  -8  -4  12 27113.7 1995.03   3
   8  -4 -12 28518.5 2765.33   1
  -8  -4  12 29414.4 2542.22   4
   8  -4 -11 18694.6 2244.06   1
  -8  -4  11 12631.9 1600.99   3
  -8  -4  11 14358.7 2108.48   2
  -8  -4  11 14945.2 1984.18   4
  -8  -4  10 11604.7 1581.40   3
   8  -4 -10 13178.7 2034.72   1
  -8  -4  10 11204.1 1787.70   4
  -8  -4  10 10753.3 1948.23   2
  -8  -4   9 7581.50 1470.69   3
   8  -4  -9 10280.1 1923.74   1
  -8  -4   9 8256.97 1588.35   4
  -8  -4   8 40233.2 2278.80   3
   8  -4  -8 39555.2 2688.53   1
  -8  -4   8 38914.7 2420.61   2
  -8  -4   8 33217.7 2290.95   4
  -8  -4   7 16599.8 1759.31   3
  -8  -4   7 15605.5 1631.38   2
   8  -4  -7 13557.6 913.945   3
   8  -4  -7 10806.9 878.462   6
   8  -4  -7 12270.7 1795.92   1
  -8  -4   7 18477.8 1783.26   4
  -8  -4   6 17989.2 1762.99   3
   8  -4  -6 21296.1 1227.67   3
   8  -4  -6 23047.7 2034.42   1
  -8  -4   5 47797.3 2483.55   3
   8  -4  -5 46617.4 2320.18   1
   8  -4  -5 46481.7 1782.87   3
  -8  -4   5 44758.1 2222.10   4
   8  -4  -4 14379.2 1273.06   3
  -8  -4   4 15662.7 1703.20   3
   8  -4  -4 13065.2 1380.93   1
  -8  -4   4 10832.4 1306.04   4
   8  -4  -3 66957.5 2412.27   3
   8  -4  -3 67541.3 2445.91   1
  -8  -4   3 63775.5 2349.19   4
  -8  -4   2 9975.78 1380.08   3
  -8  -4   2 4694.09 1521.87   6
   8  -4  -2 5142.84 1241.30   2
   8  -4  -2 9409.90 1014.22   5
   8  -4  -2 7293.93 1026.51   1
  -8  -4   2 10514.6 1128.30   4
  -8  -4   1 142477. 4523.78   6
  -8  -4   1 136278. 2873.50   4
  -8  -4   1 135173. 3590.91   3
   8  -4   0 16949.1 1189.77   1
  -8  -4   0 17636.3 1320.92   1
  -8  -4   0 16075.1 1730.92   6
  -8  -4   0 16329.1 1480.91   3
   8  -4   0 14914.9 821.667   4
   8  -4   1 47362.3 1673.37   1
  -8  -4  -1 48247.1 1387.58   7
  -8  -4  -1 43697.4 2363.99   6
  -8  -4  -2 46178.3 1617.57   7
  -8  -4  -2 50134.3 2068.54   3
   8  -4   2 49577.2 1736.10   1
  -8  -4  -3 48158.0 1849.10   7
  -8  -4  -3 39300.0 2039.00   6
  -8  -4  -3 45554.4 1904.07   3
   8  -4   3 42503.7 1890.75   2
   8  -4   3 37239.1 1618.82   1
  -8  -4  -3 50003.6 1912.17   2
  -8  -4  -4 13734.3 1307.00   7
  -8  -4  -4 15575.0 1253.15   3
   8  -4   4 14573.7 1396.47   2
  -8  -4  -4 10321.4 1309.45   6
  -8  -4  -4 15191.8 1389.95   2
   8  -4   4 12700.8 1234.06   1
  -8  -4  -5 14213.4 1178.47   3
  -8  -4  -5 10953.0 1351.06   6
   8  -4   5 15825.5 1642.21   2
  -8  -4  -6 18749.5 1266.18   3
   8  -4   6 17112.3 1610.53   7
  -8  -4  -6 17184.8 1996.43   6
   8  -4   6 19666.5 1907.76   2
   8  -4   7 9713.02 1777.57   2
  -8  -4  -7 10822.8 1103.25   3
   8  -4   7 12249.6 1577.22   7
  -8  -4  -7 7159.37 1693.25   6
   8  -4   7 12575.5 1756.98   4
   8  -4   8 6636.73 1811.14   2
  -8  -4  -8 6737.63 1080.87   3
   8  -4   8 9245.20 1635.53   4
   8  -4   8 5086.64 1264.63   7
  -8  -4  -8 6340.71 1704.88   6
  -8  -4  -9 16591.1 2410.27   6
  -8  -4  -9 14326.7 1418.38   3
   8  -4   9 14967.7 1811.93   7
   8  -4   9 20473.8 2082.40   4
   8  -4   9 15515.3 2209.93   2
   8  -4  10 12737.8 1868.47   7
  -8  -4 -10 14389.5 2300.25   6
   8  -4  10 19449.6 2131.93   4
   8  -4  10 18330.8 2465.55   2
   8  -4  11 11545.2 2338.47   2
   8  -4  11 12888.6 2031.38   4
   8  -4  11 11545.7 1935.70   7
   8  -4  12 4196.20 1997.32   2
   8  -4  12 4236.34 1874.72   4
   8  -2 -14 10961.3 2634.90   6
  -8  -2  14 7468.20 2445.74   2
   8  -2 -14 9431.33 1973.73   1
  -8  -2  14 10058.4 1987.60   4
   8  -2 -13 29238.8 2489.28   1
   8  -2 -13 36549.5 3476.00   6
  -8  -2  13 28613.1 2522.32   4
  -8  -2  13 31215.3 3373.25   2
  -8  -2  12 63777.0 4219.05   2
   8  -2 -12 57815.7 3957.18   6
   8  -2 -12 60497.8 3291.37   1
  -8  -2  12 57944.9 3173.60   4
   8  -2 -11 2760.03 1820.89   6
  -8  -2  11 5842.02 2194.97   2
   8  -2 -11 2828.41 1392.13   1
  -8  -2  11 3228.32 1007.54   3
  -8  -2  11 2889.29 1406.07   4
  -8  -2  10 30019.0 1642.08   3
   8  -2 -10 31090.7 2291.18   1
  -8  -2  10 31410.7 2961.06   2
  -8  -2  10 25813.0 2165.32   4
   8  -2 -10 32236.1 2953.80   6
  -8  -2   9 16818.2 1478.21   3
   8  -2  -9 27399.1 2320.33   1
  -8  -2   9 22815.4 2179.08   4
   8  -2  -9 19390.3 2780.10   6
  -8  -2   9 11074.8 2134.06   2
   8  -2  -8 71345.5 3513.16   6
  -8  -2   8 65035.4 2240.88   3
  -8  -2   8 70934.9 3667.06   2
   8  -2  -8 66259.0 3003.58   1
  -8  -2   8 60504.0 2719.36   4
  -8  -2   7 5403.42 1028.48   3
   8  -2  -7 7548.32 1607.48   6
  -8  -2   7 6646.15 1510.31   2
   8  -2  -7 3647.31 1172.73   1
  -8  -2   7 7079.32 1428.22   4
  -8  -2   6 48027.5 1930.38   3
   8  -2  -6 50376.3 2450.52   1
  -8  -2   6 40637.9 2235.41   4
  -8  -2   6 45796.3 2690.26   2
   8  -2  -6 38436.2 716.620   3
   8  -2  -5 133473. 1710.50   3
  -8  -2   5 129865. 2950.00   3
   8  -2  -5 124630. 3395.60   6
  -8  -2   5 118077. 3708.75   2
   8  -2  -5 132617. 3673.54   1
  -8  -2   5 116868. 3236.73   4
  -8  -2   4 106083. 2705.74   3
   8  -2  -4 109325. 1889.90   3
   8  -2  -4 103050. 4028.06   2
  -8  -2   4 102110. 4303.00   6
  -8  -2   4 100251. 2952.69   2
   8  -2  -4 109514. 2684.44   6
   8  -2  -4 103331. 2950.07   1
   8  -2  -4 98666.7 1863.51   4
  -8  -2   4 99556.1 2803.26   4
   8  -2  -3 109784. 3887.03   2
  -8  -2   3 88382.6 2520.44   3
  -8  -2   3 89495.2 3690.84   6
  -8  -2   3 100516. 2596.78   4
   8  -2  -3 137160. 2523.50   6
  -8  -2   3 74274.9 1331.61   1
   8  -2  -3 101936. 2660.27   1
   8  -2  -3 114667. 1787.02   4
  -8  -2   2 73375.1 1219.29   1
  -8  -2   2 76316.1 2212.01   3
  -8  -2   2 77947.2 3279.67   6
   8  -2  -2 71481.5 1603.20   6
   8  -2  -2 73365.1 2174.62   1
   8  -2  -2 74311.9 1369.90   4
  -8  -2   2 74063.9 2248.05   4
  -8  -2   1 147307. 2822.72   4
   8  -2  -1 159932. 2914.87   1
  -8  -2   1 157166. 3008.22   3
  -8  -2   1 148826. 2126.23   1
  -8  -2   1 148505. 4031.10   6
  -8  -2   0 145627. 2752.92   1
  -8  -2   0 139241. 3530.39   6
   8  -2   0 142646. 2619.53   1
  -8  -2  -1 269922. 4515.73   1
  -8  -2  -1 268989. 3593.22   3
   8  -2   1 270456. 3674.39   1
   8  -2   2 95793.0 2416.12   1
  -8  -2  -2 102052. 2143.87   7
  -8  -2  -2 100635. 2201.63   3
  -8  -2  -2 93471.2 2846.60   6
  -8  -2  -3 141287. 3360.60   2
  -8  -2  -3 148389. 2635.01   3
   8  -2   3 140896. 3351.98   2
  -8  -2  -3 128057. 3260.89   6
   8  -2   3 142520. 3242.98   1
  -8  -2  -3 129642. 2792.71   7
  -8  -2  -4 55976.1 1772.74   3
  -8  -2  -4 48905.0 2027.66   7
  -8  -2  -4 47524.4 2094.02   6
  -8  -2  -4 48810.4 2316.14   2
   8  -2   4 51144.0 2371.10   2
   8  -2   4 48174.7 2227.69   1
  -8  -2  -5 12711.3 1141.42   3
   8  -2   5 24909.2 1781.67   7
  -8  -2  -5 9683.43 1320.81   6
   8  -2   5 21712.2 1991.43   2
  -8  -2  -6 61011.6 2054.81   3
   8  -2   6 49368.2 2337.00   7
  -8  -2  -6 42281.6 2991.29   6
   8  -2   6 54174.5 3024.03   2
   8  -2   7 1469.22 1122.92   7
   8  -2   7 130.139 1308.67   2
  -8  -2  -7 839.533 1469.58   6
  -8  -2  -8 35535.0 3153.36   6
   8  -2   8 27815.8 2713.86   2
   8  -2   8 31545.9 2216.19   7
  -8  -2  -9 20724.7 2884.26   6
   8  -2   9 18624.2 2009.49   7
   8  -2   9 18731.6 2564.09   2
   8  -2  10 41711.2 2781.71   7
  -8  -2 -10 41481.8 3727.84   6
   8  -2  10 44543.1 3549.18   2
  -8  -2 -11 15138.1 2786.24   6
   8  -2  11 20545.3 2756.71   2
  -8  -2 -12 22597.0 3317.45   6
   8  -2  12 21990.7 2395.97   4
   8  -2  12 24341.8 3181.54   2
  -8  -2 -13 21330.7 3447.13   6
   8  -2  13 25353.2 2554.17   4
   8  -2  13 18217.1 3024.92   2
  -8   0  14 30714.5 3885.26   2
   8   0 -14 31609.6 2444.10   1
   8   0 -14 35293.9 3936.94   6
  -8   0  14 34811.4 2613.18   4
   8   0 -13 23221.8 3173.90   6
   8   0 -13 19612.0 1980.48   1
  -8   0  13 17253.6 3183.50   2
  -8   0  13 21189.5 2080.29   4
   8   0 -12 1317.70 1988.34   6
  -8   0  12 5316.78 2416.56   2
   8   0 -12 3108.68 1368.63   1
  -8   0  12 3601.06 1391.01   4
   8   0 -11 11096.0 1517.30   1
  -8   0  11 8641.68 2407.95   2
   8   0 -11 9517.26 2277.74   6
  -8   0  11 12711.4 1641.29   4
  -8   0  10 68044.3 958.541   3
  -8   0  10 68304.8 1225.27   3
   8   0 -10 87829.3 4886.26   6
  -8   0  10 87834.8 4941.17   2
  -8   0  10 85966.5 3209.15   4
  -8   0   9 61256.3 1129.88   3
  -8   0   9 66292.7 4042.29   2
  -8   0   9 60639.0 915.388   3
  -8   0   9 62949.0 2665.05   4
  -8   0   8 38622.1 888.843   3
  -8   0   8 43302.1 3235.97   2
   8   0  -8 45665.1 3347.60   6
   8   0  -8 48085.9 2268.44   1
  -8   0   8 34960.9 772.482   3
  -8   0   8 40850.0 2096.71   4
   8   0  -7 7099.02 1197.59   1
  -8   0   7 6099.30 385.419   3
   8   0  -7 9054.05 1848.55   6
  -8   0   7 7987.05 1913.28   2
  -8   0   7 6068.52 1079.94   4
  -8   0   6 103808. 2884.73   4
  -8   0   6 111660. 4479.92   6
  -8   0   6 103953. 1154.48   3
   8   0  -6 112425. 4383.17   6
   8   0  -6 97305.2 2788.52   1
   8   0  -6 102590. 2856.52   4
  -8   0   6 104324. 4255.49   2
  -8   0   5 1177.81 243.266   3
   8   0  -5 1169.95 1428.81   2
  -8   0   5 416.242 1431.13   2
  -8   0   5 1913.78 1331.24   6
   8   0  -5 378.349 815.741   1
   8   0  -5 2232.63 942.397   4
  -8   0   5 1310.30 934.906   4
   8   0  -5 1327.48 1387.25   6
   8   0  -4 4212.30 560.434   5
   8   0  -4 3241.07 1267.25   2
  -8   0   4 4158.28 287.784   3
  -8   0   4 3191.53 1285.81   2
  -8   0   4 6458.49 1545.70   6
   8   0  -4 4184.08 761.610   1
   8   0  -4 4102.53 1353.76   6
   8   0  -4 3976.95 794.828   4
  -8   0   4 4006.85 839.655   4
   8   0  -3 179513. 4408.91   6
   8   0  -3 190867. 1806.42   3
  -8   0   3 187665. 3100.35   1
  -8   0   3 195743. 1577.24   3
   8   0  -3 198819. 4514.39   2
  -8   0   3 185515. 4504.57   6
  -8   0   3 185069. 3136.21   4
   8   0  -3 188723. 2915.63   1
   8   0  -3 189954. 3009.47   4
   8   0  -2 11319.3 844.882   1
  -8   0   2 11405.4 1295.40   6
   8   0  -2 12152.8 1254.04   6
   8   0  -2 12220.6 555.587   3
  -8   0   2 10787.6 578.464   3
   8   0  -2 12665.1 904.592   4
  -8   0   2 11215.2 835.547   1
  -8   0   2 11931.8 928.530   4
   8   0  -1 2890.28 699.703   4
  -8   0   1 2177.48 636.725   4
   8   0  -1 1817.80 441.813   3
  -8   0   1 3273.21 603.304   1
  -8   0   1 2877.78 867.013   6
  -8   0   1 2033.72 536.782   3
   8   0  -1 2808.31 909.684   6
   8   0  -1 1825.89 596.487   1
  -8   0   0 7596.77 1080.53   6
  -8   0   0 5672.46 803.311   1
   8   0   0 5741.63 631.412   3
   8   0   0 6404.90 913.937   1
   8   0   0 7156.59 946.379   6
  -8   0  -1 138621. 2782.31   1
   8   0   1 144028. 2935.46   1
  -8   0  -1 138170. 2962.26   6
  -8   0  -2 76350.2 2446.65   1
   8   0   2 81407.4 2687.13   1
   8   0   2 73052.8 2026.94   3
   8   0   2 82164.6 2358.46   2
  -8   0  -2 77691.4 2430.05   6
   8   0   3 48164.3 1754.88   3
  -8   0  -3 59373.2 2714.76   1
   8   0   4 150820. 3524.00   7
  -8   0  -4 140860. 3995.51   1
   8   0   4 157411. 2926.57   3
   8   0   4 131212. 3890.87   2
  -8   0  -4 143280. 3654.39   2
  -8   0  -5 13482.5 2181.84   6
  -8   0  -5 14268.1 1870.07   1
   8   0   5 18635.0 1302.84   3
   8   0   5 14345.2 1880.36   2
   8   0   5 17858.2 1630.88   7
   8   0   6 17535.7 2026.35   7
   8   0   6 13975.1 2332.62   2
  -8   0  -6 14512.4 2969.08   6
   8   0   7 8518.62 1523.98   7
  -8   0  -7 6616.19 2159.95   6
   8   0   7 8044.78 1876.93   2
   8   0   8 187715. 5034.69   7
   8   0   8 187839. 6454.27   2
  -8   0  -9 376.974 1878.90   6
   8   0   9 5112.33 2186.71   2
   8   0  10 3120.94 1929.85   2
  -8   0 -10 9460.82 2620.09   6
  -8   0 -11 22029.9 3460.41   6
   8   0  11 19747.1 2955.17   2
  -8   0 -12 12032.1 3048.90   6
   8   0  12 13406.8 2920.87   2
   8   0  13 2950.52 2087.90   2
  -8   0 -13 5077.64 2581.04   6
  -8   0 -14 5807.76 2868.63   6
   8   0  14 9141.54 2733.44   2
   8   0  14 9080.25 1889.90   4
  -8   2  14 12839.6 1728.98   4
  -8   2  14 12047.4 3139.13   2
  -8   2  13 24415.8 3690.95   2
  -8   2  13 25298.6 2028.64   4
   8   2 -13 25006.0 3360.08   6
   8   2 -13 22488.3 1743.11   1
  -8   2  12 53654.4 4552.10   2
   8   2 -12 56062.4 2452.10   1
   8   2 -12 59213.3 4656.89   6
  -8   2  12 64301.7 2780.14   4
   8   2 -11 5814.36 1144.39   1
  -8   2  11 8423.81 2464.98   2
   8   2 -11 5963.91 2385.45   6
  -8   2  11 9028.75 1432.41   4
  -8   2  10 19979.2 3091.67   2
   8   2 -10 25112.8 3177.32   6
   8   2 -10 25182.3 1622.29   1
  -8   2  10 23284.9 1730.39   4
   8   2  -9 7820.29 2770.56   6
  -8   2   9 16484.5 3073.20   2
   8   2  -9 12312.9 1327.30   1
  -8   2   9 20371.1 1861.62   4
  -8   2   8 42402.2 3486.65   2
   8   2  -8 41825.4 1717.48   1
  -8   2   8 46363.2 1945.99   4
   8   2  -8 42680.2 3591.32   6
   8   2  -7 7829.90 2081.71   6
  -8   2   7 5959.59 1483.84   6
  -8   2   7 5689.23 1913.02   2
   8   2  -7 6824.49 801.196   1
  -8   2   7 8269.63 989.552   4
  -8   2   6 71927.4 3203.09   6
   8   2  -6 73783.5 2313.90   7
  -8   2   6 62869.9 3724.85   2
   8   2  -6 66655.0 3928.38   6
   8   2  -6 72659.0 1709.26   1
   8   2  -6 72965.7 3084.98   2
  -8   2   6 73706.0 2052.27   4
   8   2  -5 106877. 2463.46   7
   8   2  -5 108535. 4620.69   6
   8   2  -5 109744. 1853.11   1
   8   2  -5 105659. 3379.51   2
  -8   2   5 99960.8 2112.44   4
  -8   2   5 101325. 3340.02   6
   8   2  -4 93552.7 1493.22   1
   8   2  -4 88632.9 1957.51   7
  -8   2   4 85435.5 2684.15   6
   8   2  -4 92635.1 3982.78   6
   8   2  -4 80432.5 2558.63   4
  -8   2   4 87878.6 1816.37   4
   8   2  -4 89047.7 2819.77   2
   8   2  -3 95556.1 2695.52   2
   8   2  -3 106163. 1718.88   7
  -8   2   3 108307. 2606.28   6
   8   2  -3 105686. 4036.95   6
   8   2  -3 107804. 1517.90   1
   8   2  -3 118022. 2981.21   5
   8   2  -3 111239. 2849.89   4
   8   2  -2 90754.8 2558.32   3
   8   2  -2 71521.5 2944.79   6
  -8   2   2 55536.5 1662.58   6
  -8   2   2 64006.0 2130.45   1
   8   2  -2 84989.5 1660.58   1
   8   2  -2 69367.6 1962.26   2
   8   2  -2 80904.7 2239.99   4
  -8   2   1 202919. 2883.23   6
  -8   2   1 199582. 3232.90   1
   8   2   0 153360. 3476.03   6
  -8   2   0 154776. 2764.94   1
   8   2   0 164159. 3289.49   3
   8   2   0 157846. 2277.35   2
  -8   2   0 155370. 2680.65   6
   8   2   0 161549. 2862.52   4
   8   2   1 232215. 3374.58   4
  -8   2  -1 225677. 3229.85   1
   8   2   1 230831. 3991.71   6
   8   2   1 246262. 3956.50   3
   8   2   1 247273. 3694.34   2
  -8   2  -2 111066. 4007.10   6
   8   2   2 120068. 2779.17   3
  -8   2  -2 108863. 2323.44   1
   8   2   2 112142. 2730.78   6
   8   2   3 150265. 3056.45   3
  -8   2  -3 146955. 2958.63   1
   8   2   3 155505. 4249.28   2
   8   2   4 53695.5 1881.52   3
  -8   2  -4 55469.4 2023.56   1
  -8   2  -4 50865.1 3342.17   6
  -8   2  -5 14520.7 1500.35   1
  -8   2  -5 14867.4 2785.50   6
   8   2   5 11784.1 2076.19   2
  -8   2  -6 61337.8 4165.85   6
  -8   2  -6 53841.1 2327.71   1
   8   2   6 57330.2 3535.96   2
   8   2   7 135.770 1526.93   2
  -8   2  -7 476.776 2047.35   6
  -8   2  -8 36447.3 3640.19   6
   8   2   8 33900.6 3294.65   2
  -8   2  -9 8885.09 2661.25   6
   8   2   9 17251.9 2914.58   2
   8   2  10 46100.0 3875.51   2
  -8   2 -10 49664.6 4581.58   6
  -8   2 -11 22220.1 3491.65   6
   8   2  11 12934.4 2825.07   2
   8   2  12 23858.0 3350.98   2
  -8   2 -12 23765.5 3727.88   6
   8   2  13 33255.5 3913.62   2
  -8   2 -13 24497.0 4114.35   6
   8   4 -12 26008.9 3531.72   6
  -8   4  12 20247.3 3308.03   2
  -8   4  11 10710.2 2666.24   2
   8   4 -11 15715.5 2820.58   6
   8   4 -10 8483.66 2438.25   6
   8   4  -9 7450.65 2629.19   6
   8   4  -8 25609.0 3180.91   6
  -8   4   8 34784.8 1278.62   4
  -8   4   7 7970.14 601.677   4
   8   4  -7 14541.9 2484.81   6
   8   4  -6 29355.1 1419.72   2
   8   4  -6 23705.8 2830.19   6
   8   4  -5 46352.9 3292.79   6
   8   4  -4 13599.5 1918.83   6
   8   4  -3 53855.9 2938.23   6
   8   4  -2 7128.09 1406.88   6
   8   4  -2 9211.68 1098.90   4
   8   4  -1 134411. 3689.14   6
   8   4  -1 136905. 2974.64   4
  -8   4   0 15352.1 1267.07   6
  -8   4   0 11394.8 1148.24   1
   8   4   0 14609.7 1349.37   6
   8   4   0 13899.1 1064.63   4
  -8   4   0 15325.4 936.255   6
  -8   4  -1 60506.3 2718.54   6
   8   4   1 55136.0 1605.86   2
   8   4   1 61929.6 1878.01   4
  -8   4  -2 36705.3 2580.02   6
   8   4   2 32331.4 1560.24   6
  -8   4  -2 29332.8 1356.61   1
   8   4   2 40566.4 1910.95   2
   8   4   2 29837.2 1409.97   4
   8   4   3 51616.0 2524.59   2
  -8   4  -3 39494.2 1518.79   1
  -8   4  -3 47182.3 3115.06   6
   8   4   3 42494.1 1599.15   4
   8   4   4 16788.0 1159.60   4
  -8   4  -4 19188.4 2461.34   6
  -8   4  -4 14166.9 1073.20   1
  -8   4  -5 15853.4 2565.96   6
  -8   4  -5 10998.6 956.451   1
   8   4   5 16714.0 2160.99   2
   8   4   6 19104.7 2436.34   2
  -8   4  -6 13775.1 2649.82   6
   8   4   7 13990.0 2405.85   2
  -8   4  -7 9962.74 2701.08   6
  -8   4  -8 5986.76 2298.02   6
   8   4   8 8172.90 2189.71   2
   8   4   9 15805.1 2777.46   2
  -8   4  -9 13009.9 3149.13   6
  -8   4 -10 14003.9 3246.04   6
   8   4  10 17353.0 3037.94   2
  -8   4 -11 12415.2 3084.71   6
   8   4  11 10824.3 2716.28   2
  -8   4 -12 5289.01 2869.66   6
   8   4  12 8485.38 2750.37   2
   8   6  -9 9574.44 2497.47   6
   8   6  -8 9171.23 2391.25   6
   8   6  -7 16936.4 2609.07   6
   8   6  -6 29890.1 2836.31   6
   8   6  -5 8302.20 1901.04   6
   8   6  -4 7207.81 1724.01   6
   8   6  -3 34878.7 2369.85   6
   8   6  -2 30548.7 2100.72   6
   8   6  -1 4582.37 1176.83   6
   8   6   0 5015.23 1048.11   6
  -8   6  -3 9186.85 1649.62   6
  -8   6  -4 19273.6 2337.54   6
  -8   6  -5 7165.00 2087.56   6
  -8   6  -6 4893.98 2152.14   6
  -8   6  -7 3689.25 2223.15   6
  -8   6  -8 14574.7 2910.97   6
  -8   6  -9 6313.21 2771.13   6
  -9  -7   6 13417.2 1976.67   3
   9  -7  -6 13906.3 1693.80   1
   9  -7  -5 288.399 987.664   3
  -9  -7   5 204.957 1315.34   3
   9  -7  -5 873.517 1045.58   1
  -9  -7   4 16627.4 1890.85   3
   9  -7  -4 13936.8 1616.46   3
   9  -7  -4 18309.8 1672.53   1
   9  -7  -3 16837.7 1518.47   1
  -9  -7   3 14919.3 1900.34   3
   9  -7  -3 17346.2 1856.97   3
   9  -7  -2 13118.2 1809.65   3
  -9  -7   2 11564.3 1727.53   3
   9  -7  -1 23293.7 2106.68   3
  -9  -7   1 21395.2 2006.96   3
   9  -7   0 768.759 1291.60   3
  -9  -7   0 1459.37 1314.47   3
  -9  -7  -1 22215.0 1884.25   3
   9  -7   1 23045.5 2284.44   3
   9  -7   2 13641.6 2015.79   3
  -9  -7  -2 10042.6 1473.15   3
   9  -7   2 15515.7 1948.21   5
   9  -7   3 15006.9 2113.72   3
  -9  -7  -3 8945.98 1344.04   3
   9  -7   3 12644.0 1906.17   5
   9  -7   4 17756.5 2242.53   3
   9  -7   4 18605.9 2140.17   5
  -9  -7  -4 11327.6 1484.47   3
  -9  -7  -5 2702.09 1069.38   3
   9  -7   5 6873.86 1727.03   5
   9  -7   6 14840.1 2141.83   5
   9  -5 -11 9099.54 1992.17   1
  -9  -5  11 5575.33 1646.49   4
  -9  -5  11 11237.8 1714.59   3
  -9  -5  10 7825.09 1535.31   3
   9  -5 -10 4880.06 1587.97   1
  -9  -5  10 4246.51 1549.42   4
   9  -5  -9 12182.0 1819.62   1
  -9  -5   9 8151.02 1575.85   3
  -9  -5   9 8758.21 1719.22   4
   9  -5  -8 43309.3 2586.60   1
  -9  -5   8 46117.4 2615.85   3
   9  -5  -7 4962.98 847.256   3
   9  -5  -7 4618.53 1300.76   1
  -9  -5   7 5205.99 1468.13   3
  -9  -5   7 4307.85 1388.16   4
  -9  -5   6 8794.32 1608.07   3
   9  -5  -6 14340.8 1199.84   3
   9  -5  -6 12376.3 1670.81   1
  -9  -5   6 13088.5 1631.27   4
   9  -5  -5 44493.3 2014.71   3
  -9  -5   5 46161.7 2549.13   3
  -9  -5   5 41523.7 2240.27   4
   9  -5  -5 42424.9 2384.32   1
   9  -5  -4 58933.0 2402.65   3
  -9  -5   4 58386.2 2805.23   3
   9  -5  -4 59564.1 2521.88   1
  -9  -5   4 53479.2 2383.56   4
  -9  -5   3 23874.1 1956.69   3
   9  -5  -3 27290.0 1818.55   3
  -9  -5   3 28287.6 1734.34   4
  -9  -5   2 40939.2 1897.86   4
   9  -5  -2 41169.1 2274.71   3
  -9  -5   2 41393.0 2328.86   3
   9  -5  -2 43624.3 2069.80   5
   9  -5  -2 37376.8 1923.08   1
  -9  -5   1 36440.2 1692.52   4
   9  -5  -1 46023.3 1871.96   1
  -9  -5   1 48962.1 2425.89   3
  -9  -5   1 39697.5 1177.25   1
   9  -5  -1 48147.9 2269.22   5
  -9  -5   1 38835.9 1230.05   1
   9  -5   0 13106.7 1124.04   1
  -9  -5   0 12167.1 1758.09   6
  -9  -5   0 13523.4 1567.65   3
   9  -5   0 16557.7 1598.20   5
   9  -5   0 11097.2 692.864   4
  -9  -5   0 15591.0 1276.66   1
  -9  -5  -1 33038.5 1987.02   3
  -9  -5  -1 27011.1 1892.40   1
   9  -5   1 30398.7 1257.50   4
   9  -5   1 25643.5 1403.08   1
  -9  -5  -1 20465.7 1909.48   6
  -9  -5  -2 8571.85 1249.76   3
   9  -5   2 9625.75 1068.38   4
   9  -5   2 7426.02 968.497   1
   9  -5   3 25421.3 1446.56   1
  -9  -5  -3 28287.8 1678.09   3
   9  -5   3 25520.0 1597.51   2
  -9  -5  -4 31916.7 1781.66   3
   9  -5   4 29801.4 1890.73   2
   9  -5   4 30679.1 1681.87   1
  -9  -5  -5 4081.51 975.010   3
   9  -5   5 4834.48 1146.52   4
   9  -5   5 2936.74 1147.79   2
  -9  -5  -6 18269.6 1378.96   3
   9  -5   6 16718.8 1811.11   2
   9  -5   6 21403.6 1832.68   4
   9  -5   7 4197.71 1230.53   7
  -9  -5  -7 2115.38 943.081   3
   9  -5   7 3002.19 1375.28   2
   9  -5   8 11393.6 1612.38   7
  -9  -5  -8 10962.5 1139.10   3
   9  -5   8 10511.4 1852.20   2
  -9  -5  -9 16405.2 1394.52   3
   9  -5   9 11692.5 1674.25   7
   9  -5   9 16691.8 2128.81   4
   9  -5   9 14897.5 2090.73   2
   9  -5  10 33882.5 2742.72   4
   9  -5  10 32610.1 2483.32   7
  -9  -3  13 32170.8 3280.65   2
   9  -3 -13 36579.7 2865.57   1
  -9  -3  13 26157.3 2466.58   4
  -9  -3  12 1967.99 1410.27   4
  -9  -3  12 3548.40 1893.77   2
   9  -3 -12 1946.91 1592.81   1
   9  -3 -11 11303.3 1882.92   1
  -9  -3  11 7350.53 1246.96   3
  -9  -3  11 9589.06 2212.75   2
   9  -3 -11 10985.9 1931.23   6
  -9  -3  11 7273.69 1615.44   4
  -9  -3  10 57397.8 2387.35   3
   9  -3 -10 59949.6 3256.40   1
   9  -3 -10 56317.2 3280.81   6
  -9  -3  10 47493.2 2884.69   4
  -9  -3  10 56958.6 3566.41   2
  -9  -3   9 99380.3 3023.02   3
   9  -3  -9 106167. 3982.22   6
   9  -3  -9 101795. 3849.58   1
  -9  -3   9 87192.9 4067.58   2
  -9  -3   9 93589.1 3495.83   4
   9  -3  -8 43897.8 2705.26   1
  -9  -3   8 45953.3 2148.23   3
  -9  -3   8 53312.9 2999.48   2
   9  -3  -8 56151.1 2755.36   6
  -9  -3   8 47086.1 2553.26   4
  -9  -3   7 27880.4 1817.92   3
   9  -3  -7 23682.9 793.319   3
  -9  -3   7 22017.3 2008.80   2
   9  -3  -7 24811.0 1779.50   6
   9  -3  -7 23960.0 2026.44   1
  -9  -3   7 22125.5 1892.21   4
  -9  -3   6 86571.2 3156.83   2
   9  -3  -6 92509.7 2649.99   6
   9  -3  -6 90680.8 1740.06   3
   9  -3  -6 83306.1 3141.96   1
  -9  -3   6 89957.3 2889.59   3
  -9  -3   5 20023.1 1553.47   3
   9  -3  -5 19391.0 1059.81   3
   9  -3  -5 18215.9 1040.65   6
  -9  -3   5 17660.5 1503.35   4
   9  -3  -4 15488.0 892.543   6
   9  -3  -4 21887.5 1302.34   3
   9  -3  -4 19240.7 1500.81   1
  -9  -3   4 18574.4 1545.51   3
  -9  -3   4 14856.6 1343.29   4
  -9  -3   3 92722.8 4158.01   6
  -9  -3   3 94885.3 2831.64   3
   9  -3  -3 89498.4 2752.72   1
  -9  -3   3 88779.3 2674.37   4
  -9  -3   2 81029.0 3540.67   6
  -9  -3   2 82347.0 2602.65   3
  -9  -3   2 68625.2 1102.44   1
   9  -3  -2 82255.0 2459.76   1
   9  -3  -2 60512.5 1064.04   4
  -9  -3   2 71934.5 2298.30   4
  -9  -3   1 22371.4 1331.45   4
  -9  -3   1 23292.7 1018.76   1
   9  -3  -1 26659.8 1477.94   1
  -9  -3   1 24576.1 2064.39   6
  -9  -3   1 25728.6 1607.77   3
   9  -3   0 6612.62 848.971   1
  -9  -3   0 5639.30 990.576   3
  -9  -3   0 6156.10 1291.18   6
  -9  -3   0 6662.85 966.108   1
  -9  -3  -1 117349. 2783.30   3
   9  -3   1 110289. 2526.33   1
  -9  -3  -1 112294. 3370.84   6
  -9  -3  -1 119397. 1802.98   7
  -9  -3  -2 3233.17 894.159   3
  -9  -3  -2 1508.91 867.111   6
  -9  -3  -2 2946.90 642.032   7
   9  -3   3 24950.3 1464.38   1
  -9  -3  -3 33650.9 1552.11   7
  -9  -3  -3 30060.2 1489.00   3
  -9  -3  -3 26547.3 1818.85   6
  -9  -3  -3 30911.4 1624.00   2
   9  -3   4 42205.9 2063.01   1
  -9  -3  -4 43819.2 1913.69   7
  -9  -3  -4 40506.3 2092.52   6
  -9  -3  -4 42871.5 2131.34   2
   9  -3   4 37444.3 2039.03   2
  -9  -3  -4 43898.3 1690.79   3
  -9  -3  -5 39754.5 1633.69   3
   9  -3   5 36790.4 2264.70   2
   9  -3   6 42615.0 2652.64   2
   9  -3   6 43759.7 2280.76   7
  -9  -3  -7 1887.47 1479.58   6
   9  -3   7 1917.61 1171.71   7
  -9  -3  -7 2664.43 875.755   3
   9  -3   7 2876.78 1449.77   2
   9  -3   8 45753.5 2553.26   7
  -9  -3  -8 43789.6 3328.16   6
  -9  -3  -8 44579.3 1943.26   3
   9  -3   8 40354.6 3083.07   2
   9  -3   9 4151.69 1800.68   2
   9  -3   9 5304.28 1507.71   7
  -9  -3  -9 2816.76 2026.13   6
  -9  -3 -10 7711.89 2147.53   6
   9  -3  10 13094.9 1976.56   7
   9  -3  10 14331.0 2423.87   2
   9  -3  11 31698.0 2633.61   7
  -9  -3 -11 26404.6 3169.62   6
   9  -3  11 25741.2 2973.84   2
   9  -3  11 32136.7 2566.93   4
  -9  -3 -12 11041.2 2883.48   6
   9  -3  12 19573.1 2303.48   4
   9  -3  12 11357.3 2544.37   2
   9  -1 -14 16788.6 2972.06   6
  -9  -1  14 13403.3 2967.09   2
   9  -1 -14 20138.9 2185.09   1
  -9  -1  14 13225.8 2081.72   4
   9  -1 -13 25321.1 2268.90   1
  -9  -1  13 19985.1 3053.40   2
  -9  -1  13 23810.0 2256.35   4
   9  -1 -13 25731.8 3254.92   6
   9  -1 -12 14608.0 2525.54   6
  -9  -1  12 17871.2 2819.58   2
  -9  -1  12 17618.2 2162.83   4
   9  -1 -12 15400.5 1879.43   1
  -9  -1  11 46256.0 1504.99   3
  -9  -1  11 50559.1 3985.80   2
   9  -1 -11 55449.6 3815.59   6
   9  -1 -11 51473.2 2848.75   1
  -9  -1  11 48193.4 2730.93   4
  -9  -1  10 30975.5 1328.51   3
   9  -1 -10 34109.6 2324.26   1
  -9  -1  10 30928.0 2248.18   4
   9  -1 -10 34764.0 3125.47   6
  -9  -1  10 28444.0 3081.36   2
  -9  -1   9 30164.4 1300.32   3
   9  -1  -9 28284.2 2764.71   6
   9  -1  -9 34910.4 2254.15   1
  -9  -1   9 29183.5 3271.83   2
  -9  -1   9 32656.8 2250.61   4
  -9  -1   8 47568.4 3244.22   2
  -9  -1   8 53321.0 1578.38   3
   9  -1  -8 56932.9 3425.48   6
   9  -1  -8 52474.1 2491.28   1
  -9  -1   8 46882.2 2395.74   4
  -9  -1   7 1119.38 1412.32   2
   9  -1  -7 174.964 1300.60   6
  -9  -1   7 1672.14 695.144   3
   9  -1  -7 1774.99 1021.99   1
  -9  -1   7 2718.10 1121.21   4
   9  -1  -6 71465.5 3347.51   6
  -9  -1   6 66123.6 3351.83   2
  -9  -1   6 72361.5 1820.89   3
  -9  -1   6 68316.2 2636.12   4
   9  -1  -5 25595.8 2060.39   6
   9  -1  -5 23492.1 1569.41   1
  -9  -1   5 18483.7 2277.79   6
  -9  -1   5 23079.6 2186.22   2
  -9  -1   5 23814.6 1110.40   3
   9  -1  -5 22027.9 1338.69   4
  -9  -1   5 19614.4 1502.73   4
   9  -1  -5 21733.4 2211.82   2
  -9  -1   4 236641. 5919.89   6
   9  -1  -4 256018. 4046.41   1
  -9  -1   4 263280. 3133.49   3
   9  -1  -4 277106. 6168.46   2
   9  -1  -4 277891. 5219.67   6
   9  -1  -4 260474. 3488.85   4
  -9  -1   4 217028. 3825.05   4
  -9  -1   3 235932. 2937.24   3
   9  -1  -3 251832. 5573.28   2
  -9  -1   3 243140. 5752.56   6
   9  -1  -3 266822. 4446.29   6
  -9  -1   3 228168. 2757.01   1
   9  -1  -3 246616. 3846.40   1
   9  -1  -3 272015. 3269.54   4
  -9  -1   3 246821. 3922.04   4
  -9  -1   2 8994.90 755.827   3
   9  -1  -2 10867.1 1073.74   6
  -9  -1   2 7621.25 1383.66   6
   9  -1  -2 10811.2 1044.96   1
   9  -1  -2 10586.5 797.053   4
  -9  -1   2 9820.47 1013.94   4
  -9  -1   2 9992.93 710.648   1
  -9  -1   1 71530.4 1960.03   4
   9  -1  -1 78315.7 1733.95   4
   9  -1  -1 71849.3 1977.95   1
  -9  -1   1 72242.9 1593.69   3
  -9  -1   1 65628.4 1589.22   1
  -9  -1   1 73079.1 2612.62   6
   9  -1  -1 69624.8 2009.25   6
   9  -1   0 86833.1 2183.39   1
  -9  -1   0 87992.6 1800.29   3
  -9  -1   0 87607.9 2744.66   6
   9  -1   0 87340.3 2240.20   6
  -9  -1   0 91039.9 2140.00   1
  -9  -1  -1 124286. 2880.55   1
  -9  -1  -1 128264. 2226.45   3
  -9  -1  -1 121058. 3183.34   6
   9  -1   1 127775. 2623.41   1
  -9  -1  -2 132301. 3541.76   1
  -9  -1  -2 127951. 3192.79   6
   9  -1   3 330369. 5248.29   2
   9  -1   3 324245. 5323.77   1
  -9  -1  -3 322359. 5166.29   6
  -9  -1  -4 97252.7 3137.45   2
   9  -1   4 91637.2 3227.67   2
  -9  -1  -4 89657.6 2959.39   6
  -9  -1  -4 87711.8 3525.23   1
   9  -1   5 64725.0 2572.49   7
   9  -1   5 64193.2 3062.51   2
   9  -1   6 85320.0 3055.05   7
  -9  -1  -6 73710.5 4079.06   6
   9  -1   6 73382.8 3523.35   2
   9  -1   7 9212.85 1475.81   7
  -9  -1  -7 7152.51 1942.66   6
   9  -1   7 8086.22 1727.02   2
  -9  -1  -8 53749.7 3925.11   6
   9  -1   8 59098.1 3038.24   7
   9  -1   8 56398.8 3714.14   2
  -9  -1  -9 32086.9 3457.58   6
   9  -1   9 39469.9 2704.54   7
   9  -1   9 37078.8 3304.46   2
   9  -1  10 12378.0 2463.52   2
   9  -1  10 16229.6 2063.37   7
  -9  -1 -10 13051.3 2835.96   6
  -9  -1 -11 13814.0 2846.20   6
   9  -1  11 11008.2 2507.18   2
   9  -1  12 10721.5 2471.01   2
  -9  -1 -12 8236.75 2598.36   6
  -9  -1 -13 31464.1 3965.38   6
   9  -1  13 31336.7 3468.80   2
   9   1 -14 21881.7 2035.40   1
  -9   1  14 16473.7 3285.99   2
   9   1 -14 20173.2 3326.32   6
  -9   1  14 16653.8 1977.07   4
  -9   1  13 19347.6 3168.62   2
   9   1 -13 21746.9 3053.25   6
   9   1 -13 23816.9 1978.49   1
  -9   1  13 18363.2 1926.79   4
  -9   1  12 17125.8 3024.18   2
   9   1 -12 22496.7 3074.76   6
  -9   1  12 25892.0 2054.88   4
   9   1 -11 52825.8 4159.02   6
   9   1 -11 46900.5 2401.20   1
  -9   1  11 51596.3 2545.10   4
  -9   1  11 43054.8 3846.94   2
   9   1 -10 24756.1 1770.61   1
   9   1 -10 28061.9 3145.22   6
  -9   1  10 30624.7 2066.86   4
  -9   1   9 29899.6 3218.12   2
   9   1  -9 28514.3 3023.15   6
   9   1  -9 33088.9 1977.70   1
  -9   1   9 33168.0 2013.64   4
  -9   1   8 63837.3 3895.18   2
   9   1  -8 73122.8 4177.72   6
   9   1  -8 75342.9 2528.85   1
  -9   1   8 71589.5 2533.48   4
  -9   1   7 2624.70 1652.52   2
   9   1  -7 2711.10 1660.62   6
   9   1  -7 3172.31 892.804   1
  -9   1   7 1848.08 914.147   4
   9   1  -6 80112.6 3586.60   2
   9   1  -6 88090.2 4217.13   6
  -9   1   6 83371.8 3783.21   6
  -9   1   6 74600.2 2326.68   4
  -9   1   6 75163.9 3963.71   2
   9   1  -6 73407.7 2107.15   1
   9   1  -5 21561.6 1948.37   2
  -9   1   5 22583.2 2029.73   6
   9   1  -5 20177.3 2292.81   6
   9   1  -5 21281.0 1143.22   1
   9   1  -5 21048.1 1526.01   4
  -9   1   5 22687.7 1322.37   4
  -9   1   5 18905.1 2201.70   2
   9   1  -4 214114. 4864.61   2
  -9   1   4 223854. 4886.44   6
   9   1  -4 219765. 5728.65   6
   9   1  -4 215473. 3396.30   5
   9   1  -4 206534. 3768.76   4
   9   1  -4 232807. 3030.58   1
  -9   1   4 235933. 3436.42   4
   9   1  -3 233528. 3133.35   3
   9   1  -3 219701. 4472.66   2
  -9   1   3 223320. 3768.35   1
  -9   1   3 232905. 4503.52   6
   9   1  -3 224620. 3609.36   4
  -9   1   3 230777. 3141.89   4
  -9   1   2 12690.2 895.707   4
  -9   1   2 12840.6 1152.70   6
   9   1  -2 16296.9 1599.72   6
   9   1  -2 14468.0 958.327   3
   9   1  -2 14932.2 853.048   1
  -9   1   2 11475.6 955.240   1
   9   1  -2 14462.5 1053.92   4
   9   1  -1 47887.8 1463.34   3
  -9   1   1 46628.8 1777.84   6
   9   1  -1 48180.0 2165.26   6
  -9   1   1 49136.3 1624.89   1
   9   1  -1 50227.1 1706.84   4
   9   1  -1 48556.4 1516.65   1
   9   1   0 105989. 2293.02   4
   9   1   0 91493.3 1981.72   3
  -9   1   0 97384.7 2227.91   1
   9   1   0 103082. 2890.73   6
  -9   1   0 91588.2 2410.91   6
   9   1   0 100602. 2467.98   1
   9   1   1 143248. 2394.29   3
  -9   1  -1 133910. 2584.30   1
   9   1   1 140692. 3101.15   6
   9   1   1 140090. 3452.32   1
  -9   1  -1 131942. 3046.62   6
   9   1   2 134419. 2399.08   3
   9   1   2 162644. 3421.63   2
   9   1   2 159084. 2833.91   7
   9   1   2 160011. 3396.10   6
  -9   1  -2 140804. 2946.47   1
   9   1   3 385666. 4969.57   7
   9   1   3 394331. 6155.40   2
  -9   1  -4 99436.9 2984.12   1
   9   1   4 108606. 2357.57   3
   9   1   4 106403. 3830.74   2
  -9   1  -5 57703.5 2712.27   1
   9   1   5 60819.3 1901.34   3
  -9   1  -5 66716.6 3993.12   6
   9   1   5 67072.6 2930.76   7
   9   1   5 65563.3 3347.51   2
   9   1   6 72339.2 3039.10   7
  -9   1  -6 64793.2 4182.26   6
   9   1   6 72132.7 3842.95   2
   9   1   7 7598.04 1896.48   2
  -9   1  -7 5035.24 2008.93   6
  -9   1  -8 46674.3 3946.09   6
   9   1   8 41141.7 3301.28   2
  -9   1  -9 35607.4 3809.05   6
   9   1   9 35049.0 3322.35   2
  -9   1 -10 21608.1 3384.69   6
   9   1  10 16476.6 2974.78   2
  -9   1 -11 22455.1 3553.33   6
   9   1  11 13423.0 2757.69   2
  -9   1 -12 3526.97 2479.43   6
   9   1  12 8045.93 2597.49   2
   9   1  13 26952.4 3712.32   2
  -9   1 -13 26766.7 3854.08   6
   9   3 -13 38487.5 4155.57   6
  -9   3  13 33222.2 3989.75   2
  -9   3  12 3584.79 2366.52   2
   9   3 -12 2959.39 2412.94   6
  -9   3  12 4253.31 1239.11   4
   9   3 -11 8746.52 2751.58   6
  -9   3  11 10181.7 2708.02   2
  -9   3  11 16308.5 1501.89   4
   9   3 -10 63862.9 1876.70   1
  -9   3  10 65781.2 2347.24   4
  -9   3   9 84240.7 4857.60   2
   9   3  -9 89572.6 5106.26   6
   9   3  -9 102938. 2133.01   1
  -9   3   9 99079.5 2651.60   4
   9   3  -8 51961.6 3948.44   6
  -9   3   8 42382.8 2563.97   6
  -9   3   8 43821.1 3580.40   2
   9   3  -8 54732.5 1422.54   1
  -9   3   8 54107.7 1831.03   4
   9   3  -7 32186.5 3259.07   6
   9   3  -7 31238.1 2121.42   2
  -9   3   7 27728.3 1335.20   4
   9   3  -7 31571.5 978.682   1
   9   3  -6 97154.9 4658.01   6
  -9   3   6 89608.3 2941.84   6
   9   3  -6 89304.8 1257.47   1
   9   3  -6 104378. 3303.53   2
  -9   3   6 98395.2 2025.65   4
  -9   3   5 16846.8 818.657   4
  -9   3   5 14303.6 1215.53   6
   9   3  -5 20424.0 2431.19   6
   9   3  -5 18599.4 1469.14   2
  -9   3   4 13086.3 942.660   6
   9   3  -4 15919.2 2056.93   6
   9   3  -4 17584.0 1232.62   2
   9   3  -3 63873.9 3189.75   6
   9   3  -3 59292.6 1591.46   2
   9   3  -3 67792.3 2383.53   4
   9   3  -2 81968.1 3238.54   6
  -9   3   2 72043.2 2476.27   1
   9   3  -2 77274.5 2396.79   4
   9   3  -1 19507.2 1650.38   6
  -9   3   1 17423.6 1335.39   1
  -9   3   1 17824.3 983.593   6
   9   3  -1 19007.1 1293.46   4
   9   3   0 7967.32 971.739   4
  -9   3   0 8949.08 1176.86   6
   9   3   0 8594.85 1242.26   6
  -9   3   0 8546.06 819.500   6
  -9   3   0 8659.34 934.691   1
   9   3   0 8287.43 757.232   2
   9   3   1 109608. 2920.14   6
  -9   3  -1 119481. 3797.85   6
   9   3   1 113083. 2674.79   2
  -9   3  -1 109408. 2523.55   1
   9   3   1 109840. 2517.49   4
   9   3   2 4757.32 1076.84   2
   9   3   2 3076.55 784.789   4
  -9   3  -2 2915.98 1333.24   6
  -9   3  -2 2806.98 750.492   1
   9   3   2 3536.05 902.648   6
  -9   3  -3 25253.4 1373.93   1
  -9   3  -3 24756.0 2545.38   6
   9   3   3 31046.9 2097.35   2
  -9   3  -4 54840.4 3620.68   6
   9   3   4 58018.8 2992.78   2
  -9   3  -5 34318.7 3332.47   6
   9   3   5 31790.1 2635.35   2
  -9   3  -6 54347.9 4041.03   6
   9   3   6 64455.8 3737.03   2
   9   3   7 4210.34 1973.75   2
   9   3   8 55562.6 3978.00   2
  -9   3  -8 50207.4 4360.43   6
   9   3   9 11332.0 2581.39   2
  -9   3  -9 7508.21 2656.24   6
   9   3  10 12402.3 2872.28   2
  -9   3 -10 8435.50 2891.76   6
   9   3  11 38291.6 3954.08   2
  -9   3 -11 40296.0 4450.09   6
   9   3  12 14535.6 3141.28   2
  -9   3 -12 8038.97 3088.15   6
   9   5 -11 8744.00 2705.54   6
   9   5 -10 4861.14 2436.89   6
   9   5  -9 12303.5 2740.98   6
   9   5  -8 39046.5 3649.41   6
   9   5  -7 4280.96 2011.98   6
   9   5  -6 16450.2 2489.70   6
   9   5  -5 40498.5 3132.85   6
   9   5  -4 48545.9 2937.70   6
   9   5  -3 28345.5 2327.18   6
   9   5  -2 40897.1 2382.66   6
   9   5  -1 50653.7 2523.65   6
  -9   5   0 14742.5 1099.10   6
   9   5   0 15785.6 1493.55   6
  -9   5   0 14931.9 883.010   6
   9   5   0 13624.0 1208.83   4
  -9   5  -1 22666.6 1741.28   6
   9   5   1 26060.5 1638.73   6
  -9   5  -1 22409.1 1321.29   6
   9   5   1 21553.0 1329.43   4
   9   5   2 10201.3 1072.40   6
   9   5   2 8603.64 913.670   4
   9   5   3 50705.3 2296.15   2
  -9   5  -3 46872.0 3059.68   6
   9   5   4 47415.8 2711.78   2
  -9   5  -4 42096.9 3185.85   6
  -9   5  -5 4359.14 1831.88   6
   9   5   5 7595.76 1714.69   2
  -9   5  -6 23893.9 3087.05   6
   9   5   6 32179.9 2883.11   2
   9   5   7 10308.2 2198.45   2
  -9   5  -7 9480.24 2557.87   6
  -9   5  -8 12082.6 2771.39   6
   9   5   8 12482.3 2450.19   2
   9   5   9 17608.9 2838.55   2
  -9   5  -9 17660.2 3236.57   6
  -9   5 -10 32813.8 4060.54   6
   9   5  10 36315.4 3667.96   2
 -10  -6   9 11059.5 1761.54   3
 -10  -6   9 12117.2 1802.12   4
  10  -6  -9 10883.6 1881.79   1
 -10  -6   8 4716.73 1510.32   3
  10  -6  -8 6339.57 1536.30   1
 -10  -6   8 5834.22 1549.54   4
 -10  -6   7 5830.05 1475.83   4
 -10  -6   7 8420.93 1651.66   3
  10  -6  -7 6572.02 1547.25   1
  10  -6  -6 30530.3 1789.20   3
 -10  -6   6 30777.2 2363.75   3
  10  -6  -6 31555.0 2242.02   1
 -10  -6   6 30428.6 2159.73   4
 -10  -6   5-286.668 1123.27   4
 -10  -6   5 1493.59 1236.59   3
  10  -6  -5 721.765 1058.59   1
  10  -6  -5 2244.70 1037.27   3
  10  -6  -4 12756.4 1504.27   3
 -10  -6   4 11702.0 1726.10   3
  10  -6  -4 11942.8 1521.06   1
 -10  -6   4 11909.6 1422.79   4
 -10  -6   3 27355.9 1738.32   4
  10  -6  -3 31317.8 2077.31   3
 -10  -6   3 31585.2 2215.39   3
  10  -6  -3 32299.6 1926.93   1
 -10  -6   2 8788.28 1146.75   4
  10  -6  -2 9721.56 1196.36   1
  10  -6  -2 11491.7 1664.96   3
 -10  -6   2 11796.8 1700.18   3
  10  -6  -1 18058.8 1365.35   1
  10  -6  -1 16239.0 1837.10   3
 -10  -6   1 15066.0 1666.72   3
  10  -6   0 12829.0 1734.19   3
  10  -6   0 11550.3 1144.07   1
 -10  -6   0 10733.7 1518.41   3
  10  -6   0 13510.4 1621.40   5
 -10  -6  -1 30111.9 1957.65   3
  10  -6   1 25345.6 1540.58   1
  10  -6   2 2213.49 865.508   2
  10  -6   2 1210.87 888.845   1
 -10  -6  -3 11518.1 1316.80   3
  10  -6   3 14868.5 1881.86   5
 -10  -6  -4 12845.8 1369.63   3
  10  -6   4 15946.5 1452.29   4
 -10  -6  -5 9300.77 1207.82   3
  10  -6   5 13180.2 1444.21   4
 -10  -6  -6 5175.22 1109.71   3
  10  -6   6 5505.75 1277.29   4
  10  -6   7 3711.56 1217.80   7
 -10  -6  -7 3068.06 1021.68   3
  10  -6   8 15576.8 1789.79   7
 -10  -6  -8 13196.3 1344.64   3
  10  -4 -12 9184.93 1905.84   1
 -10  -4  12 11578.8 2011.78   4
 -10  -4  11 20121.6 1783.99   3
  10  -4 -11 20538.3 2212.94   1
 -10  -4  11 14798.2 1993.54   4
 -10  -4  10 16946.6 1737.35   3
 -10  -4  10 19923.2 2330.39   2
  10  -4 -10 15530.6 2080.55   1
 -10  -4  10 15899.5 1982.67   4
 -10  -4   9 20710.0 2167.04   2
 -10  -4   9 23468.9 1847.69   3
  10  -4  -9 27853.5 2300.52   1
 -10  -4   9 22127.0 2057.46   4
 -10  -4   8 6138.63 1353.40   3
  10  -4  -8 4357.41 581.081   3
 -10  -4   8 7045.99 1475.08   2
  10  -4  -8 6151.65 1618.00   1
 -10  -4   8 4495.61 1294.07   4
  10  -4  -7 4810.16 714.885   3
  10  -4  -7 2569.62 607.260   6
 -10  -4   7 3545.46 1327.58   3
  10  -4  -7 5239.74 1312.17   1
 -10  -4   7 4210.57 1239.91   4
 -10  -4   6 34978.2 2131.24   3
  10  -4  -6 30394.9 1398.09   3
  10  -4  -6 33315.0 2121.64   1
 -10  -4   6 28062.7 1960.76   4
 -10  -4   5 7879.28 1350.84   3
  10  -4  -5 7920.37 1005.41   3
  10  -4  -5 7338.41 1285.44   1
 -10  -4   5 7619.17 1277.00   4
  10  -4  -4 75819.1 2417.90   3
 -10  -4   4 76161.0 2913.03   3
  10  -4  -4 71482.9 2737.36   1
 -10  -4   4 68375.4 2605.23   4
  10  -4  -3 23800.5 1526.42   3
 -10  -4   3 23271.8 1722.54   3
  10  -4  -3 29673.7 1467.85   5
  10  -4  -3 26315.7 1714.44   1
 -10  -4   3 24275.9 1656.37   4
 -10  -4   2 36286.2 1773.75   4
 -10  -4   2 43468.4 2209.24   3
 -10  -4   2 32391.3 751.165   1
  10  -4  -2 40827.7 1971.75   1
 -10  -4   1 25172.9 1477.42   4
 -10  -4   1 28320.9 1190.27   1
 -10  -4   1 29785.8 1942.86   3
 -10  -4   1 22493.0 2187.50   6
 -10  -4   0 8741.09 1251.87   3
  10  -4   0 10079.5 1006.86   1
 -10  -4   0 6988.39 1460.33   6
 -10  -4   0 11068.1 1102.20   1
 -10  -4  -1 102423. 3639.55   6
 -10  -4  -1 110213. 3255.87   1
  10  -4   1 102001. 2591.83   1
 -10  -4  -1 104438. 2965.98   3
 -10  -4  -2 23712.3 1097.83   7
 -10  -4  -2 24473.9 1545.21   3
 -10  -4  -3 30334.8 1451.15   7
  10  -4   3 24589.1 1456.88   1
 -10  -4  -3 21767.2 1732.93   6
  10  -4   3 25598.5 1595.93   2
 -10  -4  -3 28171.7 1593.45   3
 -10  -4  -4 47039.0 1933.85   7
 -10  -4  -4 42994.7 1826.34   3
 -10  -4  -4 42233.9 2001.82   2
  10  -4   4 43254.2 2010.61   1
  10  -4   4 45663.6 2237.36   2
 -10  -4  -5 25132.9 1474.18   3
  10  -4   5 21314.2 1821.14   2
  10  -4   5 21351.9 1709.04   1
 -10  -4  -6 32014.0 1622.56   3
  10  -4   6 28294.3 2227.11   2
  10  -4   7 3154.70 1267.32   7
 -10  -4  -7 1336.62 1504.28   6
 -10  -4  -7 1041.15 908.237   3
  10  -4   7 3722.38 1419.15   2
 -10  -4  -8 9272.64 2014.72   6
 -10  -4  -8 6630.40 1104.85   3
  10  -4   8 8902.90 1502.84   7
  10  -4   8 6486.63 1708.63   2
  10  -4   9 15414.6 1993.12   4
  10  -4   9 14241.0 1802.32   7
 -10  -4  -9 9004.59 1264.22   3
 -10  -4  -9 10703.2 2157.77   6
  10  -4   9 11117.3 2151.49   2
 -10  -4 -10 11497.8 2327.75   6
  10  -4  10 11078.8 1889.77   7
  10  -4  10 13359.6 1907.66   4
  10  -4  10 14518.6 2370.10   2
  10  -4  11 6936.02 2119.88   2
  10  -4  11 9693.48 1852.29   7
  10  -4  11 10402.6 1881.30   4
  10  -2 -14 7028.80 1882.51   1
 -10  -2  14 8434.25 1881.39   4
  10  -2 -14 8387.93 2424.41   6
 -10  -2  14 4519.05 2335.48   2
 -10  -2  13 732.928 1880.00   2
  10  -2 -13 2871.46 2072.42   6
  10  -2 -13 921.954 1539.78   1
 -10  -2  13 1677.66 1408.80   4
 -10  -2  12 10328.6 2454.11   2
  10  -2 -12 9925.77 2341.03   6
  10  -2 -12 5681.98 1631.30   1
 -10  -2  12 5271.98 1728.61   4
 -10  -2  11 29802.2 1538.29   3
 -10  -2  11 23138.6 2919.63   2
  10  -2 -11 28562.0 2919.55   6
  10  -2 -11 29639.6 2356.21   1
 -10  -2  11 21230.6 2047.37   4
 -10  -2  10 37080.1 1725.31   3
  10  -2 -10 42374.3 3159.30   6
 -10  -2  10 37794.7 3216.51   2
  10  -2 -10 43716.7 2645.71   1
 -10  -2  10 33125.0 2352.47   4
 -10  -2   9 9766.98 1192.09   3
 -10  -2   9 6187.15 2131.84   2
  10  -2  -9 12199.0 1881.21   1
  10  -2  -9 9834.23 2097.05   6
 -10  -2   9 6843.61 1523.51   4
 -10  -2   8 106582. 2695.27   3
  10  -2  -8 108202. 4214.38   6
 -10  -2   8 99408.3 4269.78   2
  10  -2  -8 110314. 3740.88   1
 -10  -2   7 72975.2 2273.44   3
 -10  -2   7 68712.9 3366.05   2
  10  -2  -7 82441.9 3405.27   6
  10  -2  -7 73412.5 2958.43   1
 -10  -2   7 62517.7 2710.03   4
 -10  -2   6 113144. 2820.06   3
  10  -2  -6 127560. 3977.64   6
  10  -2  -6 113283. 3409.73   1
 -10  -2   6 103713. 3871.17   2
 -10  -2   6 108118. 3284.89   4
  10  -2  -5 36146.5 1931.51   6
  10  -2  -5 38193.4 1009.25   3
 -10  -2   5 40434.4 1717.27   3
  10  -2  -5 31180.4 1856.73   1
  10  -2  -5 35048.9 1371.94   4
 -10  -2   5 31606.9 1842.96   4
 -10  -2   4 86100.4 2360.34   3
  10  -2  -4 88633.9 2535.36   6
  10  -2  -4 84435.2 2677.27   1
  10  -2  -4 79970.4 1808.96   4
  10  -2  -4 93643.6 3987.65   2
 -10  -2   4 78419.8 2502.94   4
 -10  -2   3 50568.9 1943.43   3
 -10  -2   3 49859.3 3128.55   6
  10  -2  -3 57622.0 3066.77   2
  10  -2  -3 69693.3 2056.04   6
 -10  -2   3 49472.0 1177.03   1
  10  -2  -3 62028.1 2228.06   1
  10  -2  -3 70966.8 1542.98   4
 -10  -2   3 53127.5 2222.97   4
 -10  -2   2 27340.4 990.404   1
  10  -2  -2 24736.6 1191.31   6
 -10  -2   2 23518.2 2120.74   6
 -10  -2   2 24803.0 1453.30   3
  10  -2  -2 25609.4 1538.86   1
  10  -2  -2 23612.5 1020.82   4
 -10  -2   2 26199.4 1533.57   4
 -10  -2   1 90050.0 2402.76   4
  10  -2  -1 96795.5 2205.33   6
  10  -2  -1 98995.8 2457.27   1
 -10  -2   1 98205.8 2377.34   3
 -10  -2   1 90736.9 3404.73   6
 -10  -2   1 95680.1 1981.59   1
 -10  -2   0 76385.0 2110.42   1
 -10  -2   0 82693.2 2113.36   3
  10  -2   0 82105.4 2140.06   1
 -10  -2   0 76142.3 2869.46   6
 -10  -2  -1 198382. 3168.54   3
  10  -2   1 200609. 3512.16   1
 -10  -2  -1 198324. 3926.33   1
 -10  -2  -2 4775.10 820.953   3
 -10  -2  -2 3086.10 1098.20   6
 -10  -2  -2 3220.24 1277.46   1
  10  -2   3 23158.0 1616.82   1
 -10  -2  -3 21200.2 1651.59   6
 -10  -2  -3 24181.8 2119.36   1
 -10  -2  -4 66564.1 1989.16   3
 -10  -2  -4 66005.4 2333.30   7
  10  -2   4 59054.7 2508.87   2
  10  -2   4 65593.7 2653.86   1
 -10  -2  -4 55068.5 2457.16   6
 -10  -2  -4 59687.6 2508.22   2
 -10  -2  -5 21015.5 1346.85   3
  10  -2   5 19563.0 1873.91   2
  10  -2   6 63618.5 2676.88   7
  10  -2   6 66794.5 3240.27   2
  10  -2   7 24847.0 1989.67   7
 -10  -2  -7 22566.5 2614.17   6
  10  -2   7 21232.2 2358.47   2
  10  -2   8 41314.1 2419.79   7
 -10  -2  -8 35690.5 3247.53   6
 -10  -2  -9 6544.59 2130.01   6
  10  -2   9 10894.1 1798.67   7
  10  -2   9 9735.57 2148.81   2
 -10  -2 -10 15617.9 2867.81   6
  10  -2  10 23946.2 2295.00   7
  10  -2  10 22934.0 2743.72   2
  10  -2  11 5978.30 2106.78   2
 -10  -2 -11 4459.78 2204.64   6
  10  -2  11 6645.44 1804.97   7
  10  -2  12 9358.13 2511.53   2
 -10  -2 -12 4105.31 2284.29   6
 -10  -2 -13 14016.9 3167.27   6
  10  -2  13 15537.6 2233.00   4
  10  -2  13 13218.1 2793.73   2
  10   0 -14 36691.9 3963.25   6
  10   0 -14 30316.0 2488.10   1
 -10   0  14 31425.3 2528.88   4
  10   0 -13 17833.1 2892.85   6
  10   0 -13 15077.4 1819.57   1
 -10   0  13 16457.3 1949.52   4
  10   0 -12 8110.24 2554.84   6
 -10   0  12 5869.14 2642.27   2
  10   0 -12 4159.07 1416.96   1
 -10   0  12 3850.70 1439.14   4
 -10   0  11 16460.9 2762.53   2
  10   0 -11 16264.1 2673.90   6
  10   0 -11 20621.7 1845.26   1
 -10   0  11 17680.5 1755.81   4
 -10   0  10 39482.9 3499.88   2
  10   0 -10 41593.2 3589.69   6
  10   0 -10 42097.4 2412.03   1
 -10   0  10 36463.8 2273.19   4
 -10   0   9 40064.9 3347.49   2
  10   0  -9 47562.7 3612.13   6
  10   0  -9 49520.8 2409.82   1
 -10   0   9 46472.1 2420.55   4
  10   0  -8 33611.3 3023.12   6
 -10   0   8 25965.1 2724.38   2
  10   0  -8 31527.4 1933.74   1
 -10   0   8 30345.4 1906.07   4
 -10   0   7 6132.90 1759.93   2
  10   0  -7 7462.11 1693.07   6
  10   0  -7 7400.45 1142.47   1
 -10   0   7 6879.95 1181.96   4
 -10   0   6 136071. 5022.62   2
  10   0  -6 167583. 3524.07   1
 -10   0   6 145055. 3372.70   4
  10   0  -6 162466. 5308.52   6
  10   0  -5 14043.2 1914.50   2
  10   0  -5 18743.2 2084.33   6
 -10   0   5 17896.5 2113.01   6
 -10   0   5 13153.7 441.404   3
 -10   0   5 14335.6 1968.19   2
  10   0  -5 18028.0 1238.89   1
  10   0  -5 18812.3 929.337   5
  10   0  -5 18545.7 1339.16   4
 -10   0   5 16700.1 1386.81   4
 -10   0   4 10621.8 981.915   1
  10   0  -4 10247.4 550.498   3
  10   0  -4 11877.5 1544.31   2
  10   0  -4 11380.0 1514.88   6
 -10   0   4 10935.4 1624.51   6
 -10   0   4 9457.67 461.140   3
  10   0  -4 9592.65 969.817   1
  10   0  -4 10470.4 1018.03   4
 -10   0   4 10129.1 1103.24   4
 -10   0   3 392582. 2735.11   3
  10   0  -3 431283. 6515.86   6
  10   0  -3 430566. 2910.39   3
 -10   0   3 448142. 6994.42   6
  10   0  -3 434248. 6748.83   2
  10   0  -3 436934. 4778.20   4
  10   0  -3 463800. 4840.24   1
 -10   0   3 417933. 4841.44   4
 -10   0   2 74486.0 2005.44   4
  10   0  -2 82080.7 1965.97   1
  10   0  -2 74542.7 1326.32   3
  10   0  -2 78611.7 2653.74   6
 -10   0   2 79286.1 2778.51   6
 -10   0   2 72716.3 1488.23   3
 -10   0   2 79437.6 1917.15   1
  10   0  -2 77619.8 2026.29   4
  10   0  -1 21765.3 1196.38   4
 -10   0   1 18628.8 1092.33   1
  10   0  -1 21094.3 1164.19   1
 -10   0   1 19735.1 1481.99   6
  10   0  -1 21438.2 1524.52   6
 -10   0   0 849.754 737.923   1
  10   0   0 730.901 558.774   3
 -10   0   0 838.572 853.430   6
  10   0   0 750.403 826.404   6
  10   0   0 182.727 860.906   1
  10   0   1 122485. 2921.72   1
 -10   0  -1 130211. 3286.79   6
  10   0   1 122010. 2280.88   3
  10   0   1 145207. 3280.18   6
 -10   0  -1 136353. 2862.65   1
 -10   0  -2 438613. 5574.95   1
 -10   0  -2 453118. 5950.51   6
 -10   0  -3 181290. 4080.08   1
  10   0   3 186134. 4002.21   2
 -10   0  -3 170526. 3983.76   6
  10   0   3 177195. 4478.54   1
  10   0   4 135193. 2871.07   3
  10   0   4 139274. 4017.64   2
  10   0   4 143522. 3467.03   7
  10   0   5 116092. 3309.14   7
  10   0   5 96899.6 3853.89   2
  10   0   6 20553.8 2020.02   7
 -10   0  -6 19280.0 3040.13   6
  10   0   6 21569.9 2344.64   2
 -10   0  -7 4646.98 2105.40   6
  10   0   7 1092.37 1220.43   7
  10   0   7 4237.86 1812.60   2
 -10   0  -8 98271.1 5180.11   6
  10   0   8 110991. 5091.85   2
 -10   0  -9 12189.5 2805.57   6
  10   0   9 9356.42 2441.91   2
  10   0  10 7398.19 2306.22   2
 -10   0 -10 6691.79 2433.27   6
 -10   0 -11 17451.8 3006.37   6
  10   0  11 18536.5 2925.01   2
 -10   0 -12 21290.1 3551.95   6
  10   0  12 16115.9 2841.25   2
  10   0  13 2430.31 2274.39   2
 -10   0 -13 284.376 2664.38   6
  10   2 -14 5667.72 2761.09   6
 -10   2  14 7664.90 2877.64   2
 -10   2  14 10062.9 1602.53   4
 -10   2  13 1310.77 1301.32   4
  10   2 -13 4667.37 2764.77   6
  10   2 -13 5234.52 1187.36   1
 -10   2  13 469.497 2244.50   2
  10   2 -12 6928.08 1200.69   1
  10   2 -12 8865.52 2607.37   6
 -10   2  12 6678.47 2825.85   2
 -10   2  12 10811.2 1593.62   4
  10   2 -11 38490.8 3763.77   6
  10   2 -11 35020.4 1767.21   1
 -10   2  11 33940.7 1980.05   4
  10   2 -10 26799.6 3238.33   6
  10   2 -10 24438.7 1487.30   1
 -10   2  10 26362.2 3280.38   2
 -10   2  10 26778.5 1718.97   4
 -10   2   9 6549.82 2494.96   2
  10   2  -9 6370.98 925.019   1
  10   2  -9 7971.37 2752.30   6
 -10   2   9 10664.9 1504.76   4
 -10   2   8 94243.2 4837.88   2
  10   2  -8 102358. 5148.02   6
  10   2  -8 100173. 2363.22   1
 -10   2   8 110200. 2826.93   4
  10   2  -7 66067.9 2376.53   7
 -10   2   7 68742.2 3350.69   6
  10   2  -7 70933.8 4190.27   6
 -10   2   7 65585.6 2102.52   4
  10   2  -7 73837.6 1925.93   1
 -10   2   6 105926. 3997.84   6
  10   2  -6 115887. 5134.65   6
 -10   2   6 115312. 2644.21   4
  10   2  -6 104414. 2787.03   7
  10   2  -6 103071. 2171.89   1
  10   2  -6 100783. 3802.95   2
  10   2  -5 43363.1 1251.04   1
  10   2  -5 41204.7 1669.81   7
 -10   2   5 39752.0 2221.28   6
  10   2  -5 41803.4 2988.18   6
 -10   2   5 40247.6 1516.46   4
  10   2  -5 38045.3 2215.42   2
 -10   2   4 100635. 2065.91   4
  10   2  -4 102396. 3149.75   2
  10   2  -4 103575. 2165.68   7
  10   2  -4 107233. 1719.43   1
 -10   2   4 96420.9 2959.81   6
  10   2  -4 99137.3 4104.13   6
  10   2  -4 103006. 2866.48   5
  10   2  -3 48167.1 2056.30   3
  10   2  -3 42408.5 1224.93   7
 -10   2   3 50555.7 2026.34   6
  10   2  -3 47051.0 2864.76   6
 -10   2   3 51615.8 2080.84   1
  10   2  -3 48109.0 1320.01   1
  10   2  -3 38751.9 1962.52   2
  10   2  -3 56997.4 2130.43   4
 -10   2   2 27228.5 1371.76   6
  10   2  -2 44736.5 1493.58   1
  10   2  -2 38156.9 2347.81   6
  10   2  -2 46174.2 1942.26   3
 -10   2   2 33910.0 1724.02   1
  10   2  -2 42499.8 1809.56   4
  10   2  -1 125978. 2793.69   1
  10   2  -1 127218. 3628.63   6
 -10   2   1 118518. 2681.48   1
  10   2  -1 126411. 2912.37   4
  10   2   0 70117.9 2253.43   3
  10   2   0 70207.1 2610.27   6
 -10   2   0 68253.9 2060.74   6
 -10   2   0 67308.7 2109.24   1
  10   2   0 71198.2 2091.12   4
  10   2   1 203564. 3453.11   4
 -10   2  -1 208525. 3416.75   1
  10   2   1 209650. 2866.54   7
  10   2   1 229424. 3913.61   3
  10   2   1 208926. 4100.58   6
  10   2   1 229276. 3671.33   2
 -10   2  -1 215756. 3861.44   6
  10   2   2 5110.23 962.620   3
 -10   2  -2 3858.37 908.655   1
  10   2   2 4914.97 1090.37   2
  10   2   2 4806.41 1082.00   6
  10   2   3 41172.6 1778.21   3
 -10   2  -3 43484.3 3069.25   6
 -10   2  -3 37552.4 1741.17   1
 -10   2  -4 59968.9 3675.78   6
 -10   2  -4 53653.7 2084.37   1
  10   2   4 60480.7 3151.64   2
 -10   2  -5 16530.7 2607.40   6
  10   2   5 15940.9 2110.13   2
 -10   2  -5 19630.4 1674.81   1
 -10   2  -6 86870.4 4689.19   6
  10   2   6 85524.5 4127.30   2
 -10   2  -7 28280.2 3342.70   6
  10   2   7 31965.8 2887.98   2
 -10   2  -8 33997.4 3578.44   6
  10   2   8 35448.6 3189.74   2
 -10   2  -9 12247.7 2925.25   6
  10   2   9 12707.0 2494.84   2
 -10   2 -10 17907.3 3276.17   6
  10   2  10 20110.0 2905.89   2
  10   2  11 6528.47 2366.99   2
 -10   2 -11 1407.22 2437.17   6
 -10   2 -12 5329.04 2975.12   6
  10   2  12 11854.1 2785.10   2
 -10   2 -13 10554.6 3195.25   6
  10   2  13 9156.95 2624.64   2
  10   4 -12 10488.2 2750.80   6
  10   4 -11 13884.1 2745.25   6
  10   4 -10 18054.4 3047.27   6
  10   4  -9 27785.7 3274.12   6
  10   4  -8 11615.5 2428.66   6
 -10   4   7 2829.76 479.727   4
  10   4  -7 6174.12 1994.31   6
  10   4  -6 47753.3 3511.01   6
  10   4  -6 55056.0 1906.94   2
  10   4  -5 12245.1 2134.43   6
  10   4  -5 12726.1 831.053   2
  10   4  -4 73971.7 3693.30   6
  10   4  -3 28349.7 2290.35   6
  10   4  -2 36813.8 2375.61   6
 -10   4   1 24532.5 1029.94   6
 -10   4   1 23473.0 1305.37   6
  10   4  -1 29606.0 2013.84   6
  10   4  -1 33320.5 1718.07   4
 -10   4   0 8785.66 873.084   6
 -10   4   0 8757.17 1258.12   6
  10   4   0 8821.59 1248.01   6
  10   4   0 7932.74 991.357   4
  10   4   1 110907. 2450.82   2
 -10   4  -1 129116. 3949.75   6
  10   4   1 113583. 3128.36   6
 -10   4  -1 100021. 2599.61   1
 -10   4  -1 126696. 2937.13   6
  10   4   1 110797. 2655.70   4
  10   4   2 30383.0 1787.45   2
 -10   4  -2 28734.6 2430.36   6
  10   4   2 22277.4 1513.68   6
 -10   4  -2 19895.5 1304.14   1
  10   4   2 20188.8 1357.90   4
  10   4   3 32996.6 1588.89   4
  10   4   3 40166.5 2261.26   2
 -10   4  -3 37789.0 2811.53   6
 -10   4  -3 32629.4 1563.50   1
  10   4   4 45513.4 1823.99   4
  10   4   4 61423.8 3069.47   2
 -10   4  -4 56511.9 3625.44   6
 -10   4  -4 45523.9 1780.93   1
  10   4   5 20756.9 2222.03   2
 -10   4  -5 20845.5 2741.77   6
  10   4   6 28824.8 2791.77   2
 -10   4  -6 25517.0 3263.71   6
  10   4   7 3274.83 1924.79   2
 -10   4  -7 2827.06 2171.83   6
  10   4   8 10695.8 2277.98   2
 -10   4  -8 8011.37 2733.62   6
  10   4   9 23662.4 3158.40   2
 -10   4  -9 18982.8 3443.66   6
  10   4  10 16295.1 2931.09   2
 -10   4 -10 20627.5 3321.52   6
  10   4  11 11312.8 2866.81   2
 -10   4 -11 9898.66 2931.83   6
  10   6  -9 12729.2 2650.78   6
  10   6  -8 7267.82 2156.71   6
  10   6  -7 8958.50 2180.49   6
  10   6  -6 31594.6 2872.74   6
  10   6  -5 1579.48 1411.56   6
  10   6  -4 10218.4 1759.24   6
  10   6  -3 23191.0 2087.48   6
  10   6  -2 12019.4 1602.73   6
  10   6  -1 14739.5 1551.50   6
  10   6   0 8533.14 1190.02   6
  10   6   1 26933.0 1590.79   6
 -10   6  -3 17126.5 2141.96   6
 -10   6  -4 26527.4 2640.60   6
 -10   6  -5 11879.7 2218.96   6
 -10   6  -6 5874.44 2155.54   6
 -10   6  -7 3548.06 2037.77   6
 -10   6  -8 27845.1 3546.71   6
 -11  -7   6 13954.6 1915.90   3
  11  -7  -6 18429.2 1898.90   1
  11  -7  -5 2506.64 1088.05   3
 -11  -7   5 1297.68 1390.40   3
  11  -7  -5 2614.92 1227.56   1
  11  -7  -4 22788.6 1746.70   1
  11  -7  -4 20148.7 1820.11   3
 -11  -7   4 24524.2 2163.08   3
  11  -7  -3 21769.2 1657.73   1
 -11  -7   3 22332.5 2104.29   3
  11  -7  -3 24227.3 2123.53   3
  11  -7  -2 10979.3 1650.80   3
 -11  -7   2 8911.43 1654.61   3
  11  -7  -1 12390.3 1798.69   3
 -11  -7   1 10112.6 1576.35   3
  11  -7   0 3971.44 1561.56   3
 -11  -7   0 1452.14 1176.72   3
  11  -7   1 10471.3 1787.52   3
 -11  -7  -1 7590.54 1418.68   3
  11  -7   1 10072.8 1656.93   5
  11  -7   2 3227.32 1449.06   3
 -11  -7  -2 2080.87 1080.64   3
  11  -7   2 2203.03 1329.49   5
 -11  -7  -3 7630.97 1326.13   3
  11  -7   3 15624.2 1962.54   5
 -11  -7  -4 6271.33 1239.72   3
  11  -7   4 14336.1 1937.95   5
 -11  -7  -5 6124.99 1189.35   3
  11  -7   5 10793.3 1939.55   5
 -11  -5  11 30753.9 2241.57   3
  11  -5 -11 28141.2 2496.60   1
 -11  -5  11 23147.6 2307.13   4
 -11  -5  10 11661.2 1611.81   3
  11  -5 -10 13754.2 1892.14   1
 -11  -5  10 10641.3 1773.40   4
 -11  -5   9 6416.70 1491.38   3
  11  -5  -9 9392.33 1640.72   1
 -11  -5   9 9752.28 1764.41   4
  11  -5  -8 60263.2 3023.75   1
 -11  -5   8 58807.1 2824.97   4
  11  -5  -7 12125.2 1036.44   3
 -11  -5   7 13505.8 1742.02   3
  11  -5  -7 12792.9 1662.94   1
 -11  -5   7 10872.3 1617.95   4
 -11  -5   6 20914.6 1916.33   3
  11  -5  -6 25731.5 1476.91   3
  11  -5  -6 21357.3 1946.72   1
 -11  -5   6 24367.0 2030.54   4
  11  -5  -5 5813.20 1231.55   1
 -11  -5   5 5150.36 1271.89   4
  11  -5  -5 5756.51 1079.08   3
 -11  -5   5 8456.75 1468.29   3
  11  -5  -4 51563.0 2268.40   3
 -11  -5   4 46266.5 2488.10   3
 -11  -5   4 46169.5 2287.81   4
 -11  -5   3 12173.5 1353.06   4
  11  -5  -3 10743.7 1465.54   3
 -11  -5   3 9646.89 1408.16   3
  11  -5  -3 16535.1 1354.78   5
  11  -5  -3 15440.3 1543.65   1
 -11  -5   2 8405.09 1136.45   4
  11  -5  -2 8939.38 1095.64   1
 -11  -5   2 10571.7 1527.51   3
  11  -5  -2 11705.1 1292.81   5
  11  -5  -1 29569.9 1684.20   1
 -11  -5   1 26288.8 1937.38   3
  11  -5  -1 29309.1 1878.50   5
 -11  -5   0 9091.79 1341.65   3
  11  -5   0 9842.40 1086.65   1
  11  -5   0 6991.80 670.335   4
 -11  -5  -1 6598.05 1215.70   3
  11  -5   1 6780.46 1093.49   1
  11  -5   1 9347.41 912.436   4
 -11  -5  -2 14513.1 1442.67   3
  11  -5   2 18944.8 1288.92   4
  11  -5   2 15660.4 1312.26   1
  11  -5   3 31539.6 1616.92   1
 -11  -5  -3 35478.6 1924.22   3
  11  -5   3 34748.8 1903.29   2
  11  -5   3 39184.6 1848.49   4
 -11  -5  -4 9788.70 1245.59   3
  11  -5   4 10160.6 1327.45   2
  11  -5   4 9461.92 1254.92   1
  11  -5   4 13451.3 1386.79   4
 -11  -5  -5 17634.1 1452.43   3
  11  -5   5 16438.1 1538.78   1
  11  -5   5 16062.4 1643.43   2
 -11  -5  -6 17880.5 1393.88   3
  11  -5   6 16052.6 1825.44   2
  11  -5   6 19896.7 1751.42   4
 -11  -5  -7 16130.9 1397.84   3
  11  -5   7 15285.7 1671.93   7
  11  -5   7 17421.5 1989.49   2
  11  -5   7 19245.4 1919.71   4
  11  -5   8 10780.5 1614.46   7
 -11  -5  -8 9885.27 1223.97   3
  11  -5   8 13386.2 1801.00   4
  11  -5   8 11184.3 1948.07   2
  11  -5   9 849.688 1590.99   2
 -11  -5  -9 2263.05 1048.89   3
  11  -5   9 437.184 1269.95   7
  11  -5   9 3390.47 1453.16   4
 -11  -5 -10 13718.0 1439.58   3
  11  -5  10 20486.2 2213.39   7
 -11  -3  13 22745.6 2981.80   2
  11  -3 -13 25359.3 2412.16   1
 -11  -3  13 18581.7 2229.49   4
 -11  -3  12 434.760 1796.01   2
  11  -3 -12 1664.47 1469.86   1
 -11  -3  12-562.256 1395.09   4
 -11  -3  11 12290.7 1402.01   3
 -11  -3  11 12070.4 2264.52   2
  11  -3 -11 13811.4 2030.94   6
 -11  -3  11 10127.6 1761.80   4
  11  -3 -11 11297.0 1960.16   1
 -11  -3  10 46410.3 2201.26   3
 -11  -3  10 43645.1 3153.31   2
  11  -3 -10 41432.9 2795.57   1
  11  -3 -10 50181.5 2996.87   6
 -11  -3  10 38338.7 2507.16   4
 -11  -3   9 35515.4 2772.49   2
  11  -3  -9 36569.8 2525.26   6
  11  -3  -9 31710.6 2376.02   1
 -11  -3   9 40006.0 2070.81   3
 -11  -3   9 31694.3 2223.20   4
 -11  -3   8 20474.1 1561.11   3
 -11  -3   8 26494.7 2299.15   2
  11  -3  -8 26291.9 2046.48   6
  11  -3  -8 26007.7 2094.00   1
 -11  -3   8 24124.6 2004.28   4
 -11  -3   7 1904.95 1104.37   3
  11  -3  -7 1115.94 1000.27   6
  11  -3  -7 1076.84 419.243   3
  11  -3  -7-487.838 1063.22   1
 -11  -3   7 2954.13 1313.51   4
 -11  -3   6 142863. 3504.66   3
  11  -3  -6 149151. 3321.16   6
  11  -3  -6 144716. 2186.82   3
  11  -3  -6 138485. 3812.15   1
  11  -3  -5 42599.0 1465.22   3
 -11  -3   5 39627.3 1964.15   3
  11  -3  -5 39157.5 1629.02   6
  11  -3  -5 36235.6 2111.87   1
 -11  -3   5 32615.6 1968.64   4
  11  -3  -4 13752.8 914.253   6
 -11  -3   4 13280.1 1310.77   3
  11  -3  -4 11625.2 700.858   4
  11  -3  -4 15144.8 1459.68   1
 -11  -3   4 11780.5 1370.45   4
  11  -3  -3 62137.4 1494.36   6
 -11  -3   3 75725.4 2539.52   3
 -11  -3   3 59276.5 1072.01   1
  11  -3  -3 59689.3 1235.11   4
  11  -3  -3 77020.5 2561.48   1
 -11  -3   3 69795.1 2473.57   4
 -11  -3   2 13637.0 1237.10   4
 -11  -3   2 13532.1 674.842   1
 -11  -3   2 16828.9 1972.86   6
  11  -3  -2 14653.9 732.140   4
  11  -3  -2 14481.0 1273.94   1
 -11  -3   1 2627.06 830.846   4
  11  -3  -1 3717.17 926.609   1
 -11  -3   1 1366.09 831.686   3
 -11  -3   1 3156.80 671.462   1
 -11  -3   1 2419.56 1248.70   6
 -11  -3   0 5807.93 1040.01   3
  11  -3   0 8055.53 954.024   1
 -11  -3   0 8167.18 1010.13   1
 -11  -3  -1 32065.9 1575.54   3
 -11  -3  -1 29960.2 2035.26   6
  11  -3   1 30494.4 1549.69   1
 -11  -3  -1 33189.8 1828.65   1
 -11  -3  -2 11124.3 1156.21   3
 -11  -3  -2 10397.4 1541.72   1
 -11  -3  -2 9620.71 1410.19   6
 -11  -3  -3 7309.94 1005.68   3
 -11  -3  -3 4644.69 1152.00   6
 -11  -3  -3 7132.41 970.644   7
  11  -3   3 3256.03 962.703   1
 -11  -3  -4 51715.5 2047.22   7
 -11  -3  -4 50790.4 1868.74   3
 -11  -3  -4 44139.0 2382.37   6
 -11  -3  -4 54440.6 2305.27   2
  11  -3   4 50453.0 2359.02   2
  11  -3   4 49649.6 2310.01   1
 -11  -3  -5 65467.6 2091.12   3
  11  -3   5 63713.8 2884.18   2
  11  -3   5 60937.1 2713.50   1
 -11  -3  -6 26731.7 1574.41   3
  11  -3   6 14052.2 1785.29   2
 -11  -3  -7 4266.39 1717.11   6
 -11  -3  -7 6562.57 1103.83   3
  11  -3   7 5498.54 1349.13   7
  11  -3   7 7233.88 1819.40   2
 -11  -3  -8 46960.8 3499.97   6
  11  -3   8 41504.8 2483.41   7
  11  -3   8 47531.7 3175.94   2
  11  -3   9 10517.2 1666.63   7
 -11  -3  -9 12236.0 2437.70   6
  11  -3   9 10760.4 2059.10   2
  11  -3  10 13446.4 1910.42   7
 -11  -3 -10 13487.4 2457.59   6
  11  -3  10 13504.5 2391.35   2
  11  -3  11 18831.4 2193.32   7
 -11  -3 -11 14695.8 2718.24   6
  11  -3  11 17883.8 2608.18   2
  11  -3  12 26642.9 2632.19   7
 -11  -3 -12 26684.9 3332.03   6
  11  -3  12 33129.2 2699.34   4
  11  -3  12 21272.7 2889.84   2
 -11  -1  14 10110.6 2755.57   2
  11  -1 -14 10636.6 2550.79   6
  11  -1 -14 15155.0 2056.96   1
 -11  -1  14 11545.5 1981.56   4
 -11  -1  13 16814.1 2927.03   2
  11  -1 -13 26319.8 3273.40   6
  11  -1 -13 25771.8 2271.43   1
 -11  -1  13 23117.4 2193.91   4
  11  -1 -12 12941.4 2534.89   6
  11  -1 -12 14751.7 1898.92   1
 -11  -1  12 13082.3 1820.79   4
 -11  -1  11 76803.4 4552.81   2
  11  -1 -11 84205.7 3509.59   1
 -11  -1  11 75266.6 3231.84   4
 -11  -1  10 40364.3 1287.65   3
  11  -1 -10 44014.8 3423.55   6
  11  -1 -10 47207.9 2641.28   1
 -11  -1  10 35848.0 2356.25   4
 -11  -1  10 39992.4 3370.54   2
  11  -1  -9 40493.0 3346.94   6
  11  -1  -9 42341.7 2399.88   1
 -11  -1   9 31060.6 2989.62   2
 -11  -1   9 35440.9 1250.42   3
 -11  -1   9 30671.5 2273.50   4
 -11  -1   8 68671.7 3798.77   2
 -11  -1   8 70139.1 1654.50   3
  11  -1  -8 76857.0 3896.14   6
  11  -1  -8 71225.9 2911.31   1
 -11  -1   8 64748.6 2702.80   4
 -11  -1   7 44976.5 1343.80   3
 -11  -1   7 39653.6 2852.02   2
  11  -1  -7 43969.7 2210.75   1
  11  -1  -7 50696.6 2991.52   6
 -11  -1   7 35216.4 2087.16   4
  11  -1  -6 82059.7 3822.32   6
 -11  -1   6 76925.1 1813.98   3
 -11  -1   6 66040.9 3317.75   2
  11  -1  -6 67544.1 2656.45   1
  11  -1  -6 75252.7 2587.42   4
 -11  -1   6 68113.3 2813.71   4
 -11  -1   5 99872.3 1955.90   3
  11  -1  -5 95512.6 2786.71   1
  11  -1  -5 97666.6 2464.15   4
 -11  -1   5 92863.6 2800.60   4
  11  -1  -4 151737. 4812.80   2
 -11  -1   4 147207. 4793.90   6
  11  -1  -4 135679. 1336.05   3
  11  -1  -4 156480. 3965.73   6
 -11  -1   4 151485. 2751.56   1
  11  -1  -4 156048. 3332.69   1
  11  -1  -4 147279. 2819.96   4
 -11  -1   4 141983. 2247.71   3
 -11  -1   4 129320. 3171.37   4
  11  -1  -3 157627. 3643.95   6
 -11  -1   3 148753. 4623.72   6
 -11  -1   3 126561. 2202.51   3
 -11  -1   3 131982. 2402.17   1
  11  -1  -3 182126. 2857.79   4
  11  -1  -3 174753. 3443.66   1
 -11  -1   3 148329. 3266.68   4
 -11  -1   2 38416.5 1715.30   4
 -11  -1   2 41433.3 1329.74   1
  11  -1  -2 38580.6 1589.05   1
 -11  -1   2 37406.8 1273.42   3
 -11  -1   2 40170.5 2353.88   6
  11  -1  -2 38179.6 1821.96   6
  11  -1  -2 41917.7 1489.81   4
  11  -1  -1 147578. 2654.79   4
 -11  -1   1 139333. 2858.92   4
  11  -1  -1 152831. 2886.45   1
 -11  -1   1 133319. 2252.42   3
 -11  -1   1 132914. 2405.93   1
 -11  -1   1 143073. 3823.90   6
  11  -1  -1 144347. 3160.50   6
 -11  -1   0 191932. 2754.95   3
  11  -1   0 195996. 3362.16   1
  11  -1   0 194361. 3636.75   6
 -11  -1   0 185992. 3119.46   1
 -11  -1  -1 298962. 3629.37   3
 -11  -1  -1 303956. 4549.18   1
 -11  -1  -2 15245.0 1204.27   3
 -11  -1  -2 15977.5 1625.27   1
 -11  -1  -2 13374.2 1413.27   6
 -11  -1  -3 128622. 3871.45   1
  11  -1   3 129127. 3680.68   1
 -11  -1  -3 134328. 2945.94   3
 -11  -1  -3 120045. 3488.66   6
  11  -1   3 125924. 3378.09   2
  11  -1   4 31600.6 2132.83   2
 -11  -1  -4 30253.8 1956.51   6
  11  -1   4 33435.9 2199.82   1
  11  -1   5 65920.7 2631.00   7
  11  -1   5 62614.3 3052.73   2
  11  -1   6 33819.0 2148.46   7
  11  -1   6 35109.3 2556.94   2
  11  -1   7 35112.6 2820.98   2
  11  -1   7 40773.0 2405.12   7
 -11  -1  -7 32241.8 3008.22   6
 -11  -1  -8 27094.5 3043.20   6
  11  -1   8 30962.5 2861.77   2
  11  -1   9 11181.0 1764.00   7
 -11  -1  -9 9649.28 2335.46   6
  11  -1   9 8972.62 2107.78   2
  11  -1  10 54351.5 3165.22   7
 -11  -1 -10 47601.2 4284.61   6
  11  -1  10 47505.6 3796.62   2
  11  -1  11 7055.01 2149.76   2
 -11  -1 -11 8532.70 2540.28   6
  11  -1  12 1893.47 2077.46   2
 -11  -1 -12 5088.36 2315.44   6
  11  -1  13 12403.0 2660.33   2
 -11  -1 -13 13006.2 3180.29   6
  11   1 -14 13644.7 3004.01   6
 -11   1  14 8643.31 2811.65   2
  11   1 -14 13264.3 1628.99   1
 -11   1  14 15695.0 1918.26   4
 -11   1  13 23534.0 3440.31   2
  11   1 -13 27481.2 3462.01   6
  11   1 -13 27498.7 1986.84   1
 -11   1  13 25327.9 2075.98   4
  11   1 -12 11537.4 2890.30   6
 -11   1  12 7308.89 2679.08   2
  11   1 -12 8642.72 1421.13   1
 -11   1  12 10919.6 1655.51   4
  11   1 -11 89702.5 5251.19   6
  11   1 -11 82221.6 2943.54   1
 -11   1  11 80569.5 3086.64   4
 -11   1  10 36086.6 3602.63   2
  11   1 -10 41208.2 2081.79   1
 -11   1  10 39744.5 2225.62   4
 -11   1   9 36709.1 3519.25   2
  11   1  -9 44395.5 3787.64   6
  11   1  -9 40740.7 1947.27   1
 -11   1   9 37862.1 2168.95   4
  11   1  -8 80128.2 4442.68   6
  11   1  -8 78782.2 2418.34   1
 -11   1   8 72416.5 2551.91   4
  11   1  -7 38829.2 3150.95   6
 -11   1   7 32227.2 2817.43   2
 -11   1   7 32014.1 1683.12   4
  11   1  -7 35954.4 1617.71   1
  11   1  -6 86717.4 3837.84   2
  11   1  -6 86465.1 4581.26   6
  11   1  -6 77665.9 2406.61   1
 -11   1   6 86225.9 2682.10   4
  11   1  -5 103491. 3905.59   2
  11   1  -5 109588. 4437.41   6
 -11   1   5 100924. 3997.90   6
  11   1  -5 104752. 2553.61   5
  11   1  -5 113503. 2471.37   1
  11   1  -4 113919. 2255.19   1
  11   1  -4 114329. 2279.65   3
  11   1  -4 106845. 3685.37   2
  11   1  -4 107149. 4133.93   6
 -11   1   4 99962.5 2773.06   1
 -11   1   4 101968. 3432.07   6
  11   1  -4 104525. 2822.85   4
 -11   1   4 108594. 2525.22   4
 -11   1   3 132087. 2610.23   4
  11   1  -3 134486. 2379.33   1
 -11   1   3 115813. 3561.62   6
  11   1  -3 104434. 3423.69   2
  11   1  -3 117641. 3897.68   6
 -11   1   3 110915. 2798.12   1
  11   1  -3 112689. 2362.42   3
  11   1  -3 119603. 2881.15   4
 -11   1   2 25714.9 1596.71   6
  11   1  -2 29222.6 2054.40   6
  11   1  -2 34545.5 1375.34   1
  11   1  -2 34395.2 1384.62   3
 -11   1   2 27476.1 1420.06   1
  11   1  -2 31845.5 1608.84   4
  11   1  -1 127242. 2549.91   1
  11   1  -1 127259. 2355.41   3
  11   1  -1 135193. 3719.59   6
 -11   1   1 129559. 2776.01   1
  11   1  -1 125208. 2747.61   4
  11   1   0 185474. 3271.19   4
 -11   1   0 183723. 3145.60   1
  11   1   0 167159. 2757.58   3
  11   1   0 185837. 3550.11   1
  11   1   0 186110. 4089.65   6
 -11   1   0 166793. 3577.77   6
  11   1   1 323944. 5441.32   1
  11   1   1 339542. 3880.60   3
 -11   1  -1 321752. 4268.10   1
  11   1   1 328097. 5123.85   6
 -11   1  -1 318209. 4909.77   6
  11   1   2 22766.7 1349.83   7
  11   1   2 18134.8 1190.53   3
  11   1   2 20494.6 1599.25   2
 -11   1  -2 14742.1 1358.62   6
  11   1   2 20384.6 1560.30   6
 -11   1  -2 16071.7 1480.00   1
  11   1   3 125934. 3045.66   7
  11   1   3 126311. 3650.72   2
  11   1   4 39145.0 2029.09   7
  11   1   4 38724.6 1596.65   3
  11   1   4 40659.2 2481.54   2
 -11   1  -4 35118.7 2048.48   1
  11   1   5 59425.5 2658.73   7
 -11   1  -5 55875.0 3728.93   6
  11   1   5 59066.2 3183.56   2
  11   1   6 32922.6 2295.65   7
 -11   1  -6 25862.4 2977.93   6
  11   1   6 25387.9 2624.61   2
 -11   1  -7 27014.5 3137.25   6
  11   1   7 31278.5 2921.86   2
 -11   1  -8 40613.1 3754.56   6
  11   1   8 40354.9 3395.73   2
  11   1   9 7612.85 2220.51   2
 -11   1  -9 12128.9 2837.42   6
 -11   1 -10 53971.9 4623.60   6
  11   1  10 58534.5 4416.68   2
  11   1  11 1364.78 1969.55   2
 -11   1 -11 364.841 2358.14   6
  11   1  12 909.024 2038.18   2
 -11   1 -12 429.515 2523.64   6
  11   1  13 19136.2 3276.33   2
 -11   1 -13 15882.1 3414.70   6
  11   3 -13 33188.4 3910.40   6
 -11   3  13 21160.2 3620.36   2
  11   3 -12 950.101 2402.26   6
 -11   3  12 4726.53 1238.65   4
  11   3 -11 13873.5 3073.02   6
 -11   3  11 11922.8 1318.46   4
  11   3 -10 40386.0 3748.33   6
  11   3 -10 49909.2 1657.35   1
 -11   3  10 41816.4 1896.26   4
  11   3  -9 46633.1 3869.32   6
  11   3  -9 52982.4 1582.31   1
 -11   3   9 43534.0 1875.46   4
  11   3  -8 23829.3 2948.24   6
 -11   3   8 25389.4 1475.87   4
  11   3  -8 29319.8 1099.31   1
 -11   3   7-148.836 711.910   4
  11   3  -7 2672.41 570.225   1
  11   3  -7 3301.46 1844.11   6
 -11   3   7-202.050 1085.51   6
  11   3  -7 4442.41 1377.36   2
  11   3  -6 116179. 1661.86   1
 -11   3   6 116540. 3426.00   6
  11   3  -6 134245. 5400.54   6
  11   3  -6 135587. 3919.57   2
 -11   3   6 125009. 2297.38   4
 -11   3   5 32813.6 1747.48   6
  11   3  -5 36478.0 2884.66   6
  11   3  -5 38604.0 1969.25   2
  11   3  -4 8536.73 604.334   1
 -11   3   4 11312.4 1012.31   6
  11   3  -3 65592.3 1901.99   2
 -11   3   3 64957.0 1886.12   6
 -11   3   2 12043.3 887.060   6
  11   3  -2 13091.7 848.706   2
  11   3  -2 16565.9 1316.93   4
  11   3  -2 15382.9 1691.26   6
 -11   3   1 1221.56 618.865   6
  11   3  -1 1430.93 1035.71   6
  11   3  -1 1020.80 383.020   2
 -11   3   1 733.354 709.096   1
  11   3  -1 1286.27 783.639   4
 -11   3   0 8592.07 932.216   6
  11   3   0 8867.82 1290.65   6
  11   3   0 7807.67 792.869   2
 -11   3   0 6993.78 961.115   1
  11   3   0 9133.54 1081.78   4
 -11   3  -1 34041.0 2273.61   6
 -11   3  -1 31560.6 1676.81   6
  11   3   1 32802.3 1877.36   6
  11   3   1 36096.2 1681.79   2
 -11   3  -1 30246.6 1501.13   1
  11   3   1 29719.6 1548.61   4
  11   3   2 18664.5 1362.83   4
 -11   3  -2 15232.6 1287.06   1
 -11   3  -2 21526.2 2585.76   6
  11   3   2 17857.7 1430.81   6
  11   3   2 21131.9 1751.95   2
  11   3   3 5422.83 1342.07   2
 -11   3  -3 4454.01 889.760   1
 -11   3  -3 4907.71 1699.39   6
 -11   3  -4 69471.2 3959.57   6
  11   3   4 70565.3 3260.50   2
  11   3   5 69861.0 3661.29   2
 -11   3  -5 71093.3 4369.11   6
  11   3   6 26937.8 2691.18   2
 -11   3  -6 12536.6 2876.14   6
  11   3   7 5997.27 1926.52   2
 -11   3  -7 6799.65 2171.51   6
 -11   3  -8 41921.9 3914.82   6
  11   3   8 48735.4 3707.98   2
  11   3   9 12205.6 2640.75   2
 -11   3  -9 9447.18 2978.59   6
  11   3  10 14365.2 2701.20   2
 -11   3 -10 11376.4 3154.66   6
  11   3  11 22397.8 3198.79   2
 -11   3 -11 28976.6 4066.25   6
  11   3  12 37070.5 4009.25   2
 -11   3 -12 29130.8 4147.46   6
  11   5 -11 31715.6 3636.16   6
  11   5 -10 10854.8 2631.82   6
  11   5  -9 6696.78 2336.85   6
  11   5  -8 76520.1 4674.24   6
  11   5  -7 12409.0 2454.98   6
  11   5  -6 26037.5 2875.97   6
  11   5  -5 5035.58 1676.13   6
  11   5  -4 47944.7 3074.30   6
  11   5  -3 9562.47 1656.49   6
  11   5  -2 8395.46 1464.98   6
 -11   5   1 2703.00 363.870   6
 -11   5   1 9707.56 477.887   6
 -11   5   0 8404.32 1085.79   6
  11   5   0 8997.11 1308.41   6
 -11   5   0 8983.26 866.533   6
  11   5   1 6742.87 1096.27   6
 -11   5  -1 5197.35 949.423   6
 -11   5  -1 4146.36 1217.55   6
  11   5   2 13543.3 1128.61   2
  11   5   2 10428.4 1222.34   6
 -11   5  -3 50524.2 3179.12   6
  11   5   3 54209.5 2468.34   2
  11   5   4 13056.0 1757.55   2
 -11   5  -4 12084.4 2185.24   6
  11   5   5 17969.9 2144.62   2
 -11   5  -5 23023.5 2804.06   6
  11   5   6 31648.2 2814.15   2
 -11   5  -6 34082.7 3377.61   6
  11   5   7 28145.6 2870.67   2
 -11   5  -7 31697.5 3569.89   6
  11   5   8 16033.7 2658.00   2
 -11   5  -8 22043.2 3303.92   6
  11   5   9-822.192 1944.08   2
 -11   5  -9 3522.03 2427.13   6
  11   5  10 33175.7 3600.46   2
 -11   5 -10 23948.0 3818.80   6
 -12  -6   9 9558.79 1616.19   3
  12  -6  -9 10205.2 1824.76   1
 -12  -6   9 9681.32 1779.34   4
 -12  -6   8 8497.00 1635.81   4
 -12  -6   8 5406.38 1546.55   3
  12  -6  -8 10525.9 1693.08   1
 -12  -6   7 1701.37 1266.70   4
  12  -6  -7 2204.12 1292.24   1
 -12  -6   7 4144.67 1363.79   3
  12  -6  -6 14520.1 1359.27   3
 -12  -6   6 13831.0 1726.79   3
  12  -6  -6 15127.1 1718.54   1
 -12  -6   6 14050.2 1682.95   4
 -12  -6   5 4979.17 1242.98   4
  12  -6  -5 3113.65 1306.53   1
  12  -6  -5 3389.72 1070.77   3
 -12  -6   5 1569.60 1244.81   3
 -12  -6   4 2194.99 1165.15   4
  12  -6  -4 5507.08 1260.25   1
 -12  -6   4 5415.51 1493.66   3
  12  -6  -4 4830.36 1256.35   3
  12  -6  -3 37344.3 2036.37   1
  12  -6  -3 39545.7 2335.37   3
 -12  -6   3 39630.6 2476.04   3
  12  -6  -2 36978.1 2491.51   3
  12  -6  -2 31527.1 1840.14   1
 -12  -6   2 37980.3 2357.28   3
  12  -6  -2 40771.3 2260.25   5
  12  -6  -1 6324.38 1405.57   3
  12  -6  -1 7216.48 1148.25   1
  12  -6  -1 6789.12 1331.35   5
 -12  -6   1 3506.28 1339.60   3
  12  -6   0 7412.01 1114.65   1
 -12  -6   0 8415.53 1413.25   3
  12  -6   0 7740.51 1472.02   5
 -12  -6  -1 29483.2 2008.25   3
  12  -6   1 27860.1 1702.20   1
 -12  -6  -2 4551.19 1140.28   3
  12  -6   2 7174.08 1079.24   1
 -12  -6  -3 12816.9 1389.30   3
 -12  -6  -4 8632.59 1263.19   3
 -12  -6  -5 14014.9 1370.22   3
  12  -6   5 22831.8 1851.93   4
 -12  -6  -6 761.837 959.419   3
  12  -6   6 4351.80 1340.73   4
 -12  -6  -7 973.994 982.947   3
  12  -6   7-972.052 1244.69   7
 -12  -6  -8 7348.07 1161.10   3
  12  -6   8 9069.50 1562.84   7
  12  -4 -12 4480.04 1678.83   1
 -12  -4  12 2455.83 1556.10   4
 -12  -4  11 22744.8 1799.40   3
  12  -4 -11 19232.1 2104.78   1
 -12  -4  11 15681.7 1986.05   4
 -12  -4  10 15267.9 1625.04   3
  12  -4 -10 16115.9 1882.50   1
 -12  -4  10 12188.3 1803.15   4
 -12  -4   9 14610.7 1565.87   3
  12  -4  -9 11959.9 1724.55   1
 -12  -4   9 10344.8 1701.80   4
 -12  -4   8 41056.0 2245.26   3
  12  -4  -8 40730.7 2466.51   1
 -12  -4   8 35980.3 2286.18   4
 -12  -4   7 23769.7 1862.86   3
  12  -4  -7 22306.2 1078.97   3
  12  -4  -7 21516.7 1924.77   1
 -12  -4   7 19734.2 1832.83   4
  12  -4  -6 26546.8 1335.59   3
 -12  -4   6 23630.4 1821.70   3
  12  -4  -6 16526.8 702.540   6
  12  -4  -6 27849.8 2008.33   1
 -12  -4   6 18845.3 1844.24   4
  12  -4  -5 14962.4 1193.60   3
 -12  -4   5 14909.6 1573.29   3
  12  -4  -5 15803.9 1570.54   1
 -12  -4   5 11307.0 1473.53   4
  12  -4  -4 27532.3 1605.31   3
 -12  -4   4 24535.2 1816.79   3
  12  -4  -4 26684.7 1314.80   5
  12  -4  -4 25780.5 1834.94   1
 -12  -4   3 10821.1 1428.27   3
  12  -4  -3 14877.9 1437.65   1
 -12  -4   3 13406.1 1384.74   4
 -12  -4   2 54816.6 2175.17   4
  12  -4  -2 58794.2 2222.51   1
 -12  -4   1 22071.8 1117.71   1
 -12  -4   1 25658.2 1706.48   3
 -12  -4   0 26924.7 1687.87   3
  12  -4   0 24588.1 1450.90   1
 -12  -4   0 25520.5 1496.96   1
 -12  -4  -1 44973.4 2695.27   6
 -12  -4  -1 44951.6 2006.45   3
  12  -4   1 48136.5 1982.79   1
 -12  -4  -1 45691.7 2204.12   1
 -12  -4  -2 23398.8 1569.05   3
 -12  -4  -2 21414.4 1913.70   6
  12  -4   2 26925.8 1592.70   1
 -12  -4  -3 48912.3 2020.74   3
  12  -4   3 51219.5 2078.56   1
 -12  -4  -4 21074.3 1391.02   7
 -12  -4  -4 19248.9 1422.55   3
  12  -4   4 20467.1 1646.95   2
  12  -4   4 20746.2 1588.16   1
 -12  -4  -5 20339.2 1420.98   3
  12  -4   5 22820.8 1810.71   1
  12  -4   5 25316.7 1930.28   2
 -12  -4  -6 40079.7 1838.07   3
  12  -4   6 38959.0 2512.37   2
 -12  -4  -7 10627.2 1217.89   3
  12  -4   7 9276.71 1780.71   2
  12  -4   8 22548.3 1915.22   7
 -12  -4  -8 17564.2 1450.68   3
 -12  -4  -8 17916.5 2367.03   6
  12  -4   8 19612.1 2191.96   2
 -12  -4  -9 4886.06 2045.02   6
 -12  -4  -9 3107.01 1087.93   3
  12  -4   9 1209.96 1249.46   7
  12  -4   9 1680.83 1690.09   2
  12  -4  10 8192.78 2043.63   2
 -12  -4 -10 5391.16 2092.53   6
  12  -4  10 7481.37 1669.94   7
  12  -4  11 4957.38 1935.34   2
  12  -4  11 5393.79 1673.87   7
  12  -4  11 6330.14 1682.01   4
 -12  -2  14 14501.2 2770.98   2
  12  -2 -14 18652.6 2851.13   6
  12  -2 -14 19217.8 2179.73   1
 -12  -2  14 16568.7 2123.67   4
  12  -2 -13 12813.2 2399.85   6
 -12  -2  13 11658.9 2627.13   2
  12  -2 -13 9976.08 1926.73   1
 -12  -2  13 10095.0 1818.96   4
 -12  -2  12 2045.28 2013.50   2
  12  -2 -12 1975.13 1977.55   6
  12  -2 -12 2690.65 1457.58   1
 -12  -2  12 1534.52 1446.84   4
 -12  -2  11 58318.4 1918.55   3
 -12  -2  11 50598.1 3814.14   2
  12  -2 -11 56923.2 3645.33   6
  12  -2 -11 53501.3 2954.97   1
 -12  -2  11 45807.2 2781.56   4
 -12  -2  10 44597.5 1761.14   3
 -12  -2  10 41992.6 3283.05   2
  12  -2 -10 50378.8 3355.85   6
  12  -2 -10 50785.3 2773.32   1
 -12  -2  10 39023.1 2484.19   4
 -12  -2   9 40367.4 1739.28   3
 -12  -2   9 35295.9 2919.70   2
  12  -2  -9 44554.4 3080.58   6
  12  -2  -9 40478.7 2502.89   1
 -12  -2   9 37828.0 2399.44   4
 -12  -2   8 42371.6 3009.88   2
  12  -2  -8 42184.3 2774.77   6
 -12  -2   8 44329.4 1779.69   3
  12  -2  -8 43279.4 2425.06   1
 -12  -2   8 44378.2 2418.15   4
 -12  -2   7 28822.9 1449.62   3
  12  -2  -7 30235.2 2211.07   6
  12  -2  -7 30238.4 1983.66   1
 -12  -2   7 29958.7 2396.38   2
 -12  -2   7 29972.2 2028.11   4
  12  -2  -6 41021.3 2464.02   6
  12  -2  -6 31202.4 572.022   3
  12  -2  -6 37526.2 2072.39   1
 -12  -2   6 36706.5 1624.67   3
  12  -2  -6 43741.2 1692.74   4
 -12  -2   6 36403.1 2089.89   4
 -12  -2   5 97649.9 2480.95   3
  12  -2  -5 94920.8 3007.10   6
  12  -2  -5 93679.8 3012.40   1
  12  -2  -5 87540.8 2116.59   4
 -12  -2   4 80898.4 2281.82   3
  12  -2  -4 86282.5 2626.73   6
 -12  -2   4 71677.2 1694.50   1
  12  -2  -4 82811.7 2657.91   1
  12  -2  -4 81162.5 1922.77   4
 -12  -2   4 75555.0 2659.31   4
 -12  -2   3 14274.4 1130.79   3
 -12  -2   3 15486.5 2015.13   6
  12  -2  -3 17987.4 1330.90   6
 -12  -2   3 13687.0 808.396   1
  12  -2  -3 18906.1 980.249   4
  12  -2  -3 20747.7 1500.42   1
 -12  -2   3 13129.6 1367.00   4
  12  -2  -2 69443.6 2214.41   1
 -12  -2   2 67182.6 1581.65   1
 -12  -2   2 66335.5 1996.90   3
 -12  -2   2 72343.5 3311.67   6
  12  -2  -2 67572.5 2033.53   6
  12  -2  -2 66409.9 1684.11   4
 -12  -2   1 187482. 3514.73   4
 -12  -2   1 194809. 3307.73   3
 -12  -2   1 186392. 4902.75   6
 -12  -2   1 195623. 3092.92   1
  12  -2  -1 200902. 3480.56   6
 -12  -2   0 129371. 2827.51   1
  12  -2   0 134269. 2957.42   1
 -12  -2   0 122620. 2610.95   3
 -12  -2   0 128819. 3871.82   6
 -12  -2  -1 21211.6 1279.21   3
 -12  -2  -1 16399.1 1649.98   6
 -12  -2  -1 16737.6 1471.54   1
  12  -2   1 20639.4 1450.58   1
  12  -2   2 25258.5 1646.92   1
 -12  -2  -2 26266.9 1343.27   3
 -12  -2  -2 21871.7 1745.86   6
 -12  -2  -2 21575.1 1852.79   1
 -12  -2  -3 169210. 3103.09   3
  12  -2   3 167084. 3878.41   1
 -12  -2  -3 160277. 4217.93   6
  12  -2   4 75050.4 2893.75   1
  12  -2   4 79960.0 3061.37   2
  12  -2   5 40708.1 2581.46   1
 -12  -2  -5 45157.1 1882.89   3
  12  -2   5 43604.2 2552.55   2
  12  -2   6 26343.7 1937.05   7
 -12  -2  -6 33599.9 1756.18   3
  12  -2   6 29659.0 2276.58   2
  12  -2   7 26721.7 2047.94   7
  12  -2   7 30972.9 2727.39   2
  12  -2   8 2851.28 1324.32   7
 -12  -2  -8 2571.24 1841.49   6
  12  -2   8 2354.26 1592.70   2
  12  -2   9 7514.99 1657.43   7
 -12  -2  -9 5922.01 1969.37   6
  12  -2   9 7097.56 2015.94   2
  12  -2  10 62337.7 3382.51   7
  12  -2  10 61208.0 4131.24   2
 -12  -2 -10 52004.1 4176.71   6
  12  -2  11 5049.82 2042.91   2
 -12  -2 -11 4652.61 2345.72   6
  12  -2  11 3811.93 1596.08   7
  12  -2  12 4962.63 2139.16   2
 -12  -2 -12 7368.42 2620.74   6
  12  -2  13 4810.69 2195.83   2
 -12  -2 -13 3161.00 2568.08   6
 -12   0  14 9201.23 2823.69   2
  12   0 -14 5664.69 2441.03   6
  12   0 -14 8004.19 1617.14   1
 -12   0  14 6252.77 1750.54   4
 -12   0  13 23400.9 3267.07   2
  12   0 -13 28776.5 2125.46   1
 -12   0  13 24056.2 2138.28   4
  12   0 -12 5079.26 2097.45   6
 -12   0  12 1040.03 2173.98   2
  12   0 -12 2638.01 1219.62   1
 -12   0  12 1672.05 1283.52   4
  12   0 -11 6461.95 2317.23   6
  12   0 -11 6327.83 1418.19   1
 -12   0  11 5970.34 1409.06   4
 -12   0  10 2443.74 1950.06   2
  12   0 -10 1806.15 1755.36   6
  12   0 -10 4334.37 1228.47   1
 -12   0  10 4083.42 1334.54   4
 -12   0   9 41143.6 3704.44   2
  12   0  -9 40591.9 3319.26   6
  12   0  -9 49080.1 2420.85   1
 -12   0   9 39074.3 2445.35   4
 -12   0   8 27436.8 2773.28   2
  12   0  -8 31083.7 1802.58   1
 -12   0   8 33470.4 1960.68   4
  12   0  -7 40596.7 3020.72   6
  12   0  -7 40707.7 1870.18   1
 -12   0   7 37372.2 2956.31   2
 -12   0   7 35972.3 1959.03   4
  12   0  -6 151288. 5032.97   6
  12   0  -6 144459. 3268.48   1
 -12   0   5 11207.7 1729.07   6
 -12   0   5 8573.28 489.621   3
  12   0  -5 13081.3 1815.39   6
  12   0  -5 11511.0 1925.73   2
  12   0  -5 9990.71 1141.50   1
  12   0  -5 11112.9 1206.86   4
 -12   0   5 11974.1 1336.79   4
  12   0  -4 6520.59 551.151   3
 -12   0   4 4827.36 979.226   4
 -12   0   4 5491.71 534.133   3
  12   0  -4 6400.95 1461.58   2
 -12   0   4 6425.30 1445.91   6
  12   0  -4 4646.27 1258.00   6
 -12   0   4 6131.73 901.760   1
  12   0  -4 6075.69 890.736   4
  12   0  -4 4680.94 889.486   1
 -12   0   3 38472.2 1733.33   4
  12   0  -3 40520.7 1647.29   1
  12   0  -3 23585.3 1027.30   3
 -12   0   3 30863.0 2370.58   6
  12   0  -3 31526.4 2239.11   6
 -12   0   3 25585.1 1088.53   3
 -12   0   3 33407.1 1473.54   1
  12   0  -3 39432.3 1700.51   4
 -12   0   2 53815.1 2030.39   4
  12   0  -2 55148.1 1781.00   1
  12   0  -2 47513.2 1201.51   3
 -12   0   2 48266.1 2393.28   6
  12   0  -2 58356.5 2536.52   6
 -12   0   2 55028.2 1837.06   1
  12   0  -2 59912.2 2005.15   4
  12   0  -1 8750.08 960.583   4
 -12   0   1 7802.30 912.801   1
 -12   0   1 7221.17 1204.59   6
  12   0  -1 8103.12 1230.38   6
  12   0  -1 7734.47 987.497   1
  12   0  -1 6536.55 663.775   3
  12   0   0 31738.4 1236.44   3
 -12   0   0 32285.1 1951.19   6
  12   0   0 33905.5 1822.16   6
 -12   0   0 35836.6 1559.94   1
  12   0   0 34215.0 1604.48   1
  12   0   1 39547.2 1941.33   1
  12   0   1 34002.5 1334.92   3
 -12   0  -1 35016.7 1947.77   6
  12   0   1 36804.2 1904.86   6
 -12   0  -1 35054.0 1716.51   1
 -12   0  -2 16278.8 1609.13   1
  12   0   2 20774.3 1464.51   3
 -12   0  -2 16327.9 1564.02   6
  12   0   3 3367.95 906.800   3
 -12   0  -3 5195.02 1282.05   6
  12   0   3 4332.27 1111.56   2
  12   0   3 7453.43 1610.12   1
 -12   0  -3 4080.61 1141.07   1
  12   0   4 123310. 3286.72   7
  12   0   4 123139. 3868.96   2
  12   0   5 104384. 3223.43   7
  12   0   5 90206.5 3699.20   2
  12   0   6 1948.92 1137.47   7
  12   0   6 2158.58 1502.40   2
  12   0   7 922.685 1219.03   7
 -12   0  -7-1951.96 1765.89   6
  12   0   7 473.694 1440.12   2
  12   0   8 51469.4 2988.36   7
 -12   0  -8 42271.6 3667.73   6
  12   0   8 50257.3 3605.98   2
  12   0   9 31370.4 2532.45   7
 -12   0  -9 25905.6 3342.51   6
  12   0   9 30874.0 3304.34   2
 -12   0 -10 13202.2 2856.29   6
  12   0  10 16359.7 2603.17   2
 -12   0 -11 24713.0 3559.25   6
  12   0  11 22951.3 3145.11   2
 -12   0 -12 7839.68 2753.36   6
  12   0  12 13951.4 2798.47   2
  12   0  13 3699.87 2337.89   2
 -12   0 -13 2269.21 2720.12   6
 -12   2  14 13224.2 3115.18   2
  12   2 -14 13293.1 2956.82   6
 -12   2  14 15557.8 1850.02   4
  12   2 -13 12778.7 2870.00   6
 -12   2  13 7331.69 2802.02   2
 -12   2  13 9869.05 1609.00   4
  12   2 -12 5227.08 2496.22   6
 -12   2  12 1060.93 2271.42   2
  12   2 -12 4036.55 1025.01   1
 -12   2  12 3804.26 1358.41   4
  12   2 -11 58336.6 4435.43   6
  12   2 -11 61358.8 2210.66   1
 -12   2  11 63445.3 2609.91   4
  12   2 -10 47808.6 3952.96   6
  12   2 -10 53928.9 1998.07   1
 -12   2  10 52769.8 2316.79   4
 -12   2  10 45138.6 3894.72   2
  12   2  -9 39148.6 3507.45   6
 -12   2   9 34303.2 3401.31   2
  12   2  -9 42917.7 1761.99   1
 -12   2   9 41824.2 2037.84   4
  12   2  -8 68617.0 4229.08   6
  12   2  -8 69946.0 2020.36   1
  12   2  -7 30961.2 1784.44   7
  12   2  -7 37435.9 3180.67   6
 -12   2   7 31332.5 2484.89   6
  12   2  -7 38100.7 1477.66   1
 -12   2   7 35835.0 1740.63   4
  12   2  -6 23591.8 2070.65   2
  12   2  -6 28643.3 1294.71   1
  12   2  -6 30645.0 1697.03   7
  12   2  -6 26985.5 2645.85   6
 -12   2   6 25152.0 2254.32   6
 -12   2   6 26293.0 1585.66   4
 -12   2   5 88700.4 3244.83   6
  12   2  -5 88089.6 3335.61   2
  12   2  -5 89530.2 2378.42   7
  12   2  -5 97425.0 1975.65   1
 -12   2   5 85938.0 2174.12   4
 -12   2   4 81629.6 1970.23   4
  12   2  -4 88753.5 2513.38   3
  12   2  -4 91506.6 1891.94   1
  12   2  -4 89443.0 3949.85   6
  12   2  -4 86973.9 3057.13   2
  12   2  -3 10231.6 1123.06   3
  12   2  -3 9125.97 1257.89   2
 -12   2   3 8449.58 1200.65   6
  12   2  -3 9390.33 1513.95   6
  12   2  -3 9535.12 844.445   1
  12   2  -3 11883.8 1244.93   4
 -12   2   2 64744.2 2197.53   6
  12   2  -2 69294.3 1940.07   1
  12   2  -2 70750.4 3062.75   6
 -12   2   2 68136.8 2252.04   1
  12   2  -2 67063.0 2209.37   4
  12   2  -1 206449. 3792.42   1
  12   2  -1 231733. 4008.54   3
  12   2  -1 218560. 4997.93   6
 -12   2   1 212202. 3746.23   1
  12   2  -1 231562. 4059.73   4
  12   2   0 142919. 3100.82   4
  12   2   0 130273. 3520.01   1
  12   2   0 124196. 1839.60   7
  12   2   0 137034. 3237.92   3
  12   2   0 138034. 3806.96   6
 -12   2   0 122286. 3073.42   6
 -12   2   0 135623. 3032.49   1
  12   2   1 26390.8 1509.39   4
  12   2   1 28025.9 1256.83   7
 -12   2  -1 24609.2 1406.11   1
  12   2   1 27107.3 1544.68   3
  12   2   1 26906.4 1779.21   6
  12   2   1 29126.3 1543.20   2
 -12   2  -1 28118.8 1622.57   6
  12   2   2 27150.9 1477.46   7
  12   2   2 25898.9 1746.62   6
  12   2   2 25248.9 1713.02   2
 -12   2  -2 22581.9 1623.02   6
  12   2   3 193738. 3910.01   7
  12   2   3 200308. 4702.77   2
 -12   2  -4 80756.1 4107.51   6
  12   2   4 87158.7 3575.29   2
 -12   2  -5 49284.5 3662.07   6
  12   2   5 53752.4 3228.28   2
 -12   2  -6 22097.2 2906.09   6
  12   2   6 26077.2 2631.61   2
 -12   2  -7 41265.9 3743.28   6
  12   2   7 46780.4 3440.82   2
  12   2   8 4637.46 1991.81   2
 -12   2  -8 1501.45 2126.98   6
  12   2   9 3697.94 2004.02   2
 -12   2  -9 7266.68 2632.42   6
 -12   2 -10 50467.5 4477.22   6
  12   2  10 50518.5 4039.61   2
  12   2  11 4798.37 2290.64   2
 -12   2 -11 5554.62 2849.97   6
  12   2  12 9975.23 2629.43   2
 -12   2 -12 2864.70 2746.38   6
 -12   2 -13 10537.5 3267.08   6
  12   2  13 10781.7 2902.80   2
  12   4 -12 4580.52 2436.55   6
  12   4 -11 24204.0 3344.43   6
  12   4 -10 14296.5 2935.06   6
  12   4  -9 18542.8 2867.49   6
  12   4  -8 48487.9 3768.10   6
  12   4  -7 21698.8 2935.56   6
  12   4  -6 18559.4 2526.67   6
  12   4  -6 26477.0 1498.73   2
  12   4  -5 10144.2 1867.62   6
  12   4  -5 10339.9 861.082   2
  12   4  -4 17520.5 2032.97   6
  12   4  -4 9977.20 517.922   2
  12   4  -3 12508.4 1822.40   6
 -12   4   2 30592.8 1250.57   6
 -12   4   2 27067.6 1080.04   6
 -12   4   1 15385.0 1303.78   6
 -12   4   1 13383.7 1008.15   6
  12   4  -1 16954.2 1823.57   6
 -12   4   0 30088.9 1939.98   6
  12   4   0 30026.2 1968.22   6
 -12   4   0 27111.6 1407.11   6
 -12   4  -1 53886.8 2836.14   6
  12   4   1 51347.7 2323.90   6
 -12   4  -1 55647.3 2108.34   6
  12   4   1 54603.5 1897.66   2
 -12   4  -2 28458.3 2531.42   6
  12   4   2 24339.3 1637.80   6
 -12   4  -2 24445.4 1671.09   6
  12   4   2 28145.8 1770.48   2
 -12   4  -3 53885.7 3389.47   6
  12   4   3 59610.7 2779.04   2
 -12   4  -4 23080.1 2693.59   6
  12   4   4 28075.2 2287.23   2
 -12   4  -5 23080.1 2788.74   6
  12   4   5 26125.7 2478.81   2
  12   4   6 44755.9 3212.49   2
 -12   4  -6 47446.3 4011.84   6
  12   4   7 16312.4 2522.87   2
 -12   4  -7 14264.6 2986.44   6
  12   4   8 20602.3 2753.16   2
 -12   4  -8 25964.5 3487.55   6
 -12   4  -9 1407.18 2200.95   6
  12   4   9 2516.01 2145.75   2
  12   4  10 13844.1 2835.90   2
 -12   4 -10 4751.28 2681.15   6
 -12   4 -11 6960.38 2818.82   6
  12   4  11 5565.38 2502.06   2
  12   6  -9 11600.2 2530.27   6
  12   6  -8 10003.2 2335.45   6
  12   6  -7 2388.76 1808.21   6
  12   6  -6 15149.1 2335.58   6
  12   6  -5 3619.12 1621.92   6
  12   6  -4 6947.98 1640.86   6
  12   6  -3 29107.1 2291.92   6
  12   6  -2 31018.3 2306.65   6
  12   6  -1 5155.21 1351.18   6
  12   6   0 6496.86 1215.96   6
  12   6   1 26186.1 1651.55   6
 -12   6  -4 14662.4 2210.37   6
 -12   6  -5 19679.7 2529.40   6
 -12   6  -6 2571.45 2032.18   6
 -12   6  -7 1214.74 2026.60   6
 -12   6  -8 14884.5 2989.74   6
 -13  -7   6 9124.27 1689.67   3
  13  -7  -6 10131.9 1702.70   1
  13  -7  -5 3216.83 1138.59   3
 -13  -7   5 2134.50 1371.66   3
  13  -7  -5 3028.20 1277.61   1
  13  -7  -4 27751.3 1970.38   1
  13  -7  -4 30343.7 2174.50   3
 -13  -7   4 28270.7 2342.97   3
  13  -7  -3 7228.01 1590.76   3
 -13  -7   3 8550.63 1606.91   3
  13  -7  -3 5148.07 1190.29   1
  13  -7  -2 8560.96 1622.66   3
 -13  -7   2 6431.29 1450.79   3
  13  -7  -1 15026.5 1878.53   3
 -13  -7   1 11217.0 1567.47   3
 -13  -7   0 6903.79 1369.26   3
  13  -7   0 10354.3 1653.69   5
  13  -7   1 16254.9 2080.45   3
 -13  -7  -1 13326.9 1564.20   3
 -13  -7  -2 2997.42 1230.60   3
  13  -7   2 5615.63 1559.87   5
 -13  -7  -3 6061.94 1251.05   3
  13  -7   3 12353.2 1888.14   5
 -13  -7  -4 4135.12 1197.84   3
  13  -7   4 5114.25 1655.83   5
 -13  -5  11 19679.2 1843.71   3
  13  -5 -11 18933.0 2221.53   1
 -13  -5  11 20837.8 2198.27   4
 -13  -5  10 7000.25 1484.53   3
  13  -5 -10 4045.41 1533.45   1
 -13  -5  10 6400.96 1606.89   4
 -13  -5   9 5277.29 1405.38   3
  13  -5  -9 7412.71 1682.77   1
 -13  -5   9 9339.47 1824.38   4
 -13  -5   8 47113.8 2533.10   3
 -13  -5   8 44829.5 2682.72   4
  13  -5  -7 39046.9 2487.13   1
 -13  -5   7 37966.4 2303.83   3
 -13  -5   7 31841.5 2221.59   4
  13  -5  -6 19042.4 1353.75   3
 -13  -5   6 17171.0 1765.12   3
  13  -5  -6 21655.6 1867.88   1
 -13  -5   5 6294.95 1322.96   4
  13  -5  -5 4384.96 1165.28   1
 -13  -5   5 7046.02 1473.83   3
  13  -5  -5 7173.95 1157.82   3
  13  -5  -4 45367.6 2217.43   3
 -13  -5   4 44408.4 2469.58   3
  13  -5  -4 47657.9 2457.47   1
 -13  -5   3 18871.8 1594.61   4
  13  -5  -3 20205.7 1685.25   1
  13  -5  -3 14215.0 1491.27   3
 -13  -5   3 15426.5 1655.52   3
  13  -5  -3 22910.4 1523.33   5
 -13  -5   2 14162.3 1370.67   4
  13  -5  -2 15260.6 1404.40   1
 -13  -5   2 16242.1 1663.70   3
 -13  -5   1 29329.5 1930.93   3
  13  -5  -1 36738.7 1847.17   1
  13  -5   0 19384.7 1447.73   1
 -13  -5   0 21229.0 1718.15   3
  13  -5   1 1075.29 958.710   1
 -13  -5  -1 3588.36 1122.10   3
 -13  -5  -2 10107.5 1242.48   3
  13  -5   2 11344.0 1250.70   1
  13  -5   3 44121.8 1995.81   1
 -13  -5  -3 51501.6 2180.69   3
  13  -5   3 47327.7 2229.18   2
  13  -5   4 552.561 1054.35   1
  13  -5   4 3445.25 1147.01   2
 -13  -5  -4 2393.94 971.153   3
 -13  -5  -5 2564.80 934.683   3
  13  -5   5 2865.12 1177.65   1
  13  -5   5 2518.29 1224.59   2
 -13  -5  -6 29981.9 1741.82   3
  13  -5   6 28813.9 2289.77   2
  13  -5   7 15477.6 1712.92   7
 -13  -5  -7 14483.7 1356.34   3
  13  -5   7 14971.5 1919.31   2
  13  -5   7 20597.5 1996.60   4
  13  -5   8 5959.87 1418.02   7
 -13  -5  -8 8256.65 1247.46   3
  13  -5   8 11161.6 1717.34   4
  13  -5   8 7074.31 1774.07   2
 -13  -5  -9 2932.89 1099.58   3
  13  -5   9 807.222 1285.56   7
  13  -5   9-891.953 1327.56   4
  13  -5   9 1591.92 1641.26   2
  13  -5  10 10895.6 2228.10   2
  13  -5  10 11899.9 1833.67   7
  13  -5  10 12711.1 1995.71   4
 -13  -3  13 16162.4 2623.38   2
  13  -3 -13 13037.7 1939.09   1
 -13  -3  13 9675.25 1873.41   4
 -13  -3  12 47.4586 1793.72   2
  13  -3 -12-143.352 1364.63   1
 -13  -3  12 1168.43 1488.25   4
  13  -3 -11 22009.8 2389.13   6
 -13  -3  11 15020.2 1383.20   3
 -13  -3  11 19813.9 2563.26   2
  13  -3 -11 22298.8 2145.46   1
 -13  -3  11 17963.0 1999.42   4
 -13  -3  10 4215.22 1069.68   3
 -13  -3  10 3742.89 1687.59   2
  13  -3 -10 4629.40 1429.42   1
 -13  -3  10 3562.23 1361.07   4
  13  -3 -10 5514.33 1580.55   6
 -13  -3   9 32112.4 1792.01   3
  13  -3  -9 35511.4 2450.21   6
  13  -3  -9 25551.1 2093.96   1
 -13  -3   9 23976.2 2092.90   4
 -13  -3   8 19630.5 1533.25   3
  13  -3  -8 20071.5 1772.28   6
  13  -3  -8 19203.9 1826.81   1
 -13  -3   8 19829.3 1844.40   4
 -13  -3   7 25406.2 1663.70   3
  13  -3  -7 23936.4 744.765   3
  13  -3  -7 27221.2 1774.95   6
  13  -3  -7 23618.1 1931.39   1
  13  -3  -6 115707. 2077.21   3
  13  -3  -6 109453. 2965.24   6
 -13  -3   6 109583. 3022.34   3
  13  -3  -5 16314.8 1050.45   3
 -13  -3   5 16929.5 1448.92   3
  13  -3  -5 14359.0 1168.68   6
  13  -3  -5 13049.1 870.139   4
  13  -3  -5 13989.7 1542.66   1
 -13  -3   5 18156.5 1675.67   4
 -13  -3   4 3667.46 1113.05   4
 -13  -3   4 3885.47 486.232   1
  13  -3  -4 5072.26 833.901   6
  13  -3  -4 3657.14 583.224   4
  13  -3  -4 5522.54 1152.38   1
 -13  -3   4 3708.81 964.123   3
 -13  -3   3 28766.9 1671.82   3
  13  -3  -3 23114.8 1140.56   6
 -13  -3   3 27900.5 929.442   1
  13  -3  -3 24965.3 966.996   4
  13  -3  -3 32475.6 1875.47   1
 -13  -3   3 24319.1 1635.06   4
 -13  -3   2 132886. 3271.26   4
  13  -3  -2 153065. 3408.82   1
 -13  -3   2 147480. 3334.25   3
 -13  -3   2 128358. 2070.74   1
  13  -3  -2 137888. 2225.09   4
 -13  -3   1 13468.3 1313.45   4
 -13  -3   1 12822.6 1227.54   3
 -13  -3   1 12422.4 972.355   1
 -13  -3   0 12844.6 1188.10   1
 -13  -3   0 12674.4 1238.55   3
  13  -3   0 13281.4 1178.05   1
 -13  -3   0 14928.1 1764.81   6
 -13  -3  -1 72699.3 2598.76   1
 -13  -3  -1 64900.2 2183.22   3
 -13  -3  -1 63295.2 2952.46   6
  13  -3   1 68691.5 2376.03   1
 -13  -3  -2 10134.6 1097.61   3
 -13  -3  -2 12177.7 1590.49   6
  13  -3   2 13878.2 1338.59   1
  13  -3   3 11850.0 1306.63   1
 -13  -3  -3 17041.1 1279.44   3
 -13  -3  -4 21964.3 1423.45   3
  13  -3   4 23770.8 1812.14   2
  13  -3   4 22151.0 1732.28   1
 -13  -3  -5 62524.3 2169.94   3
  13  -3   5 63854.6 2859.47   1
  13  -3   5 62445.3 2884.32   2
 -13  -3  -6 4735.49 1080.39   3
  13  -3   6 3596.46 1403.96   2
  13  -3   7 3288.07 1307.43   7
 -13  -3  -7 4097.83 1152.99   3
  13  -3   7 2084.67 1394.33   2
 -13  -3  -8 32299.5 3024.34   6
  13  -3   8 34685.1 2293.53   7
  13  -3   8 33241.1 2750.05   2
 -13  -3  -9 5457.31 2281.16   6
  13  -3   9 5410.79 1475.53   7
  13  -3   9 9937.29 2099.90   2
  13  -3  10 7120.00 1761.12   7
 -13  -3 -10 3902.09 2040.55   6
  13  -3  10 4596.12 1950.28   2
  13  -3  11 4857.99 2068.93   2
  13  -3  11 8618.30 1857.30   7
 -13  -3 -11 5983.16 2339.37   6
  13  -3  12 18112.5 2372.50   7
 -13  -3 -12 13400.9 2794.30   6
  13  -3  12 15853.2 2697.29   2
 -13  -1  14 6840.02 2542.74   2
  13  -1 -14 9115.62 1686.44   1
  13  -1 -14 6868.76 2528.05   6
 -13  -1  14 3698.76 1631.56   4
  13  -1 -13 26770.0 3237.51   6
  13  -1 -13 25895.1 2185.87   1
 -13  -1  13 28177.3 2458.97   4
  13  -1 -12 6423.96 2123.75   6
 -13  -1  12 3121.62 2113.42   2
  13  -1 -12 3096.61 1294.93   1
 -13  -1  12 6895.45 1659.13   4
 -13  -1  11 26337.1 3013.35   2
  13  -1 -11 37001.8 3390.18   6
  13  -1 -11 33311.7 2250.98   1
 -13  -1  11 23260.6 2087.98   4
 -13  -1  10 15980.4 808.399   3
 -13  -1  10 18729.2 2835.78   2
  13  -1 -10 25575.4 2814.79   6
  13  -1 -10 24774.9 1972.09   1
 -13  -1  10 19994.0 2017.97   4
  13  -1  -9 45759.4 3351.67   6
 -13  -1   9 35647.2 1118.92   3
 -13  -1   9 37472.3 3288.90   2
  13  -1  -9 42189.6 2418.28   1
 -13  -1   9 35297.9 2353.58   4
 -13  -1   8 29884.0 1041.71   3
 -13  -1   8 25855.7 2556.68   2
  13  -1  -8 35083.7 2794.37   6
  13  -1  -8 33050.3 1976.91   1
 -13  -1   8 26561.4 1916.30   4
 -13  -1   7 2609.97 583.612   3
  13  -1  -7 1679.34 1286.47   6
  13  -1  -7 2273.84 989.956   1
 -13  -1   7 4550.59 1197.11   4
  13  -1  -6 17509.0 682.126   5
 -13  -1   6 22403.9 1045.23   3
  13  -1  -6 25133.0 2397.05   6
  13  -1  -6 25735.2 1861.74   1
  13  -1  -6 28507.6 1764.89   4
 -13  -1   6 21849.5 1773.08   4
  13  -1  -5 54445.9 749.301   3
 -13  -1   5 59295.4 1495.93   3
 -13  -1   5 65898.2 2131.44   1
  13  -1  -5 60734.1 2927.87   6
  13  -1  -5 65786.5 2428.17   1
  13  -1  -5 63700.8 2123.13   4
 -13  -1   5 61121.7 2525.05   4
  13  -1  -4 82910.0 3035.20   6
 -13  -1   4 82145.0 1750.01   3
  13  -1  -4 89049.3 3951.81   2
 -13  -1   4 95094.6 4016.30   6
  13  -1  -4 87916.0 1259.74   3
 -13  -1   4 83366.4 2091.67   1
  13  -1  -4 87691.3 2311.83   4
  13  -1  -4 96384.7 2719.07   1
 -13  -1   4 83747.9 2690.72   4
  13  -1  -3 76220.1 2377.97   1
 -13  -1   3 57639.8 1568.90   3
 -13  -1   3 64883.2 3232.09   6
  13  -1  -3 59116.8 1422.97   3
  13  -1  -3 67244.4 2698.23   6
 -13  -1   3 62182.4 1823.22   1
  13  -1  -3 81998.1 2215.25   4
 -13  -1   3 60834.1 2242.25   4
 -13  -1   2 208209. 3736.10   4
 -13  -1   2 216110. 3134.69   1
  13  -1  -2 199208. 3632.40   1
 -13  -1   2 215257. 2877.81   3
 -13  -1   2 219046. 5273.87   6
  13  -1  -2 231666. 4481.10   6
  13  -1  -2 237867. 3561.59   4
  13  -1  -1 449261. 5177.90   1
 -13  -1   1 455195. 7106.75   6
 -13  -1   1 435750. 4192.02   3
  13  -1  -1 450612. 5888.81   6
 -13  -1   0 80038.4 3123.67   6
  13  -1   0 82229.7 2648.94   6
  13  -1   0 80480.9 2509.82   1
 -13  -1   0 84255.4 2409.75   1
 -13  -1  -1 122444. 3094.25   1
 -13  -1  -1 124253. 2571.29   3
  13  -1   1 122321. 3087.26   1
 -13  -1  -2 7575.80 1387.57   1
  13  -1   2 9920.10 1556.08   1
 -13  -1  -2 6472.18 1108.30   3
 -13  -1  -2 5674.54 1266.38   6
 -13  -1  -3 95993.2 2588.71   3
 -13  -1  -3 100409. 3349.68   6
  13  -1   3 100823. 3296.27   1
  13  -1   4 68191.5 2783.71   2
  13  -1   4 64304.3 3012.07   1
  13  -1   5 37265.3 2168.11   7
  13  -1   5 44990.1 2628.98   2
  13  -1   6 12774.0 1561.90   7
  13  -1   6 13712.6 1914.72   2
  13  -1   7 36061.7 2351.64   7
  13  -1   7 34933.0 2889.18   2
  13  -1   8 18661.7 1981.13   7
 -13  -1  -8 16884.1 2648.04   6
  13  -1   8 23213.6 2461.50   2
  13  -1   9 22916.6 2235.27   7
  13  -1   9 19492.7 2703.06   2
  13  -1  10 69758.2 3588.71   7
 -13  -1 -10 60317.9 4539.71   6
  13  -1  10 63457.3 4392.53   2
  13  -1  11 7131.64 2051.14   2
  13  -1  11 10850.0 2068.30   7
 -13  -1 -11 8101.64 2618.41   6
  13  -1  12 9016.05 2366.29   2
 -13  -1 -12 8019.15 2700.53   6
  13  -1  13 10122.4 2486.19   2
 -13  -1 -13 4279.86 2763.45   6
  13   1 -14 9043.90 2702.99   6
 -13   1  14 5384.17 2533.03   2
  13   1 -14 10760.8 1486.09   1
 -13   1  14 7749.59 1731.92   4
  13   1 -13 20536.5 3752.59   6
 -13   1  13 19637.1 3482.20   2
  13   1 -13 25946.2 1925.83   1
 -13   1  13 29587.8 2286.65   4
  13   1 -12 6793.85 2472.65   6
 -13   1  12 5701.77 2471.66   2
  13   1 -12 3935.69 1092.63   1
 -13   1  12 4381.54 1526.70   4
  13   1 -11 24071.8 3192.28   6
 -13   1  11 13376.9 2739.54   2
  13   1 -11 21085.9 1631.55   1
 -13   1  11 16745.0 1734.72   4
  13   1 -10 23388.0 2954.17   6
 -13   1  10 17012.7 2705.32   2
  13   1 -10 19737.0 1530.07   1
 -13   1  10 20960.1 1850.25   4
  13   1  -9 33125.1 3225.55   6
 -13   1   9 32336.0 3180.86   2
  13   1  -9 32737.7 1744.10   1
 -13   1   9 28309.5 1865.40   4
  13   1  -8 24800.6 2799.45   6
  13   1  -8 26985.7 1550.45   1
 -13   1   8 21670.6 1589.80   4
  13   1  -7 9407.84 1976.46   6
  13   1  -7 9980.55 1075.79   1
 -13   1   7 6221.05 1052.37   4
 -13   1   6 25304.3 2495.10   6
  13   1  -6 31440.3 1684.71   5
  13   1  -6 36595.3 1782.26   1
 -13   1   6 29343.6 1939.85   4
  13   1  -6 32981.2 2767.14   6
  13   1  -5 60970.8 3121.73   2
 -13   1   5 56819.0 3031.69   6
  13   1  -5 64893.1 3501.07   6
 -13   1   5 58877.1 2180.22   4
  13   1  -5 59036.9 1955.90   1
 -13   1   4 69077.9 2140.49   4
  13   1  -4 85452.2 2136.94   1
  13   1  -4 84189.5 3307.61   2
 -13   1   4 70804.2 3093.93   6
  13   1  -4 91849.1 2132.74   3
  13   1  -4 80418.5 3507.25   6
 -13   1   4 83150.4 2732.19   1
  13   1  -4 79805.1 2568.30   4
 -13   1   3 67118.6 2022.91   4
 -13   1   3 70428.7 2897.93   6
  13   1  -3 67712.5 1920.36   3
  13   1  -3 70630.4 3236.38   6
 -13   1   3 62513.5 2156.84   1
  13   1  -3 72938.1 2339.94   4
  13   1  -2 218527. 4947.76   6
  13   1  -2 232778. 3571.15   1
 -13   1   2 221017. 3797.62   1
  13   1  -2 227952. 4006.79   4
  13   1  -1 460411. 5471.62   4
 -13   1   1 426283. 5170.50   1
  13   1  -1 451210. 5162.86   1
  13   1  -1 432924. 4409.29   3
 -13   1   1 408593. 6149.15   6
  13   1  -1 462857. 6925.58   6
  13   1   0 107692. 2721.12   4
 -13   1   0 97158.0 2574.90   1
  13   1   0 93181.2 2187.50   3
  13   1   0 100270. 2878.44   1
 -13   1   0 103309. 3117.73   6
  13   1   0 104266. 3274.05   6
  13   1   1 108991. 2365.85   3
 -13   1  -1 108475. 2674.30   1
 -13   1  -1 103727. 3170.20   6
  13   1   1 100709. 3068.84   6
  13   1   2 6663.88 1590.51   1
  13   1   2 5127.81 965.932   3
  13   1   2 7485.02 1350.97   2
 -13   1  -2 4429.73 1372.20   1
  13   1   2 7417.05 1250.58   6
 -13   1  -2 4747.18 1080.61   6
  13   1   3 104265. 2830.17   7
  13   1   3 103179. 3352.93   2
 -13   1  -3 106984. 3445.30   6
 -13   1  -3 95012.7 2947.03   1
  13   1   4 51882.4 2329.21   7
  13   1   4 54878.4 2822.88   2
  13   1   5 33018.2 2097.70   7
  13   1   5 30143.3 2414.37   2
  13   1   6 15417.8 1824.85   7
 -13   1  -6 12881.7 2315.09   6
  13   1   6 16255.7 2149.53   2
  13   1   7 26852.3 2204.66   7
 -13   1  -7 24024.8 2995.06   6
  13   1   7 26061.2 2651.62   2
  13   1   8 27994.6 3044.46   2
 -13   1  -8 22219.3 3097.19   6
 -13   1  -9 22698.2 3329.85   6
  13   1   9 22528.6 2908.17   2
 -13   1 -10 59714.3 4808.84   6
  13   1  10 67843.3 4442.58   2
  13   1  11 2212.53 2110.81   2
 -13   1 -11 7510.34 2669.65   6
 -13   1 -12 14512.8 3183.99   6
  13   1  12 18043.7 3019.00   2
  13   1  13 13755.5 2888.12   2
 -13   1 -13 12539.7 3269.42   6
  13   3 -13 10932.1 2769.69   6
  13   3 -12-1231.68 2136.73   6
  13   3 -11 27087.7 3412.49   6
 -13   3  11 27329.4 1770.73   4
  13   3 -10 7220.04 2302.20   6
 -13   3  10 2406.60 1044.54   4
  13   3  -9 31610.2 1259.77   1
  13   3  -9 34455.2 3533.79   6
 -13   3   9 30363.0 1695.41   4
  13   3  -8 23017.9 2932.45   6
  13   3  -8 24508.8 1088.76   1
 -13   3   8 20037.9 1373.08   4
  13   3  -7 25754.1 1432.80   7
 -13   3   7 20853.9 1926.44   6
  13   3  -7 24687.2 962.340   1
  13   3  -7 28698.5 2969.26   6
 -13   3   7 24355.2 1318.02   4
 -13   3   6 105872. 2234.41   4
  13   3  -6 118475. 2452.31   7
 -13   3   6 103084. 3412.14   6
  13   3  -6 115606. 5140.12   6
  13   3  -6 101661. 1806.45   1
  13   3  -6 102408. 3461.47   2
  13   3  -5 16349.5 829.373   1
 -13   3   5 14394.7 1418.40   6
  13   3  -5 23679.4 2479.81   6
  13   3  -5 23613.4 1684.47   2
  13   3  -4 5107.09 1000.65   2
 -13   3   4 5241.44 951.783   6
  13   3  -4 2777.77 1327.64   6
  13   3  -4 4561.31 661.701   1
 -13   3   3 24768.0 1414.46   6
  13   3  -3 26860.0 2317.67   6
  13   3  -3 23466.8 1406.29   2
  13   3  -3 25000.1 1295.42   1
 -13   3   2 129923. 2857.62   6
  13   3  -2 140203. 2846.12   2
  13   3  -1 16080.2 1772.10   6
 -13   3   1 13518.1 1152.99   6
  13   3   0 17428.7 1668.30   6
  13   3   0 13999.4 1012.78   2
 -13   3   0 13276.3 1199.59   6
  13   3   0 17409.6 1423.99   4
  13   3   1 95851.8 3131.05   6
 -13   3  -1 90720.9 2791.49   6
  13   3   1 102571. 2769.12   2
  13   3   1 94995.6 2688.46   4
 -13   3  -2 5343.36 1635.43   6
  13   3   2 6999.96 1149.07   6
 -13   3  -2 4517.48 1080.44   6
  13   3   2 9210.74 1314.21   2
 -13   3  -3 18958.3 2359.42   6
  13   3   3 17518.5 1499.88   6
  13   3   3 18014.2 1813.02   2
 -13   3  -4 20804.2 2673.55   6
  13   3   4 26656.2 2330.56   2
 -13   3  -5 67983.2 4222.58   6
  13   3   5 69287.3 3592.11   2
  13   3   6 4877.00 1844.02   2
 -13   3  -6 5002.36 2036.71   6
  13   3   7 5656.45 1955.68   2
 -13   3  -7 1427.41 1912.20   6
 -13   3  -8 40653.0 3967.49   6
  13   3   8 42599.7 3501.65   2
  13   3   9 9856.29 2347.68   2
 -13   3  -9 3251.63 2437.30   6
  13   3  10 6330.61 2227.12   2
 -13   3 -10 1284.29 2343.30   6
 -13   3 -11 6129.05 2826.77   6
  13   3  11 10060.5 2736.10   2
  13   3  12 25591.3 3452.91   2
 -13   3 -12 14991.0 3393.19   6
  13   5 -11 25301.8 3349.73   6
  13   5 -10 5505.22 2296.41   6
  13   5  -9 10667.7 2493.47   6
  13   5  -8 52472.4 3911.29   6
  13   5  -7 37408.5 3234.42   6
  13   5  -6 14003.0 2180.06   6
  13   5  -5 10694.6 1936.80   6
  13   5  -4 56170.0 3238.53   6
  13   5  -3 20463.5 2051.25   6
  13   5  -2 16185.0 1836.97   6
 -13   5   1 19610.1 1182.32   6
  13   5  -1 34585.3 2228.58   6
  13   5   0 20692.2 1810.86   6
 -13   5   0 18674.8 1580.59   6
 -13   5  -1 1074.44 1199.89   6
  13   5   1 4145.68 1088.27   6
 -13   5  -2 13455.4 1920.26   6
  13   5   2 8348.03 1192.96   6
  13   5   2 11190.9 1164.70   2
  13   5   3 50258.7 2476.99   2
 -13   5  -3 56277.5 3504.19   6
  13   5   4 4133.10 1444.81   2
 -13   5  -4 3435.05 1907.68   6
  13   5   5 1637.17 1432.14   2
 -13   5  -5 5341.10 2103.87   6
  13   5   6 41905.4 3185.30   2
 -13   5  -6 30769.2 3354.17   6
  13   5   7 25602.5 2823.19   2
 -13   5  -7 30587.5 3527.34   6
  13   5   8 8550.79 2248.88   2
 -13   5  -8 13048.0 2940.99   6
 -13   5  -9 5454.90 2741.57   6
  13   5   9 5414.83 2295.81   2
  13   5  10 17120.8 3029.53   2
 -13   5 -10 18702.8 3688.99   6
  13   7  -6 20477.0 2528.14   6
 -14  -6   9 17395.0 1854.93   3
  14  -6  -9 20982.6 2184.79   1
 -14  -6   9 18781.8 2057.52   4
 -14  -6   8 5416.08 1522.46   4
  14  -6  -8 5675.05 1567.90   1
 -14  -6   8 2475.77 1378.29   3
 -14  -6   7 4709.38 1463.58   4
  14  -6  -7 4657.51 1471.64   1
 -14  -6   7 1566.56 1280.94   3
 -14  -6   6 12410.8 1722.01   3
  14  -6  -6 12313.9 1665.91   1
 -14  -6   6 9951.37 1522.75   4
 -14  -6   5 14434.8 1660.11   4
  14  -6  -5 14503.1 1494.95   3
 -14  -6   5 14962.5 1824.61   3
  14  -6  -5 13471.1 1685.81   1
 -14  -6   4 2829.88 1125.98   4
  14  -6  -4 4432.69 1264.61   3
 -14  -6   4 2786.27 1375.35   3
  14  -6  -4 4203.31 1213.02   1
 -14  -6   3 13049.9 1464.64   4
  14  -6  -3 20197.5 1842.42   3
  14  -6  -3 18590.2 1629.40   1
 -14  -6   3 14963.9 1724.26   3
  14  -6  -2 28388.9 2129.52   3
  14  -6  -2 25409.7 1754.82   1
 -14  -6   2 22216.8 1942.69   3
  14  -6  -2 30662.1 1974.64   5
 -14  -6   1 2167.86 1244.94   3
  14  -6  -1 4747.11 1252.66   5
  14  -6  -1 3017.59 1002.05   1
  14  -6   0 3512.93 971.674   1
 -14  -6   0 419.726 1136.81   3
  14  -6   0 3551.54 1261.45   5
 -14  -6  -1 17741.8 1596.97   3
  14  -6   1 14396.3 1438.17   1
 -14  -6  -2 15265.0 1607.80   3
  14  -6   2 15212.9 1421.72   1
 -14  -6  -3 9720.69 1292.78   3
  14  -6   3 6202.01 1191.59   2
 -14  -6  -4 5770.24 1195.04   3
 -14  -6  -5 29586.4 1801.42   3
 -14  -6  -6 4900.81 1106.30   3
  14  -6   6 5862.39 1436.90   4
  14  -6   7 5023.90 1467.49   7
 -14  -6  -7 4992.72 1146.19   3
  14  -6   7 6753.96 1541.17   4
  14  -4 -12 10084.2 1809.76   1
 -14  -4  12 11174.9 1857.00   4
 -14  -4  11 17984.4 1644.57   3
  14  -4 -11 23201.4 2185.48   1
 -14  -4  11 18476.6 2106.60   4
 -14  -4  10 11624.3 1455.93   3
  14  -4 -10 12256.6 1825.89   1
 -14  -4  10 9974.47 1706.20   4
 -14  -4   9 26979.2 1867.34   3
  14  -4  -9 23381.7 2181.04   1
 -14  -4   9 21991.1 2075.10   4
  14  -4  -8 26918.7 2136.68   1
 -14  -4   8 23526.0 1762.37   3
 -14  -4   8 23459.7 2035.89   4
 -14  -4   7 26938.7 1861.18   3
  14  -4  -7 27395.5 1163.74   3
  14  -4  -7 24914.0 2098.43   1
 -14  -4   7 24511.2 2084.76   4
  14  -4  -6 28711.7 1409.20   3
  14  -4  -6 18473.5 885.487   6
 -14  -4   6 23387.2 1791.88   3
  14  -4  -6 27707.8 2048.95   1
 -14  -4   6 19260.3 1858.19   4
 -14  -4   5 12769.1 1519.34   3
  14  -4  -5 13318.6 1193.45   3
  14  -4  -5 10681.1 1442.80   1
 -14  -4   5 9978.44 1503.14   4
 -14  -4   4 41614.9 2170.40   3
  14  -4  -4 41014.5 2246.57   1
 -14  -4   4 34345.5 2042.96   4
 -14  -4   3 17179.5 1548.86   4
  14  -4  -3 19080.3 1614.00   1
 -14  -4   3 15988.9 1538.41   3
 -14  -4   3 9738.94 524.151   1
  14  -4  -3 12949.0 597.854   4
 -14  -4   2 24546.6 1666.38   4
  14  -4  -2 28633.5 1729.54   1
 -14  -4   2 24722.3 1729.68   3
 -14  -4   2 23121.4 943.793   1
  14  -4  -2 19755.7 858.504   4
 -14  -4   1 5775.97 1140.75   3
 -14  -4   1 4160.76 780.160   1
 -14  -4   0 25541.7 1474.44   1
  14  -4   0 23179.9 1516.96   1
 -14  -4   0 24604.4 1577.27   3
 -14  -4  -1 18487.1 1489.41   3
  14  -4   1 20533.6 1578.53   1
 -14  -4  -2 1468.31 931.613   3
  14  -4   2 7131.66 1240.74   1
  14  -4   3 25116.2 1705.71   1
 -14  -4  -3 29016.6 1669.60   3
 -14  -4  -4-630.646 878.675   3
  14  -4   4-1066.11 1021.82   1
  14  -4   4-605.301 1024.89   2
 -14  -4  -5 18188.4 1431.79   3
  14  -4   5 17509.6 1745.02   1
  14  -4   5 18684.7 1815.99   2
 -14  -4  -6 5658.32 1104.98   3
  14  -4   6 5456.63 1430.62   2
  14  -4   7 18830.0 1869.82   7
 -14  -4  -7 17229.7 1465.66   3
  14  -4   8 7540.24 1490.72   7
 -14  -4  -8 12597.0 2256.07   6
 -14  -4  -8 8410.44 1261.20   3
  14  -4   8 10808.7 1841.52   2
  14  -4   9 9884.73 1716.19   7
 -14  -4  -9 6672.85 2196.13   6
  14  -4   9 13839.2 2247.61   2
 -14  -4 -10 7630.71 2356.72   6
  14  -4  10 7572.04 1696.54   7
  14  -4  10 9857.13 2353.64   2
  14  -4  11 1944.14 1750.34   2
  14  -4  11 4067.41 1698.52   7
  14  -4  11 5109.46 1728.21   4
 -14  -2  14 16948.0 2931.74   2
  14  -2 -14 25101.0 3007.06   6
  14  -2 -14 22294.9 2149.99   1
 -14  -2  14 18283.5 2237.81   4
 -14  -2  13 17161.8 2844.69   2
  14  -2 -13 25190.2 3013.24   6
  14  -2 -13 21216.7 2150.90   1
 -14  -2  13 19635.0 2289.16   4
 -14  -2  12 3345.86 2055.75   2
  14  -2 -12 1265.04 1675.85   6
  14  -2 -12 1779.92 1284.37   1
 -14  -2  12 3693.23 1588.35   4
 -14  -2  11 33961.4 3233.66   2
  14  -2 -11 40827.1 3167.47   6
  14  -2 -11 35517.7 2444.43   1
 -14  -2  11 31948.6 2410.35   4
 -14  -2  10 7302.20 1051.99   3
  14  -2 -10 10120.8 2089.26   6
 -14  -2  10 6452.38 2047.95   2
  14  -2 -10 10016.3 1687.58   1
 -14  -2  10 10539.9 1775.17   4
  14  -2  -9 56556.7 3314.10   6
 -14  -2   9 47345.9 1767.17   3
  14  -2  -9 59269.5 2792.07   1
 -14  -2   9 44642.0 2614.07   4
  14  -2  -8 59590.8 3190.93   6
 -14  -2   8 48784.3 1810.72   3
  14  -2  -8 50729.3 2499.24   1
 -14  -2   8 39765.9 2336.03   4
  14  -2  -7 37320.7 2397.47   6
 -14  -2   7 35455.9 1585.93   3
  14  -2  -7 38179.0 2202.07   1
 -14  -2   7 33182.7 2058.08   4
  14  -2  -6 7994.77 476.568   3
 -14  -2   6 10820.7 1153.06   3
  14  -2  -6 15242.5 1831.46   6
  14  -2  -6 7775.67 457.109   3
  14  -2  -6 16310.2 1718.25   1
  14  -2  -6 18644.6 1405.43   4
 -14  -2   6 13037.4 1597.53   4
 -14  -2   5 39585.6 1620.17   3
  14  -2  -5 43178.3 2131.27   6
  14  -2  -5 40224.9 1596.71   4
  14  -2  -5 45093.1 2169.81   1
 -14  -2   5 43351.9 2205.38   4
  14  -2  -4 12908.0 1363.65   6
 -14  -2   4 10296.2 775.492   1
  14  -2  -4 11731.6 919.109   4
  14  -2  -4 11464.5 1340.32   1
 -14  -2   4 9344.71 1324.96   4
 -14  -2   3 32993.6 1919.73   4
  14  -2  -3 43766.0 2050.74   1
 -14  -2   3 27208.7 1465.40   3
  14  -2  -3 42865.3 2081.99   6
 -14  -2   3 32913.7 1374.76   1
  14  -2  -3 54198.0 1800.51   4
  14  -2  -2 60420.7 1806.32   4
 -14  -2   2 57048.8 2222.29   4
  14  -2  -2 64681.3 2270.69   1
 -14  -2   2 53900.3 1621.29   1
 -14  -2   2 59999.1 1927.49   3
  14  -2  -2 58430.8 2110.76   6
  14  -2  -1 100384. 2705.28   1
 -14  -2   1 91520.0 2317.62   3
 -14  -2   1 92921.2 3622.83   6
 -14  -2   1 89215.8 2283.60   1
  14  -2  -1 90546.6 2602.85   6
 -14  -2   0 135124. 2756.92   3
 -14  -2   0 126555. 4066.45   6
  14  -2   0 130763. 3182.36   1
 -14  -2   0 125737. 2916.92   1
 -14  -2  -1 8886.02 1265.03   1
 -14  -2  -1 10102.9 1012.23   3
 -14  -2  -1 8734.15 1426.69   6
  14  -2   1 11251.3 1221.26   1
  14  -2   2 39728.0 2090.46   1
 -14  -2  -2 45062.1 2375.53   1
 -14  -2  -2 42320.7 2435.58   6
 -14  -2  -3 68128.2 2143.09   3
  14  -2   3 53416.5 2452.21   1
  14  -2   4 30183.2 2114.82   1
 -14  -2  -4 28940.6 1615.01   3
  14  -2   4 31489.9 2067.33   2
 -14  -2  -5 24830.4 1645.36   3
  14  -2   5 21524.1 2016.56   2
  14  -2   5 21058.8 2064.25   1
  14  -2   6 3544.48 1217.83   7
  14  -2   6 3309.29 1406.85   2
  14  -2   7 81151.1 3218.06   7
  14  -2   7 81324.6 3924.12   2
  14  -2   8 4818.42 1460.31   7
 -14  -2  -8 3691.45 2036.73   6
  14  -2   8 7770.20 1841.55   2
  14  -2   9 22058.5 2160.69   7
 -14  -2  -9 23092.1 3159.56   6
  14  -2   9 25187.8 2746.93   2
  14  -2  10 49880.6 3121.68   7
  14  -2  10 59730.0 4023.82   2
  14  -2  11 8201.49 2266.84   2
  14  -2  11 8283.97 1937.46   7
 -14  -2 -11 6636.60 2372.72   6
  14  -2  12 12380.9 2431.59   2
  14  -2  12 13743.5 2211.12   7
 -14  -2 -12 10184.7 2865.32   6
 -14   0  14 8395.11 2634.17   2
  14   0 -14 9445.74 2713.30   6
  14   0 -14 10372.1 1637.66   1
 -14   0  14 8294.31 1775.44   4
 -14   0  13 28813.1 3641.32   2
  14   0 -13 39613.5 3866.37   6
  14   0 -13 35868.7 2217.70   1
 -14   0  13 30897.0 2392.23   4
 -14   0  12 14910.8 2761.90   2
  14   0 -12 20687.3 2962.52   6
  14   0 -12 17251.6 1684.65   1
 -14   0  12 16577.8 1930.76   4
  14   0 -11 16911.1 2759.46   6
 -14   0  11 11204.2 2400.61   2
  14   0 -11 18345.8 1606.81   1
 -14   0  11 17784.5 1849.05   4
 -14   0  10 4331.78 2040.84   2
  14   0 -10 4439.94 2160.52   6
  14   0 -10 5520.62 1244.85   1
 -14   0  10 4826.08 1317.97   4
  14   0  -9 114362. 5201.94   6
 -14   0   9 88623.5 4670.43   2
  14   0  -9 110987. 3214.18   1
 -14   0   9 88562.0 3188.90   4
  14   0  -8 98980.8 4634.39   6
  14   0  -8 101199. 3047.22   1
 -14   0   8 92856.8 3074.24   4
  14   0  -7 1195.13 1433.83   6
  14   0  -7 1661.79 879.142   1
 -14   0   7 1238.86 971.375   4
  14   0  -6 194692. 5702.21   6
  14   0  -6 188766. 3792.33   1
 -14   0   6 181672. 4021.46   4
  14   0  -5 18334.4 946.804   3
  14   0  -5 27375.8 2376.86   6
 -14   0   5 21210.1 1553.81   1
  14   0  -5 22411.7 1513.40   1
 -14   0   5 28250.6 1836.07   4
  14   0  -4 104776. 2610.17   1
  14   0  -4 99341.7 1693.82   3
  14   0  -4 96994.2 3935.44   2
 -14   0   4 88919.3 3789.20   6
  14   0  -4 99867.6 3639.26   6
 -14   0   4 87741.6 2417.21   1
  14   0  -4 94502.9 2611.99   4
 -14   0   4 84888.4 2542.67   4
 -14   0   3 23846.6 1438.13   4
  14   0  -3 25843.4 968.978   3
 -14   0   3 24528.9 2086.99   6
  14   0  -3 28197.7 2024.45   6
  14   0  -3 30653.3 1555.87   1
 -14   0   3 27747.8 1434.43   1
  14   0  -3 26977.0 1462.09   4
  14   0  -2 327183. 4288.21   1
  14   0  -2 319103. 5870.22   6
  14   0  -2 332140. 4591.66   4
 -14   0   2 315012. 4343.91   1
  14   0  -1 21410.2 1375.30   4
 -14   0   1 19073.1 1243.60   1
  14   0  -1 19179.1 1020.22   3
 -14   0   1 18532.0 1655.23   6
  14   0  -1 21154.4 1725.28   6
  14   0  -1 18548.5 1418.76   1
 -14   0   0 5032.92 952.857   1
  14   0   0 3556.95 713.821   3
 -14   0   0 4383.79 1186.81   6
  14   0   0 3997.51 1102.82   6
  14   0   0 4481.78 1019.70   1
  14   0   1 17975.8 1524.21   1
  14   0   1 15499.6 1147.30   3
 -14   0  -1 13969.7 1556.09   6
  14   0   1 15947.0 1453.44   6
 -14   0  -1 16597.4 1432.20   1
  14   0   2 140647. 2887.02   3
  14   0   2 151962. 4037.72   1
 -14   0  -2 147791. 3567.16   1
  14   0   3 50318.8 2770.53   1
  14   0   3 46780.4 2448.17   2
  14   0   4 5966.54 1272.86   2
  14   0   4 6326.35 1172.64   7
  14   0   5 100080. 3250.37   7
  14   0   5 93829.6 3881.21   2
  14   0   6 6469.30 1392.49   7
  14   0   6 4787.29 1567.28   2
  14   0   7 4578.05 1360.32   7
 -14   0  -7 4802.33 1936.07   6
  14   0   7 4158.19 1799.84   2
  14   0   8 72674.2 3414.52   7
 -14   0  -8 70538.5 4583.32   6
  14   0   8 70221.3 4017.32   2
  14   0   9 25912.9 2394.25   7
 -14   0  -9 19945.1 3138.06   6
  14   0   9 25776.6 2936.97   2
  14   0  10 9824.58 2363.70   2
 -14   0 -10 11130.2 2725.82   6
  14   0  11 2824.18 1970.52   2
 -14   0 -11 8317.67 2778.48   6
 -14   0 -12 34769.5 4301.76   6
  14   0  12 39237.9 3817.14   2
  14   0  13 7092.27 2529.07   2
 -14   0 -13 5416.54 2829.95   6
  14   2 -14 18800.0 3283.63   6
 -14   2  14 14664.3 1752.92   4
  14   2 -13 19758.7 3189.76   6
 -14   2  13 15682.0 1703.85   4
  14   2 -12 1454.64 1981.61   6
 -14   2  12 2834.57 1241.60   4
  14   2 -12 1391.25 939.548   1
  14   2 -11 46419.4 4065.37   6
  14   2 -11 48390.3 2018.87   1
 -14   2  11 39857.4 2119.91   4
  14   2 -10 10808.3 2819.99   6
  14   2 -10 12397.6 1281.47   1
 -14   2  10 11071.6 1425.75   4
  14   2  -9 60347.6 4210.63   6
  14   2  -9 61856.6 2089.36   1
 -14   2   9 55662.5 2323.69   4
  14   2  -8 54508.3 3874.60   6
  14   2  -8 54963.1 1930.21   1
 -14   2   8 48998.2 2099.24   4
  14   2  -7 28195.5 1304.92   1
  14   2  -7 25265.0 1723.50   7
  14   2  -7 30092.1 2905.74   6
 -14   2   7 25441.9 1552.86   4
  14   2  -6 8477.19 1777.39   2
 -14   2   6 7733.34 1719.15   6
  14   2  -6 13137.6 2204.03   6
  14   2  -6 11100.6 1026.01   1
 -14   2   6 10503.6 1344.70   4
 -14   2   5 37419.5 1591.84   4
  14   2  -5 42249.0 1428.03   1
  14   2  -5 43275.5 3036.31   6
  14   2  -5 43617.3 2514.35   2
  14   2  -4 12369.3 1186.14   3
  14   2  -4 11103.3 1502.72   2
 -14   2   4 10674.7 1415.02   6
  14   2  -4 12852.6 1738.07   6
  14   2  -4 12746.3 1001.85   1
  14   2  -3 29227.7 1704.41   3
  14   2  -3 24325.7 1942.63   2
 -14   2   3 34017.9 2175.51   6
  14   2  -3 28109.3 2422.22   6
  14   2  -3 30902.8 1439.41   1
  14   2  -2 46971.0 1817.25   1
  14   2  -2 49180.0 2685.52   6
 -14   2   2 45270.0 2071.27   6
  14   2  -1 108665. 2868.44   3
 -14   2   1 85039.4 2803.72   6
  14   2  -1 95975.5 3530.90   6
 -14   2   1 96096.2 2704.67   1
  14   2  -1 91080.9 2767.40   1
  14   2  -1 98877.4 2840.41   4
  14   2   0 140102. 3271.81   4
 -14   2   0 135450. 3159.38   1
  14   2   0 132520. 3920.90   6
 -14   2   0 124890. 3364.47   6
  14   2   0 125300. 3579.53   1
  14   2   1 10890.5 1200.42   4
  14   2   1 9812.65 891.258   7
 -14   2  -1 8430.18 1085.51   1
  14   2   1 9679.68 1064.37   2
  14   2   1 8015.84 1291.78   6
 -14   2  -1 9046.34 1215.24   6
  14   2   2 37111.9 1660.84   7
  14   2   2 41849.1 2109.21   2
  14   2   2 37004.9 2094.76   6
 -14   2  -2 35470.7 2108.04   6
  14   2   3 51101.3 2219.45   7
  14   2   3 53583.6 2635.82   2
  14   2   4 41738.8 2135.98   7
  14   2   4 38343.9 2548.87   2
 -14   2  -5 24005.5 2913.44   6
  14   2   5 27879.8 2459.48   2
 -14   2  -6 3278.57 2168.40   6
  14   2   6 6084.78 1830.54   2
 -14   2  -7 76233.8 4895.94   6
  14   2   7 101101. 4792.69   2
  14   2   8 9438.76 2228.53   2
 -14   2  -8 8948.71 2572.25   6
 -14   2  -9 28615.7 3695.64   6
  14   2   9 24712.0 2912.30   2
 -14   2 -10 46512.6 4540.47   6
  14   2  10 54837.4 4281.92   2
  14   2  11 3808.51 2295.69   2
 -14   2 -11 5436.00 2608.62   6
 -14   2 -12 10428.5 3235.03   6
  14   2  12 13892.4 2951.08   2
  14   4 -12 9286.64 2664.13   6
  14   4 -11 26503.1 3496.52   6
  14   4 -10 12324.7 2693.81   6
  14   4  -9 33426.1 3557.37   6
  14   4  -8 25074.5 2887.68   6
  14   4  -7 25796.0 2926.99   6
  14   4  -6 31494.0 2925.59   6
  14   4  -5 16720.1 2194.55   6
  14   4  -5 13343.1 1062.71   2
 -14   4   4 17937.0 986.543   6
  14   4  -4 26492.4 1119.13   2
 -14   4   3 12740.4 938.833   6
  14   4  -3 17550.8 1966.62   6
  14   4  -2 20000.5 2061.36   6
 -14   4   2 13599.3 1015.44   6
  14   4  -1 4225.10 472.385   2
 -14   4   1 6023.60 944.512   6
  14   4  -1 7419.05 1423.63   6
 -14   4   1 5679.63 1139.40   6
  14   4  -1 3531.70 439.404   2
 -14   4   0 36793.8 2307.93   6
  14   4   0 35643.6 2239.29   6
 -14   4   0 34429.8 1736.14   6
  14   4   0 30945.0 1341.92   2
 -14   4  -1 16320.6 1945.87   6
  14   4   1 15996.2 1483.61   6
 -14   4  -1 15572.9 1371.28   6
  14   4   1 16562.1 1314.98   2
 -14   4  -2 4224.12 1658.62   6
  14   4   2 3167.02 1028.72   6
  14   4   2 4998.08 1246.75   2
 -14   4  -3 36435.4 3016.83   6
  14   4   3 33578.1 1986.05   6
  14   4   3 41281.7 2411.66   2
  14   4   4 866.998 1259.13   2
 -14   4  -4 1002.51 1606.08   6
 -14   4  -5 19005.4 2832.98   6
  14   4   5 20668.6 2277.94   2
  14   4   6 5687.60 1823.55   2
 -14   4  -6 3586.25 2035.67   6
 -14   4  -7 23302.1 3165.02   6
  14   4   7 24806.2 2775.43   2
  14   4   8 13308.7 2386.13   2
 -14   4  -8 14066.7 3009.62   6
  14   4   9 19032.7 2870.19   2
 -14   4  -9 15630.0 3285.40   6
  14   4  10 16368.8 2917.48   2
 -14   4 -10 13192.1 3311.00   6
  14   4  11 5943.11 2447.77   2
 -14   4 -11 10031.8 3136.40   6
  14   6  -9 17596.6 2817.93   6
  14   6  -8 6466.38 1995.21   6
  14   6  -7 3294.31 1867.22   6
  14   6  -6 14576.6 2302.49   6
  14   6  -5 18888.3 2288.26   6
  14   6  -4 4598.88 1564.57   6
  14   6  -3 10910.3 1821.04   6
  14   6  -2 28040.2 2177.95   6
  14   6  -1 1168.13 1220.68   6
  14   6   0 3980.70 1114.95   6
  14   6   1 14666.0 1461.23   6
 -14   6  -4 12556.6 2288.41   6
 -14   6  -5 36768.0 3302.66   6
 -14   6  -6 9566.47 2509.94   6
 -14   6  -7 6438.08 2418.24   6
 -15  -7   5 4525.07 1442.10   3
  15  -7  -5 5961.63 1366.50   1
  15  -7  -4 10999.8 1544.81   3
  15  -7  -4 9785.75 1467.46   1
 -15  -7   4 12027.7 1736.95   3
  15  -7  -3 1390.66 1215.30   3
 -15  -7   3 3948.05 1392.00   3
  15  -7  -3 2055.90 1082.39   1
  15  -7  -2 14284.8 1840.48   3
 -15  -7   2 15767.1 1741.50   3
  15  -7  -1 6812.02 1588.99   3
 -15  -7   1 5149.69 1337.45   3
  15  -7  -1 7329.75 1428.66   5
  15  -7   0 16358.1 2085.83   3
 -15  -7   0 13424.9 1581.25   3
  15  -7   0 18310.6 1953.84   5
 -15  -7  -1 5594.95 1330.47   3
  15  -7   1 9392.77 1672.11   5
 -15  -7  -2 4570.34 1208.15   3
  15  -7   2 6880.21 1547.59   5
 -15  -7  -3 12794.2 1505.21   3
  15  -7   3 19914.1 2162.33   5
 -15  -7  -4 2004.53 1150.99   3
  15  -7   4 3787.37 1542.82   5
  15  -5 -11 24566.8 2352.88   1
 -15  -5  11 19273.6 2189.67   4
 -15  -5  10 5842.32 1733.05   4
 -15  -5  10 7625.52 1474.51   3
  15  -5 -10 4345.51 1587.59   1
 -15  -5   9 11361.5 1587.67   3
  15  -5  -9 13806.5 1857.04   1
 -15  -5   9 13235.3 1901.64   4
 -15  -5   8 19700.1 1810.52   3
 -15  -5   8 21508.3 2133.21   4
 -15  -5   7 31284.1 2163.60   3
  15  -5  -7 33343.6 2384.15   1
 -15  -5   7 30084.9 2281.75   4
  15  -5  -6 14701.2 1285.47   3
 -15  -5   6 11877.6 1615.52   3
  15  -5  -6 16237.8 1743.77   1
 -15  -5   6 10682.8 1663.77   4
  15  -5  -5 10835.3 1245.96   3
 -15  -5   5 9287.02 1434.56   3
  15  -5  -5 11342.1 1587.90   1
 -15  -5   5 9232.67 1442.68   4
  15  -5  -4 33407.9 2081.16   1
  15  -5  -4 37713.3 2072.69   3
 -15  -5   4 30308.1 2068.11   3
  15  -5  -4 35261.1 1683.46   5
 -15  -5   3 21856.4 1731.39   4
  15  -5  -3 23203.8 1728.29   1
 -15  -5   3 20768.2 1781.06   3
  15  -5  -3 24147.3 1564.36   5
 -15  -5   2 5930.23 1281.07   3
  15  -5  -2 3917.80 1106.38   1
 -15  -5   1 14803.7 1518.37   3
  15  -5  -1 14147.7 1373.59   1
 -15  -5   0 39788.9 2074.15   3
  15  -5   0 41400.0 1976.72   1
  15  -5   1 1799.08 1049.52   1
 -15  -5  -1 1903.16 1030.62   3
 -15  -5  -2 1869.34 1023.96   3
  15  -5   2 3580.95 1088.00   1
  15  -5   3 6776.80 1158.95   1
 -15  -5  -3 6767.58 1158.08   3
 -15  -5  -4 3344.21 1083.46   3
  15  -5   4 3416.86 1143.03   1
  15  -5   4 1971.34 1088.90   2
  15  -5   5 9060.62 1488.78   1
 -15  -5  -5 11189.8 1270.71   3
  15  -5   5 13032.5 1700.52   2
 -15  -5  -6 2433.20 1067.87   3
  15  -5   6 3818.68 1391.18   2
 -15  -5  -7 16720.2 1494.78   3
  15  -5   7 17097.8 1824.03   7
  15  -5   7 17393.0 2047.28   2
  15  -5   8 4043.17 1459.09   7
 -15  -5  -8 401.041 1042.64   3
  15  -5   8 1203.87 1439.62   2
  15  -5   9-1386.73 1437.91   7
 -15  -5  -9-12.1545 1172.61   3
  15  -5   9 4148.29 1446.95   4
  15  -5   9 643.220 1657.33   2
  15  -3 -13 40555.5 2722.27   1
 -15  -3  13 24510.6 2366.12   4
  15  -3 -12 16950.6 2001.73   1
 -15  -3  12 15200.2 1942.84   4
  15  -3 -11 23383.6 2344.90   6
  15  -3 -11 22485.9 2126.42   1
 -15  -3  11 19347.0 2056.44   4
  15  -3 -10 15722.5 1975.23   6
  15  -3 -10 13428.8 1797.88   1
 -15  -3  10 13144.9 1332.36   3
 -15  -3  10 10684.7 1705.14   4
  15  -3  -9 52118.1 2794.73   6
 -15  -3   9 49572.6 2128.46   3
  15  -3  -9 52362.9 2821.51   1
 -15  -3   8 12172.0 1308.45   3
  15  -3  -8 14326.9 1578.28   6
  15  -3  -8 11705.2 1641.40   1
 -15  -3   8 15198.9 1723.92   4
  15  -3  -7 2774.64 396.874   3
 -15  -3   7 3107.10 1001.65   3
  15  -3  -7 3277.50 1004.01   6
  15  -3  -7 2068.51 1194.44   1
 -15  -3   7 1333.69 1208.20   4
  15  -3  -6 75802.4 1723.28   3
 -15  -3   6 67712.0 2402.41   3
  15  -3  -6 71238.9 2588.25   6
  15  -3  -6 72761.7 2897.42   1
 -15  -3   6 65788.6 2832.87   4
 -15  -3   5 32893.0 1783.85   3
  15  -3  -5 28911.4 1632.36   6
  15  -3  -5 25876.7 1196.55   4
  15  -3  -5 31931.6 2048.00   1
 -15  -3   5 29694.6 2133.22   4
 -15  -3   4 37117.5 1801.12   3
  15  -3  -4 32615.2 1541.78   6
 -15  -3   4 30168.4 1039.03   1
  15  -3  -4 30956.6 1193.34   4
  15  -3  -4 35179.2 2079.48   1
 -15  -3   4 29383.3 1911.91   4
 -15  -3   3 18703.1 1539.18   4
 -15  -3   3 20707.5 1488.06   3
  15  -3  -3 19147.8 1207.14   6
  15  -3  -3 22731.8 1104.93   4
 -15  -3   3 18182.9 924.305   1
 -15  -3   2 19729.3 1543.49   4
 -15  -3   2 20458.0 1039.30   1
  15  -3  -2 20938.7 1470.47   1
 -15  -3   2 20505.2 1410.00   3
  15  -3  -2 19623.1 1075.20   4
 -15  -3   1 1429.00 747.683   1
 -15  -3   1 852.614 809.554   3
 -15  -3   0 18297.1 1350.21   3
  15  -3   0 19169.1 1426.91   1
 -15  -3   0 21071.0 1444.99   1
 -15  -3  -1 59942.2 2434.64   1
 -15  -3  -1 55276.2 2032.54   3
  15  -3   1 59023.9 2303.50   1
 -15  -3  -2 48710.0 1940.18   3
  15  -3   2 50291.2 2263.28   1
  15  -3   3 13172.0 1466.54   1
 -15  -3  -3 18821.1 1377.66   3
 -15  -3  -4 27596.3 1592.30   3
  15  -3   4 26924.6 1978.60   2
  15  -3   4 25648.5 1964.50   1
  15  -3   5 98893.8 3695.98   1
 -15  -3  -5 98140.2 2834.73   3
  15  -3   5 96479.2 3507.40   2
 -15  -3  -6 6266.07 1169.63   3
  15  -3   6 4555.33 1524.88   2
 -15  -3  -7 5202.80 1192.64   3
  15  -3   7 3541.85 1293.59   7
  15  -3   7 3408.23 1439.93   2
  15  -3   8 22193.3 1999.32   7
 -15  -3  -8 23428.4 2881.76   6
  15  -3   8 26776.0 2560.72   2
  15  -3   9 1389.60 1278.25   7
 -15  -3  -9 1319.59 1983.35   6
  15  -3   9 3100.96 1750.36   2
  15  -3  10 5757.20 1647.63   7
 -15  -3 -10 2787.92 2097.60   6
  15  -3  10 1732.37 1733.49   2
  15  -3  11 1106.40 1892.50   2
  15  -3  11-225.767 1536.47   7
 -15  -3 -11-1573.49 2360.35   6
  15  -3  12 9876.42 2406.64   2
 -15  -3 -12 10103.2 2781.79   6
 -15  -1  14 12451.9 2788.41   2
  15  -1 -14 14842.9 2696.00   6
  15  -1 -14 15265.2 1854.43   1
 -15  -1  14 14125.8 2028.69   4
 -15  -1  13 12385.2 2822.01   2
  15  -1 -13 16407.5 2618.30   6
  15  -1 -13 14440.2 1797.98   1
 -15  -1  13 13124.9 1940.87   4
 -15  -1  12 5547.22 2157.14   2
  15  -1 -12 3231.75 1808.63   6
  15  -1 -12 3217.94 1306.22   1
 -15  -1  12 3361.93 1531.26   4
  15  -1 -11 32421.9 3108.45   6
 -15  -1  11 26703.2 3035.40   2
  15  -1 -11 33686.6 2197.44   1
 -15  -1  11 26332.9 2183.41   4
 -15  -1  10 17360.9 717.253   3
  15  -1 -10 25947.2 2786.28   6
 -15  -1  10 22985.4 2871.91   2
  15  -1 -10 25803.8 2002.24   1
 -15  -1  10 24778.1 2081.15   4
 -15  -1   9 13617.7 744.128   3
  15  -1  -9 22704.4 2607.54   6
  15  -1  -9 19379.1 1777.75   1
 -15  -1   9 15371.4 1718.14   4
 -15  -1   8 50509.5 1294.31   3
 -15  -1   8 51853.8 2517.76   4
 -15  -1   7 30422.7 1049.70   3
  15  -1  -7 35076.9 2562.35   6
 -15  -1   7 32424.5 2042.47   4
 -15  -1   6 39682.7 1235.15   3
  15  -1  -6 42691.8 2722.68   6
  15  -1  -6 42715.2 2144.24   1
 -15  -1   6 36220.4 2149.70   4
  15  -1  -5 30297.8 749.495   3
 -15  -1   5 31541.8 1174.83   3
  15  -1  -5 35947.7 2368.09   6
 -15  -1   5 30628.9 1639.60   1
  15  -1  -5 34248.5 1748.33   4
  15  -1  -5 36221.9 1936.42   1
 -15  -1   5 30920.3 2033.50   4
  15  -1  -4 27774.2 1667.83   1
 -15  -1   4 25625.8 1098.24   3
  15  -1  -4 27826.9 861.900   3
  15  -1  -4 30166.9 1962.03   6
 -15  -1   4 25103.1 1343.39   1
  15  -1  -4 31441.7 1515.11   4
 -15  -1   4 24956.8 1669.72   4
 -15  -1   3 35484.1 1930.55   4
  15  -1  -3 43960.3 1979.23   1
 -15  -1   3 32888.0 1310.32   3
  15  -1  -3 36710.5 1269.41   3
  15  -1  -3 41026.5 2414.55   6
 -15  -1   3 36372.9 1580.90   1
  15  -1  -2 235602. 3811.99   4
 -15  -1   2 222528. 3455.45   1
  15  -1  -2 230034. 4004.31   1
 -15  -1   2 216682. 3056.44   3
 -15  -1   2 214974. 5460.84   6
  15  -1  -2 227983. 4654.11   6
  15  -1  -1 37056.9 1671.52   4
 -15  -1   1 30796.9 1448.61   1
 -15  -1   1 30428.4 1361.98   3
  15  -1  -1 31620.2 1672.49   1
  15  -1  -1 29251.9 1802.50   6
 -15  -1   1 32829.0 2246.43   6
 -15  -1   0 134895. 2753.83   3
 -15  -1   0 130076. 4100.93   6
 -15  -1   0 144315. 3296.07   1
  15  -1   0 142781. 3636.91   6
  15  -1   1 31521.0 1857.30   1
 -15  -1  -1 31072.3 1513.53   3
 -15  -1  -1 34235.1 2277.93   6
 -15  -1  -1 31043.9 1796.89   1
  15  -1   2 7531.96 1358.94   1
 -15  -1  -2 7585.30 1136.87   3
  15  -1   3 149953. 4103.88   1
  15  -1   4 9668.99 1657.49   1
  15  -1   4 7268.08 1329.37   2
  15  -1   5 8766.00 1704.24   2
  15  -1   6 15234.9 1662.68   7
  15  -1   6 11238.8 1780.08   2
  15  -1   7 29103.4 2152.93   7
  15  -1   7 28663.7 2527.12   2
  15  -1   8 29494.0 2268.94   7
 -15  -1  -8 28652.2 3131.04   6
  15  -1   8 34400.3 2938.67   2
  15  -1   9 17236.9 2100.00   7
 -15  -1  -9 17102.8 2897.26   6
  15  -1   9 22252.6 2733.13   2
  15  -1  10 5372.72 1881.47   7
 -15  -1 -10 5646.24 2235.87   6
  15  -1  10 5244.28 2139.39   2
  15  -1  11 9379.44 2267.18   2
  15  -1  11 11375.9 2046.54   7
 -15  -1 -11 13206.3 2945.92   6
  15  -1  12 9337.63 2433.42   2
 -15  -1 -12 8104.37 2843.45   6
  15  -1  13 1147.07 1964.13   2
 -15  -1 -13 5999.89 2844.49   6
  15   1 -14 18457.9 3338.64   6
  15   1 -14 18665.3 1691.84   1
 -15   1  14 14366.9 1902.46   4
  15   1 -13 17574.8 2856.73   6
  15   1 -13 16560.1 1652.60   1
 -15   1  13 14052.5 1799.92   4
  15   1 -12 2409.86 1941.70   6
  15   1 -12 3972.19 1145.25   1
 -15   1  12 5578.41 1402.92   4
  15   1 -11 31504.8 3541.75   6
  15   1 -11 29161.9 1844.58   1
 -15   1  11 22158.1 1864.62   4
  15   1 -10 28612.4 3132.11   6
  15   1 -10 29276.3 1777.73   1
 -15   1  10 23727.2 1855.39   4
  15   1  -9 13815.4 2706.71   6
  15   1  -9 12887.6 1392.34   1
 -15   1   9 12176.1 1529.57   4
  15   1  -8 70948.8 4116.38   6
  15   1  -8 74075.3 2456.98   1
 -15   1   8 69618.5 2702.55   4
  15   1  -7 31827.8 2878.55   6
  15   1  -7 34321.8 1673.53   1
 -15   1   7 27486.2 1747.46   4
  15   1  -6 69376.7 3771.40   6
  15   1  -6 56626.1 2110.96   5
 -15   1   6 57842.7 2384.52   4
  15   1  -6 66332.4 2164.98   1
  15   1  -5 36210.8 1475.78   3
  15   1  -5 37145.6 1631.17   1
  15   1  -5 38186.7 2868.54   2
 -15   1   5 28863.0 2420.74   6
  15   1  -5 34835.8 2835.87   6
 -15   1   5 35332.6 1782.40   4
 -15   1   4 28496.3 1518.98   4
  15   1  -4 34036.0 1414.09   3
  15   1  -4 31516.9 2283.59   2
  15   1  -4 31883.8 2406.17   6
  15   1  -4 33173.7 1478.92   1
 -15   1   3 38359.3 2437.11   6
  15   1  -3 35631.4 1594.85   3
  15   1  -3 40112.9 1754.03   1
  15   1  -3 36005.0 2513.93   6
  15   1  -2 238522. 3505.42   3
 -15   1   2 206806. 4641.41   6
  15   1  -2 205350. 5307.89   6
  15   1  -2 225884. 3752.93   1
 -15   1   2 232470. 4065.76   1
  15   1  -2 227885. 4260.82   4
  15   1  -1 40261.4 1902.43   4
 -15   1   1 37831.5 1760.66   1
  15   1  -1 39781.3 1888.77   1
  15   1  -1 40485.5 1531.92   3
 -15   1   1 37870.7 2188.82   6
  15   1  -1 40344.2 2369.68   6
  15   1   0 175452. 3688.99   4
 -15   1   0 173672. 3537.93   1
  15   1   0 173054. 2997.35   3
  15   1   0 167449. 3798.91   1
 -15   1   0 163524. 4234.43   6
  15   1   0 172678. 4297.16   6
  15   1   1 39026.7 2303.76   1
 -15   1  -1 40777.7 1839.21   1
  15   1   1 35336.5 1507.95   3
 -15   1  -1 34737.3 2160.79   6
  15   1   1 41597.9 2175.92   6
  15   1   2 16468.5 1445.75   2
 -15   1  -2 15414.7 1630.21   6
  15   1   2 13059.0 1541.84   6
  15   1   2 15118.9 1898.61   1
  15   1   3 155743. 3514.18   7
  15   1   3 145031. 3938.75   2
  15   1   4 12263.8 1331.74   7
  15   1   4 11999.0 1575.60   2
  15   1   5 6963.86 1328.60   7
  15   1   5 5542.18 1630.99   2
  15   1   6 19466.3 1928.19   7
 -15   1  -6 13237.3 2326.95   6
  15   1   6 14998.9 2168.05   2
  15   1   7 37142.7 2509.16   7
 -15   1  -7 27529.0 3105.87   6
  15   1   7 34895.9 3039.15   2
  15   1   8 42572.0 2849.89   7
 -15   1  -8 42528.2 3823.36   6
  15   1   8 42974.9 3511.64   2
 -15   1  -9 20251.3 3129.00   6
  15   1   9 23706.9 2936.58   2
  15   1  10 6804.45 2220.65   2
 -15   1 -10 5162.15 2493.33   6
  15   1  11 3695.40 1989.31   2
 -15   1 -11 4000.04 2456.09   6
  15   1  12 7764.32 2421.03   2
 -15   1 -12 8829.97 3019.23   6
  15   1  13 5406.02 2550.10   2
 -15   1 -13 1140.95 2790.57   6
  15   3 -13 25418.6 3456.06   6
  15   3 -12 10925.3 2827.36   6
  15   3 -11 32415.7 3553.59   6
 -15   3  11 24019.4 1755.91   4
  15   3 -10 18341.6 2911.96   6
 -15   3  10 14278.0 1397.80   4
  15   3  -9 50287.5 1635.88   1
  15   3  -9 49372.3 4057.06   6
 -15   3   9 42313.2 1886.43   4
  15   3  -8 13873.3 926.621   1
  15   3  -8 15117.9 2510.09   6
 -15   3   8 12595.3 1168.49   4
 -15   3   7 839.118 738.431   4
  15   3  -7 2441.29 816.203   7
  15   3  -7 2822.96 1788.36   6
 -15   3   7 2654.69 1306.36   6
  15   3  -7 2029.16 652.775   1
  15   3  -6 82025.8 2004.86   7
 -15   3   6 67928.3 2957.48   6
  15   3  -6 89161.4 4477.50   6
  15   3  -6 72666.5 1717.43   1
  15   3  -6 75279.4 3081.76   2
  15   3  -5 40483.7 2231.70   2
  15   3  -5 37782.2 1350.95   1
  15   3  -5 45084.8 1282.57   7
  15   3  -5 40456.0 3257.65   6
  15   3  -4 34843.0 1967.80   2
 -15   3   4 30954.1 1851.09   6
  15   3  -4 34333.2 2736.98   6
  15   3  -4 28497.7 1315.23   1
  15   3  -3 19468.2 1465.90   2
 -15   3   3 18575.3 1423.62   6
  15   3  -3 22132.0 2080.66   6
  15   3  -3 17506.8 1220.59   1
 -15   3   2 22823.1 1514.90   6
  15   3  -2 35221.4 2419.19   6
 -15   3   1 1743.47 849.898   6
  15   3  -1 3251.82 1262.67   6
  15   3   0 20806.6 1797.74   6
 -15   3   0 20202.8 1559.26   6
  15   3   0 18158.1 1167.98   2
  15   3   1 57324.4 2544.14   6
 -15   3  -1 58597.1 2446.28   6
  15   3   1 61593.2 2279.72   2
  15   3   2 36947.1 2076.80   6
  15   3   2 41756.8 2181.81   2
 -15   3  -3 18828.9 2456.54   6
  15   3   3 22926.7 1766.68   6
  15   3   3 23011.1 1970.32   2
 -15   3  -4 35147.9 3160.77   6
  15   3   4 35339.5 2561.31   2
 -15   3  -5 121199. 5584.09   6
  15   3   5 123593. 4751.45   2
  15   3   6 6556.02 1810.85   2
 -15   3  -6 8387.31 2306.29   6
  15   3   7 5920.26 1932.17   2
 -15   3  -7 2070.31 2296.72   6
 -15   3  -8 32588.3 3660.84   6
  15   3   8 30698.4 3077.69   2
  15   3   9 5136.43 2080.31   2
 -15   3  -9 3367.85 2350.06   6
  15   3  10 1242.89 2069.17   2
 -15   3 -10 3375.43 2436.61   6
 -15   3 -11 3249.04 2626.49   6
  15   3  11-501.755 2058.90   2
  15   3  12 17493.0 3186.00   2
  15   5 -11 22883.1 3180.29   6
  15   5 -10 13542.1 2781.52   6
  15   5  -9 10878.7 2579.49   6
  15   5  -8 28314.1 3093.63   6
  15   5  -7 31153.1 3069.66   6
  15   5  -6 9390.52 2083.07   6
  15   5  -5 10600.8 1955.46   6
  15   5  -4 27586.6 2492.33   6
  15   5  -3 27030.6 2446.14   6
  15   5  -2 7111.10 1574.38   6
 -15   5   1 13230.1 1260.29   6
  15   5  -1 13124.0 1673.47   6
 -15   5   0 38009.1 2172.81   6
  15   5   0 36257.4 2239.27   6
  15   5   1 3637.33 1074.18   6
 -15   5  -1 2152.26 1325.04   6
  15   5   2 4487.60 1049.63   2
 -15   5  -2 6484.30 1715.25   6
  15   5   2 4222.51 1094.63   6
  15   5   3 8015.55 1442.13   2
 -15   5  -3 5179.44 1754.73   6
 -15   5  -4 8720.56 2096.98   6
  15   5   4 5016.75 1448.24   2
  15   5   5 17789.3 2137.79   2
 -15   5  -5 20845.8 2873.11   6
  15   5   6 10473.1 1980.34   2
 -15   5  -6 9365.78 2440.71   6
  15   5   7 24652.2 2730.86   2
 -15   5  -7 26760.0 3555.28   6
  15   5   8 8263.41 2233.34   2
 -15   5  -8 2281.83 2228.38   6
  15   5   9-1397.94 2049.87   2
 -15   5  -9-2335.22 2392.59   6
 -16  -6   8 8388.38 1587.64   3
  16  -6  -8 10032.7 1776.02   1
 -16  -6   7 8301.47 1613.55   4
 -16  -6   7 9435.78 1614.45   3
  16  -6  -7 10567.4 1855.22   1
 -16  -6   6 9518.67 1587.99   4
 -16  -6   6 10834.6 1638.27   3
  16  -6  -6 10953.0 1647.82   1
 -16  -6   5 16600.6 1658.77   4
  16  -6  -5 16874.1 1714.30   1
 -16  -6   5 15912.0 1794.72   3
  16  -6  -5 15194.9 1589.40   3
  16  -6  -4 9384.68 1407.49   1
  16  -6  -4 12322.7 1506.38   3
 -16  -6   4 9105.56 1483.81   3
  16  -6  -3 8313.19 1412.64   3
  16  -6  -3 9607.16 1422.62   1
 -16  -6   3 7501.70 1425.25   3
  16  -6  -3 8340.92 1191.58   5
 -16  -6   2 14134.5 1600.92   3
  16  -6  -2 13297.4 1358.59   1
 -16  -6   1 2163.93 1174.03   3
  16  -6  -1 6172.18 1309.42   5
  16  -6  -1 5307.45 1149.53   1
  16  -6   0 436.331 952.320   1
 -16  -6   0 132.903 1045.83   3
 -16  -6  -1 14691.0 1582.58   3
  16  -6   1 11932.3 1387.20   1
  16  -6   2 16445.7 1591.36   1
 -16  -6  -2 16049.5 1584.20   3
 -16  -6  -3 4927.77 1144.71   3
  16  -6   3 2689.99 1106.06   2
 -16  -6  -4 1423.53 1120.40   3
 -16  -6  -5 28243.8 1814.27   3
 -16  -6  -6 2768.84 1150.40   3
  16  -6   7 1130.82 1248.14   7
 -16  -6  -7 884.473 1091.05   3
  16  -6   7 724.010 1283.08   4
  16  -4 -12 9952.92 1807.56   1
 -16  -4  12 10475.8 1858.20   4
  16  -4 -11 14424.6 1959.44   1
 -16  -4  11 11313.3 1838.37   4
 -16  -4  10 6388.52 1270.71   3
  16  -4 -10 4665.54 1515.30   1
 -16  -4  10 4482.49 1654.92   4
 -16  -4   9 27385.8 1847.36   3
  16  -4  -9 31020.3 2384.38   1
 -16  -4   8 15273.4 1548.59   3
  16  -4  -8 17088.6 1856.07   1
 -16  -4   8 14352.4 1884.21   4
 -16  -4   7 26739.5 1841.14   3
  16  -4  -7 28925.5 2133.34   1
 -16  -4   7 23001.7 2079.59   4
 -16  -4   6 10585.0 1458.59   3
  16  -4  -6 13000.6 931.927   6
  16  -4  -6 14920.8 1778.62   1
 -16  -4   6 11693.4 1800.28   4
  16  -4  -5 27259.7 1519.53   3
 -16  -4   5 26174.5 1780.52   3
  16  -4  -5 26551.3 1237.96   5
  16  -4  -5 28914.1 2040.97   1
 -16  -4   5 21788.9 1884.37   4
 -16  -4   4 17202.4 1572.12   4
 -16  -4   4 21296.8 1624.18   3
 -16  -4   3 9726.27 1364.94   4
 -16  -4   3 10436.6 1304.04   3
  16  -4  -3 11409.5 726.188   4
 -16  -4   3 11132.3 694.889   1
 -16  -4   2 21380.2 1621.06   4
 -16  -4   2 24267.2 1656.74   3
 -16  -4   2 20966.2 1009.22   1
  16  -4  -2 20322.0 999.592   4
  16  -4  -1 18483.4 1086.28   4
  16  -4  -1 20229.3 1502.04   1
 -16  -4   1 20866.1 1552.21   3
 -16  -4   0 188094. 4004.07   3
 -16  -4   0 188488. 3651.93   1
 -16  -4  -1 8007.70 1213.22   3
  16  -4   1 8519.57 1306.57   1
 -16  -4  -2 9640.65 1234.49   3
  16  -4   2 11787.9 1554.24   1
  16  -4   3 50662.3 2317.08   1
 -16  -4  -3 58180.9 2211.87   3
 -16  -4  -4 11174.7 1246.17   3
  16  -4   4 9811.16 1467.34   2
  16  -4   4 11825.9 1494.12   1
  16  -4   5 28636.1 2149.97   1
 -16  -4  -5 26551.4 1739.50   3
  16  -4   5 29220.3 2129.00   2
 -16  -4  -6 7150.64 1199.99   3
  16  -4   6 3803.00 1409.24   1
  16  -4   6 6250.99 1530.07   2
  16  -4   7 20676.3 1959.14   7
 -16  -4  -7 21484.0 1578.91   3
  16  -4   7 21357.1 2236.34   2
  16  -4   8 2998.56 1392.95   7
 -16  -4  -8 6920.34 2153.15   6
 -16  -4  -8 2831.01 1135.17   3
  16  -4   8 6765.65 1786.89   2
  16  -4   9 1121.34 1307.01   7
 -16  -4  -9 4470.78 2018.20   6
  16  -4   9 2827.95 1866.95   2
  16  -4  10 4031.67 1578.95   7
 -16  -4 -10 731.381 2029.44   6
  16  -4  10 3832.19 1979.03   2
  16  -2 -13 14174.8 2593.52   6
  16  -2 -13 15862.3 2076.15   1
 -16  -2  13 14898.9 2010.69   4
  16  -2 -12 1547.71 1996.61   6
  16  -2 -12 2647.21 1483.19   1
 -16  -2  12 1265.52 1466.00   4
  16  -2 -11 56995.9 3581.53   6
  16  -2 -11 49952.3 2746.50   1
 -16  -2  11 48106.0 2836.91   4
 -16  -2  10 13806.4 1078.20   3
  16  -2 -10 17603.0 2431.47   6
  16  -2 -10 16142.3 1961.62   1
 -16  -2  10 13543.0 1951.24   4
 -16  -2   9 15826.0 1112.96   3
  16  -2  -9 17155.7 2119.51   6
  16  -2  -9 18064.9 1827.37   1
 -16  -2   9 16296.6 1787.42   4
 -16  -2   8 22168.5 1229.06   3
  16  -2  -8 22900.8 2084.96   6
  16  -2  -8 24113.3 1962.52   1
 -16  -2   8 22113.8 1925.39   4
 -16  -2   7 53468.0 1816.52   3
  16  -2  -7 62268.6 3005.34   6
  16  -2  -7 63457.2 2772.78   1
 -16  -2   7 57644.3 2774.37   4
 -16  -2   6 4659.83 856.922   3
  16  -2  -6 2903.50 369.106   3
  16  -2  -6 5547.32 1407.16   6
  16  -2  -6 4006.50 976.532   4
  16  -2  -6 4759.32 1338.97   1
 -16  -2   6 4378.04 1386.59   4
 -16  -2   5 64004.4 1933.57   3
 -16  -2   5 66131.0 2016.77   1
  16  -2  -5 65716.8 2095.86   4
  16  -2  -5 65594.7 2740.75   1
 -16  -2   5 65728.8 2776.80   4
 -16  -2   4 71796.9 2094.49   3
  16  -2  -4 70625.5 2651.03   6
 -16  -2   4 66443.4 1828.83   1
  16  -2  -4 70885.0 2039.19   4
 -16  -2   4 67965.2 2630.28   4
 -16  -2   3 61777.1 2458.73   4
  16  -2  -3 67452.2 2450.19   1
 -16  -2   3 65435.1 1997.38   3
  16  -2  -3 64037.0 2457.34   6
  16  -2  -3 69656.3 2113.49   4
 -16  -2   3 58371.1 1785.83   1
  16  -2  -2 79955.7 2247.24   4
 -16  -2   2 72348.0 2563.72   4
 -16  -2   2 70484.1 1958.24   1
  16  -2  -2 77252.7 2627.63   1
 -16  -2   2 72012.0 2091.97   3
  16  -2  -2 71411.2 2502.25   6
 -16  -2   1 2552.95 784.856   1
 -16  -2   1 3737.32 848.089   3
  16  -2  -1 3498.67 895.422   6
  16  -2  -1 4123.11 980.296   1
 -16  -2   0 113376. 2606.93   3
  16  -2   0 116316. 3159.16   1
 -16  -2   0 113233. 2878.15   1
 -16  -2  -1 5831.94 1267.57   1
 -16  -2  -1 3501.76 880.958   3
  16  -2   1 4233.77 1133.14   1
  16  -2   2 2625.82 1208.33   1
 -16  -2  -2 2360.36 946.907   3
 -16  -2  -3 28841.3 1656.75   3
  16  -2   3 25014.7 1895.59   1
  16  -2   4 48389.5 2688.06   1
 -16  -2  -4 51147.3 2122.67   3
  16  -2   4 45925.8 2434.15   2
 -16  -2  -5 44746.9 2149.55   3
  16  -2   5 39353.2 2458.70   2
  16  -2   5 39903.5 2621.75   1
  16  -2   6 1827.96 1363.06   2
  16  -2   7 86074.2 3306.31   7
  16  -2   7 96149.3 4259.57   2
  16  -2   8 11785.6 1678.17   7
 -16  -2  -8 9191.99 2266.34   6
  16  -2   8 10846.5 2194.84   2
  16  -2   9 5710.75 1522.85   7
 -16  -2  -9 3012.70 2138.38   6
  16  -2   9 9627.39 2081.86   2
  16  -2  10 24169.2 2414.99   7
 -16  -2 -10 19468.9 2997.61   6
  16  -2  10 22447.8 2738.32   2
  16  -2  11 12438.2 2060.69   7
 -16  -2 -11 11788.0 2756.99   6
  16  -2  11 16119.6 2664.63   2
  16  -2  12 3016.33 2100.60   2
  16  -2  12 2188.97 1579.24   7
 -16  -2 -12-1213.87 2268.66   6
  16   0 -14 1683.96 2415.44   6
  16   0 -14 5637.42 1433.42   1
 -16   0  14 3972.00 1605.88   4
  16   0 -13 31333.3 3381.91   6
  16   0 -13 27756.1 2047.84   1
 -16   0  13 23103.2 2113.56   4
  16   0 -12 55163.8 4223.84   6
  16   0 -12 48561.5 2523.82   1
  16   0 -11 17490.5 2645.39   6
  16   0 -11 16834.9 1685.09   1
 -16   0  11 12062.2 1640.53   4
  16   0 -10 12636.2 2277.49   6
  16   0 -10 11602.7 1464.09   1
 -16   0  10 8214.52 1474.45   4
  16   0  -9 56073.5 3759.83   6
  16   0  -9 56207.5 2449.93   1
 -16   0   9 48276.0 2434.61   4
  16   0  -8 55315.2 3602.52   6
  16   0  -8 54031.0 2317.43   1
 -16   0   8 48409.1 2377.45   4
  16   0  -7 26403.2 2559.91   6
  16   0  -7 21909.4 1140.18   5
  16   0  -7 27806.2 1722.47   1
 -16   0   7 24111.9 1804.35   4
  16   0  -6 34025.6 1055.96   3
  16   0  -6 36503.6 2722.01   6
  16   0  -6 38349.3 1899.66   1
 -16   0   6 32457.4 1888.90   4
  16   0  -5 57941.9 2224.44   1
  16   0  -5 55307.6 1396.45   3
  16   0  -5 52279.4 3064.27   6
 -16   0   4 21004.5 1557.71   4
  16   0  -4 22779.7 1421.15   1
  16   0  -4 23349.0 948.834   3
  16   0  -4 23640.5 2038.50   6
 -16   0   4 25442.0 1451.88   1
  16   0  -3 109096. 2757.59   1
  16   0  -3 99558.3 1898.02   3
 -16   0   3 105878. 3945.17   6
  16   0  -3 105341. 3813.97   6
 -16   0   3 103248. 2698.26   1
  16   0  -3 104397. 2862.77   4
 -16   0   2 369630. 4934.59   1
  16   0  -2 351960. 3608.83   3
 -16   0   2 357828. 6723.40   6
  16   0  -2 417734. 5271.06   1
  16   0  -2 394158. 6703.51   6
  16   0  -2 404028. 5429.98   4
  16   0  -1 77859.0 2494.74   4
 -16   0   1 69835.4 2248.88   1
  16   0  -1 66715.8 1771.80   3
 -16   0   1 67401.7 2943.29   6
  16   0  -1 74755.0 2986.18   6
  16   0  -1 71311.9 2505.18   1
  16   0   0 1101.56 1045.92   1
  16   0   0 1095.81 679.787   3
 -16   0   0 732.209 991.422   6
  16   0   0 1967.15 1000.36   6
 -16   0   0 2489.42 969.481   1
  16   0   1 156811. 3855.95   1
  16   0   1 150287. 2932.85   3
 -16   0  -1 147011. 4338.06   6
 -16   0  -1 161285. 3744.30   1
  16   0   1 152192. 3980.19   6
  16   0   2 166019. 4381.45   1
  16   0   3 19657.9 2084.38   1
  16   0   3 17354.5 1614.47   2
  16   0   4 19231.4 2222.29   1
  16   0   4 21626.5 1840.05   2
  16   0   5 93916.4 3235.03   7
  16   0   5 87229.3 3744.82   2
  16   0   6 5872.63 1352.94   7
  16   0   6 7832.70 1688.48   2
  16   0   7 26003.2 2076.18   7
  16   0   7 29758.9 2793.68   2
  16   0   8 16545.1 1982.42   7
 -16   0  -8 14460.2 2547.97   6
  16   0   8 18475.6 2447.54   2
  16   0   9 17120.4 2123.94   7
 -16   0  -9 17169.4 2815.07   6
  16   0   9 19679.3 2660.36   2
  16   0  10 55753.5 3323.50   7
 -16   0 -10 45533.0 4292.18   6
  16   0  10 49534.3 3950.40   2
  16   0  11 3791.62 2088.39   2
 -16   0 -11 1628.67 2459.01   6
 -16   0 -12 72752.6 5608.77   6
  16   0  12 75425.1 4926.75   2
  16   2 -14 13362.1 3010.03   6
  16   2 -13 13078.2 2917.68   6
 -16   2  13 8580.93 1678.58   4
  16   2 -12 1075.49 943.708   1
  16   2 -12 3328.26 2481.30   6
 -16   2  12 73.6006 1285.70   4
  16   2 -11 59373.0 4396.87   6
  16   2 -11 62112.0 2270.29   1
 -16   2  11 53121.8 2558.89   4
  16   2 -10 18389.9 2980.08   6
  16   2 -10 19667.9 1433.30   1
 -16   2  10 16253.1 1691.29   4
  16   2  -9 19279.1 2639.62   6
 -16   2   9 21029.4 1698.89   4
  16   2  -9 24364.1 1480.81   1
  16   2  -8 29673.9 1463.22   1
  16   2  -8 28875.4 2959.68   6
 -16   2   8 24887.2 1693.44   4
  16   2  -7 57912.1 3756.77   6
 -16   2   7 61307.9 2222.97   4
 -16   2   6 4428.36 1012.94   4
  16   2  -6 3871.91 851.868   1
 -16   2   6 1734.95 1480.82   6
  16   2  -6 5360.83 1984.03   6
 -16   2   5 60946.9 2061.19   4
  16   2  -5 82576.6 2513.70   3
  16   2  -5 76434.5 3316.20   2
 -16   2   5 60644.8 2930.50   6
  16   2  -5 75024.5 2051.67   1
  16   2  -5 75536.2 3842.49   6
  16   2  -4 73235.3 3047.25   2
 -16   2   4 65808.0 2894.82   6
  16   2  -4 67721.2 3513.05   6
  16   2  -4 71937.4 2065.02   1
 -16   2   3 62062.7 2732.25   6
  16   2  -3 69352.0 3339.64   6
  16   2  -3 68040.1 2119.09   1
  16   2  -2 74827.9 2405.88   1
 -16   2   2 68995.0 2624.01   6
 -16   2   1 673.494 962.212   6
  16   2  -1 2210.21 1255.60   6
  16   2  -1 1010.06 946.678   1
  16   2   0 118080. 3689.24   1
 -16   2   0 113753. 3477.04   6
  16   2   1 5011.99 787.429   7
  16   2   1 4816.16 940.898   2
 -16   2  -1 4663.32 1147.28   6
  16   2   1 5128.83 1198.17   6
  16   2   2 729.291 773.600   7
  16   2   2 309.976 956.172   6
  16   2   2 2789.85 1029.82   2
  16   2   3 31240.8 1781.22   7
  16   2   3 30520.5 2104.90   2
  16   2   4 54370.0 2479.24   7
  16   2   4 48999.5 2774.79   2
  16   2   5 49039.0 2585.36   7
 -16   2  -5 43132.0 3585.00   6
  16   2   5 50849.4 3094.44   2
 -16   2  -6 929.248 1837.62   6
  16   2   6 760.533 1516.39   2
 -16   2  -7 90833.9 5432.91   6
  16   2   7 101530. 4862.98   2
 -16   2  -8 14169.1 2794.04   6
  16   2   8 18355.7 2660.85   2
  16   2   9 9018.38 2225.03   2
 -16   2  -9 4376.83 2479.91   6
 -16   2 -10 26887.7 3842.41   6
  16   2  10 24324.2 3015.11   2
  16   2  11 12840.1 2745.71   2
 -16   2 -11 7877.93 2898.65   6
  16   2  12 4648.44 2581.00   2
 -16   2 -12 2124.27 2745.82   6
  16   4 -12 14538.1 2993.36   6
  16   4 -11 16007.5 2856.80   6
  16   4 -10 5175.47 2491.12   6
  16   4  -9 26845.7 3121.52   6
  16   4  -8 5986.69 2008.01   6
  16   4  -7 24474.6 2722.94   6
  16   4  -6 12093.7 2214.29   6
  16   4  -5 26383.7 2548.28   6
 -16   4   4 13451.9 1124.43   6
  16   4  -4 13000.2 1041.00   2
 -16   4   3 7491.85 1006.60   6
  16   4  -3 10618.9 1786.49   6
  16   4  -2 21066.9 1035.98   2
  16   4  -2 21143.8 850.603   2
 -16   4   1 19859.0 1497.21   6
  16   4  -1 18892.1 1015.82   2
 -16   4   0 188606. 5015.62   6
 -16   4   0 171536. 3935.33   6
  16   4   0 182874. 4771.22   6
  16   4   0 169929. 3204.61   2
 -16   4  -1 6222.81 1590.84   6
 -16   4  -1 11589.6 1427.63   6
  16   4   1 11252.3 1494.84   6
  16   4   1 8284.75 1234.93   2
 -16   4  -2 16583.6 2321.90   6
  16   4   2 12476.0 1518.12   6
  16   4   2 16727.9 1693.22   2
 -16   4  -3 61502.9 3807.37   6
  16   4   3 60833.0 2594.81   6
  16   4   3 64204.0 2981.23   2
 -16   4  -4 14854.4 2438.90   6
  16   4   4 14077.4 1889.82   2
 -16   4  -5 33004.9 3431.06   6
  16   4   5 36104.2 2817.94   2
  16   4   6 6855.12 1892.44   2
 -16   4  -6 4511.98 2489.46   6
 -16   4  -7 33552.3 3681.32   6
  16   4   7 28394.0 2949.55   2
  16   4   8 8383.72 2213.30   2
 -16   4  -8 6164.74 2370.62   6
  16   4   9 9557.94 2507.42   2
 -16   4  -9 7981.91 3015.59   6
  16   4  10 8040.18 2555.02   2
 -16   4 -10 10860.7 3111.64   6
  16   6  -8 13491.7 2432.65   6
  16   6  -7 10443.4 2119.50   6
  16   6  -6 8908.76 1995.50   6
  16   6  -5 16232.2 2108.57   6
  16   6  -4 9867.62 1886.25   6
  16   6  -3 7848.20 1796.42   6
  16   6  -2 18862.6 1972.24   6
  16   6  -1 2288.26 1309.74   6
  16   6   0 168.498 1044.41   6
  16   6   1 13759.2 1518.34   6
 -16   6  -5 50764.2 3744.64   6
 -16   6  -6 9951.04 2646.88   6
 -16   6  -7 2659.29 2313.91   6
  17  -7  -4 12522.4 1653.26   3
 -17  -7   4 9687.39 1659.96   3
  17  -7  -4 7166.37 1391.41   1
  17  -7  -3 12004.7 1660.89   3
  17  -7  -3 10506.9 1385.09   1
 -17  -7   3 11515.2 1679.75   3
  17  -7  -2 10960.4 1785.53   3
 -17  -7   2 8757.79 1529.54   3
  17  -7  -2 7542.32 1242.05   1
  17  -7  -1 1063.20 1422.64   3
 -17  -7   1 1490.05 1135.01   3
  17  -7  -1 1699.56 1195.21   5
 -17  -7   0 19071.2 1772.60   3
  17  -7   0 28863.6 2312.83   5
 -17  -7  -1 654.879 1118.71   3
  17  -7   1 3975.25 1457.93   5
 -17  -7  -2 674.221 1157.91   3
  17  -7   2 7050.27 1639.37   5
 -17  -7  -3 8992.67 1325.13   3
  17  -7   3 16154.2 1998.83   5
  17  -5 -10 7045.08 1685.11   1
 -17  -5  10 6853.24 1493.65   3
 -17  -5  10 10572.6 1948.94   4
 -17  -5   9 759.098 1424.90   4
 -17  -5   9 1454.49 1191.85   3
 -17  -5   8 7177.96 1608.97   4
  17  -5  -8 6302.85 1476.05   1
 -17  -5   8 8558.88 1484.16   3
 -17  -5   7 29666.8 2120.49   3
  17  -5  -7 34456.2 2403.95   1
 -17  -5   6 5055.48 1420.49   4
 -17  -5   6 5670.11 1412.92   3
  17  -5  -6 7179.06 1085.11   3
  17  -5  -5 11242.4 1521.24   1
  17  -5  -5 13708.1 1381.21   3
 -17  -5   5 11092.4 1513.76   3
 -17  -5   4 22861.6 1785.49   4
  17  -5  -4 30264.1 2006.70   1
 -17  -5   4 24134.0 1824.00   3
  17  -5  -4 34285.0 1697.71   5
 -17  -5   3 4611.29 1208.32   4
 -17  -5   3 2233.35 1106.00   3
  17  -5  -3 3839.61 1188.83   1
 -17  -5   2 6660.78 1275.52   3
  17  -5  -2 6668.56 1191.38   1
 -17  -5   1 17265.0 1571.48   3
  17  -5  -1 19388.3 1592.71   1
 -17  -5   0 42865.4 2218.06   3
  17  -5   0 42427.5 2168.51   1
  17  -5   1 4189.42 1188.16   1
 -17  -5  -1 5555.35 1183.99   3
 -17  -5  -2 9320.35 1306.77   3
  17  -5   2 8296.58 1356.32   1
  17  -5   3 11717.7 1401.03   1
 -17  -5  -3 11540.5 1324.52   3
 -17  -5  -4 14414.7 1432.15   3
  17  -5   4 12202.9 1578.12   2
  17  -5   4 14502.0 1576.95   1
  17  -5   5 6249.34 1383.87   1
 -17  -5  -5 6353.67 1224.67   3
  17  -5   5 6712.72 1382.96   2
  17  -5   6 3656.45 1431.53   1
 -17  -5  -6 1994.83 968.932   3
  17  -5   6 3937.10 1443.13   2
  17  -5   7 18065.1 1929.38   7
 -17  -5  -7 15234.3 1508.38   3
  17  -5   7 13324.1 1901.48   2
  17  -5   8 963.527 1284.47   7
 -17  -5  -8 696.941 1115.25   3
  17  -5   8 156.733 1453.05   2
 -17  -5  -9 3314.03 1286.30   3
  17  -5   9 5130.21 1576.14   7
  17  -5   9 3891.83 1830.52   2
  17  -3 -13 10117.1 1849.99   1
 -17  -3  13 11000.9 1889.49   4
  17  -3 -12 43084.9 2803.16   1
 -17  -3  12 26293.0 2404.05   4
  17  -3 -11 17496.6 2034.05   1
 -17  -3  11 12871.6 1805.88   4
 -17  -3  10 6516.48 1090.99   3
  17  -3 -10 7574.61 1605.18   6
  17  -3 -10 8842.27 1621.08   1
 -17  -3   9 22318.3 1471.90   3
  17  -3  -9 26222.0 2170.48   6
  17  -3  -9 26018.3 2216.94   1
 -17  -3   9 22749.6 2163.95   4
 -17  -3   8 19892.9 1454.76   3
  17  -3  -8 22241.7 1804.07   6
  17  -3  -8 25589.2 2065.66   1
 -17  -3   8 23669.3 2092.84   4
 -17  -3   7 3393.46 1318.76   4
  17  -3  -7 3748.11 1278.37   1
  17  -3  -7 4078.10 472.033   3
 -17  -3   7 4471.02 990.737   3
  17  -3  -7 2375.19 1127.67   6
 -17  -3   6 23423.8 1528.68   3
  17  -3  -6 25036.7 1661.44   6
  17  -3  -6 21945.7 1271.73   4
  17  -3  -6 27625.7 2005.11   1
 -17  -3   6 24452.0 1970.72   4
 -17  -3   5 45462.7 1985.70   3
 -17  -3   5 37487.0 1365.66   1
  17  -3  -5 45777.6 2100.25   6
  17  -3  -5 38344.8 1493.51   4
  17  -3  -5 49849.5 2534.82   1
 -17  -3   5 45580.3 2420.85   4
 -17  -3   4 9412.03 1324.67   4
  17  -3  -4 10606.3 1372.53   1
 -17  -3   4 10533.8 1141.59   3
  17  -3  -4 10479.3 1087.98   6
 -17  -3   4 8600.98 739.472   1
  17  -3  -4 7126.37 794.960   4
 -17  -3   3 44731.7 2219.73   4
  17  -3  -3 52084.3 2270.63   1
 -17  -3   3 49891.6 2008.27   3
  17  -3  -3 44775.3 1900.56   6
  17  -3  -3 44632.0 1608.06   4
 -17  -3   3 43840.7 1458.35   1
  17  -3  -2 47156.7 1695.65   4
 -17  -3   2 46084.2 2235.78   4
  17  -3  -2 51881.6 2256.84   1
 -17  -3   2 44223.6 1543.22   1
 -17  -3   2 54668.1 2118.07   3
 -17  -3   1 19435.4 1402.85   3
  17  -3  -1 21481.5 1574.02   1
 -17  -3   1 16519.8 1243.62   1
 -17  -3   0 10898.2 1135.63   3
  17  -3   0 11748.4 1341.53   1
 -17  -3   0 8788.87 1136.66   1
 -17  -3  -1 40786.1 1853.05   3
  17  -3   1 41941.5 2085.32   1
  17  -3   2 48107.1 2355.26   1
 -17  -3  -2 39852.0 1855.39   3
  17  -3   3-438.688 1011.58   1
 -17  -3  -3 502.561 909.662   3
 -17  -3  -4 3324.66 1035.28   3
  17  -3   4 3493.62 1156.93   2
  17  -3   4 4624.79 1307.69   1
  17  -3   5 64383.7 3171.38   1
 -17  -3  -5 61731.1 2385.02   3
  17  -3   5 58290.8 2943.31   2
  17  -3   6 20283.2 2182.96   1
 -17  -3  -6 20221.1 1682.52   3
  17  -3   7 1447.12 1158.29   7
 -17  -3  -7 2717.85 1113.14   3
  17  -3   7 2836.59 1493.20   2
  17  -3   8 12443.5 1732.59   7
  17  -3   8 15035.5 2049.55   2
  17  -3   9 14033.6 1903.54   7
 -17  -3  -9 11952.6 2422.25   6
  17  -3   9 15759.9 2323.96   2
  17  -3  10 2589.84 1460.84   7
 -17  -3 -10-2611.38 2272.36   6
  17  -3  10 740.093 1788.63   2
  17  -3  11 7455.87 1903.64   7
 -17  -3 -11 4140.34 2411.50   6
  17  -3  11 5919.28 2153.96   2
  17  -1 -14 21706.4 2955.09   6
  17  -1 -14 22442.1 2218.26   1
 -17  -1  14 14650.3 1963.84   4
  17  -1 -13 10975.8 2482.81   6
  17  -1 -13 9532.66 1729.62   1
 -17  -1  13 7356.98 1771.15   4
  17  -1 -12 14246.2 2643.63   6
  17  -1 -12 10537.6 1586.60   1
 -17  -1  12 9745.00 1725.08   4
  17  -1 -11 42772.7 3318.77   6
  17  -1 -11 44652.1 2512.97   1
 -17  -1  11 34690.9 2302.22   4
  17  -1 -10 33313.3 3030.03   6
  17  -1 -10 32469.1 2140.54   1
 -17  -1  10 29045.2 2143.14   4
  17  -1  -9 28390.9 2745.43   6
  17  -1  -9 31219.0 2097.35   1
 -17  -1   9 26292.7 2048.80   4
  17  -1  -8 53595.4 3305.26   6
  17  -1  -8 53653.4 2527.96   1
 -17  -1   8 48179.2 2619.84   4
 -17  -1   7 51167.6 1318.29   3
  17  -1  -7 62795.6 3330.26   6
  17  -1  -7 46464.2 1194.93   5
  17  -1  -7 67067.8 2667.77   1
 -17  -1   7 58099.3 2670.50   4
  17  -1  -6 9695.74 439.058   3
 -17  -1   6 10062.6 792.651   3
  17  -1  -6 10763.5 1381.18   1
 -17  -1   6 7919.87 1384.05   4
  17  -1  -5 12040.3 631.773   3
 -17  -1   5 9972.40 827.839   3
  17  -1  -5 8307.57 1508.79   6
 -17  -1   5 10104.6 1091.12   1
 -17  -1   5 11346.7 1456.25   4
 -17  -1   4 29745.5 1860.39   4
  17  -1  -4 37831.4 1904.37   1
 -17  -1   4 33439.2 1270.38   3
  17  -1  -4 35388.0 1064.66   3
  17  -1  -4 34602.2 2293.82   6
 -17  -1   4 34990.7 1546.82   1
  17  -1  -4 34231.3 1613.75   4
 -17  -1   3 68934.5 2622.78   4
  17  -1  -3 87293.6 2766.96   1
 -17  -1   3 69939.3 1906.91   3
  17  -1  -3 75773.0 1752.53   3
  17  -1  -3 74143.8 3089.83   6
 -17  -1   3 71399.8 2304.23   1
  17  -1  -3 87844.7 2641.04   4
  17  -1  -2 45144.3 1902.24   4
 -17  -1   2 42506.6 1742.13   1
  17  -1  -2 44362.0 1980.80   1
 -17  -1   2 43676.0 1582.37   3
  17  -1  -2 42089.0 1546.53   3
  17  -1  -2 42236.7 2269.54   6
  17  -1  -1 68359.2 2284.88   4
 -17  -1   1 59504.6 2033.48   1
 -17  -1   1 61847.2 1958.12   3
  17  -1  -1 65391.0 2415.61   1
  17  -1  -1 61030.4 2588.33   6
 -17  -1   0 192979. 3419.42   3
 -17  -1   0 194067. 3865.44   1
  17  -1   0 195763. 4430.98   6
  17  -1   0 190629. 4020.29   1
  17  -1   1 3945.80 1052.21   1
 -17  -1  -1 4105.90 1039.95   3
  17  -1   2 6200.59 1248.49   1
 -17  -1  -2 5297.20 1082.94   3
  17  -1   3 45533.4 2639.19   1
  17  -1   4 48710.9 2798.03   1
  17  -1   4 47635.0 2530.17   2
  17  -1   5 47390.1 3080.54   1
  17  -1   5 52855.5 2886.41   2
  17  -1   6 182.971 1112.34   7
  17  -1   6 136.847 1311.83   2
  17  -1   7 37079.8 2319.04   7
  17  -1   7 38772.8 2864.61   2
  17  -1   8 3532.41 1296.33   7
 -17  -1  -8 1604.19 1975.74   6
  17  -1   8 3105.78 1587.57   2
  17  -1   9 18161.4 2181.03   7
 -17  -1  -9 16806.1 2914.96   6
  17  -1   9 15211.6 2457.89   2
  17  -1  10 11183.7 1996.31   7
 -17  -1 -10 8276.75 2601.71   6
  17  -1  10 11089.0 2400.86   2
  17  -1  11 7866.17 2396.53   2
  17  -1  11 9506.19 2020.84   7
 -17  -1 -11 8774.61 2711.59   6
  17  -1  12 8036.44 2476.98   2
 -17  -1 -12 1323.24 2320.41   6
  17   1 -14 24054.4 3324.27   6
  17   1 -14 28910.8 2012.07   1
 -17   1  14 19191.8 2060.94   4
  17   1 -13 8287.79 2804.95   6
  17   1 -13 11915.5 1497.53   1
 -17   1  13 12135.3 1775.21   4
  17   1 -12 11143.3 2416.68   6
  17   1 -12 9319.86 1334.95   1
 -17   1  12 8049.84 1509.25   4
  17   1 -11 47350.6 3962.32   6
  17   1 -11 49572.0 2260.44   1
 -17   1  11 44135.5 2440.84   4
  17   1 -10 27519.6 3096.09   6
  17   1 -10 25004.6 1735.88   1
 -17   1  10 21034.3 1918.05   4
  17   1  -9 26407.3 2954.87   6
  17   1  -9 28215.3 1696.64   1
 -17   1   9 21593.4 1832.37   4
  17   1  -8 50034.3 3570.88   6
  17   1  -8 58430.1 2264.74   1
 -17   1   8 48764.9 2313.29   4
  17   1  -7 69717.3 2298.15   1
  17   1  -7 67882.0 3939.38   6
  17   1  -6 7505.24 860.017   3
  17   1  -6 9222.02 1088.11   1
  17   1  -6 9369.57 1839.56   6
 -17   1   6 6954.26 1143.57   4
 -17   1   5 8142.99 1216.70   4
  17   1  -5 9742.47 1008.96   3
  17   1  -5 9591.61 1159.78   1
  17   1  -5 8866.54 1892.66   6
  17   1  -4 56231.0 1799.14   3
  17   1  -4 52884.6 1903.77   1
  17   1  -4 50647.9 2910.01   2
 -17   1   4 54857.3 2866.07   6
  17   1  -4 52064.6 2947.04   6
  17   1  -3 72642.2 2183.12   3
 -17   1   3 68092.5 3106.73   6
  17   1  -3 69104.6 3539.16   6
  17   1  -3 73798.8 2359.24   1
  17   1  -2 52887.8 1816.05   3
 -17   1   2 46839.2 2483.98   6
  17   1  -2 52007.7 2845.66   6
  17   1  -2 46912.6 1988.39   1
  17   1  -1 61070.6 2323.04   1
  17   1  -1 62305.1 1998.71   3
 -17   1   1 63675.1 2920.81   6
  17   1  -1 64580.7 3016.79   6
  17   1   0 172837. 4021.07   1
 -17   1   0 163632. 4500.45   6
  17   1   1 7066.97 1442.15   1
  17   1   1 7366.43 1353.22   6
  17   1   2 10992.8 1755.99   1
  17   1   2 12570.9 1503.61   6
  17   1   3 42262.7 2016.55   7
  17   1   3 36456.8 2208.11   2
  17   1   4 43793.3 2130.74   7
  17   1   4 41621.6 2524.14   2
  17   1   5 43936.4 2393.84   7
  17   1   5 49533.8 3051.32   2
  17   1   6 2406.59 1415.08   7
  17   1   6-171.752 1424.97   2
  17   1   7 48509.3 2823.32   7
 -17   1  -7 40459.1 3651.55   6
  17   1   7 46923.0 3413.21   2
 -17   1  -8 3479.17 2116.63   6
  17   1   8 6703.29 1634.31   7
  17   1   8 4494.78 1897.98   2
 -17   1  -9 5933.31 2441.28   6
  17   1   9 6298.43 2149.77   2
 -17   1 -10 6918.20 2630.11   6
  17   1  10 12425.6 2558.16   2
 -17   1 -11 15632.5 3122.17   6
  17   1  11 15215.3 2779.69   2
  17   1  12-1350.90 2295.01   2
 -17   1 -12 1314.54 2745.65   6
  17   3 -13 13101.2 2805.53   6
  17   3 -12 42938.7 4127.69   6
  17   3 -11 15248.7 2766.14   6
 -17   3  11 18829.2 1637.35   4
  17   3 -10 10024.0 2462.87   6
 -17   3  10 9197.58 1268.04   4
 -17   3   9 24300.6 1600.88   4
  17   3  -9 29788.8 1323.92   1
  17   3  -9 26508.5 3243.18   6
 -17   3   8 19657.3 1347.57   4
  17   3  -8 20485.9 1135.92   1
  17   3  -8 22853.3 2875.50   6
 -17   3   7 3263.54 869.083   4
  17   3  -7 5829.20 2017.45   6
  17   3  -7 6066.46 889.376   1
  17   3  -6 24428.0 2013.18   2
  17   3  -6 30932.9 1316.89   7
 -17   3   6 28899.8 2100.45   6
  17   3  -6 34972.1 2927.28   6
  17   3  -6 29156.6 1314.16   1
  17   3  -5 48061.0 2574.71   2
  17   3  -5 46076.5 1633.40   1
  17   3  -5 46988.7 1317.17   7
  17   3  -4 9834.58 523.556   7
  17   3  -4 13996.8 1504.11   2
 -17   3   4 12565.9 1412.76   6
  17   3  -4 11406.0 1069.47   1
  17   3  -4 14668.3 2026.63   6
  17   3  -3 46942.3 2011.93   1
  17   3  -3 49386.4 2278.57   2
 -17   3   3 40603.8 2118.59   6
  17   3  -3 48818.5 2904.17   6
 -17   3   2 34158.2 1887.60   6
  17   3  -2 39873.9 2825.04   6
  17   3  -2 41600.9 2172.32   1
 -17   3   1 15955.7 1514.80   6
  17   3  -1 21087.7 1960.52   6
 -17   3   0 10929.4 1336.95   6
  17   3   0 13120.7 1654.77   6
  17   3   0 12791.4 1135.50   2
  17   3   1 50634.2 2567.69   6
  17   3   1 49655.2 2159.63   2
  17   3   2 46062.4 2447.64   6
  17   3   2 47772.5 2391.67   2
  17   3   3 161.629 982.569   6
  17   3   3 648.437 1091.73   2
 -17   3  -4 4238.02 1980.67   6
  17   3   4 6095.41 1529.45   2
 -17   3  -5 59824.1 4284.69   6
  17   3   5 57370.6 3379.26   2
 -17   3  -6 16775.2 2854.67   6
  17   3   6 22565.6 2606.23   2
  17   3   7 4250.11 1825.14   2
 -17   3  -7 4884.44 2190.63   6
 -17   3  -8 18370.2 3052.46   6
  17   3   8 18395.9 2634.95   2
 -17   3  -9 15220.7 3184.81   6
  17   3   9 21354.4 2925.44   2
  17   3  10 3718.20 2116.78   2
 -17   3 -10 5042.41 2569.26   6
 -17   3 -11 2482.78 2757.03   6
  17   3  11 2106.25 2058.02   2
  17   5 -10 13512.5 2807.97   6
  17   5  -9 5891.31 2184.98   6
  17   5  -8 8770.64 2255.27   6
  17   5  -7 30383.6 3011.73   6
  17   5  -6 4953.46 1924.31   6
  17   5  -5 5940.38 1720.49   6
  17   5  -4 28917.0 2528.52   6
  17   5  -3 5475.65 1692.79   6
  17   5  -2 6726.91 1524.88   6
 -17   5   1 21273.4 1715.32   6
  17   5  -1 23646.7 2117.26   6
 -17   5   0 44280.5 2538.63   6
  17   5   0 43308.6 2460.70   6
 -17   5  -1 3258.83 1477.02   6
  17   5   1 2832.58 1232.55   6
 -17   5  -2 5180.17 1799.45   6
  17   5   2 6071.59 1202.05   6
  17   5   3 28350.7 2072.51   2
 -17   5  -3 21593.7 2530.27   6
  17   5   4 23350.2 2147.72   2
 -17   5  -4 20128.1 2734.22   6
  17   5   5 11461.6 1979.12   2
 -17   5  -5 10946.7 2494.50   6
  17   5   6 1178.25 1611.04   2
 -17   5  -6 3908.57 2221.19   6
  17   5   7 22259.4 2708.53   2
 -17   5  -7 19740.4 3088.77   6
 -17   5  -8 6827.37 2696.51   6
  17   5   8 3030.26 2097.51   2
 -17   5  -9 882.462 2307.77   6
  17   5   9 4739.94 2228.92   2
 -18  -6   8 7200.93 1618.71   4
 -18  -6   8 6328.50 1420.56   3
  18  -6  -8 10284.1 1799.94   1
 -18  -6   7 7848.53 1629.09   4
 -18  -6   7 12332.1 1612.25   3
  18  -6  -7 11681.4 1902.44   1
 -18  -6   6 15531.7 1856.99   4
  18  -6  -6 18338.9 1811.45   1
 -18  -6   6 15768.6 1745.57   3
 -18  -6   5 25976.3 2030.72   4
  18  -6  -5 23980.1 2010.30   1
  18  -6  -5 29312.0 1955.40   3
 -18  -6   5 26089.5 2008.02   3
 -18  -6   4 1714.94 1220.76   4
  18  -6  -4 2868.92 1179.19   3
 -18  -6   4 3627.80 1314.76   3
  18  -6  -4 2136.98 1149.45   1
  18  -6  -3 5642.02 1317.55   3
  18  -6  -3 5607.13 1313.09   1
 -18  -6   3 6268.25 1376.91   3
  18  -6  -3 6969.67 1202.30   5
 -18  -6   2 29108.4 1986.92   3
  18  -6  -2 29363.2 1913.85   1
  18  -6  -2 35070.6 2093.20   5
 -18  -6   1 6326.13 1311.06   3
  18  -6  -1 6257.37 1296.66   1
  18  -6   0 6191.44 1313.35   1
 -18  -6   0 6939.18 1301.53   3
 -18  -6  -1 3690.75 1197.01   3
  18  -6   1 3149.34 1225.37   1
  18  -6   2 17807.9 1656.89   1
 -18  -6  -2 18963.9 1669.92   3
 -18  -6  -3 197.529 1033.71   3
  18  -6   3 518.720 1018.32   2
 -18  -6  -4 1958.27 1067.37   3
  18  -6   4 2238.43 1215.84   2
 -18  -6  -5 17742.5 1583.64   3
 -18  -6  -6 1161.16 1098.12   3
 -18  -4  12 13632.4 2100.86   4
  18  -4 -11 21685.1 2302.29   1
 -18  -4  11 20950.4 2230.33   4
 -18  -4  10 7370.38 1792.40   4
 -18  -4  10 7144.18 1279.62   3
  18  -4 -10 5576.23 1701.97   1
 -18  -4   9 3130.18 1496.03   4
  18  -4  -9 5034.59 1468.86   1
 -18  -4   9 2727.03 1057.76   3
 -18  -4   8 13704.8 1430.17   3
  18  -4  -8 15148.7 1831.82   1
 -18  -4   8 14623.2 1842.57   4
 -18  -4   7 42242.4 2101.66   3
 -18  -4   7 37238.9 2475.61   4
 -18  -4   6 4011.72 1317.95   4
  18  -4  -6 7615.67 981.891   3
  18  -4  -6 5635.79 1420.95   1
 -18  -4   6 5802.59 1143.76   3
 -18  -4   5 17430.7 1740.55   4
  18  -4  -5 16883.3 1758.33   1
 -18  -4   5 19267.6 1585.00   3
  18  -4  -5 13623.3 1007.11   6
 -18  -4   4 21465.8 1835.46   4
 -18  -4   4 22278.5 1682.73   3
 -18  -4   3 23036.8 1817.44   4
 -18  -4   3 23322.1 1653.26   3
 -18  -4   2 50695.4 2194.80   3
  18  -4  -2 50419.5 2332.14   1
  18  -4  -1 14573.0 1161.89   4
 -18  -4   1 16273.6 1488.06   3
  18  -4  -1 16574.5 1536.24   1
 -18  -4   0 36880.4 1890.81   3
  18  -4   0 36599.8 2043.75   1
 -18  -4  -1 42866.9 2019.60   3
  18  -4   1 44543.8 2226.36   1
 -18  -4  -2 20213.9 1555.76   3
  18  -4   2 26093.1 1901.76   1
  18  -4   3 18224.9 1628.36   1
 -18  -4  -3 27685.8 1683.67   3
 -18  -4  -4 25000.0 1661.01   3
  18  -4   4 21043.9 1888.52   2
  18  -4   4 25583.8 1960.55   1
  18  -4   5 9715.64 1604.14   1
 -18  -4  -5 8342.11 1240.81   3
  18  -4   5 10667.7 1614.67   2
 -18  -4  -6 3355.11 1131.02   3
  18  -4   6 697.827 1205.13   2
  18  -4   6 1211.90 1386.22   1
  18  -4   7 37072.6 2400.74   7
 -18  -4  -7 35308.6 2050.05   3
  18  -4   7 36747.9 2727.95   2
  18  -4   8 7528.86 1550.26   7
 -18  -4  -8 5987.97 1285.37   3
  18  -4   8 4038.06 1573.90   2
  18  -4   9 2633.30 1387.80   7
 -18  -4  -9 2862.91 2125.76   6
  18  -4   9 5205.48 1896.16   2
 -18  -4 -10 5822.60 2433.09   6
  18  -4  10 10739.9 1884.62   7
  18  -4  10 10118.4 2304.62   2
  18  -2 -13 7535.23 2381.91   6
  18  -2 -13 10255.8 1859.32   1
 -18  -2  13 7624.78 1812.94   4
  18  -2 -12 6304.04 1841.12   6
  18  -2 -12 4778.87 1530.69   1
 -18  -2  12 4212.93 1585.88   4
  18  -2 -11 25019.8 2601.72   6
  18  -2 -11 24442.2 2175.60   1
 -18  -2  11 18357.0 2005.28   4
 -18  -2  10 3747.03 801.197   3
  18  -2 -10 7317.83 1785.31   6
  18  -2 -10 5064.21 1499.64   1
 -18  -2  10 6108.27 1633.53   4
 -18  -2   9-546.885 1308.47   4
  18  -2  -9 1130.96 1127.74   1
 -18  -2   9-134.185 655.805   3
  18  -2  -9 181.100 1304.89   6
 -18  -2   8 8187.10 886.957   3
  18  -2  -8 13480.6 1760.03   6
  18  -2  -8 10997.2 1575.81   1
 -18  -2   8 9741.04 1647.35   4
 -18  -2   7 66335.6 1957.90   3
  18  -2  -7 73239.1 3193.25   6
 -18  -2   7 65326.5 2947.48   4
 -18  -2   6 21602.4 1246.59   3
  18  -2  -6 20421.8 667.436   3
  18  -2  -6 23521.3 1931.18   6
  18  -2  -6 23387.9 1859.82   1
 -18  -2   6 20694.4 1907.65   4
 -18  -2   5 19292.2 1189.86   3
  18  -2  -5 21514.2 1828.06   6
 -18  -2   5 18475.3 1240.26   1
  18  -2  -5 22110.0 1432.82   4
 -18  -2   5 17368.8 1697.07   4
  18  -2  -5 21737.7 1736.43   1
 -18  -2   4 55741.5 2512.05   4
  18  -2  -4 63183.0 2466.45   1
 -18  -2   4 56766.9 1841.18   3
 -18  -2   4 56143.8 1854.91   1
  18  -2  -4 56837.1 1926.95   4
 -18  -2   3 29343.7 1884.91   4
  18  -2  -3 34948.8 1952.29   1
 -18  -2   3 31330.4 1494.04   3
  18  -2  -3 30294.9 1891.62   6
  18  -2  -3 33343.5 1651.44   4
 -18  -2   3 26651.9 1385.11   1
  18  -2  -2 55616.3 2047.70   4
 -18  -2   2 55468.4 1856.21   1
  18  -2  -2 58953.3 2334.77   1
 -18  -2   2 52437.0 1870.64   3
  18  -2  -2 50146.7 2215.92   6
  18  -2  -1 20615.5 1395.24   4
 -18  -2   1 19904.2 1305.48   3
 -18  -2   1 18622.0 1316.84   1
  18  -2  -1 22850.7 1620.43   1
  18  -2  -1 18956.9 1530.69   6
 -18  -2   0 150846. 3107.69   3
  18  -2   0 138710. 3676.26   1
 -18  -2  -1 16125.0 1291.07   3
  18  -2   1 16533.7 1560.09   1
  18  -2   2 1978.55 1249.28   1
 -18  -2  -2 2009.30 975.557   3
 -18  -2  -3 31751.3 1755.66   3
  18  -2   3 25304.4 2024.74   1
 -18  -2  -4 6647.18 1298.28   3
  18  -2   4 7328.72 1363.58   2
  18  -2   4 5828.77 1402.05   1
  18  -2   5 26339.2 2193.55   2
  18  -2   5 34191.6 2581.51   1
  18  -2   6 12787.4 1856.29   2
  18  -2   7 47711.7 2592.81   7
  18  -2   7 56348.8 3317.80   2
  18  -2   8 1055.41 1340.13   7
  18  -2   8 3804.82 1647.35   2
  18  -2   9 5671.32 1557.00   7
 -18  -2  -9 3595.27 2150.53   6
  18  -2   9 3657.78 1679.22   2
  18  -2  10 10422.7 1955.73   7
 -18  -2 -10 8252.20 2564.42   6
  18  -2  10 11768.0 2391.78   2
  18  -2  11 6266.95 1761.46   7
 -18  -2 -11 4380.53 2474.56   6
  18  -2  11 4810.64 2189.52   2
  18  -2  12 6683.00 2443.22   2
  18  -2  12 7708.20 2031.77   7
 -18  -2 -12 2866.12 2507.40   6
  18   0 -14 12867.0 2698.61   6
  18   0 -14 13410.2 1731.52   1
 -18   0  14 6313.47 1644.57   4
  18   0 -13 1952.34 2013.04   6
  18   0 -13 4049.96 1387.92   1
 -18   0  13 3732.53 1479.72   4
  18   0 -12 32423.1 3301.45   6
  18   0 -12 33946.5 2195.92   1
 -18   0  12 27971.4 2210.79   4
  18   0 -11 4848.70 1881.55   6
  18   0 -11 9615.13 1443.88   1
 -18   0  11 8218.92 1582.46   4
  18   0 -10 1570.24 1089.89   1
  18   0 -10 1857.08 1982.12   6
 -18   0  10 1093.84 1279.73   4
  18   0  -9 95058.5 4758.76   6
  18   0  -9 92695.7 3126.53   1
  18   0  -8 34932.4 2925.54   6
  18   0  -8 34382.2 1966.97   1
 -18   0   8 30428.5 2050.52   4
  18   0  -7 10839.5 1898.38   6
  18   0  -7 9268.58 920.531   5
  18   0  -7 13583.9 1424.94   1
 -18   0   7 8892.47 1426.52   4
  18   0  -6 32713.9 1815.50   1
  18   0  -6 33425.9 1118.20   3
  18   0  -6 33268.9 2598.98   6
 -18   0   6 28802.6 1914.36   4
  18   0  -5 147615. 3377.91   1
  18   0  -5 151725. 2371.57   3
  18   0  -5 145445. 4805.22   6
 -18   0   4-62.9676 946.967   4
  18   0  -4 160.648 464.459   3
  18   0  -4 184.800 1129.22   6
  18   0  -4 1360.60 814.391   1
  18   0  -3 67180.5 1668.31   3
  18   0  -3 77122.1 2435.05   1
  18   0  -3 73739.7 3354.25   6
  18   0  -2 57655.0 1640.19   3
  18   0  -2 61943.0 3012.07   6
  18   0  -2 65707.0 2438.57   1
  18   0  -1 420.060 627.099   3
  18   0  -1 521.083 1000.46   1
  18   0  -1 583.120 1026.26   6
  18   0   0 33664.5 1924.97   1
  18   0   0 35638.6 2149.09   6
  18   0   1 19691.6 1783.60   1
  18   0   1 25514.6 1960.12   6
  18   0   2 100713. 3578.26   1
  18   0   3 3973.19 1069.52   2
  18   0   3 3115.86 1369.00   1
  18   0   4-717.589 1420.50   1
  18   0   4 664.107 1037.38   2
  18   0   5 222723. 4822.24   7
  18   0   5 205695. 5511.31   2
  18   0   6 61696.4 2826.85   7
  18   0   6 61079.6 3427.86   2
  18   0   7 4929.69 1316.01   7
  18   0   7 2092.70 1567.22   2
  18   0   8 65264.6 3299.06   7
 -18   0  -8 60343.3 4496.39   6
  18   0   8 63691.3 3820.59   2
  18   0   9 59534.1 3295.54   7
 -18   0  -9 61615.5 4699.96   6
  18   0   9 65561.6 4216.80   2
  18   0  10-151.238 1499.34   7
 -18   0 -10 1282.79 2230.45   6
  18   0  10 237.600 1818.47   2
  18   0  11 4557.52 2196.62   2
 -18   0 -11 5484.27 2619.35   6
 -18   0 -12 11329.0 3260.66   6
  18   0  12 13123.9 2817.40   2
 -18   2  13 5923.46 1579.56   4
  18   2 -13 11593.7 2926.39   6
 -18   2  12 4818.61 1425.34   4
  18   2 -12 11362.7 2655.90   6
  18   2 -11 22236.6 3105.97   6
 -18   2  11 21452.9 1846.85   4
  18   2 -11 24209.2 1615.44   1
  18   2 -10 6020.86 1122.44   1
 -18   2  10 3301.35 1243.59   4
  18   2 -10 4387.42 2286.76   6
 -18   2   9 3950.70 1201.35   4
  18   2  -9 1147.18 820.508   1
  18   2  -9 3343.21 1957.23   6
  18   2  -8 9137.57 1061.68   1
  18   2  -8 7776.39 2086.53   6
 -18   2   8 8062.08 1205.86   4
 -18   2   7 66605.5 2415.86   4
  18   2  -7 74781.5 2198.45   1
  18   2  -7 76272.5 4249.17   6
 -18   2   6 20250.1 1438.88   4
  18   2  -6 22116.4 1298.90   1
 -18   2   5 25724.1 2260.44   6
  18   2  -5 27496.2 2582.55   6
  18   2  -5 24095.0 1416.39   1
  18   2  -4 68799.4 3166.77   2
 -18   2   4 60667.0 2948.57   6
  18   2  -4 71394.7 3525.51   6
  18   2  -4 61811.7 2070.24   1
  18   2  -3 42356.1 1871.95   1
  18   2  -3 45854.7 2889.29   6
  18   2  -2 52456.1 2196.52   1
 -18   2   2 46457.5 2410.89   6
 -18   2   1 16000.5 1636.13   6
  18   2  -1 21367.7 2000.24   6
  18   2  -1 19431.1 1702.69   1
  18   2   0 119029. 3833.70   1
  18   2   0 137820. 4201.80   6
  18   2   1 12823.4 1828.03   1
  18   2   1 12257.9 1043.52   7
  18   2   1 11512.3 1492.30   6
  18   2   2 513.315 797.264   7
  18   2   2-671.782 1029.42   6
  18   2   2 2367.22 1022.04   2
  18   2   3 27527.3 1679.86   7
  18   2   3 26982.5 2089.65   2
  18   2   3 28015.9 2031.94   6
  18   2   4 17366.5 1622.82   7
  18   2   4 13981.2 1841.49   2
  18   2   5 48100.3 2566.34   7
  18   2   5 47674.2 3140.85   2
  18   2   6 16777.9 1915.86   7
 -18   2  -6 13937.1 2681.67   6
  18   2   6 13057.2 2209.13   2
 -18   2  -7 64180.2 4654.96   6
  18   2   7 77397.4 4270.03   2
 -18   2  -8 469.729 2106.05   6
  18   2   8 5238.37 2131.17   2
  18   2   9 5903.67 2105.10   2
 -18   2  -9 3699.24 2409.69   6
 -18   2 -10 12497.2 3146.32   6
  18   2  10 11684.5 2576.16   2
  18   2  11 5948.21 2355.57   2
 -18   2 -11 7152.38 2778.28   6
  18   2  12 9613.24 2608.26   2
  18   4 -12 10892.9 2758.14   6
  18   4 -11 28027.1 3527.15   6
  18   4 -10 10537.4 2633.24   6
  18   4  -9 5241.85 2126.34   6
  18   4  -8 16958.5 2564.65   6
  18   4  -7 49970.0 3608.58   6
  18   4  -6 5823.12 1897.28   6
  18   4  -5 24495.8 2552.17   6
  18   4  -4 24119.8 2370.48   6
  18   4  -3 15428.2 1209.13   2
 -18   4   3 20480.1 1532.21   6
  18   4  -2 32885.7 1551.00   2
 -18   4   2 31687.4 1795.22   6
  18   4  -2 33758.9 1280.65   2
 -18   4   1 9562.33 1326.85   6
  18   4  -1 12803.1 1012.16   2
  18   4   0 35376.3 2299.52   6
  18   4   0 32650.1 1632.07   2
 -18   4  -1 42573.7 2934.96   6
  18   4   1 35458.5 2279.89   6
  18   4   1 37890.9 2022.98   2
 -18   4  -2 24823.7 2671.13   6
  18   4   2 24119.4 1866.32   6
  18   4   2 24008.2 1934.17   2
 -18   4  -3 28059.6 2972.02   6
  18   4   3 28023.1 2015.82   6
  18   4   3 27684.8 2209.90   2
 -18   4  -4 29701.2 3056.99   6
  18   4   4 35764.2 2589.58   2
 -18   4  -5 17568.4 2721.55   6
  18   4   5 18141.5 2291.44   2
  18   4   6 312.193 1615.13   2
 -18   4  -6 3971.80 2062.53   6
 -18   4  -7 47146.3 4325.81   6
  18   4   7 48492.7 3603.87   2
 -18   4  -8 12788.4 2907.76   6
  18   4   8 15219.5 2500.85   2
 -18   4  -9 6112.06 2772.57   6
  18   4   9 7332.53 2245.49   2
  18   4  10 17892.5 2902.46   2
 -18   4 -10 19364.9 3599.17   6
  18   6  -8 8629.05 2226.13   6
  18   6  -7 10721.0 2256.28   6
  18   6  -6 14690.5 2325.30   6
  18   6  -5 35809.7 2891.99   6
  18   6  -4 968.080 1502.89   6
  18   6  -3 4797.47 1599.16   6
  18   6  -2 35450.7 2613.08   6
  18   6  -1 2329.80 1214.03   6
  18   6   0 7946.03 1415.22   6
  18   6   1 1377.66 1112.20   6
  18   6   2 23232.3 1743.36   6
  19  -7  -3 12161.0 1499.22   1
 -19  -7   3 7623.55 1453.34   3
  19  -7  -2 9865.97 1683.56   3
 -19  -7   2 8007.81 1477.90   3
  19  -7  -2 6524.48 1342.27   1
  19  -7  -1 4610.58 1527.79   3
 -19  -7   1 4705.10 1375.15   3
  19  -7  -1 4733.30 1371.38   5
 -19  -7   0 9350.14 1522.06   3
  19  -7   0 12106.5 1789.33   5
 -19  -7  -1 760.159 1132.27   3
  19  -7   1 6074.24 1556.61   5
 -19  -5  10 10999.7 1480.19   3
  19  -5 -10 14550.6 2030.63   1
 -19  -5  10 12866.6 2124.27   4
 -19  -5   9 1706.94 1489.55   4
  19  -5  -9 3749.87 1495.23   1
 -19  -5   9 1899.79 1112.33   3
 -19  -5   8 4219.85 1497.39   4
  19  -5  -8 5014.91 1521.96   1
 -19  -5   8 2011.19 1083.85   3
 -19  -5   7 20572.9 1797.80   3
 -19  -5   7 15838.6 1902.39   4
 -19  -5   6 2291.03 1361.97   4
  19  -5  -6 5038.26 1382.20   1
 -19  -5   6 2472.08 1160.88   3
 -19  -5   5 8648.47 1498.95   4
  19  -5  -5 11864.2 1573.35   1
  19  -5  -5 12652.7 1373.85   3
 -19  -5   5 8473.21 1394.61   3
 -19  -5   4 10687.0 1508.74   4
  19  -5  -4 15003.1 1664.46   1
 -19  -5   4 11558.8 1440.98   3
  19  -5  -3 20934.7 1749.16   1
 -19  -5   3 21041.6 1735.76   3
 -19  -5   2 18253.4 1591.11   3
  19  -5  -2 16727.8 1587.33   1
 -19  -5   1 3385.42 1156.06   3
  19  -5  -1 3061.40 1077.62   1
 -19  -5   0 31426.8 1918.96   3
  19  -5   0 34207.6 2079.01   1
 -19  -5  -1 717.125 973.125   3
  19  -5   1 620.996 1126.51   1
  19  -5   2 6195.38 1339.89   1
 -19  -5  -2 6299.45 1191.02   3
  19  -5   3 12685.1 1574.85   1
 -19  -5  -3 19146.2 1569.42   3
 -19  -5  -4 10924.2 1310.23   3
  19  -5   4 9611.64 1503.85   2
  19  -5   4 6952.25 1436.67   1
  19  -5   5 3241.16 1380.86   1
 -19  -5  -5 1471.00 1049.51   3
  19  -5   5 5300.10 1475.77   2
 -19  -5  -6 2069.05 1075.17   3
  19  -5   6 328.188 1321.41   2
  19  -5   6 1664.67 1387.63   1
 -19  -5  -7 15785.7 1558.52   3
  19  -5   7 16026.8 2155.99   2
  19  -5   8 35.4660 1419.02   7
 -19  -5  -8 777.583 1178.68   3
  19  -5   8 1997.54 1635.52   2
  19  -3 -12 52213.4 3100.79   1
 -19  -3  12 38705.0 2940.22   4
 -19  -3  11 3599.66 1636.06   4
  19  -3 -11 6984.60 1605.77   1
 -19  -3  10 2184.28 1550.28   4
  19  -3 -10 209.424 1283.22   1
 -19  -3  10 892.634 900.284   3
  19  -3 -10 652.863 1289.89   6
 -19  -3   9 27058.1 1567.53   3
  19  -3  -9 26898.2 2171.42   6
 -19  -3   9 31231.2 2411.26   4
 -19  -3   8 19360.7 1376.55   3
  19  -3  -8 19328.2 1844.51   6
  19  -3  -8 20909.5 1913.01   1
 -19  -3   8 20631.8 2035.31   4
  19  -3  -7 13791.0 1539.69   6
 -19  -3   7 13095.8 1208.10   3
  19  -3  -7 16439.0 1756.81   1
 -19  -3   7 13683.6 1764.47   4
 -19  -3   6 10902.6 1137.14   3
  19  -3  -6 12940.9 1474.58   6
  19  -3  -6 15002.2 1729.41   1
 -19  -3   6 11256.5 1560.85   4
 -19  -3   5 99019.5 3446.33   4
  19  -3  -5 111195. 3580.74   1
 -19  -3   5 98512.2 2731.15   3
 -19  -3   5 83411.2 2120.08   1
  19  -3  -5 92444.9 2954.16   6
 -19  -3   4 937.499 1046.49   4
 -19  -3   4 1452.89 893.062   3
  19  -3  -4 1287.63 1049.54   1
  19  -3  -4 1711.55 904.805   6
  19  -3  -4 697.766 692.177   4
 -19  -3   4 1091.70 589.616   1
  19  -3  -3 170.002 765.286   4
 -19  -3   3 716.192 994.060   4
 -19  -3   3-321.048 584.847   1
 -19  -3   3 757.771 850.916   3
  19  -3  -3 1979.36 1069.47   1
  19  -3  -3-605.804 847.469   6
  19  -3  -2 37380.3 1649.16   4
 -19  -3   2 37519.1 1554.24   1
  19  -3  -2 42060.8 2134.29   1
 -19  -3   2 39095.6 1821.50   3
  19  -3  -1 9173.56 1090.77   4
 -19  -3   1 9967.24 1164.06   3
  19  -3  -1 8081.97 1242.11   1
 -19  -3   1 12368.1 1281.04   1
  19  -3   0 6572.68 1303.21   1
 -19  -3   0 5607.58 1012.35   3
 -19  -3  -1 15965.5 1359.12   3
  19  -3   1 14532.0 1541.38   1
  19  -3   2 162324. 4114.50   1
 -19  -3  -2 167634. 3606.16   3
  19  -3   3 6837.71 1315.14   1
 -19  -3  -3 9839.62 1280.74   3
 -19  -3  -4 15446.5 1472.38   3
  19  -3   4 13669.6 1640.46   2
  19  -3   4 15067.8 1811.43   1
  19  -3   5 89961.8 3636.44   1
 -19  -3  -5 101909. 3073.71   3
  19  -3   5 91987.0 3679.32   2
  19  -3   6 20097.7 2124.96   1
 -19  -3  -6 25090.6 1842.29   3
  19  -3   6 21355.8 2153.17   2
  19  -3   7 2102.09 1337.91   7
  19  -3   7-224.155 1352.06   2
  19  -3   8 10929.2 1738.38   7
  19  -3   8 15954.1 2253.35   2
  19  -3   9 27302.9 2300.26   7
 -19  -3  -9 28646.0 3318.83   6
  19  -3   9 29369.9 2865.25   2
  19  -3  10 1727.95 1439.20   7
 -19  -3 -10-573.045 2178.01   6
  19  -3  10 776.547 1770.19   2
  19  -3  11 2151.26 1664.82   7
 -19  -3 -11 4871.95 2387.74   6
  19  -3  11 3123.86 2082.40   2
  19  -1 -14 19160.4 2950.25   6
  19  -1 -14 17000.0 1959.20   1
 -19  -1  14 13598.9 2019.28   4
  19  -1 -13 10705.2 2394.44   6
  19  -1 -13 13299.0 1830.68   1
 -19  -1  13 11893.0 1900.74   4
  19  -1 -12 9624.22 2397.29   6
 -19  -1  12 6670.33 1670.23   4
  19  -1 -12 7816.03 1527.84   1
  19  -1 -11 14761.6 1689.12   1
 -19  -1  11 12946.0 1911.46   4
  19  -1 -10 22977.3 2690.03   6
  19  -1 -10 25443.3 2003.97   1
 -19  -1  10 21057.3 2209.98   4
  19  -1  -9 28103.2 2699.43   6
  19  -1  -9 25530.4 1961.03   1
 -19  -1   9 21106.4 2068.98   4
 -19  -1   8 12823.4 798.343   3
  19  -1  -8 18195.3 2213.58   6
 -19  -1   8 16563.4 1808.89   4
 -19  -1   7 32838.1 1176.15   3
  19  -1  -7 37972.1 2749.14   6
 -19  -1   7 33152.5 2187.57   4
  19  -1  -6 6448.50 1341.53   1
  19  -1  -6 4972.85 450.525   3
 -19  -1   6 3919.35 723.482   3
  19  -1  -6 5958.94 1423.21   6
 -19  -1   6 5515.95 1368.99   4
 -19  -1   5 36352.1 2139.59   4
  19  -1  -5 40180.7 2024.59   1
  19  -1  -5 37797.3 1063.44   3
 -19  -1   5 33739.4 1316.11   3
  19  -1  -5 42773.3 2621.04   6
 -19  -1   4 94.7397 976.207   4
  19  -1  -4 543.488 497.124   3
 -19  -1   4-389.220 661.304   3
  19  -1  -4 416.099 908.460   1
  19  -1  -4 83.8046 1089.70   6
  19  -1  -3 64706.7 2453.46   1
 -19  -1   3 57566.5 1790.73   3
  19  -1  -3 61575.3 1644.40   3
  19  -1  -3 60472.5 2851.48   6
  19  -1  -2 40550.7 1996.68   1
 -19  -1   2 37659.8 1631.58   3
  19  -1  -2 36362.2 1481.91   3
  19  -1  -2 37324.8 2260.73   6
 -19  -1   1 8096.82 1023.21   3
  19  -1  -1 8940.36 1041.99   3
  19  -1  -1 11127.4 1410.18   6
  19  -1  -1 9725.84 1311.23   1
 -19  -1   0 76834.2 2457.63   3
  19  -1   0 70484.4 2886.82   6
  19  -1   0 70780.9 2742.22   1
  19  -1   1 2995.22 1097.29   1
 -19  -1  -1 694.542 931.549   3
  19  -1   1 2610.27 1060.55   6
  19  -1   2 5723.17 1433.90   1
  19  -1   3 29624.0 2280.02   1
  19  -1   4 54355.1 2981.43   1
  19  -1   4 49158.7 2621.94   2
  19  -1   5 10942.6 1898.84   1
  19  -1   5 13570.8 1785.06   2
  19  -1   6 1477.22 1236.87   7
  19  -1   6 1939.03 1433.28   2
  19  -1   7 91817.5 3512.27   7
  19  -1   7 99034.4 4360.24   2
  19  -1   8 10690.9 1701.33   7
  19  -1   8 11085.6 2124.04   2
  19  -1   9 14608.4 1917.67   7
 -19  -1  -9 15517.1 2760.38   6
  19  -1   9 20002.5 2559.85   2
  19  -1  10 24802.5 2572.29   7
 -19  -1 -10 20875.0 3475.30   6
  19  -1  10 16901.0 2658.13   2
  19  -1  11 18982.3 2370.90   7
 -19  -1 -11 22336.0 3372.09   6
  19  -1  11 20763.4 3069.73   2
  19  -1  12 3521.07 2070.89   2
  19  -1  12 7155.84 1847.31   7
 -19  -1 -12 6391.88 2961.73   6
  19   1 -14 15409.9 3060.55   6
 -19   1  14 16809.5 2036.74   4
 -19   1  13 8188.99 1715.01   4
  19   1 -13 10095.3 1466.06   1
 -19   1  12 6570.76 1547.69   4
  19   1 -12 8495.83 2436.93   6
  19   1 -12 8734.77 1351.75   1
  19   1 -11 21288.7 1684.98   1
 -19   1  11 16843.9 1813.76   4
  19   1 -10 20101.5 2953.85   6
  19   1 -10 20215.6 1805.61   1
 -19   1  10 15431.8 1864.26   4
  19   1  -9 25652.0 2864.60   6
 -19   1   9 28912.3 2074.65   4
  19   1  -9 26870.1 1745.35   1
  19   1  -8 17178.8 1389.75   1
  19   1  -8 15714.7 2388.54   6
 -19   1   8 14062.7 1549.46   4
  19   1  -7 44414.3 1926.84   1
  19   1  -7 45692.8 3185.80   6
 -19   1   6 6353.49 1292.74   4
  19   1  -6 4490.86 832.069   3
  19   1  -6 6315.67 1063.14   1
  19   1  -6 4813.43 1773.07   6
 -19   1   5 33123.6 1818.76   4
  19   1  -5 43862.0 1677.60   3
  19   1  -5 40055.5 1807.14   1
  19   1  -5 37282.1 2737.76   6
  19   1  -4 1239.90 877.080   1
  19   1  -4 1551.47 694.970   3
  19   1  -4 1025.11 1206.13   6
  19   1  -3 65289.0 2036.17   3
  19   1  -3 60181.0 3424.75   6
  19   1  -3 65394.0 2394.79   1
  19   1  -2 24745.6 2175.38   6
  19   1  -2 27043.2 1719.64   1
  19   1  -1 15413.5 1471.88   1
  19   1  -1 14392.8 1716.18   6
  19   1   0 72924.9 2884.68   1
  19   1   0 80238.2 3276.26   6
  19   1   1 2647.79 1112.58   6
  19   1   1 3108.84 1231.48   1
  19   1   2 11444.2 1728.64   1
  19   1   2 12708.1 1622.79   6
  19   1   3 41353.9 2106.99   7
  19   1   3 45109.0 2443.62   2
  19   1   3 39663.9 2922.86   1
  19   1   4 53232.8 2801.73   2
  19   1   4 50895.2 2336.80   7
  19   1   5 13536.7 1635.34   7
  19   1   5 13816.9 1937.70   2
  19   1   6 1050.84 1263.17   7
  19   1   6 2354.36 1600.24   2
  19   1   7 106934. 4018.14   7
 -19   1  -7 102871. 5561.58   6
  19   1   7 111123. 4791.31   2
  19   1   8 21726.0 2333.85   7
 -19   1  -8 15278.9 2906.43   6
  19   1   8 20005.7 2680.10   2
  19   1   9 23047.7 2333.87   7
 -19   1  -9 21623.3 3383.08   6
  19   1   9 28496.4 3203.27   2
 -19   1 -10 19933.1 3392.25   6
  19   1  10 25933.5 3262.67   2
 -19   1 -11 22164.3 3646.44   6
  19   1  11 22234.6 3056.40   2
 -19   1 -12 10691.4 3148.21   6
  19   1  12 13686.7 2924.25   2
  19   3 -12 38242.3 3965.20   6
  19   3 -11 4242.26 2405.60   6
 -19   3  10 1829.07 1095.84   4
  19   3 -10 1179.88 2061.34   6
 -19   3   9 23552.4 1610.01   4
  19   3  -9 30877.2 3205.40   6
 -19   3   8 18215.1 1346.03   4
  19   3  -8 18042.7 2492.68   6
  19   3  -8 15271.6 1095.47   1
  19   3  -7 13228.3 2386.42   6
  19   3  -7 8709.24 1010.71   1
  19   3  -6 10346.8 2014.26   6
  19   3  -6 9494.57 1015.38   1
  19   3  -5 97379.5 2465.53   1
  19   3  -5 92650.3 3525.68   2
  19   3  -5 97509.8 1959.58   7
  19   3  -4 362.892 386.503   7
  19   3  -4 1389.97 829.288   1
  19   3  -4 574.250 1122.22   2
 -19   3   4-612.370 1159.96   6
  19   3  -4 149.091 1406.36   6
  19   3  -3 648.797 1004.14   2
 -19   3   3 301.649 965.212   6
  19   3  -3 1205.16 1396.36   6
  19   3  -3 692.311 1029.87   1
  19   3  -2 44325.0 2290.07   1
  19   3  -2 51009.2 3047.10   6
  19   3  -1 6602.91 516.685   7
 -19   3   1 7668.65 1396.07   6
  19   3  -1 7300.01 1528.44   6
  19   3   0 4301.71 638.537   7
  19   3   0 4886.07 958.961   2
  19   3   0 5039.09 1318.21   6
  19   3   1 13728.8 1069.57   7
  19   3   1 12250.0 1577.49   6
  19   3   1 14756.6 1386.14   2
  19   3   2 152254. 4327.65   6
  19   3   2 163384. 4252.85   2
  19   3   3 12061.1 1575.43   6
  19   3   3 11794.1 1636.81   2
 -19   3  -4 12395.6 2327.27   6
  19   3   4 19453.1 2084.23   2
 -19   3  -5 103096. 5364.70   6
  19   3   5 114372. 4599.07   2
 -19   3  -6 25350.8 3334.05   6
  19   3   6 33217.0 2895.18   2
  19   3   7-164.492 1667.21   2
 -19   3  -7-1011.28 2145.03   6
 -19   3  -8 17698.0 3019.81   6
  19   3   8 18638.4 2578.89   2
 -19   3  -9 36261.1 4037.05   6
  19   3   9 31451.5 3241.20   2
  19   3  10 2298.31 2212.57   2
 -19   3 -10 3423.85 2751.36   6
  19   3  11 2926.50 2289.16   2
 -19   3 -11 3904.39 2677.60   6
  19   5 -10 17011.7 2827.63   6
  19   5  -9 5192.08 2067.97   6
  19   5  -8 1103.28 1681.41   6
  19   5  -7 20762.7 2678.67   6
  19   5  -6 2101.01 1660.01   6
  19   5  -5 7046.09 1897.36   6
  19   5  -4 10384.5 1908.14   6
  19   5  -3 17751.7 2244.12   6
  19   5  -2 16962.3 2075.98   6
 -19   5   1 6261.50 1405.18   6
  19   5  -1 4113.19 1370.54   6
 -19   5   0 30508.6 2374.48   6
  19   5   0 25923.8 2057.24   6
 -19   5  -1-621.934 1419.77   6
  19   5   1 580.138 1152.80   6
 -19   5  -2 5396.31 1847.25   6
  19   5   2 7088.67 1361.40   6
 -19   5  -3 13979.9 2486.08   6
 -19   5  -4 16510.2 2636.24   6
 -19   5  -5 7331.62 2331.92   6
  19   5   6 5064.57 1820.34   2
 -19   5  -6 1191.50 1974.43   6
  19   5   7 25440.9 2791.79   2
 -19   5  -7 23328.8 3492.66   6
 -19   5  -8 542.957 2326.77   6
 -20  -6   7 3985.06 1581.90   4
  20  -6  -7 3403.63 1390.67   1
 -20  -6   7 3685.63 1363.28   3
 -20  -6   6 10014.9 1745.86   4
  20  -6  -6 13438.1 1727.50   1
 -20  -6   6 12428.4 1645.51   3
  20  -6  -5 20164.5 2000.06   1
 -20  -6   5 20419.2 1882.18   3
  20  -6  -4 14413.4 1607.48   3
  20  -6  -4 10322.0 1501.33   1
 -20  -6   4 11151.0 1502.50   3
 -20  -6   3 3349.53 1218.38   3
  20  -6  -3 3510.79 1220.64   1
 -20  -6   2 18993.1 1764.55   3
  20  -6  -2 13443.2 1525.12   1
  20  -6  -1 5974.80 1374.89   1
 -20  -6   1 6623.24 1311.35   3
  20  -6   0 5492.84 1363.66   1
 -20  -6   0 5997.58 1184.81   3
 -20  -6  -1 2319.00 1162.63   3
  20  -6   1 1822.28 1153.71   1
  20  -6   2 30710.8 2017.94   1
 -20  -6  -2 30938.7 2013.54   3
 -20  -6  -3 513.054 1025.55   3
  20  -6   3 708.219 1150.50   2
 -20  -6  -4 1475.29 1150.74   3
  20  -6   4 1799.19 1256.47   2
 -20  -6  -5 15565.5 1502.52   3
 -20  -4  11 5117.45 1726.57   4
  20  -4 -11 8047.03 1684.27   1
 -20  -4  10 8697.13 1821.42   4
 -20  -4  10 7246.23 1223.18   3
  20  -4 -10 11379.4 1816.69   1
 -20  -4   9 6606.87 1667.79   4
 -20  -4   9 4370.28 1076.10   3
 -20  -4   8 4413.55 1563.88   4
  20  -4  -8 5718.67 1486.16   1
 -20  -4   8 4089.01 1100.65   3
 -20  -4   7 24351.6 1657.84   3
  20  -4  -7 27998.9 2179.10   1
 -20  -4   7 23343.4 2084.20   4
 -20  -4   6 9212.22 1585.41   4
  20  -4  -6 12879.4 1638.43   1
  20  -4  -6 12539.6 1102.06   3
 -20  -4   6 9580.02 1247.71   3
 -20  -4   5 24167.1 2006.72   4
  20  -4  -5 27486.0 1987.27   1
 -20  -4   5 28220.3 1751.13   3
 -20  -4   4 495.543 1083.61   4
 -20  -4   4 637.792 923.119   3
  20  -4  -4-280.491 1113.26   1
 -20  -4   3 26822.6 1984.93   4
 -20  -4   3 31746.4 1854.77   3
 -20  -4   2 41534.9 2067.16   3
  20  -4  -2 40136.9 2186.02   1
  20  -4  -1-1330.44 1076.61   1
 -20  -4   1-698.505 910.600   3
 -20  -4   0 24441.2 1647.06   3
  20  -4   0 26351.2 1943.57   1
 -20  -4  -1 9773.14 1292.15   3
  20  -4   1 10332.4 1426.81   1
  20  -4   2 3628.92 1247.73   1
 -20  -4  -2 4814.96 1074.24   3
  20  -4   3 10967.7 1576.72   1
 -20  -4  -3 17085.3 1515.86   3
 -20  -4  -4 5545.45 1151.12   3
  20  -4   4 4537.35 1221.13   2
  20  -4   4 4523.85 1288.79   1
  20  -4   5 14304.0 1878.26   1
 -20  -4  -5 13694.9 1538.74   3
 -20  -4  -6 4080.23 1277.50   3
  20  -4   6 1010.12 1422.26   1
  20  -4   6 817.305 1305.05   2
 -20  -4  -7 14692.3 1661.27   3
  20  -4   7 14960.4 2083.98   2
  20  -4   8 9082.73 1621.53   7
  20  -4   8 10697.5 1925.81   2
  20  -4   9 5884.34 1653.54   7
 -20  -4  -9 4690.43 2148.40   6
  20  -4   9 7669.02 1997.76   2
  20  -2 -13 7003.89 1640.18   1
  20  -2 -13 3556.17 1925.08   6
 -20  -2  13 6111.13 1722.66   4
  20  -2 -12 16112.6 2347.88   6
  20  -2 -12 18789.0 2080.47   1
  20  -2 -11 15383.9 2220.86   6
 -20  -2  11 12032.4 1961.00   4
  20  -2 -10 45137.7 3102.85   6
 -20  -2  10 46066.7 2868.11   4
 -20  -2   9 404.729 1338.21   4
  20  -2  -9 3439.89 1364.03   1
 -20  -2   9 557.910 653.917   3
  20  -2  -9 3508.00 1621.66   6
 -20  -2   8 4973.56 1556.34   4
  20  -2  -8 4569.87 1280.97   1
 -20  -2   8 3663.37 727.144   3
  20  -2  -8 4190.21 1322.14   6
 -20  -2   7 31705.3 1419.79   3
  20  -2  -7 37601.9 2560.57   6
  20  -2  -7 40592.1 2399.41   1
 -20  -2   7 33131.8 2322.64   4
  20  -2  -6 7922.46 1476.61   1
 -20  -2   6 7314.35 925.848   3
  20  -2  -6 8089.81 561.635   3
  20  -2  -6 9424.33 1573.13   6
 -20  -2   6 6413.66 1462.42   4
 -20  -2   5 20969.2 1901.88   4
  20  -2  -5 24879.1 1876.95   1
 -20  -2   5 22630.7 1298.16   3
  20  -2  -5 23077.9 1017.09   3
  20  -2  -5 20135.7 1868.31   6
 -20  -2   4 14062.3 1560.57   4
  20  -2  -4 18268.1 1596.33   1
 -20  -2   4 16700.9 1184.04   3
  20  -2  -4 17308.3 1704.38   6
 -20  -2   4 18271.7 1248.12   1
 -20  -2   3 46629.9 1803.96   1
 -20  -2   3 39785.2 2212.00   4
  20  -2  -3 53708.8 2352.05   1
 -20  -2   3 43184.3 1731.99   3
  20  -2  -3 48977.9 2402.78   6
 -20  -2   2 40787.7 1726.32   3
  20  -2  -2 47010.8 2211.71   1
  20  -2  -2 40997.2 2153.20   6
  20  -2  -1 1041.71 1004.19   1
 -20  -2   1 1623.05 868.650   3
  20  -2  -1 1990.45 1028.56   6
 -20  -2   0 114062. 2806.53   3
  20  -2   0 119205. 3457.63   1
 -20  -2  -1 12374.3 1282.39   3
  20  -2   1 9869.03 1416.64   1
  20  -2   2 22637.5 1807.81   1
 -20  -2  -2 21987.1 1626.27   3
 -20  -2  -3 70146.2 2613.29   3
  20  -2   3 60287.0 2903.09   1
  20  -2   4 20292.8 2032.13   1
 -20  -2  -4 20723.7 1731.41   3
  20  -2   4 17599.6 1809.38   2
  20  -2   5 4491.89 1637.33   1
  20  -2   5 4791.44 1499.26   2
  20  -2   6 12571.8 1814.44   2
  20  -2   7 20754.3 2035.48   7
  20  -2   7 23575.1 2482.72   2
  20  -2   8 9333.76 1772.49   7
  20  -2   8 9192.25 1980.01   2
  20  -2   9 4298.44 1509.21   7
 -20  -2  -9 4328.70 2301.78   6
  20  -2   9 4200.60 1961.88   2
  20  -2  10 9382.54 1894.17   7
 -20  -2 -10 5624.95 2426.54   6
  20  -2  10 2592.54 1855.75   2
  20  -2  11 9839.26 2024.79   7
 -20  -2 -11 8355.99 2712.88   6
  20  -2  11 9508.54 2438.78   2
  20   0 -14 10248.7 2693.61   6
  20   0 -14 13057.7 1693.74   1
 -20   0  14 12299.4 1925.54   4
 -20   0  13 2463.37 1495.59   4
  20   0 -13 3244.65 1322.53   1
  20   0 -13 1974.99 2202.98   6
  20   0 -12 22707.3 2973.25   6
  20   0 -12 28529.6 2027.72   1
 -20   0  12 19864.2 2162.03   4
 -20   0  11 6815.36 1598.68   4
  20   0 -11 4321.04 2028.45   6
  20   0 -11 9012.61 1486.76   1
  20   0 -10 2346.17 1126.11   1
  20   0 -10 5955.95 2115.43   6
 -20   0  10 4657.79 1564.92   4
  20   0  -9 82951.4 3054.82   1
 -20   0   9 72083.8 3100.49   4
  20   0  -8 52854.7 3454.19   6
  20   0  -8 57366.1 2530.99   1
  20   0  -7 19832.1 1577.23   1
  20   0  -7 20261.5 2265.40   6
 -20   0   7 15151.5 1619.53   4
 -20   0   6 6109.94 1251.89   4
  20   0  -6 11025.8 1319.32   1
  20   0  -6 8869.89 782.910   3
  20   0  -6 7870.43 1716.27   6
  20   0  -5 142770. 3492.10   1
  20   0  -5 133741. 2360.36   3
  20   0  -5 133435. 4629.93   6
 -20   0   4 667.942 960.202   4
  20   0  -4 427.755 535.927   3
  20   0  -4 572.624 1179.57   6
  20   0  -4 392.547 867.256   1
  20   0  -3 1184.68 904.140   1
  20   0  -3 531.205 558.926   3
  20   0  -3-690.159 1253.68   6
  20   0  -2 32781.9 1342.29   3
  20   0  -2 32437.5 2312.29   6
  20   0  -2 35255.9 2001.11   1
  20   0  -1 6125.20 1291.94   6
  20   0  -1 6765.77 1265.98   1
  20   0   0 845.212 1043.70   1
  20   0   0 616.089 1080.69   6
  20   0   1 614.322 1112.87   1
  20   0   1 138.445 1002.46   6
  20   0   2 224521. 5297.93   1
  20   0   3 9060.48 1705.57   1
  20   0   4 2253.69 1559.75   1
  20   0   4 247.211 1073.08   2
  20   0   5 164917. 4213.21   7
  20   0   5 169293. 5071.39   2
  20   0   6 14957.5 1792.73   7
  20   0   6 12667.0 1943.35   2
  20   0   7 4684.80 1354.85   7
  20   0   7 2394.80 1535.92   2
  20   0   8 13202.9 1865.56   7
 -20   0  -8 6683.41 2326.19   6
  20   0   8 10618.9 2234.70   2
  20   0   9 3078.65 1602.85   7
 -20   0  -9 4074.15 2416.46   6
  20   0   9 3032.44 1901.27   2
  20   0  10 10250.5 1954.32   7
 -20   0 -10 6023.42 2457.79   6
  20   0  10 6151.92 2240.17   2
  20   0  11 1929.54 2030.73   2
  20   0  11 2637.13 1663.25   7
 -20   0 -11 2404.04 2293.16   6
  20   0  12 4792.18 2349.53   2
 -20   0 -12 2405.88 2542.70   6
 -20   2  13 3497.86 1444.60   4
  20   2 -13 9130.16 2920.07   6
  20   2 -12 13310.1 2701.21   6
 -20   2  12 14437.2 1738.44   4
  20   2 -11 19848.7 1448.70   1
  20   2 -11 18351.7 2731.04   6
 -20   2  11 18996.8 1796.30   4
  20   2 -10 54686.0 2156.25   1
 -20   2  10 47262.2 2393.76   4
 -20   2   9 161.899 1117.89   4
  20   2  -9 655.476 910.072   1
 -20   2   8 1571.17 1057.37   4
  20   2  -8 3271.15 1698.46   6
  20   2  -8 3819.81 963.997   1
 -20   2   7 33561.7 1933.57   4
  20   2  -7 37134.5 1676.51   1
 -20   2   6 9048.04 1208.40   4
  20   2  -6 10798.2 1217.99   1
  20   2  -6 8033.22 1830.27   6
  20   2  -5 29683.9 2728.75   6
  20   2  -5 28853.3 1678.53   1
  20   2  -4 7824.07 1614.27   6
  20   2  -4 8952.84 1147.27   1
  20   2  -3 35520.3 1849.61   1
  20   2  -3 40844.3 2971.85   6
  20   2  -2 43423.6 2162.68   1
  20   2  -2 43722.5 2779.68   6
  20   2  -1 1438.37 1196.92   6
  20   2  -1 2873.10 1113.33   1
  20   2   0 102304. 3650.57   1
  20   2   0 102983. 3803.07   6
  20   2   1 8066.48 1389.73   6
  20   2   1 7179.26 1694.57   1
  20   2   2 25563.6 1523.20   7
  20   2   2 26194.0 1905.39   2
  20   2   2 25630.3 2015.88   6
  20   2   3 74679.8 2573.38   7
  20   2   3 79780.4 3243.89   2
  20   2   3 72068.9 3132.30   6
  20   2   4 28659.2 1905.03   7
  20   2   4 28559.9 2379.83   2
  20   2   5 1881.17 1187.19   7
  20   2   5 1511.93 1339.19   2
  20   2   6 15928.8 1904.06   7
 -20   2  -6 11810.0 2685.73   6
  20   2   6 13759.9 2140.39   2
  20   2   7 22409.9 2173.03   7
 -20   2  -7 23655.3 3264.26   6
  20   2   7 29053.0 2930.83   2
 -20   2  -8 14792.3 2856.69   6
  20   2   8 8338.41 2238.78   2
  20   2   9 3814.00 2128.19   2
 -20   2  -9 5512.10 2463.46   6
  20   2  10 5044.32 2352.98   2
 -20   2 -10 154.719 2183.09   6
  20   2  11 6417.01 2469.52   2
 -20   2 -11 6327.52 2920.01   6
  20   4 -11 6976.63 2231.20   6
  20   4 -10 11341.8 2486.56   6
  20   4  -9 6774.83 2343.21   6
  20   4  -8 2377.27 1828.75   6
  20   4  -7 35929.0 3239.22   6
  20   4  -6 13622.8 2314.26   6
  20   4  -5 35940.4 2916.07   6
  20   4  -4 4234.20 1633.27   6
  20   4  -3 42296.2 3096.53   6
  20   4  -2 44589.7 2928.46   6
  20   4  -2 38151.6 1515.35   2
  20   4  -1-249.664 1304.32   6
  20   4  -1 443.869 731.994   2
  20   4   0 32885.2 2352.02   6
  20   4   0 29468.1 1679.34   2
  20   4   1 8651.93 1495.39   6
  20   4   1 10503.7 1362.02   2
 -20   4  -2 2410.80 1667.16   6
  20   4   2 1354.19 1126.22   6
  20   4   2-14.7579 1125.41   2
 -20   4  -3 23016.4 2800.03   6
  20   4   3 20636.3 1865.60   6
  20   4   3 24563.3 2170.64   2
 -20   4  -4 10254.3 2392.72   6
  20   4   4 15350.1 2032.78   2
 -20   4  -5 29680.2 3343.61   6
  20   4   5 29392.2 2632.23   2
  20   4   6 4040.29 1794.05   2
 -20   4  -6 2014.46 1999.28   6
 -20   4  -7 27177.3 3403.31   6
  20   4   7 27233.6 2890.18   2
 -20   4  -8 17090.9 3141.03   6
  20   4   8 15264.2 2547.36   2
  20   4   9 10043.3 2451.44   2
 -20   4  -9 12870.8 3060.27   6
  20   6  -7 3519.88 1893.60   6
  20   6  -6 12075.4 2155.47   6
  20   6  -5 26307.0 2684.19   6
  20   6  -4 6991.43 1795.54   6
  20   6  -3 4419.67 1620.20   6
  20   6  -2 16827.5 2098.82   6
  20   6  -1 4606.27 1481.68   6
  20   6   0 4260.40 1301.62   6
  20   6   1 484.515 1109.25   6
  20   6   2 42296.9 2313.18   6
 -21  -5   9 500.586 1462.78   4
  21  -5  -9 2865.55 1610.80   1
 -21  -5   9 2147.20 1108.30   3
 -21  -5   8 1278.52 1366.02   4
  21  -5  -8 1675.75 1398.99   1
 -21  -5   8 1335.15 1073.07   3
 -21  -5   7 10160.5 1763.42   4
  21  -5  -7 13048.3 1798.97   1
 -21  -5   7 12837.4 1513.00   3
 -21  -5   6 3788.26 1401.93   4
 -21  -5   6 3185.81 1129.00   3
  21  -5  -6 2961.50 1237.68   1
 -21  -5   5 17435.3 1797.07   4
  21  -5  -5 21333.4 1966.39   1
 -21  -5   5 17436.1 1573.91   3
 -21  -5   4 7731.93 1425.66   4
  21  -5  -4 10414.7 1583.14   1
 -21  -5   4 8145.13 1331.08   3
  21  -5  -3 56965.9 2630.55   1
 -21  -5   3 55471.6 2550.80   3
 -21  -5   2 13835.1 1500.92   3
  21  -5  -2 15268.6 1569.97   1
 -21  -5   1 4733.43 1225.06   3
  21  -5  -1 6246.39 1397.05   1
 -21  -5   0 29754.2 1861.88   3
  21  -5   0 25748.0 1981.77   1
 -21  -5  -1 16549.3 1544.49   3
  21  -5   1 14852.4 1626.99   1
  21  -5   2 4863.37 1244.77   1
 -21  -5  -2 5831.82 1166.29   3
 -21  -5  -3 5085.13 1130.96   3
  21  -5   3 2783.92 1252.72   1
 -21  -5  -4 15999.3 1545.85   3
  21  -5   4 16817.0 1858.33   2
  21  -5   4 16952.4 1864.72   1
  21  -5   5-188.800 1261.73   1
 -21  -5  -5 835.118 1106.86   3
  21  -5   5 2881.89 1271.47   2
 -21  -5  -6 3881.61 1295.02   3
  21  -5   6 1720.41 1470.22   1
  21  -5   6 927.656 1289.06   2
 -21  -5  -7 8368.01 1438.97   3
  21  -5   7 5871.76 1660.17   2
  21  -3 -12 21323.0 2304.04   1
 -21  -3  12 17696.4 2249.52   4
 -21  -3  11 3531.95 1623.82   4
  21  -3 -11 7277.09 1644.82   1
 -21  -3  10 1441.52 1395.16   4
  21  -3 -10-1521.01 1408.00   1
 -21  -3   9 28488.6 1554.60   3
  21  -3  -9 33252.9 2361.66   6
 -21  -3   9 29408.3 2472.93   4
 -21  -3   8 10526.0 1160.63   3
  21  -3  -8 14011.3 1827.64   6
  21  -3  -8 14755.6 1835.24   1
 -21  -3   8 13175.4 1813.92   4
 -21  -3   7 1181.87 1307.24   4
  21  -3  -7 1563.90 1153.76   1
 -21  -3   7 655.347 846.244   3
  21  -3  -7 857.356 1059.62   6
 -21  -3   6 14997.8 1815.63   4
  21  -3  -6 17232.5 1775.67   1
 -21  -3   6 13711.7 1258.05   3
  21  -3  -6 15217.6 1628.16   6
 -21  -3   5 85470.2 3303.08   4
  21  -3  -5 90766.2 3326.96   1
 -21  -3   5 85091.8 2500.03   3
  21  -3  -5 82738.2 2925.75   6
 -21  -3   4 8896.22 1474.16   4
 -21  -3   4 8422.52 1115.34   3
  21  -3  -4 6561.56 1103.56   6
 -21  -3   4 6723.44 875.192   1
 -21  -3   3 23739.2 1310.97   1
 -21  -3   3 20738.4 1819.31   4
  21  -3  -3 27628.1 1895.34   1
 -21  -3   3 25926.0 1566.06   3
  21  -3  -3 25411.6 1700.37   6
 -21  -3   2 71807.7 2431.97   3
  21  -3  -2 62302.4 2680.78   1
 -21  -3   1 22917.5 1550.66   3
  21  -3  -1 23042.5 1818.68   1
  21  -3   0 1715.59 1222.71   1
 -21  -3   0 939.410 942.355   3
 -21  -3  -1 5703.24 1138.33   3
  21  -3   1 4527.24 1326.98   1
  21  -3   2 55014.5 2647.68   1
 -21  -3  -2 52113.9 2169.36   3
  21  -3   3 6321.59 1425.90   1
 -21  -3  -3 8579.63 1311.07   3
 -21  -3  -4 8689.41 1336.25   3
  21  -3   4 8128.98 1418.28   2
  21  -3   4 6773.68 1490.56   1
  21  -3   5 13634.2 1899.35   1
 -21  -3  -5 9403.02 1523.99   3
  21  -3   5 10510.3 1703.37   2
  21  -3   6 8496.76 1910.92   1
 -21  -3  -6 8428.90 1416.00   3
  21  -3   6 8532.91 1657.16   2
  21  -3   7 1261.86 1272.40   7
  21  -3   7 444.634 1442.87   2
  21  -3   8 7088.20 1572.35   7
  21  -3   8 8737.41 1919.56   2
  21  -3   9 16971.3 2022.89   7
 -21  -3  -9 18589.3 2965.94   6
  21  -3   9 19816.1 2600.97   2
  21  -3  10 2098.54 1637.42   7
 -21  -3 -10 1685.57 2216.60   6
  21  -3  10 2893.21 1886.54   2
 -21  -1  13 6001.72 1854.30   4
  21  -1 -13 5814.64 1632.97   1
  21  -1 -13 6535.89 2323.88   6
  21  -1 -12 12579.2 2383.61   6
  21  -1 -12 11857.4 1728.28   1
 -21  -1  11 5402.67 1607.71   4
  21  -1 -11 5140.51 1921.15   6
  21  -1 -11 9050.97 1499.80   1
  21  -1 -10 29729.4 2859.78   6
  21  -1 -10 31396.2 2158.97   1
 -21  -1  10 28610.6 2416.16   4
 -21  -1   9 4423.07 1532.02   4
 -21  -1   9 3905.27 640.256   3
  21  -1  -9 5780.90 1762.49   6
  21  -1  -9 5385.27 1381.07   1
 -21  -1   8 15433.2 914.964   3
  21  -1  -8 20081.8 2308.83   6
  21  -1  -8 22100.0 1962.23   1
 -21  -1   8 18655.0 1938.18   4
  21  -1  -7 79766.5 2959.37   1
  21  -1  -7 44753.0 970.975   3
 -21  -1   7 58682.6 1581.06   3
  21  -1  -7 70481.9 3496.75   6
 -21  -1   7 58699.0 2783.11   4
 -21  -1   6 23665.5 1938.37   4
  21  -1  -6 29617.4 941.394   3
 -21  -1   6 24648.9 1181.75   3
  21  -1  -6 26054.6 2307.88   6
 -21  -1   5 43484.8 2318.57   4
  21  -1  -5 54003.9 2371.14   1
  21  -1  -5 43744.1 1236.28   3
 -21  -1   5 45456.9 1633.85   3
  21  -1  -5 55249.0 3136.92   6
 -21  -1   4 14548.2 1476.23   4
  21  -1  -4 19267.5 1579.29   1
  21  -1  -4 15721.3 896.493   3
 -21  -1   4 15661.6 1160.65   3
  21  -1  -4 18342.1 1893.68   6
  21  -1  -3 45786.5 2167.58   1
  21  -1  -3 41948.2 1469.49   3
 -21  -1   3 42654.2 1718.38   3
  21  -1  -3 46403.2 2616.86   6
 -21  -1   2 20753.0 1379.07   3
  21  -1  -2 23509.3 1740.58   1
  21  -1  -2 20221.9 1798.15   6
  21  -1  -1 2796.44 1219.91   1
 -21  -1   1 1336.46 905.010   3
  21  -1  -1 1881.17 1082.79   6
 -21  -1   0 104277. 2988.12   3
  21  -1   0 114614. 3684.39   6
  21  -1   0 109625. 3411.45   1
  21  -1   1 4053.74 1138.37   1
  21  -1   1 4329.33 1168.39   6
  21  -1   2 23398.3 1954.18   1
  21  -1   3 7881.01 1741.33   1
  21  -1   4 17689.6 2071.93   1
  21  -1   4 14873.4 1749.28   2
  21  -1   5 11951.1 2171.85   1
  21  -1   5 11501.2 1712.48   2
  21  -1   6 25092.4 2016.19   7
  21  -1   6 23019.3 2389.85   2
  21  -1   7 24008.0 2058.44   7
  21  -1   7 27977.0 2631.56   2
  21  -1   8 16317.6 1922.98   7
  21  -1   8 12823.5 2243.48   2
  21  -1   9 7667.81 1666.18   7
 -21  -1  -9 8793.57 2518.05   6
  21  -1   9 8391.65 2060.20   2
  21  -1  10 1178.65 1513.74   7
 -21  -1 -10 280.493 2146.87   6
  21  -1  10 2507.18 2042.27   2
  21  -1  11 20490.5 2494.67   7
 -21  -1 -11 15893.5 3162.60   6
  21  -1  11 22436.4 3167.32   2
 -21   1  13 3556.36 1544.31   4
  21   1 -13 5726.37 1408.02   1
  21   1 -13 485.894 2133.03   6
 -21   1  12 5666.27 1559.15   4
  21   1 -12 5772.81 2324.39   6
  21   1 -12 9294.09 1467.11   1
 -21   1  11 9170.55 1572.09   4
  21   1 -11 11491.7 2479.80   6
  21   1 -11 12395.2 1434.06   1
  21   1 -10 38871.8 2137.58   1
  21   1 -10 36229.4 3397.03   6
 -21   1  10 32179.9 2275.08   4
 -21   1   9 1376.03 1232.72   4
  21   1  -9 2207.33 1019.80   1
  21   1  -9 937.355 1646.75   6
  21   1  -8 20861.9 1582.16   1
  21   1  -8 19279.5 2505.58   6
 -21   1   8 14034.9 1571.16   4
  21   1  -7 68349.2 2468.71   1
  21   1  -7 65174.2 3835.43   6
 -21   1   6 33176.8 1982.53   4
  21   1  -6 35636.9 1533.77   3
  21   1  -6 37228.5 1858.21   1
  21   1  -6 34133.1 2776.86   6
 -21   1   5 50457.1 2290.91   4
  21   1  -5 59585.7 2002.15   3
  21   1  -5 58526.7 2249.78   1
  21   1  -5 55448.2 3333.80   6
  21   1  -4 27034.6 2438.71   6
  21   1  -4 24962.2 1666.19   1
  21   1  -3 52536.4 3045.01   6
  21   1  -3 56567.9 2336.99   1
  21   1  -2 32142.7 2473.85   6
  21   1  -2 29735.8 1887.98   1
  21   1  -1 2395.72 1075.08   1
  21   1  -1 2936.37 1257.05   6
  21   1   0 87722.9 3340.94   1
  21   1   0 94542.8 3672.67   6
  21   1   1 3925.05 1244.76   6
  21   1   1 2825.28 1229.57   1
  21   1   2 18156.7 2130.44   1
  21   1   2 19350.5 1902.09   6
  21   1   3 5245.96 1339.12   2
  21   1   3 3504.80 1583.60   1
  21   1   4 26021.8 1823.66   7
  21   1   4 27330.1 2138.25   2
  21   1   5 15986.4 1707.65   7
  21   1   5 10707.8 1900.23   2
  21   1   6 24461.7 2056.91   7
  21   1   6 28065.8 2666.95   2
  21   1   7 38133.6 2620.24   7
  21   1   7 37746.8 3160.13   2
  21   1   8 17671.0 2125.10   7
 -21   1  -8 19274.9 3048.41   6
  21   1   8 16984.9 2419.87   2
  21   1   9 16673.1 2191.46   7
 -21   1  -9 8806.65 2538.52   6
  21   1   9 9533.42 2300.81   2
  21   1  10 821.170 1971.31   2
 -21   1 -10-661.954 2351.99   6
 -21   1 -11 22302.7 3637.17   6
  21   1  11 20749.8 3044.90   2
  21   3 -12 19618.4 3220.35   6
  21   3 -11 8767.64 2461.88   6
 -21   3  10 5789.55 1361.10   4
  21   3 -10 2263.88 1973.35   6
 -21   3   9 20124.5 1511.82   4
  21   3  -9 27315.6 3056.18   6
  21   3  -8 13578.3 2411.71   6
  21   3  -8 10430.2 1129.82   1
  21   3  -7 2051.63 862.385   1
  21   3  -7 1922.04 1723.16   6
  21   3  -6 15022.1 2337.65   6
  21   3  -6 8770.04 1077.10   1
  21   3  -5 85945.5 2501.95   1
  21   3  -5 96014.7 4481.84   6
  21   3  -4 8332.07 1469.35   2
  21   3  -4 9976.98 1218.99   1
  21   3  -4 12776.5 1970.88   6
  21   3  -3 28096.5 2555.79   6
  21   3  -3 21518.0 1723.82   1
  21   3  -2 89652.9 3305.76   1
  21   3  -2 84089.8 3941.96   6
  21   3  -1 20017.6 1895.74   1
  21   3  -1 15094.0 778.730   7
  21   3  -1 20154.2 2041.28   6
  21   3   0 1209.89 630.867   7
  21   3   0 686.235 837.575   2
  21   3   0 230.530 1168.38   6
  21   3   1 3285.71 862.142   7
  21   3   1 4897.18 1337.38   6
  21   3   1 3770.81 995.013   2
  21   3   2 60356.0 2215.55   7
  21   3   2 57457.9 2909.08   6
  21   3   2 61239.1 2723.03   2
  21   3   3 11883.2 1710.36   2
  21   3   3 10876.8 1725.94   6
  21   3   4 15487.7 2006.00   2
 -21   3  -5 12653.3 2522.91   6
  21   3   5 10971.0 1792.13   2
 -21   3  -6 10986.5 2634.70   6
  21   3   6 8014.90 1947.47   2
 -21   3  -7 1830.76 2324.18   6
  21   3   7-1312.74 1917.51   2
 -21   3  -8 10653.7 2983.45   6
  21   3   8 8596.32 2303.01   2
 -21   3  -9 23539.8 3646.85   6
  21   3   9 22867.0 2963.89   2
  21   3  10-1962.49 2172.98   2
 -21   3 -10 4446.90 2899.15   6
  21   5  -9 2091.31 1831.91   6
  21   5  -8 3304.94 1880.24   6
  21   5  -7 12569.6 2221.48   6
  21   5  -6 2336.93 1705.50   6
  21   5  -5 21518.6 2578.77   6
  21   5  -4 5441.10 1788.28   6
  21   5  -3 57493.5 3397.29   6
  21   5  -2 12092.4 1835.99   6
  21   5  -1 6497.05 1644.14   6
 -21   5   0 30658.3 2514.36   6
  21   5   0 26577.6 2252.34   6
 -21   5  -1 14827.5 2191.24   6
  21   5   1 15714.7 1741.02   6
 -21   5  -2 5824.29 1909.42   6
  21   5   2 6459.77 1373.66   6
 -21   5  -3 8684.20 2195.88   6
 -21   5  -4 26253.8 3117.17   6
 -21   5  -5 3646.46 2201.84   6
 -21   5  -6 5531.89 2366.13   6
 -21   5  -7 8581.92 2686.90   6
 -22  -6   7 300.731 1456.01   4
  22  -6  -7 134.953 1298.21   1
 -22  -6   6 86.1808 1308.56   4
 -22  -6   6 1064.99 1178.38   3
  22  -6  -6 1173.03 1321.26   1
 -22  -6   5 19636.5 1947.00   4
  22  -6  -5 21365.7 2044.42   1
 -22  -6   5 23261.7 1890.71   3
  22  -6  -4 16802.6 1699.21   3
  22  -6  -4 16760.7 1809.52   1
 -22  -6   4 14030.2 1681.77   3
 -22  -6   3 133.386 1127.14   3
  22  -6  -3 1350.47 1117.97   1
 -22  -6   2 13592.9 1620.22   3
  22  -6  -2 13860.5 1628.12   1
 -22  -6   1 12360.1 1513.43   3
  22  -6  -1 11155.6 1575.71   1
 -22  -6   0 2287.72 1145.20   3
  22  -6   0 3427.74 1247.91   1
 -22  -6  -1-346.262 1118.72   3
  22  -6   1 1021.41 1216.71   1
 -22  -6  -2 10593.4 1416.66   3
  22  -6   2 8385.50 1405.82   1
 -22  -6  -3 1877.17 1094.68   3
  22  -6   3 1446.01 1120.79   2
 -22  -6  -4-914.012 1165.44   3
  22  -6   4 160.410 1327.06   2
 -22  -4  11 5059.82 1726.86   4
  22  -4 -11 3494.85 1484.49   1
  22  -4 -10 23029.3 2199.44   1
 -22  -4  10 14066.6 2001.72   4
 -22  -4   9 3958.46 1600.33   4
 -22  -4   9 5248.20 1082.36   3
 -22  -4   8 5320.41 1634.10   4
  22  -4  -8 6595.29 1562.65   1
 -22  -4   8 4287.53 1086.75   3
 -22  -4   7 17429.1 1973.43   4
  22  -4  -7 20470.5 2068.33   1
 -22  -4   7 16492.8 1470.80   3
 -22  -4   6 2755.71 1373.51   4
  22  -4  -6 1868.48 1158.26   1
 -22  -4   6 265.591 962.239   3
 -22  -4   5 33051.3 2230.95   4
  22  -4  -5 35067.7 2237.66   1
 -22  -4   5 34406.4 1920.32   3
 -22  -4   4 1334.13 1229.36   4
 -22  -4   4 4122.63 1100.04   3
  22  -4  -4 3220.66 1290.16   1
  22  -4  -3 48452.9 2449.44   1
 -22  -4   3 48103.4 2148.50   3
 -22  -4   2 9295.53 1246.69   3
  22  -4  -2 7856.63 1388.98   1
  22  -4  -1 1974.71 1271.04   1
 -22  -4   1 1199.94 979.513   3
 -22  -4   0 59197.8 2350.92   3
  22  -4   0 60295.2 2762.71   1
 -22  -4  -1 13426.6 1399.73   3
  22  -4   1 12303.8 1580.48   1
  22  -4   2 22076.4 1883.46   1
 -22  -4  -2 21774.8 1674.15   3
  22  -4   3 5694.50 1394.65   1
 -22  -4  -3 5597.60 1236.07   3
 -22  -4  -4 4477.68 1237.92   3
  22  -4   4 7579.33 1457.76   2
  22  -4   4 5078.44 1488.22   1
  22  -4   5 17743.4 2004.14   1
 -22  -4  -5 16651.3 1652.64   3
  22  -4   5 17462.3 2020.77   2
  22  -4   6 1263.68 1527.76   1
 -22  -4  -6 2165.01 1295.80   3
  22  -4   6 1802.17 1392.57   2
 -22  -4  -7 13390.9 1723.11   3
  22  -4   7 12049.5 2034.86   2
  22  -4   8 3894.40 1503.38   7
  22  -4   8 2075.20 1649.12   2
  22  -4   9 5439.27 1588.23   7
 -22  -4  -9 7877.18 2397.49   6
  22  -4   9 7775.97 2057.78   2
 -22  -2  13 3596.41 1679.54   4
  22  -2 -13 4622.13 1668.39   1
  22  -2 -13 3352.97 1850.62   6
  22  -2 -12 21406.8 2566.50   6
  22  -2 -12 19792.8 2030.98   1
 -22  -2  12 17346.5 2256.79   4
 -22  -2  11 4139.53 1590.01   4
  22  -2 -11 3600.30 1361.91   1
  22  -2 -11 3151.15 1648.81   6
  22  -2 -10 46777.4 3151.67   6
  22  -2 -10 52338.2 2784.13   1
 -22  -2   9 3826.71 1526.48   4
  22  -2  -9 3764.68 1372.69   1
 -22  -2   9 1108.96 675.696   3
  22  -2  -9 2128.70 1371.66   6
 -22  -2   8 6436.32 1588.68   4
 -22  -2   8 6089.12 830.205   3
  22  -2  -8 10624.6 1805.88   6
  22  -2  -8 8796.36 1544.21   1
 -22  -2   7 51974.9 1748.69   3
 -22  -2   7 53978.9 2806.47   4
 -22  -2   6 38080.5 2410.21   4
 -22  -2   6 36924.0 1551.95   3
  22  -2  -6 38514.0 2454.11   6
 -22  -2   5 29572.2 2152.94   4
  22  -2  -5 27365.8 2030.35   1
 -22  -2   5 25620.6 1381.39   3
  22  -2  -5 26869.2 1116.73   3
  22  -2  -5 25086.0 2148.57   6
  22  -2  -4 17405.5 1610.12   1
 -22  -2   4 17360.9 1264.67   3
  22  -2  -4 16097.7 1129.64   3
  22  -2  -4 20119.9 1842.86   6
 -22  -2   3 44713.5 1870.30   3
  22  -2  -3 45480.5 2428.11   6
  22  -2  -2 6040.64 1254.76   1
 -22  -2   2 6961.82 1091.88   3
  22  -2  -2 6034.42 1262.16   6
  22  -2  -1 35265.6 2173.37   1
  22  -2  -1 35899.3 2172.77   6
 -22  -2   0 86439.5 2615.64   3
  22  -2   0 83228.9 3047.82   1
  22  -2   1 30287.8 2072.92   1
 -22  -2  -1 32040.7 1836.17   3
  22  -2   2 17486.9 1745.44   1
 -22  -2  -2 17781.8 1619.31   3
 -22  -2  -3 16712.4 1674.89   3
  22  -2   3 14514.2 1878.96   1
  22  -2   4 54477.4 3045.05   1
  22  -2   4 45943.6 2607.52   2
  22  -2   5 6056.62 1766.72   1
  22  -2   5 6770.96 1560.20   2
  22  -2   6 17232.1 2148.89   2
  22  -2   6 16444.9 2339.76   1
  22  -2   7 23434.2 2037.99   7
  22  -2   7 24422.4 2423.09   2
  22  -2   8 17365.4 1958.05   7
  22  -2   8 18305.5 2384.21   2
  22  -2   9 3027.41 1492.08   7
 -22  -2  -9 2513.81 2253.44   6
  22  -2   9 1619.90 1838.85   2
  22  -2  10 6067.66 1766.00   7
 -22  -2 -10 2143.13 2260.33   6
  22  -2  10 6856.12 2174.19   2
 -22  -2 -11 5223.94 2858.87   6
  22  -2  11 6785.48 2362.60   2
 -22   0  13 2955.37 1581.60   4
  22   0 -13 527.162 1290.85   1
  22   0 -13 2353.97 1971.94   6
  22   0 -12 58930.9 4236.09   6
  22   0 -12 67291.2 2982.37   1
 -22   0  11 3571.00 1494.90   4
  22   0 -11 3023.77 1251.90   1
  22   0 -11 1971.61 1802.16   6
 -22   0  10-938.664 1295.52   4
  22   0 -10 721.198 1140.77   1
  22   0 -10 382.341 1743.46   6
  22   0  -9 11664.9 1439.25   1
 -22   0   9 11199.1 1626.37   4
  22   0  -8 30910.8 1937.58   1
  22   0  -8 26772.6 2640.68   6
 -22   0   8 26253.5 1973.36   4
 -22   0   7 1217.84 1162.98   4
  22   0  -7 3081.60 1080.01   1
  22   0  -7 3627.26 1735.06   6
  22   0  -7 2459.85 597.173   3
 -22   0   6 10435.8 1644.38   4
  22   0  -6 8871.35 895.359   3
  22   0  -6 12095.8 2209.66   6
  22   0  -5 200179. 3015.36   3
  22   0  -5 205904. 4273.56   1
  22   0  -4 8957.34 842.867   3
  22   0  -4 8068.65 1227.83   1
  22   0  -4 8499.39 1763.96   6
  22   0  -3 10024.7 923.604   3
  22   0  -3 7116.40 1317.29   1
  22   0  -3 6869.65 1543.13   6
  22   0  -2 40218.0 2586.10   6
  22   0  -2 48200.3 2392.00   1
  22   0  -1 59778.5 2940.24   6
  22   0  -1 59469.9 2584.97   1
  22   0   0 13644.8 1620.96   1
  22   0   0 14322.2 1639.26   6
  22   0   1 3589.19 1187.83   1
  22   0   1 6071.87 1397.79   6
  22   0   2 79402.8 3436.10   1
  22   0   3 13664.6 1871.21   1
  22   0   4 28310.5 2222.28   2
  22   0   4 32243.4 2818.82   1
  22   0   5 3076.00 1213.02   7
  22   0   5 3455.24 1407.37   2
  22   0   6 1396.56 1285.93   7
  22   0   6 126.643 1365.19   2
  22   0   7 23830.5 2098.49   7
  22   0   7 24128.9 2524.99   2
  22   0   8 4217.34 1482.98   7
  22   0   8 3674.05 1887.36   2
  22   0   9 12064.7 1983.30   7
 -22   0  -9 9949.97 2706.03   6
  22   0   9 13124.3 2381.38   2
  22   0  10 6249.16 1844.89   7
 -22   0 -10 1507.18 2367.72   6
  22   0  10 5529.01 2168.04   2
  22   0  11 5594.54 2282.70   2
  22   0  11 6792.79 1931.36   7
 -22   0 -11 8581.40 2846.73   6
 -22   2  13 3034.58 1453.68   4
  22   2 -13 2222.60 2143.50   6
  22   2 -12 25172.2 3371.90   6
 -22   2  12 17955.9 1833.95   4
 -22   2  11 5145.76 1292.23   4
  22   2 -11 5774.34 1127.59   1
  22   2 -11 2538.27 2137.38   6
 -22   2  10 48242.3 2500.88   4
  22   2 -10 53471.4 2175.22   1
  22   2 -10 49738.5 3980.11   6
 -22   2   9 8311.45 1394.78   4
  22   2  -9 6510.45 1053.08   1
  22   2  -9 9065.92 2359.89   6
 -22   2   8 6213.23 1261.77   4
  22   2  -8 7550.05 1106.41   1
  22   2  -8 6702.97 2050.21   6
 -22   2   7 51068.6 2275.92   4
  22   2  -7 56530.0 2146.36   1
  22   2  -7 57192.6 3816.26   6
  22   2  -6 37032.8 3008.30   6
  22   2  -6 31917.6 1768.70   1
  22   2  -5 25280.0 2499.83   6
  22   2  -5 20307.1 1565.45   1
  22   2  -4 17029.4 2160.58   6
  22   2  -4 13720.8 1372.58   1
  22   2  -3 46685.6 2216.35   1
  22   2  -3 52257.5 3272.00   6
  22   2  -2 4792.34 1199.94   1
  22   2  -2 4945.95 1605.82   6
  22   2  -1 33077.4 2455.25   6
  22   2  -1 34016.6 2239.31   1
  22   2   0 75765.5 3313.06   1
  22   2   0 81400.4 3516.02   6
  22   2   1 24324.3 2122.71   6
  22   2   1 26291.5 2362.89   1
  22   2   2 27279.0 1587.52   7
  22   2   2 25622.7 1924.63   2
  22   2   2 28051.9 2198.17   6
  22   2   3 21209.2 1626.37   7
  22   2   3 17402.4 1829.29   2
  22   2   4 42728.3 2278.71   7
  22   2   4 47280.3 2850.12   2
  22   2   5 7767.29 1496.90   7
  22   2   5 5387.96 1678.44   2
  22   2   6 22229.5 2137.59   7
  22   2   6 24506.2 2535.54   2
  22   2   7 29241.4 2302.44   7
 -22   2  -7 23389.5 3281.99   6
  22   2   7 25318.7 2831.08   2
 -22   2  -8 19133.9 3261.90   6
  22   2   8 20007.6 2736.47   2
  22   2   9-459.404 1881.88   2
 -22   2  -9 7830.45 2852.58   6
  22   2  10 3970.08 2158.32   2
 -22   2 -10 7746.86 2834.19   6
 -22   2 -11 9386.70 3068.68   6
  22   2  11 12696.4 2752.31   2
  22   4 -11 1071.63 1974.77   6
  22   4 -10 15274.1 2795.18   6
  22   4  -9 2244.18 1896.88   6
  22   4  -8 10375.6 2191.79   6
  22   4  -7 21266.3 2749.69   6
  22   4  -6 1089.70 1514.75   6
  22   4  -5 29803.2 2785.46   6
  22   4  -4 7618.31 1922.68   6
  22   4  -3 44508.5 3063.44   6
  22   4  -2 20857.7 2306.06   6
  22   4  -1 822.316 1343.56   6
  22   4  -1 2650.91 875.459   2
  22   4   0 55243.6 2969.84   6
  22   4   0 46251.6 2135.35   2
  22   4   1 20310.1 1920.49   6
  22   4   1 17052.8 1529.49   2
  22   4   2 17569.9 1847.11   6
  22   4   2 19896.8 1886.30   2
 -22   4  -3 7239.91 2112.89   6
  22   4   3 6192.69 1462.45   6
  22   4   3 8182.80 1669.55   2
 -22   4  -4 4240.34 2065.81   6
  22   4   4 5753.88 1656.54   2
 -22   4  -5 18330.3 2903.09   6
  22   4   5 16124.2 2207.59   2
  22   4   6 4878.60 1819.96   2
 -22   4  -6-507.108 2031.67   6
 -22   4  -7 19538.2 3150.47   6
  22   4   7 17602.7 2374.11   2
  22   4   8 3419.65 2000.59   2
 -22   4  -8 3520.65 2482.14   6
  22   4   9 6509.92 2292.32   2
 -22   4  -9 7542.38 2926.42   6
  22   6  -7 3023.48 1894.93   6
  22   6  -6 4125.57 1915.70   6
  22   6  -5 27031.4 2827.26   6
  22   6  -4 15736.5 2154.18   6
  22   6  -3 773.307 1462.09   6
  22   6  -2 24432.5 2443.90   6
  22   6  -1 7676.06 1642.68   6
  22   6   0 4758.46 1443.26   6
  22   6   1 1157.52 1207.51   6
  22   6   2 13714.7 1637.37   6
 -23  -5   9 3837.76 1617.60   4
  23  -5  -9 2977.29 1528.70   1
 -23  -5   9 4772.22 1168.44   3
 -23  -5   8-304.470 1436.95   4
  23  -5  -8 267.580 1318.23   1
 -23  -5   8-261.148 1066.12   3
 -23  -5   7 9193.46 1718.74   4
  23  -5  -7 11953.2 1726.01   1
 -23  -5   7 9900.05 1391.05   3
 -23  -5   6 336.503 1407.56   4
 -23  -5   6-21.4667 1188.23   3
  23  -5  -6 1625.84 1204.91   1
 -23  -5   5 7321.47 1531.28   4
  23  -5  -5 12678.5 1716.22   1
 -23  -5   5 10206.7 1384.31   3
 -23  -5   4-406.952 1067.70   3
  23  -5  -4 2502.56 1219.06   1
 -23  -5   3 26717.6 1836.78   3
  23  -5  -3 23882.0 1897.36   1
 -23  -5   2 3228.51 1140.38   3
  23  -5  -2 4913.97 1306.14   1
  23  -5  -1 1084.84 1327.06   1
 -23  -5   1 1056.50 1071.88   3
 -23  -5   0 24940.5 1849.44   3
  23  -5   0 24076.4 2016.41   1
 -23  -5  -1 16071.8 1564.95   3
  23  -5   1 16875.5 1782.83   1
  23  -5   2 7841.69 1424.39   1
 -23  -5  -2 4956.62 1210.71   3
  23  -5   3 3233.27 1310.96   1
 -23  -5  -3 6034.55 1250.64   3
 -23  -5  -4 10691.1 1378.90   3
  23  -5   4 10411.1 1692.04   2
  23  -5   4 14855.1 1806.46   1
  23  -5   5-645.464 1402.29   1
 -23  -5  -5 487.336 1137.91   3
  23  -5   5 1202.04 1222.68   2
  23  -5   6 2142.51 1566.29   1
 -23  -5  -6 3663.06 1310.59   3
  23  -5   6 1171.54 1411.33   2
 -23  -5  -7 3669.11 1372.76   3
  23  -5   7 2418.07 1647.63   2
  23  -3 -12 30725.1 2617.73   1
 -23  -3  12 15239.2 2189.96   4
 -23  -3  11 1200.09 1577.45   4
  23  -3 -11 1792.98 1538.95   1
 -23  -3  10-50.1335 1463.88   4
  23  -3 -10 1301.16 1375.59   1
 -23  -3   9 13376.6 1165.91   3
  23  -3  -9 16222.1 1957.26   6
  23  -3  -9 19849.6 2106.20   1
 -23  -3   9 15556.0 2016.84   4
 -23  -3   8 18943.0 1306.00   3
  23  -3  -8 15423.4 1828.65   6
 -23  -3   8 19139.5 1988.96   4
 -23  -3   7-246.141 1283.36   4
  23  -3  -7 2882.10 1230.15   1
 -23  -3   7 1122.05 822.452   3
  23  -3  -7 909.605 1182.62   6
 -23  -3   6 15335.6 1797.36   4
  23  -3  -6 16286.9 1770.92   1
 -23  -3   6 11824.8 1220.92   3
  23  -3  -6 15372.5 1705.37   6
 -23  -3   5 92150.6 3423.71   4
  23  -3  -5 99379.2 3436.48   1
 -23  -3   5 91365.2 2645.62   3
  23  -3  -4 47795.8 2448.61   1
 -23  -3   4 41117.2 1849.66   3
  23  -3  -4 43075.1 2217.78   6
  23  -3  -3 17866.6 1645.96   1
 -23  -3   3 18931.9 1464.86   3
  23  -3  -3 17116.6 1562.49   6
 -23  -3   2 38410.9 1863.31   3
  23  -3  -2 33836.0 2170.49   1
 -23  -3   1 38766.3 1931.68   3
  23  -3  -1 47978.4 2484.53   1
  23  -3   0 5851.35 1428.82   1
 -23  -3   0 4889.98 1078.52   3
 -23  -3  -1 2413.85 1054.63   3
  23  -3   1 1939.51 1188.38   1
  23  -3   2 32510.5 2190.93   1
 -23  -3  -2 36836.9 1999.72   3
  23  -3   3 21919.2 2058.64   1
 -23  -3  -3 23285.8 1773.60   3
 -23  -3  -4 8261.31 1420.22   3
  23  -3   4 7976.30 1521.85   2
  23  -3   4 7750.68 1624.71   1
  23  -3   5 16004.9 2064.36   1
 -23  -3  -5 13548.6 1676.24   3
  23  -3   5 12516.2 1876.33   2
  23  -3   6 11569.3 1840.56   2
  23  -3   6 13404.6 2215.77   1
  23  -3   7 73.6859 1304.48   7
  23  -3   7 1857.45 1416.03   2
  23  -3   8 6324.15 1656.22   7
  23  -3   8 5184.32 1837.51   2
  23  -3   9 10926.3 1767.21   7
  23  -3   9 14198.2 2345.39   2
 -23  -3 -10 4626.68 2667.34   6
 -23  -1  13 124.990 1545.23   4
  23  -1 -13 4051.31 1490.31   1
  23  -1 -13 5378.46 2165.86   6
 -23  -1  12 5796.21 1795.45   4
  23  -1 -12 5719.13 2069.36   6
  23  -1 -12 9464.96 1599.74   1
  23  -1 -11 10366.9 2175.41   6
  23  -1 -11 13640.9 1747.63   1
 -23  -1  11 10190.3 1854.06   4
  23  -1 -10 16490.0 2387.61   6
  23  -1 -10 21155.4 1953.57   1
 -23  -1   9 4761.40 1416.70   4
  23  -1  -9 8186.16 1894.88   6
  23  -1  -8 12448.7 1523.80   1
 -23  -1   8 11969.2 943.597   3
  23  -1  -8 12832.7 1943.93   6
 -23  -1   8 11575.4 1619.87   4
 -23  -1   7 52939.4 2704.15   4
  23  -1  -7 62489.9 2679.07   1
 -23  -1   7 47037.3 1563.10   3
  23  -1  -7 61672.0 3297.79   6
 -23  -1   6 22923.4 1951.29   4
  23  -1  -6 23215.9 936.246   3
 -23  -1   6 22312.3 1268.67   3
  23  -1  -6 26418.2 2458.73   6
 -23  -1   5 17049.4 1747.09   4
  23  -1  -5 19531.9 1659.37   1
  23  -1  -5 16467.4 903.029   3
 -23  -1   5 17196.1 1206.04   3
  23  -1  -5 18991.1 2076.05   6
 -23  -1   4 9433.39 1505.68   4
  23  -1  -4 10596.4 1359.05   1
  23  -1  -4 8820.10 805.731   3
 -23  -1   4 7943.83 1071.14   3
  23  -1  -4 11655.5 1755.44   6
  23  -1  -3 20289.1 1676.51   1
 -23  -1   3 22753.8 1548.12   3
  23  -1  -3 24252.1 2072.63   6
 -23  -1   2 9327.04 1261.78   3
  23  -1  -2 10354.0 1539.80   6
  23  -1  -2 7890.96 1365.19   1
 -23  -1   1 30120.0 1786.61   3
  23  -1  -1 26837.1 2069.97   6
  23  -1  -1 30458.4 2022.97   1
  23  -1   0 52171.7 2716.80   6
  23  -1   0 48248.9 2543.02   1
  23  -1   1 3246.70 1299.48   1
  23  -1   2 47219.1 2749.09   1
  23  -1   3 48098.0 2952.67   1
  23  -1   4 59829.5 3320.36   1
  23  -1   4 63497.4 3058.32   2
  23  -1   5 11062.2 1830.19   2
  23  -1   5 11607.1 2196.21   1
  23  -1   6 11303.2 1712.05   7
  23  -1   6 11663.6 2009.94   2
  23  -1   7 27209.2 2289.16   7
  23  -1   7 25312.4 2647.06   2
  23  -1   8 13485.6 1910.24   7
  23  -1   8 15783.7 2355.62   2
  23  -1   9 4215.62 1546.75   7
 -23  -1  -9 332.042 2083.30   6
  23  -1   9 2819.70 1876.75   2
  23  -1  10 4750.59 1841.12   7
 -23  -1 -10-58.9866 2324.63   6
  23  -1  10 244.069 1855.29   2
  23  -1  11 12919.1 2190.36   7
 -23  -1 -11 12750.7 3024.01   6
  23  -1  11 15696.1 2927.41   2
 -23   1  13 1210.16 1542.73   4
  23   1 -13 4263.00 1260.49   1
  23   1 -13 4739.51 2377.56   6
  23   1 -12 6033.87 1197.71   1
  23   1 -12 7847.08 2375.25   6
 -23   1  12 6535.72 1729.03   4
  23   1 -11 9769.56 1348.81   1
  23   1 -11 13029.5 2480.53   6
 -23   1  11 10430.5 1606.76   4
  23   1 -10 22215.4 1677.29   1
  23   1 -10 25182.8 2925.27   6
 -23   1   9 9049.62 1519.10   4
  23   1  -9 13652.2 1404.56   1
  23   1  -9 13212.5 2255.16   6
  23   1  -8 12551.0 1370.67   1
  23   1  -8 10950.4 2229.24   6
  23   1  -7 54781.4 2250.24   1
  23   1  -7 57034.1 3648.16   6
 -23   1   6 22937.6 1784.96   4
  23   1  -6 29507.1 1724.34   1
  23   1  -6 28027.8 2569.31   6
  23   1  -5 15958.0 1515.35   1
  23   1  -5 18795.4 2293.44   6
  23   1  -4 12607.4 1924.33   6
  23   1  -4 12434.0 1478.76   1
  23   1  -3 39350.4 2810.39   6
  23   1  -3 40153.1 2117.22   1
  23   1  -2 18401.0 1655.24   1
  23   1  -2 16110.1 1976.77   6
  23   1  -1 23817.3 1930.52   1
  23   1  -1 26090.9 2257.42   6
  23   1   0 53287.8 2722.10   1
  23   1   0 55884.0 2889.70   6
  23   1   1 7370.57 1443.63   6
  23   1   1 7267.15 1579.00   1
  23   1   2 50145.0 3154.23   1
  23   1   2 50142.5 2838.74   6
  23   1   3 51926.9 3388.27   1
  23   1   3 48964.4 2703.52   2
  23   1   4 52886.6 2457.86   7
  23   1   4 54687.2 2931.04   2
  23   1   5 13422.3 1683.30   7
  23   1   5 9223.54 1799.38   2
  23   1   6 15490.2 1730.43   7
  23   1   6 15220.2 2246.93   2
  23   1   7 26816.9 2317.34   7
  23   1   7 24844.7 2603.73   2
  23   1   8 20697.6 2222.26   7
 -23   1  -8 13660.7 2739.53   6
  23   1   8 20828.6 2654.11   2
  23   1   9 1751.03 1606.46   7
 -23   1  -9 2722.69 2575.77   6
  23   1   9 3993.01 2065.21   2
 -23   1 -10 1101.25 2731.47   6
  23   1  10 1384.84 2024.44   2
 -23   1 -11 13053.3 3126.76   6
  23   1  11 15414.8 2877.78   2
  23   3 -12 30109.4 3550.47   6
  23   3 -11 3141.55 2003.83   6
  23   3 -10 2453.18 1945.69   6
  23   3  -9 26535.9 2982.36   6
  23   3  -8 32104.4 3209.68   6
  23   3  -8 28920.9 1620.12   1
  23   3  -7 2576.34 1730.92   6
  23   3  -7 1854.30 946.443   1
  23   3  -6 10844.6 1247.90   1
  23   3  -6 16600.0 2332.22   6
  23   3  -5 79701.3 2616.53   1
  23   3  -5 99894.6 4607.42   6
  23   3  -4 40810.5 3127.86   6
  23   3  -4 37478.1 2068.13   1
  23   3  -3 28616.3 2519.88   6
  23   3  -3 21514.5 1787.16   1
  23   3  -2 41463.8 2486.30   1
  23   3  -2 38573.8 2853.78   6
  23   3  -1 32612.3 1174.51   7
  23   3  -1 42248.9 2779.18   6
  23   3  -1 37829.1 2585.86   1
  23   3   0 6017.59 827.461   7
  23   3   0 6287.18 1532.26   6
  23   3   1 2279.30 865.998   7
  23   3   1 385.311 1156.73   6
  23   3   1 1817.90 1017.79   2
  23   3   2 56272.6 2172.46   7
  23   3   2 53997.9 2691.34   2
  23   3   2 53412.7 2854.06   6
  23   3   3 21693.2 1664.56   7
  23   3   3 23574.3 2085.99   2
  23   3   3 22127.2 2025.53   6
  23   3   4 7178.15 1661.50   2
 -23   3  -5 19051.6 2932.27   6
  23   3   5 21430.5 2379.99   2
 -23   3  -6 16050.1 2965.35   6
  23   3   6 26219.7 2777.31   2
 -23   3  -7 4390.61 2428.14   6
  23   3   7 2243.59 1754.03   2
  23   3   8 4454.88 1963.16   2
 -23   3  -8 7789.98 2550.63   6
 -23   3  -9 18797.8 3268.82   6
  23   3   9 18507.7 2871.73   2
  23   3  10 8580.02 2493.36   2
  23   5  -9 4244.25 2049.23   6
  23   5  -8 2194.81 1881.52   6
  23   5  -7 11892.0 2300.47   6
  23   5  -6 4289.81 1955.40   6
  23   5  -5 16252.1 2445.08   6
  23   5  -4-1896.88 1556.59   6
  23   5  -3 21215.5 2324.92   6
  23   5  -2 4040.17 1499.53   6
  23   5  -1 2426.01 1312.75   6
  23   5   0 22865.6 2172.12   6
 -23   5  -1 19849.4 2475.57   6
  23   5   1 18748.4 1915.28   6
 -23   5  -2 9225.41 2175.91   6
  23   5   2 4896.78 1429.95   6
 -23   5  -3 8761.00 2243.56   6
 -23   5  -4 15337.3 2692.51   6
 -23   5  -5 1073.93 2067.23   6
 -23   5  -6 3077.38 2273.35   6
 -23   5  -7 10598.7 2900.32   6
 -24  -6   6 908.443 1361.62   4
  24  -6  -6 3994.28 1445.20   1
  24  -6  -5 23582.9 2084.83   1
 -24  -6   5 22458.5 1860.07   3
 -24  -6   4 6679.79 1311.41   3
  24  -6  -4 5994.55 1453.85   1
 -24  -6   3 5566.70 1312.98   3
  24  -6  -3 4103.73 1377.23   1
  24  -6  -2 2730.59 1365.02   1
 -24  -6   2 2952.05 1177.44   3
 -24  -6   1 10854.8 1484.02   3
  24  -6  -1 11787.2 1655.95   1
 -24  -6   0-763.508 1141.67   3
  24  -6   0 928.580 1235.98   1
 -24  -6  -1 1975.12 1254.71   3
  24  -6   1-1476.41 1272.25   1
  24  -6   2 8855.64 1560.13   1
 -24  -6  -2 10669.4 1455.40   3
 -24  -6  -3 3785.73 1191.40   3
  24  -6   3 3154.77 1313.11   2
  24  -4 -10 25297.2 2282.35   1
 -24  -4  10 18264.6 2226.52   4
  24  -4  -9 8433.81 1758.30   1
 -24  -4   9 6838.07 1577.80   4
 -24  -4   9 6190.91 1114.15   3
 -24  -4   8 13392.8 1844.34   4
  24  -4  -8 10927.2 1685.48   1
 -24  -4   8 8855.37 1238.09   3
  24  -4  -7 27084.2 2088.32   1
 -24  -4   7 23389.5 1651.80   3
 -24  -4   6 7470.16 1609.85   4
  24  -4  -6 12475.0 1682.25   1
 -24  -4   6 10063.7 1247.54   3
 -24  -4   5 13511.4 1720.97   4
  24  -4  -5 19155.9 1865.82   1
 -24  -4   5 16145.8 1447.61   3
 -24  -4   4 1260.74 981.031   3
  24  -4  -4 1681.32 1222.19   1
 -24  -4   3 19129.4 1543.99   3
  24  -4  -3 20058.5 1739.60   1
  24  -4  -2 930.402 1172.90   1
 -24  -4   2 415.878 974.099   3
 -24  -4   1 8866.18 1223.66   3
  24  -4  -1 9949.19 1592.60   1
 -24  -4   0 24233.8 1717.92   3
  24  -4   0 22011.3 1965.05   1
 -24  -4  -1 12261.0 1483.66   3
  24  -4   1 12068.9 1636.67   1
  24  -4   2 6934.83 1522.15   1
 -24  -4  -2 7478.22 1248.35   3
 -24  -4  -3 4138.47 1190.71   3
  24  -4   3 4039.01 1459.99   1
 -24  -4  -4 14736.0 1610.13   3
  24  -4   4 12424.7 1744.91   2
  24  -4   4 12292.8 1841.18   1
  24  -4   5 761.459 1401.89   1
 -24  -4  -5-301.535 1150.55   3
  24  -4   5 714.916 1308.86   2
  24  -4   6 4077.40 1669.94   1
 -24  -4  -6 5595.38 1454.49   3
  24  -4   6 6521.79 1646.66   2
  24  -4   7 9902.02 1958.85   2
  24  -4   8 12480.6 1875.49   7
  24  -4   8 9022.73 1997.45   2
 -24  -2  12 11057.2 1948.62   4
  24  -2 -12 11365.3 2108.06   6
  24  -2 -12 13619.7 1897.41   1
 -24  -2  11 4488.56 1700.06   4
  24  -2 -11 5061.48 1513.40   1
  24  -2 -11 2900.94 1497.46   6
  24  -2 -10 16059.1 2120.31   6
 -24  -2  10 16059.0 2038.63   4
 -24  -2   9 231.201 1390.50   4
  24  -2  -9-335.368 1220.96   1
 -24  -2   9 4823.66 853.174   3
  24  -2  -9 1319.89 1449.32   6
 -24  -2   8 4869.51 1537.42   4
  24  -2  -8 3129.96 1311.12   1
 -24  -2   8 2885.88 782.089   3
  24  -2  -8 891.654 1413.45   6
 -24  -2   7 25562.5 2214.55   4
  24  -2  -7 32192.6 2189.69   1
 -24  -2   7 25427.2 1359.25   3
  24  -2  -7 29712.4 2440.42   6
 -24  -2   6 5033.23 1399.55   4
  24  -2  -6 7023.82 1381.98   1
 -24  -2   6 4054.81 902.831   3
  24  -2  -6 4605.77 1335.55   6
 -24  -2   5 5322.54 1378.27   4
  24  -2  -5 9626.27 1464.95   1
 -24  -2   5 7144.28 1045.59   3
  24  -2  -5 10462.5 1610.68   6
 -24  -2   4 3833.96 1276.20   4
 -24  -2   4 4524.58 984.639   3
  24  -2  -4 5192.54 1327.11   6
  24  -2  -4 1809.23 1075.19   1
  24  -2  -3 28244.5 1970.62   1
 -24  -2   3 26202.2 1550.49   3
  24  -2  -3 25534.5 1988.40   6
  24  -2  -2 4633.61 1321.90   1
 -24  -2   2 6154.72 1122.37   3
  24  -2  -2 5702.12 1305.54   6
 -24  -2   1 31966.3 1826.92   3
  24  -2  -1 36221.3 2292.82   6
 -24  -2   0 12429.9 1370.28   3
  24  -2   0 12009.3 1584.55   1
  24  -2   1 33489.7 2248.21   1
 -24  -2  -1 38467.1 2082.65   3
  24  -2   2 10462.5 1576.15   1
 -24  -2  -2 10309.6 1511.18   3
  24  -2   3 6915.30 1597.75   1
 -24  -2  -3 13349.3 1657.22   3
  24  -2   4 29822.0 2474.52   1
  24  -2   4 24514.3 2087.49   2
  24  -2   5 3723.84 1675.61   1
  24  -2   5 5639.16 1533.08   2
  24  -2   6 4149.16 1766.71   1
  24  -2   6 5311.02 1543.72   2
  24  -2   7 4431.91 1435.40   7
  24  -2   7 6791.11 1761.79   2
  24  -2   8 14060.8 1924.23   7
  24  -2   8 13029.6 2259.36   2
  24  -2   9 4517.35 1600.69   7
  24  -2   9 4147.65 1944.25   2
  24  -2  10 277.441 1441.63   7
 -24  -2 -10 2035.40 2204.86   6
  24  -2  10-829.004 1806.83   2
 -24   0  13 2692.61 1617.43   4
  24   0 -13 1987.54 1365.26   1
  24   0 -13 251.866 2021.48   6
  24   0 -12 66131.9 4359.13   6
 -24   0  12 64914.2 3272.87   4
  24   0 -12 72520.6 3173.25   1
 -24   0  11 2569.05 1385.79   4
  24   0 -11 3353.27 1283.86   1
  24   0 -11 3113.12 1937.99   6
 -24   0  10 4813.15 1502.06   4
  24   0 -10 10876.7 1569.65   1
  24   0 -10 9529.56 2223.45   6
  24   0  -9 8005.70 1395.11   1
  24   0  -9 9789.95 2330.64   6
 -24   0   9 8376.51 1710.20   4
 -24   0   8 63321.1 2915.78   4
  24   0  -8 67050.7 3845.56   6
 -24   0   7 9041.09 1513.04   4
  24   0  -7 11214.3 1446.75   1
  24   0  -7 9966.96 1935.45   6
 -24   0   6 18002.3 1790.09   4
  24   0  -6 19461.9 1147.03   3
  24   0  -6 22769.0 1715.31   1
  24   0  -6 22922.3 2439.88   6
 -24   0   5 99839.6 3426.03   4
  24   0  -5 103147. 3204.66   1
  24   0  -4 364.625 1029.46   1
  24   0  -4 680.027 1185.54   6
  24   0  -3 3864.72 1343.17   1
  24   0  -3 2801.06 1384.69   6
  24   0  -2 1911.60 1651.22   6
  24   0  -2 30575.5 2057.97   1
  24   0  -1 72697.4 3314.95   6
  24   0  -1 69004.8 2896.67   1
  24   0   0 31757.8 2150.66   1
  24   0   0 29348.9 2258.98   6
  24   0   1 26867.7 2174.82   1
  24   0   1 25745.1 2162.56   6
  24   0   2 72429.3 3545.34   1
  24   0   3 71263.4 3580.58   1
  24   0   4 1134.58 1586.21   1
  24   0   4 2281.76 1278.15   2
  24   0   5 33105.6 2176.67   7
  24   0   5 30868.6 2485.80   2
  24   0   6 26679.0 2162.33   7
  24   0   6 32268.7 2707.99   2
  24   0   7 10255.9 2009.86   2
  24   0   7 7172.60 1574.98   7
  24   0   8 5173.46 1464.08   7
  24   0   8 7771.15 1995.83   2
  24   0   9 8226.42 1981.43   7
 -24   0  -9 3182.56 2266.00   6
  24   0   9 7431.88 2191.89   2
  24   0  10 13331.3 2191.57   7
 -24   0 -10 12780.6 2981.46   6
  24   0  10 11762.4 2452.18   2
  24   0  11 15180.4 2253.62   7
 -24   0 -11 12138.3 3174.69   6
 -24   2  12 9743.42 1616.75   4
  24   2 -12 12395.3 2659.95   6
 -24   2  11 2305.62 1200.34   4
  24   2 -11-1323.79 1977.14   6
 -24   2  10 15130.5 1716.80   4
  24   2 -10 17424.7 1446.92   1
  24   2 -10 19000.1 2845.81   6
 -24   2   9 2215.60 1202.32   4
  24   2  -9 3430.33 1862.90   6
  24   2  -9 1190.43 922.001   1
 -24   2   8 5248.66 1265.69   4
  24   2  -8 6380.39 1146.45   1
  24   2  -8 7758.58 2002.15   6
  24   2  -7 18047.8 2484.16   6
  24   2  -7 21900.7 1598.14   1
  24   2  -6 2259.62 1144.45   1
  24   2  -6-1005.98 1700.11   6
  24   2  -5 15702.4 2244.42   6
  24   2  -5 13522.2 1436.48   1
  24   2  -4 4762.17 1142.18   1
  24   2  -4 4202.31 1697.63   6
  24   2  -3 21925.9 1747.86   1
  24   2  -3 20503.9 2273.05   6
  24   2  -2 6632.87 1371.00   1
  24   2  -2 4004.50 1520.36   6
  24   2  -1 24369.5 2240.22   6
  24   2  -1 21885.3 2055.43   1
  24   2   0 14611.2 1882.92   1
  24   2   0 13193.0 1857.93   6
  24   2   1 55403.9 2932.35   6
  24   2   1 56567.5 3246.19   1
  24   2   2 8967.71 1160.09   7
  24   2   2 8948.39 1630.24   6
  24   2   2 6901.21 1316.69   2
  24   2   3 16489.5 1526.30   7
  24   2   3 14944.6 1780.10   2
  24   2   4 34008.6 2018.95   7
  24   2   4 34182.7 2517.68   2
  24   2   5 8446.69 1518.23   7
  24   2   5 5222.29 1594.76   2
  24   2   6 7011.33 1546.97   7
  24   2   6 6349.70 1863.51   2
  24   2   7 11161.7 1808.25   7
 -24   2  -7 10096.6 2782.34   6
  24   2   7 8787.68 2164.87   2
 -24   2  -8 17128.5 3295.46   6
  24   2   8 12105.5 2413.65   2
 -24   2  -9 6433.26 2690.23   6
  24   2   9 1637.35 2060.21   2
  24   2  10-154.390 2096.38   2
 -24   2 -10 3546.71 2577.31   6
  24   4 -10 23179.7 3186.72   6
  24   4  -9 5248.65 2035.90   6
  24   4  -8 15190.7 2497.13   6
  24   4  -7 29059.2 2852.21   6
  24   4  -6 11190.9 2050.81   6
  24   4  -5 13754.1 2294.76   6
  24   4  -4 3465.62 1834.78   6
  24   4  -3 19358.3 2273.82   6
  24   4  -2 462.735 1449.54   6
  24   4  -1 10668.2 1824.35   6
  24   4  -1 10281.3 1183.11   2
  24   4   0 24612.9 2260.36   6
  24   4   0 23442.1 1677.57   2
  24   4   1 9635.66 1630.31   6
  24   4   1 12570.1 1560.43   2
  24   4   2 9071.10 1561.14   6
  24   4   2 8547.71 1508.13   2
 -24   4  -3 4315.53 1998.39   6
  24   4   3 4865.55 1458.65   6
  24   4   3 7301.69 1559.85   2
 -24   4  -4 8268.13 2387.12   6
  24   4   4 13350.8 2013.78   2
 -24   4  -5 236.389 2147.71   6
  24   4   5 3560.88 1664.46   2
 -24   4  -6 12036.9 2839.13   6
  24   4   6 9931.14 2202.35   2
 -24   4  -7 7100.72 2464.27   6
  24   4   7 11902.7 2275.18   2
 -24   4  -8 19942.9 3428.29   6
  24   4   8 23482.5 2797.08   2
  24   6  -6 1935.85 1899.39   6
  24   6  -5 21147.9 2618.97   6
  24   6  -4 5086.45 1763.78   6
  24   6  -3 338.839 1571.23   6
  24   6  -2 3752.41 1553.78   6
  24   6  -1 7004.20 1631.29   6
  24   6   0 523.806 1235.74   6
  24   6   1 824.316 1248.78   6
  24   6   2 18789.1 1891.63   6
 -25  -5   8-451.646 1426.64   4
 -25  -5   8-110.739 1061.54   3
  25  -5  -8 242.929 1332.71   1
 -25  -5   7 3163.24 1501.00   4
 -25  -5   7 2947.30 1119.16   3
  25  -5  -7 5149.91 1448.49   1
 -25  -5   6 3616.95 1475.49   4
 -25  -5   6 5209.39 1183.22   3
  25  -5  -6 5439.65 1583.60   1
 -25  -5   5 1385.58 1276.72   4
 -25  -5   5 2826.88 1171.42   3
  25  -5  -5 35.9081 1269.59   1
 -25  -5   4 3957.69 1154.66   3
  25  -5  -4 4891.92 1332.97   1
 -25  -5   3 12272.7 1451.65   3
  25  -5  -3 14922.3 1699.11   1
  25  -5  -2 7449.67 1482.32   1
 -25  -5   2 9030.86 1296.96   3
  25  -5  -1 1232.16 1275.22   1
 -25  -5   1 2710.20 1212.63   3
 -25  -5   0 7544.71 1293.34   3
  25  -5   0 4549.52 1405.30   1
 -25  -5  -1 8240.65 1386.29   3
  25  -5   1 4946.50 1375.56   1
 -25  -5  -2 8038.46 1329.93   3
  25  -5   2 2402.89 1276.45   1
  25  -5   3 5056.47 1488.41   1
 -25  -5  -3 6163.77 1363.00   3
 -25  -5  -4 11582.4 1528.57   3
  25  -5   4 7385.04 1628.72   2
  25  -5   4 8936.84 1735.38   1
  25  -5   5 36.7590 1409.42   1
 -25  -5  -5 467.269 1188.83   3
  25  -5   5 2703.16 1333.33   2
  25  -5   6 1066.59 1564.67   1
 -25  -5  -6 3437.65 1386.53   3
  25  -5   6 1891.29 1526.38   2
  25  -3 -11 17481.3 2161.84   1
 -25  -3  11 11399.0 2022.51   4
 -25  -3  10 5793.46 1656.27   4
  25  -3 -10 6098.56 1556.89   1
 -25  -3   9 4334.70 1650.92   4
 -25  -3   9 4330.23 914.640   3
 -25  -3   8 29129.8 2430.28   4
 -25  -3   8 27238.8 1505.97   3
  25  -3  -8 26182.2 2164.34   6
 -25  -3   7 1540.14 1324.21   4
  25  -3  -7 1493.32 1193.40   1
 -25  -3   7 2358.00 934.049   3
  25  -3  -7 2930.05 1319.14   6
 -25  -3   6 2753.78 1341.08   4
 -25  -3   6 4040.06 999.762   3
  25  -3  -6 4406.28 1322.86   1
  25  -3  -6 4209.64 1261.32   6
 -25  -3   5 8443.57 1517.85   4
  25  -3  -5 8926.41 1513.34   1
 -25  -3   5 8400.49 1149.00   3
  25  -3  -5 9029.44 1352.75   6
  25  -3  -4 13401.5 1609.07   1
 -25  -3   4 11662.1 1252.44   3
  25  -3  -4 12171.1 1477.93   6
 -25  -3   3 16407.9 1384.60   3
  25  -3  -3 16256.1 1747.99   1
  25  -3  -3 15399.7 1630.96   6
  25  -3  -2 2505.00 1339.83   1
 -25  -3   2 4143.43 1119.53   3
 -25  -3   1 56946.7 2327.06   3
  25  -3  -1 54364.7 2806.49   1
 -25  -3   0 2015.01 1060.83   3
  25  -3   0 1899.02 1315.17   1
  25  -3   1 11679.5 1678.99   1
 -25  -3  -1 12538.4 1411.99   3
  25  -3   2 86255.1 3396.47   1
 -25  -3  -2 87149.0 2969.57   3
  25  -3   3 27986.5 2263.39   1
 -25  -3  -3 25268.6 1910.66   3
 -25  -3  -4 15084.1 1739.40   3
  25  -3   4 15669.3 1877.24   2
  25  -3   4 15895.4 1959.53   1
  25  -3   5 14028.9 2086.80   1
 -25  -3  -5 13572.5 1678.47   3
  25  -3   5 13887.3 1887.02   2
  25  -3   6 8458.77 1624.59   2
  25  -3   6 12513.5 2096.20   1
  25  -3   7-2228.65 1521.59   7
  25  -3   7-817.719 1513.45   2
  25  -3   8 5704.29 1531.03   7
  25  -3   8 6277.95 1926.82   2
  25  -3   9 6063.10 1616.45   7
  25  -3   9 6620.74 1944.25   2
 -25  -1  12 4740.15 1739.29   4
  25  -1 -12 4076.58 1471.89   1
  25  -1 -12-197.606 1709.24   6
 -25  -1  11 4859.73 1634.50   4
  25  -1 -11 6185.98 1549.11   1
  25  -1 -11 4822.89 2064.67   6
  25  -1 -10 21535.4 1977.26   1
  25  -1 -10 17105.8 2504.23   6
 -25  -1  10 16527.0 1993.19   4
 -25  -1   9 14649.2 1885.81   4
  25  -1  -9 16441.3 1749.50   1
  25  -1  -9 16122.6 2276.28   6
 -25  -1   8 25338.5 2236.42   4
  25  -1  -8 29143.6 2046.18   1
  25  -1  -8 28334.9 2633.81   6
 -25  -1   7 17834.6 1934.81   4
  25  -1  -7 20788.0 1769.83   1
 -25  -1   7 16962.7 1203.02   3
  25  -1  -7 21802.8 2364.24   6
 -25  -1   6 21042.4 1933.54   4
  25  -1  -6 25646.4 1980.46   1
 -25  -1   6 21021.5 1389.02   3
 -25  -1   5 33932.3 2232.67   4
  25  -1  -5 38740.2 2227.76   1
 -25  -1   5 32452.2 1668.41   3
  25  -1  -5 36739.9 2734.47   6
  25  -1  -4 22486.2 1768.28   1
 -25  -1   4 22806.5 1538.01   3
  25  -1  -4 23671.7 2201.51   6
 -25  -1   3 64703.5 2354.64   3
  25  -1  -3 68741.2 2913.07   1
  25  -1  -3 61385.2 3159.97   6
 -25  -1   2 52781.5 2210.82   3
  25  -1  -2 49951.8 2752.38   6
  25  -1  -1 13094.0 1660.71   6
  25  -1  -1 11884.1 1652.13   1
  25  -1   0 48445.3 2625.36   1
  25  -1   0 49754.4 2799.99   6
  25  -1   1 83366.8 3356.71   1
  25  -1   2 5567.69 1523.04   1
  25  -1   3 15323.8 2107.58   1
  25  -1   4 29858.7 2643.27   1
  25  -1   4 28738.2 2304.13   2
  25  -1   5 3945.16 1468.81   2
  25  -1   5 6005.30 1883.21   1
  25  -1   6 11598.7 1764.91   7
  25  -1   6 14803.6 2113.09   2
  25  -1   7 7817.75 1592.36   7
  25  -1   7 6834.71 1859.21   2
  25  -1   8 24655.9 2225.86   7
  25  -1   8 21845.6 2640.75   2
  25  -1   9 11393.4 1803.82   7
 -25  -1  -9 12280.6 3022.22   6
  25  -1   9 14080.0 2428.67   2
  25  -1  10 910.090 1588.86   7
 -25  -1 -10 1735.80 2355.42   6
  25  -1  10 2088.01 1851.91   2
 -25   1  12 2789.09 1512.30   4
  25   1 -12 7003.33 1320.35   1
  25   1 -12 7849.18 2448.40   6
 -25   1  11 4293.71 1437.23   4
  25   1 -11 6028.43 1311.88   1
  25   1 -11 2812.56 1856.41   6
 -25   1  10 14439.8 1834.72   4
  25   1 -10 20817.3 1736.36   1
  25   1 -10 15373.7 2462.86   6
  25   1  -9 21430.4 1687.77   1
  25   1  -9 20385.8 2618.59   6
 -25   1   8 17045.4 1799.16   4
  25   1  -8 19904.7 1609.83   1
  25   1  -8 21779.2 2553.61   6
 -25   1   7 14353.9 1592.60   4
  25   1  -7 15334.2 1459.68   1
  25   1  -7 15812.5 2178.95   6
  25   1  -6 22657.8 1763.53   1
  25   1  -6 22896.1 2569.98   6
  25   1  -5 37247.9 3032.12   6
  25   1  -5 36115.0 2092.42   1
  25   1  -4 17909.8 2242.94   6
  25   1  -4 16655.7 1621.84   1
  25   1  -3 75960.6 3896.68   6
  25   1  -3 76344.4 2902.21   1
  25   1  -2 54307.8 2581.84   1
  25   1  -2 56275.3 3176.63   6
  25   1  -1 8581.63 1457.05   1
  25   1  -1 11078.1 1668.64   6
  25   1   0 53368.2 2853.25   1
  25   1   0 53953.0 2913.86   6
  25   1   1 85322.8 3618.62   6
  25   1   1 81966.9 3691.65   1
  25   1   2 7706.84 1502.47   6
  25   1   2 9131.34 1858.41   1
  25   1   3 22554.2 2645.54   1
  25   1   3 24059.4 2101.56   2
  25   1   4 38204.0 2208.79   7
  25   1   4 41709.6 2678.29   2
  25   1   5 6043.22 1397.83   7
  25   1   5 3904.87 1510.67   2
  25   1   6 16892.8 1851.18   7
  25   1   6 13699.8 2129.66   2
  25   1   7 7221.37 1606.59   7
  25   1   7 8123.27 1933.80   2
  25   1   8 20054.4 2219.60   7
 -25   1  -8 20434.6 3359.15   6
  25   1   8 19544.2 2663.77   2
  25   1   9 13826.6 2160.43   7
 -25   1  -9 12556.3 2988.49   6
  25   1   9 10738.3 2376.97   2
  25   1  10-7.67777 1644.12   7
 -25   1 -10 764.218 2656.35   6
  25   1  10 1548.67 2006.97   2
  25   3 -11 15708.3 2697.79   6
  25   3 -10 9106.24 2576.01   6
  25   3  -9 7948.19 2254.87   6
  25   3  -8 34166.6 3309.66   6
  25   3  -7 2867.19 1780.78   6
  25   3  -7 2177.99 1012.30   1
  25   3  -6 4882.25 1071.53   1
  25   3  -6 4135.60 1915.81   6
  25   3  -5 7490.26 1218.15   1
  25   3  -5 11769.7 2224.66   6
  25   3  -4 10914.4 1417.37   1
  25   3  -4 9278.72 2028.52   6
  25   3  -3 12677.1 2025.15   6
  25   3  -3 14330.7 1646.40   1
  25   3  -2 4290.75 1453.73   1
  25   3  -2 2093.91 1525.39   6
  25   3  -1 60533.4 1658.43   7
  25   3  -1 71008.9 3583.04   6
  25   3  -1 66044.3 3338.97   1
  25   3   0 3102.31 770.443   7
  25   3   0 3721.45 1463.63   6
  25   3   1 14295.3 1212.01   7
  25   3   1 14546.9 1547.63   2
  25   3   2 92704.9 2773.54   7
  25   3   2 93828.0 3501.41   2
  25   3   2 87314.7 3672.81   6
  25   3   3 30514.7 1934.38   7
  25   3   3 30623.1 2358.18   2
  25   3   3 25750.5 2260.94   6
  25   3   4 17398.2 1694.27   7
  25   3   4 17640.6 2083.73   2
 -25   3  -5 11628.1 2830.57   6
  25   3   5 16194.9 2234.04   2
 -25   3  -6 5733.33 2450.87   6
  25   3   6 9320.08 1924.61   2
 -25   3  -7-1455.78 2368.29   6
  25   3   7 625.974 1674.88   2
  25   3   8 7255.28 2260.66   2
 -25   3  -8 8843.52 2765.29   6
  25   3   9 8672.55 2300.02   2
 -25   3  -9 11322.2 3057.52   6
  25   5  -8-985.255 1746.22   6
  25   5  -7 1497.51 1733.94   6
  25   5  -6 8324.42 2164.35   6
  25   5  -5 5882.35 1958.70   6
  25   5  -4 6441.54 1746.10   6
  25   5  -3 7719.10 1879.91   6
  25   5  -2 9893.35 1869.88   6
  25   5  -1 1534.27 1346.13   6
  25   5   0 7612.76 1623.05   6
 -25   5  -1 17101.7 2480.10   6
  25   5   1 10394.5 1699.99   6
 -25   5  -2 6559.02 2103.27   6
  25   5   2 5639.20 1569.58   6
 -25   5  -3 5190.56 1983.46   6
 -25   5  -4 14734.2 2727.53   6
 -25   5  -5 2052.17 2172.85   6
 -25   5  -6 3830.87 2549.14   6
 -26  -6   4 3504.08 1225.53   3
  26  -6  -4 3207.91 1295.39   1
  26  -6  -3 6032.50 1450.44   1
 -26  -6   3 5250.36 1345.31   3
  26  -6  -2 72.9245 1284.91   1
 -26  -6   2 2134.79 1116.27   3
 -26  -6   1 13626.9 1555.40   3
  26  -6  -1 13084.8 1824.50   1
 -26  -6   0 2730.86 1208.85   3
  26  -6   0 2205.99 1398.62   1
  26  -6   1 1779.86 1313.94   1
 -26  -6  -1 1352.48 1177.40   3
  26  -6   2 5565.01 1505.07   1
 -26  -4  10 15963.5 2179.28   4
  26  -4 -10 19546.8 2128.35   1
 -26  -4   9 5978.58 1822.87   4
 -26  -4   9 6844.27 1126.31   3
  26  -4  -9 6113.89 1582.45   1
 -26  -4   8 10438.9 1839.50   4
  26  -4  -8 12536.8 1804.05   1
 -26  -4   8 9029.18 1189.78   3
 -26  -4   7 2461.60 1436.48   4
 -26  -4   7 3338.78 1035.12   3
  26  -4  -7 3523.76 1270.83   1
 -26  -4   6 13750.5 1778.27   4
 -26  -4   6 17593.2 1504.88   3
 -26  -4   5 11561.9 1762.69   4
  26  -4  -5 10369.5 1574.13   1
 -26  -4   5 11450.0 1311.78   3
  26  -4  -4 8915.66 1542.45   1
 -26  -4   4 7510.14 1254.80   3
 -26  -4   3 20618.0 1634.72   3
  26  -4  -3 23205.7 2016.68   1
  26  -4  -2 7041.24 1473.88   1
 -26  -4   2 7642.02 1278.00   3
  26  -4  -1 3167.78 1295.10   1
 -26  -4   1 3149.27 1092.50   3
 -26  -4   0 11474.6 1490.56   3
  26  -4   0 11503.6 1633.02   1
  26  -4   1 14389.3 1751.11   1
 -26  -4  -1 10809.7 1408.89   3
 -26  -4  -2 8211.47 1354.35   3
  26  -4   2 5218.75 1475.07   1
  26  -4   3 4786.37 1408.72   1
 -26  -4  -3 4452.82 1344.17   3
 -26  -4  -4 1677.73 1218.02   3
  26  -4   4 1584.18 1222.95   2
  26  -4   4 1561.84 1400.12   1
  26  -4   5 3266.26 1530.92   1
 -26  -4  -5 4916.92 1495.62   3
  26  -4   5 3474.80 1444.86   2
  26  -4   6 6997.63 1839.00   1
 -26  -4  -6 12060.8 1618.01   3
  26  -4   6 10377.9 1830.51   2
  26  -4   7 603.009 1446.20   2
 -26  -2  12 465.110 1550.49   4
  26  -2 -12 2807.51 1569.70   1
  26  -2 -12 3821.05 1741.32   6
 -26  -2  11 2436.95 1490.86   4
  26  -2 -11 5755.72 1588.63   1
  26  -2 -11 2992.59 1705.12   6
  26  -2 -10 16174.1 1879.90   1
  26  -2 -10 12218.2 2182.12   6
 -26  -2  10 9072.11 1799.34   4
 -26  -2   9 6697.88 1582.67   4
  26  -2  -9 11454.7 1680.24   1
  26  -2  -9 7284.11 1820.90   6
 -26  -2   8 23082.8 2151.88   4
  26  -2  -8 30414.8 2149.18   1
 -26  -2   8 21994.5 1288.32   3
  26  -2  -8 32366.9 2588.79   6
 -26  -2   7 19547.7 2009.91   4
  26  -2  -7 22978.5 1976.35   1
 -26  -2   7 18424.6 1265.70   3
  26  -2  -7 19026.8 2091.12   6
 -26  -2   6 20521.3 2024.58   4
  26  -2  -6 25939.3 2041.87   1
 -26  -2   6 21235.5 1364.84   3
  26  -2  -6 25602.2 2337.54   6
 -26  -2   5 20702.5 1971.74   4
  26  -2  -5 23504.0 1944.08   1
 -26  -2   5 22839.9 1452.44   3
  26  -2  -5 21890.6 2082.81   6
 -26  -2   4 1315.42 943.252   3
  26  -2  -4-24.5314 1138.59   6
  26  -2  -4 91.3127 1119.94   1
 -26  -2   3 45761.6 2046.75   3
  26  -2  -3 50373.7 2579.31   1
  26  -2  -3 47196.4 2602.43   6
  26  -2  -2 7151.79 1553.54   1
 -26  -2   2 8347.80 1251.11   3
  26  -2  -2 9301.93 1511.22   6
 -26  -2   1 21718.6 1643.52   3
  26  -2  -1 20442.9 1868.57   6
  26  -2  -1 19894.0 1914.78   1
 -26  -2   0 1825.19 1156.93   3
  26  -2   0 1137.31 1280.11   1
  26  -2   1 23499.5 2047.64   1
 -26  -2  -1 22734.4 1909.48   3
  26  -2   2 7261.96 1633.91   1
 -26  -2  -2 4517.02 1394.93   3
  26  -2   3 7558.76 1610.31   1
  26  -2   4 23840.6 2539.09   1
  26  -2   4 18221.0 1980.89   2
  26  -2   5 8451.33 2086.19   1
  26  -2   5 6648.48 1667.36   2
  26  -2   6 8581.27 2125.00   1
  26  -2   6 7712.94 1796.33   2
  26  -2   7 494.900 1369.32   7
  26  -2   7 3708.74 1636.43   2
  26  -2   8 19943.0 2088.09   7
  26  -2   8 21058.3 2511.47   2
  26  -2   9 2268.02 1563.46   7
  26  -2   9 2911.54 1736.29   2
 -26   0  12 8766.28 1818.25   4
  26   0 -12 10628.0 1589.19   1
  26   0 -12 14138.1 2495.22   6
  26   0 -11 16988.6 1718.58   1
  26   0 -11 20969.4 2836.30   6
 -26   0  11 19555.2 2101.78   4
 -26   0  10 4556.72 1597.29   4
  26   0 -10 6636.00 1365.66   1
  26   0 -10 7830.96 2050.53   6
 -26   0   9-309.863 1335.59   4
  26   0  -9-807.265 1086.58   1
  26   0  -9-110.862 1662.20   6
 -26   0   8 10992.3 1664.28   4
  26   0  -8 14229.2 1583.45   1
  26   0  -8 14989.1 2210.41   6
 -26   0   7 1552.41 1210.48   4
  26   0  -7-181.786 1465.68   6
  26   0  -7 1360.07 1041.10   1
 -26   0   6 12314.6 1647.48   4
  26   0  -6 13615.5 1451.95   1
  26   0  -6 14540.7 2211.55   6
  26   0  -5 9298.55 1367.00   1
  26   0  -5 9393.90 1822.85   6
  26   0  -4 65654.4 3498.16   6
  26   0  -4 62456.9 2733.23   1
  26   0  -3 17675.7 2154.37   6
  26   0  -3 15856.3 1823.58   1
  26   0  -2 6122.35 1465.84   6
  26   0  -2 6468.20 1492.89   1
  26   0  -1 49620.3 2623.38   1
  26   0  -1 51000.7 2851.67   6
  26   0   0 3051.31 1361.92   6
  26   0   0 2705.51 1332.21   1
  26   0   1 14624.0 1835.58   1
  26   0   1 14667.2 1809.35   6
  26   0   2 37806.3 2718.46   1
  26   0   3 19325.0 2253.75   1
  26   0   4 799.669 1638.45   1
  26   0   4 473.515 1264.72   2
  26   0   5 448.232 1202.00   7
  26   0   5 2164.23 1531.54   2
  26   0   6 13925.6 1773.76   7
  26   0   6 12797.0 2025.30   2
  26   0   7 4601.79 1541.97   7
  26   0   7-226.953 1492.74   2
  26   0   8 3950.01 1536.09   7
  26   0   8 4693.64 1727.87   2
  26   0   9 8612.76 1888.94   7
 -26   0  -9 7438.77 2699.92   6
  26   0   9 5841.14 2139.98   2
  26   0  10 10009.7 2054.59   7
 -26   0 -10 9573.99 2799.50   6
  26   0  10 11469.3 2645.72   2
 -26   2  12-565.293 1318.95   4
  26   2 -12 1066.47 1962.00   6
 -26   2  11 2286.40 1334.76   4
  26   2 -11 4347.21 2061.40   6
 -26   2  10 16839.7 1784.45   4
  26   2 -10 18477.6 1496.75   1
  26   2 -10 16503.3 2775.22   6
 -26   2   9 6801.66 1368.77   4
  26   2  -9 6780.23 1157.12   1
  26   2  -8 24275.9 2718.66   6
  26   2  -8 24072.5 1741.67   1
  26   2  -7 29047.9 2944.32   6
  26   2  -7 24746.5 1811.83   1
  26   2  -6 29251.8 2850.95   6
  26   2  -6 29295.6 1884.68   1
  26   2  -5 22202.6 2496.82   6
  26   2  -5 20481.4 1634.39   1
  26   2  -4 1702.51 1132.18   1
  26   2  -4 1625.59 1575.54   6
  26   2  -3 38844.6 2182.85   1
  26   2  -3 50286.2 3297.20   6
  26   2  -2 14082.2 1695.89   1
  26   2  -2 10813.5 1854.28   6
  26   2  -1 38610.8 2768.80   6
  26   2  -1 32133.8 2358.53   1
  26   2   0 1001.27 1331.93   1
  26   2   0 350.411 1222.58   6
  26   2   1 21696.6 2154.54   6
  26   2   1 21541.4 2406.19   1
  26   2   2 6092.41 1166.43   7
  26   2   2 7897.92 1462.82   2
  26   2   2 3737.82 1401.77   6
  26   2   3 11701.9 1409.77   7
  26   2   3 8844.13 1580.16   2
  26   2   4 18015.9 1685.33   7
  26   2   4 17041.7 2020.56   2
  26   2   5 9137.98 1586.38   7
  26   2   5 8591.44 1780.72   2
  26   2   6 6816.25 1573.72   7
  26   2   6 8598.14 1941.65   2
  26   2   7 2828.50 1448.92   7
 -26   2  -7 2136.93 2123.26   6
  26   2   7 5542.97 1879.15   2
  26   2   8 27785.2 2510.78   7
 -26   2  -8 28588.7 3640.15   6
  26   2   8 31756.2 3170.83   2
 -26   2  -9 2457.53 2432.19   6
  26   2   9-1145.70 2041.75   2
  26   4 -10 20286.9 2969.89   6
  26   4  -9 9307.82 2367.56   6
  26   4  -8 12873.8 2418.96   6
  26   4  -7 4203.29 1837.77   6
  26   4  -6 21513.0 2672.59   6
  26   4  -5 18080.7 2574.06   6
  26   4  -4 3941.42 1753.64   6
  26   4  -3 24074.3 2520.13   6
  26   4  -2 4569.83 1749.98   6
  26   4  -1 4430.99 1591.19   6
  26   4  -1 4656.75 1056.47   2
  26   4   0 13134.4 1878.18   6
  26   4   0 10270.8 1370.28   2
  26   4   1 10655.2 1717.14   6
  26   4   1 11045.0 1571.62   2
  26   4   2 7252.26 1564.74   6
  26   4   2 7274.97 1495.50   2
 -26   4  -3 5522.57 2044.62   6
  26   4   3 5564.86 1594.64   2
 -26   4  -4 4501.61 2035.20   6
  26   4   4 5602.89 1763.62   2
 -26   4  -5 4563.71 2255.67   6
  26   4   5 3775.04 1783.84   2
  26   4   6 12741.5 2268.13   2
 -26   4  -6 11683.4 2831.14   6
  26   4   7 601.133 1860.15   2
 -26   4  -7 1386.36 2416.80   6
  26   6  -4 1999.78 1765.44   6
  26   6  -3 2025.02 1602.83   6
  26   6  -2 3892.01 1696.96   6
  26   6  -1 7465.67 1663.59   6
  26   6   0 2692.33 1360.16   6
  26   6   1 2192.02 1365.37   6
  27  -5  -7 11841.5 1838.91   1
 -27  -5   7 8817.96 1336.42   3
 -27  -5   6 15059.4 1891.73   4
  27  -5  -6 19518.7 1985.26   1
 -27  -5   6 15738.7 1554.51   3
  27  -5  -5 8828.33 1612.09   1
 -27  -5   5 6773.81 1229.66   3
 -27  -5   4 1582.83 1146.11   3
  27  -5  -4 1506.40 1251.30   1
 -27  -5   3 11182.3 1428.74   3
  27  -5  -3 10491.7 1675.58   1
  27  -5  -2 4495.59 1496.00   1
 -27  -5   2 6398.32 1340.55   3
  27  -5  -1 948.455 1362.73   1
 -27  -5   1-669.606 1198.58   3
 -27  -5   0 9315.65 1407.40   3
  27  -5   0 11386.4 1703.81   1
  27  -5   1 26173.8 2109.92   1
 -27  -5  -1 29725.9 1994.84   3
 -27  -5  -2 192.986 1129.32   3
  27  -5   2 1784.57 1395.60   1
  27  -5   3 3534.55 1451.53   1
 -27  -5  -3 6143.99 1371.92   3
 -27  -5  -4 16974.6 1724.93   3
  27  -5   4 15594.2 2028.27   2
  27  -5   4 13227.7 1948.85   1
  27  -5   5 4686.30 1622.73   1
 -27  -5  -5 6980.59 1496.93   3
  27  -5   5 2059.21 1454.11   2
  27  -3 -11 17132.0 2000.80   1
 -27  -3  11 7477.51 1862.02   4
 -27  -3  10 7001.86 1775.42   4
  27  -3 -10 8629.95 1679.83   1
 -27  -3   9 242.074 1530.28   4
  27  -3  -9 4691.27 1490.63   1
 -27  -3   8 26584.5 2307.10   4
 -27  -3   8 22807.6 1416.55   3
  27  -3  -8 25576.1 2204.99   6
 -27  -3   7 4118.74 1417.93   4
  27  -3  -7 7756.29 1658.78   1
 -27  -3   7 6331.44 1002.94   3
  27  -3  -7 4260.10 1339.98   6
 -27  -3   6 15.0563 1276.78   4
 -27  -3   6 2695.10 996.130   3
  27  -3  -6 3116.29 1315.31   6
 -27  -3   5 10635.5 1771.49   4
  27  -3  -5 14438.1 1734.53   1
 -27  -3   5 11602.9 1270.23   3
  27  -3  -5 10482.5 1554.59   6
  27  -3  -4 24235.2 1991.45   1
 -27  -3   4 24990.4 1664.67   3
  27  -3  -4 26504.9 2018.95   6
 -27  -3   3 7459.58 1197.62   3
  27  -3  -3 8673.98 1496.46   6
  27  -3  -2 2730.67 1354.00   1
 -27  -3   2 5079.29 1205.06   3
 -27  -3   1 17025.3 1546.62   3
  27  -3  -1 16630.4 1857.73   1
 -27  -3   0-1090.35 1205.44   3
  27  -3   0 554.389 1234.16   1
  27  -3   1 2341.29 1375.77   1
 -27  -3  -1 947.698 1069.27   3
  27  -3   2 10882.2 1644.39   1
 -27  -3  -2 12141.5 1577.83   3
 -27  -3  -3 11556.9 1635.34   3
  27  -3   3 14253.3 1871.72   1
 -27  -3  -4 199.134 1182.19   3
  27  -3   4 1410.33 1185.69   2
  27  -3   4-825.103 1514.69   1
  27  -3   5 5657.00 1818.35   1
  27  -3   5 3596.44 1528.04   2
  27  -3   6 14387.5 2024.07   2
  27  -3   6 13673.8 2219.48   1
  27  -3   7 1655.29 1401.05   7
  27  -3   7 1640.74 1539.74   2
  27  -3   8 4211.16 1519.73   7
  27  -3   8 3599.08 1776.22   2
 -27  -1  12 4157.33 1692.46   4
  27  -1 -12 4191.02 1410.28   1
  27  -1 -12 3783.05 1957.11   6
  27  -1 -11 20571.0 1914.60   1
  27  -1 -11 20876.0 2604.84   6
 -27  -1  11 18653.6 2099.32   4
 -27  -1  10 38934.1 2723.66   4
  27  -1 -10 39894.3 3231.42   6
 -27  -1   9 1709.67 1342.50   4
  27  -1  -9 3031.31 1296.81   1
  27  -1  -9 1974.07 1562.10   6
  27  -1  -8 43921.8 2471.50   1
  27  -1  -8 40626.6 3077.71   6
  27  -1  -7 27044.2 1996.36   1
  27  -1  -7 28959.3 2707.09   6
 -27  -1   6 17356.3 1899.42   4
  27  -1  -6 23617.8 1909.21   1
  27  -1  -6 24635.1 2437.52   6
  27  -1  -5 40995.7 2296.06   1
  27  -1  -5 33986.9 2697.51   6
  27  -1  -4 2672.21 1184.28   1
  27  -1  -4 3296.23 1341.33   6
  27  -1  -3 72378.6 3439.09   6
  27  -1  -3 72050.5 3113.92   1
  27  -1  -2 12945.1 1821.64   6
  27  -1  -2 11367.4 1699.35   1
  27  -1  -1 15796.8 1800.98   6
  27  -1  -1 17845.2 1892.42   1
  27  -1   0 1846.14 1335.53   1
  27  -1   0 105.208 1211.10   6
  27  -1   1 20846.1 1975.58   1
  27  -1   2 20877.8 2189.55   1
  27  -1   3 10612.4 1929.47   1
  27  -1   4 1617.08 1523.03   1
  27  -1   4 849.190 1217.44   2
  27  -1   5 15610.4 2004.09   2
  27  -1   5 14221.0 2206.41   1
  27  -1   6 8941.16 1649.10   7
  27  -1   6 7921.71 1723.07   2
  27  -1   7 7723.66 1615.70   7
  27  -1   7 7157.54 1944.13   2
  27  -1   8 27460.3 2354.55   7
  27  -1   8 26976.4 2832.00   2
  27  -1   9 4152.77 1523.48   7
  27  -1   9 7535.93 2138.36   2
 -27   1  12 3446.36 1557.61   4
  27   1 -12 3161.95 1275.13   1
 -27   1  11 17931.6 2041.93   4
  27   1 -11 23312.3 1857.24   1
  27   1 -11 24188.6 2983.75   6
 -27   1  10 38917.8 2401.66   4
  27   1 -10 38349.0 2213.76   1
  27   1 -10 44557.7 3571.79   6
 -27   1   9 2015.58 1362.07   4
  27   1  -9-148.053 1648.26   6
  27   1  -9 2063.00 1180.29   1
 -27   1   8 36192.9 2270.83   4
  27   1  -8 42211.5 2167.04   1
  27   1  -8 43414.3 3416.25   6
  27   1  -7 29552.0 1924.71   1
  27   1  -7 32487.1 3075.71   6
  27   1  -6 25336.7 2677.07   6
  27   1  -6 24149.8 1862.40   1
  27   1  -5 38536.0 3064.94   6
  27   1  -5 33014.0 2172.02   1
  27   1  -4 3409.42 1345.79   1
  27   1  -4 4519.11 1675.87   6
  27   1  -3 59825.1 3449.76   6
  27   1  -3 53246.6 2626.39   1
  27   1  -2 11516.5 1692.12   1
  27   1  -2 12815.8 1973.97   6
  27   1  -1 9807.24 1630.13   1
  27   1  -1 11352.4 1760.47   6
  27   1   0 268.073 1406.83   1
  27   1   0 666.661 1280.81   6
  27   1   1 26193.5 2407.65   1
  27   1   1 26706.7 2355.36   6
  27   1   2 18390.0 2208.49   1
  27   1   2 15892.5 1814.74   6
  27   1   3 6569.29 1991.37   1
  27   1   3 8943.08 1601.19   2
  27   1   4 5850.04 1393.18   7
  27   1   4 6209.55 1472.01   2
  27   1   5 8244.16 1510.58   7
  27   1   5 8337.11 1788.40   2
  27   1   6 12990.8 1784.56   7
  27   1   6 12766.3 2169.95   2
  27   1   7 8059.85 1709.01   7
  27   1   7 8533.50 2072.10   2
  27   1   8 26756.2 2413.02   7
 -27   1  -8 22832.2 3377.45   6
  27   1   8 27444.7 3003.78   2
  27   1   9 3458.09 1786.24   7
 -27   1  -9 791.267 2216.71   6
  27   1   9 1250.09 1944.72   2
  27   3 -11 18459.3 2981.41   6
  27   3 -10 5515.83 2329.26   6
  27   3  -9 1260.98 2010.20   6
  27   3  -8 29171.1 3004.35   6
  27   3  -7 6337.88 1170.03   1
  27   3  -7 7856.88 1916.60   6
  27   3  -6 471.512 1746.83   6
  27   3  -6 576.812 1022.69   1
  27   3  -5 10423.5 1413.70   1
  27   3  -5 13890.5 2274.79   6
  27   3  -4 25532.6 2557.07   6
  27   3  -4 22955.7 1870.30   1
  27   3  -3 10076.4 2196.14   6
  27   3  -3 8755.09 1579.08   1
  27   3  -2 4075.41 1951.72   6
  27   3  -2 2565.62 1441.97   1
  27   3  -1 18720.0 1098.85   7
  27   3  -1 23344.0 2407.11   6
  27   3  -1 21970.5 2270.39   1
  27   3   0 1873.70 830.646   7
  27   3   0 1013.54 1264.41   6
  27   3   1 1355.11 834.409   7
  27   3   1-518.095 1335.60   6
  27   3   1 1040.38 1099.15   2
  27   3   2 10169.5 1271.20   7
  27   3   2 8614.52 1525.13   2
  27   3   2 10013.6 1800.53   6
  27   3   3 14806.9 1532.78   7
  27   3   3 17032.8 1943.30   2
  27   3   4 903.321 1160.90   7
  27   3   4-32.6437 1377.57   2
  27   3   5 2410.60 1712.46   2
 -27   3  -6 13689.9 2845.36   6
  27   3   6 14569.4 2340.62   2
 -27   3  -7 575.191 2382.42   6
  27   3   7 756.094 1785.64   2
 -27   3  -8 2199.31 2267.50   6
  27   3   8 2756.18 2060.46   2
  27   5  -7 6963.71 2256.78   6
  27   5  -6 25302.0 3117.88   6
  27   5  -5 8144.64 2052.89   6
  27   5  -4 4371.21 1864.56   6
  27   5  -3 5521.21 1788.16   6
  27   5  -2 6644.06 1834.90   6
  27   5  -1 2061.17 1434.26   6
  27   5   0 8999.16 1667.30   6
  27   5   1 24552.2 2356.65   6
 -27   5  -2 10330.0 2429.57   6
  27   5   2 427.713 1268.64   6
 -27   5  -3 5847.48 2270.33   6
 -27   5  -4 14306.7 2763.98   6
 -27   5  -5 6042.31 2424.41   6
 -28  -4   9 4994.84 1718.42   4
  28  -4  -9 6634.66 1588.04   1
 -28  -4   8 5725.75 1609.00   4
  28  -4  -8 11175.4 1756.56   1
 -28  -4   8 8576.68 1238.45   3
 -28  -4   7 3274.74 1538.99   4
 -28  -4   7 3746.22 1050.94   3
  28  -4  -7 1936.63 1268.69   1
 -28  -4   6 9047.80 1734.23   4
  28  -4  -6 12808.6 1752.25   1
 -28  -4   6 8796.36 1240.46   3
 -28  -4   5 4180.92 1132.88   3
  28  -4  -5 5339.08 1422.12   1
 -28  -4   4 11214.8 1334.57   3
  28  -4  -4 12553.3 1697.64   1
  28  -4  -3 4611.81 1494.80   1
 -28  -4   3 3841.42 1126.65   3
  28  -4  -2 2363.77 1369.74   1
 -28  -4   2 2282.87 1084.98   3
 -28  -4   1 10661.0 1430.04   3
  28  -4  -1 13462.7 1842.65   1
 -28  -4   0 4013.06 1262.01   3
  28  -4   0 5548.65 1452.78   1
  28  -4   1 13222.3 1802.08   1
 -28  -4  -1 11667.0 1449.22   3
 -28  -4  -2 6316.44 1392.88   3
  28  -4   2 5623.15 1502.52   1
  28  -4   3 2319.51 1475.43   1
 -28  -4  -3 5406.20 1404.72   3
 -28  -4  -4 13359.5 1737.05   3
  28  -4   4 8022.37 1617.75   2
  28  -4   4 10890.9 1887.26   1
  28  -4   5 4409.23 1742.42   1
 -28  -4  -5 5347.45 1515.30   3
  28  -4   5 3527.65 1569.02   2
  28  -4   6 8213.42 2023.80   1
  28  -4   6 5510.05 1710.61   2
 -28  -2  11 16341.4 2187.42   4
  28  -2 -11 16496.7 1890.66   1
  28  -2 -11 19435.5 2489.58   6
 -28  -2  10 15121.2 2090.53   4
  28  -2 -10 16859.6 1905.90   1
  28  -2 -10 12092.4 2172.44   6
 -28  -2   9 13847.1 2019.43   4
  28  -2  -9 13857.5 1764.35   1
  28  -2  -9 17293.2 2234.50   6
 -28  -2   8 13191.7 1845.27   4
  28  -2  -8 15533.4 1922.54   1
 -28  -2   8 12934.6 1180.70   3
  28  -2  -8 13533.2 1984.71   6
 -28  -2   7 16365.3 1944.17   4
  28  -2  -7 19610.2 1871.42   1
 -28  -2   7 17071.6 1282.63   3
  28  -2  -7 17726.8 2094.69   6
 -28  -2   6 14859.1 1859.29   4
  28  -2  -6 18539.1 1850.69   1
 -28  -2   6 16648.4 1349.13   3
  28  -2  -6 19863.7 2154.90   6
 -28  -2   5 5134.26 1139.99   3
  28  -2  -5 4458.64 1435.79   6
  28  -2  -5 5575.11 1412.02   1
 -28  -2   4 5214.28 1116.03   3
  28  -2  -4 6039.12 1458.46   6
  28  -2  -4 3753.34 1383.77   1
 -28  -2   3 21648.2 1617.76   3
  28  -2  -3 20356.9 1970.99   1
  28  -2  -3 25170.3 2160.99   6
 -28  -2   2 70367.5 2601.07   3
  28  -2  -2 69548.0 3187.76   6
  28  -2  -2 74473.7 3206.47   1
 -28  -2   1 6049.55 1320.63   3
  28  -2  -1 4654.82 1351.32   1
  28  -2  -1 3964.10 1302.55   6
  28  -2   0 7914.72 1554.29   1
 -28  -2   0 10488.7 1530.77   3
  28  -2   1 48009.9 2824.69   1
 -28  -2  -1 51197.2 2547.91   3
  28  -2   2 16304.2 2027.59   1
  28  -2   3 27050.5 2444.85   1
  28  -2   4 6933.08 1753.94   1
  28  -2   4 5692.10 1530.69   2
  28  -2   5 11814.9 2098.31   1
  28  -2   5 14590.1 1976.82   2
  28  -2   6 2066.12 1666.53   1
  28  -2   6 2719.14 1453.55   2
  28  -2   7 2194.76 1388.53   7
  28  -2   7 4805.65 1723.24   2
  28  -2   8 10504.3 1820.73   7
  28  -2   8 13584.4 2303.20   2
  28  -2   9-1041.31 1866.72   2
 -28   0  12 8480.07 1849.09   4
  28   0 -12 10696.8 1669.25   1
  28   0 -12 11217.6 2449.99   6
 -28   0  11 4765.08 1655.65   4
  28   0 -11 9997.48 1599.00   1
  28   0 -11 7905.26 2120.81   6
 -28   0  10 61.2388 1332.81   4
  28   0 -10 1269.72 1211.43   1
  28   0 -10 1866.73 1682.85   6
 -28   0   9 1271.50 1361.12   4
  28   0  -9 1606.19 1596.81   6
  28   0  -9 1149.64 1215.15   1
 -28   0   8 6686.93 1515.63   4
  28   0  -8 9796.12 1468.37   1
  28   0  -8 9780.69 2191.06   6
 -28   0   7 37526.6 2421.95   4
  28   0  -7 37351.1 2199.75   1
  28   0  -7 41492.7 3243.12   6
  28   0  -6 34050.9 2181.46   1
  28   0  -6 32866.7 2876.70   6
  28   0  -5 3113.82 1286.12   1
  28   0  -5 2312.64 1538.17   6
  28   0  -4 46012.7 3105.11   6
  28   0  -4 50652.1 2580.08   1
  28   0  -3 14652.1 1954.59   6
  28   0  -3 13234.9 1738.14   1
  28   0  -2 2443.11 1379.93   6
  28   0  -2 317.120 1367.48   1
  28   0  -1 35624.2 2415.76   1
  28   0  -1 38715.7 2708.98   6
  28   0   0 23390.7 2175.66   1
  28   0   0 28955.1 2327.32   6
  28   0   1 1560.42 1363.79   1
  28   0   1 2140.44 1473.57   6
  28   0   2 5808.30 1684.55   1
  28   0   3 25860.4 2616.88   1
  28   0   4-350.163 1766.36   1
  28   0   4 1136.67 1339.65   2
  28   0   5 4056.68 1356.27   7
  28   0   5-258.912 1349.28   2
  28   0   6 36292.6 2472.37   7
  28   0   6 42248.0 2993.95   2
  28   0   7 3288.32 1507.96   7
  28   0   7 4432.49 1894.64   2
  28   0   8 7755.04 1641.97   7
  28   0   8 5746.38 2049.20   2
  28   0   9 2252.65 1627.47   7
 -28   0  -9-1426.98 2458.93   6
  28   0   9 671.833 1798.30   2
 -28   2  11 11725.6 1686.64   4
  28   2 -11 22439.8 3074.82   6
  28   2 -10 15134.6 1567.08   1
  28   2 -10 14928.6 2533.09   6
  28   2  -9 15953.6 2513.00   6
  28   2  -9 10476.9 1421.36   1
  28   2  -8 9221.36 2248.81   6
  28   2  -8 10917.2 1437.44   1
  28   2  -7 23144.0 2699.52   6
  28   2  -7 20884.1 1735.42   1
  28   2  -6 14625.6 2385.12   6
  28   2  -6 17676.8 1700.33   1
  28   2  -5 4984.05 1847.80   6
  28   2  -5 2411.85 1252.70   1
  28   2  -4 2333.82 1163.07   1
  28   2  -4 4980.52 1675.06   6
  28   2  -3 22048.7 1965.55   1
  28   2  -3 23048.7 2440.72   6
  28   2  -2 66853.2 3151.51   1
  28   2  -2 66112.9 3709.04   6
  28   2  -1 6234.30 1514.61   6
  28   2  -1 10665.7 1795.23   1
  28   2   0 6286.48 1724.32   1
  28   2   0 10876.8 1758.40   6
  28   2   1 54295.2 3127.04   6
  28   2   1 51894.9 3412.28   1
  28   2   2 20936.9 1623.12   7
  28   2   2 18775.8 1938.72   2
  28   2   2 19908.7 2121.90   6
  28   2   3 27057.4 1816.23   7
  28   2   3 25208.0 2169.35   2
  28   2   4 8157.43 1367.97   7
  28   2   4 8863.24 1584.33   2
  28   2   5 10030.4 1621.36   7
  28   2   5 10661.3 1975.62   2
  28   2   6 4141.22 1486.73   7
  28   2   6 5915.51 1929.71   2
  28   2   7 4911.86 1595.16   7
 -28   2  -7 4482.31 2425.15   6
  28   2   7 6250.13 2013.51   2
  28   2   8 12798.5 1922.82   7
 -28   2  -8 11658.6 3081.10   6
  28   2   8 13213.3 2480.16   2
 -28   2  -9 1232.38 2544.02   6
  28   2   9 4055.11 2267.17   2
  28   4  -9 3985.95 1949.85   6
  28   4  -8 12725.0 2557.77   6
  28   4  -7 2561.38 1762.59   6
  28   4  -6 8822.67 2235.49   6
  28   4  -5 2910.30 1800.49   6
  28   4  -4 13219.9 2260.74   6
  28   4  -3 4345.81 1700.80   6
  28   4  -2 4775.34 1687.73   6
  28   4  -1 13792.4 1471.62   2
  28   4  -1 12688.1 1937.82   6
  28   4   0 3445.24 1484.15   6
  28   4   0 2769.59 1170.61   2
  28   4   1 14368.5 1924.18   6
  28   4   1 11359.3 1593.25   2
  28   4   2 3950.52 1440.87   6
  28   4   2 3907.97 1403.80   2
  28   4   3 7891.43 1738.97   2
 -28   4  -4 11490.1 2500.56   6
  28   4   4 10780.1 1963.50   2
 -28   4  -5 6546.97 2412.74   6
  28   4   5 5927.81 1911.79   2
 -28   4  -6 6648.31 2623.04   6
  28   4   6 7692.45 2158.90   2
  29  -5  -6 21927.1 2103.55   1
 -29  -5   6 17353.7 1580.25   3
 -29  -5   5 2958.17 1118.42   3
  29  -5  -5 1263.76 1321.86   1
 -29  -5   4 3262.15 1137.26   3
  29  -5  -4 6063.30 1582.07   1
  29  -5  -3 3211.92 1373.64   1
 -29  -5   3 5653.36 1319.40   3
  29  -5  -2 9358.05 1656.35   1
 -29  -5   2 8308.17 1387.34   3
 -29  -5   1 3295.05 1244.56   3
  29  -5  -1 3062.87 1566.78   1
 -29  -5   0 1257.49 1234.47   3
  29  -5   0 1189.32 1328.78   1
  29  -5   1 11763.4 1783.40   1
 -29  -5  -1 17280.7 1659.68   3
 -29  -5  -2 3447.85 1339.82   3
  29  -5   2 2303.40 1398.51   1
  29  -5   3 6088.48 1716.68   1
 -29  -5  -3 4589.61 1355.96   3
 -29  -3  10 533.352 1545.83   4
  29  -3 -10 4236.98 1626.60   1
 -29  -3   9-109.425 1510.91   4
  29  -3  -9 3257.93 1524.51   1
 -29  -3   8 13942.5 1987.85   4
 -29  -3   8 14894.9 1290.47   3
 -29  -3   7 1882.64 1453.70   4
 -29  -3   7 4023.62 1041.08   3
  29  -3  -7 4015.62 1498.53   1
  29  -3  -7 3288.10 1428.53   6
 -29  -3   6-211.427 1291.17   4
 -29  -3   6 2401.10 1006.14   3
  29  -3  -6 2085.70 1255.99   6
  29  -3  -6 1576.66 1322.20   1
  29  -3  -5 17692.4 1856.14   1
 -29  -3   5 14810.6 1404.83   3
 -29  -3   4 22726.1 1611.90   3
  29  -3  -4 27142.1 2198.61   1
  29  -3  -4 25957.8 2055.58   6
  29  -3  -3 3879.16 1350.14   1
 -29  -3   3 5674.18 1223.15   3
  29  -3  -3 3850.63 1322.43   6
  29  -3  -2 1774.73 1489.75   1
 -29  -3   2 1899.73 1130.65   3
 -29  -3   1 39378.1 2152.57   3
  29  -3  -1 37519.3 2463.59   1
 -29  -3   0 3727.48 1251.62   3
  29  -3   0 4244.33 1443.22   1
  29  -3   1 1156.93 1323.43   1
 -29  -3  -1 1875.97 1265.27   3
  29  -3   2 6777.80 1615.53   1
 -29  -3  -2 7056.72 1520.56   3
 -29  -3  -3 30892.4 2297.51   3
  29  -3   3 25434.7 2334.13   1
  29  -3   4 1317.11 1303.47   2
  29  -3   4 1581.12 1475.58   1
  29  -3   5 3956.76 1554.75   2
  29  -3   5 775.592 1603.49   1
  29  -3   6 10841.4 1950.48   2
  29  -3   6 12036.7 2257.79   1
  29  -3   7-1588.20 1528.37   7
  29  -3   7 1595.71 1461.67   2
 -29  -1  11 12694.7 1960.13   4
  29  -1 -11 16332.0 1863.31   1
  29  -1 -11 19488.8 2712.07   6
 -29  -1  10 6891.24 1818.99   4
  29  -1 -10 8219.92 1547.89   1
  29  -1 -10 8545.81 2100.49   6
 -29  -1   9 2918.61 1445.75   4
  29  -1  -9 3980.16 1927.08   6
  29  -1  -9 5597.37 1437.55   1
 -29  -1   8 16342.7 1967.89   4
  29  -1  -8 18837.8 1905.79   1
  29  -1  -8 21147.9 2501.42   6
 -29  -1   7 2174.35 1384.93   4
  29  -1  -7 968.069 1542.62   6
  29  -1  -7-58.7219 1088.54   1
  29  -1  -6 24092.2 1945.01   1
  29  -1  -6 20856.1 2450.60   6
  29  -1  -5 6825.68 1418.34   1
  29  -1  -5 5555.96 1606.88   6
  29  -1  -4 35461.5 2322.49   1
  29  -1  -4 34071.1 2565.42   6
  29  -1  -3 19817.2 2090.46   6
  29  -1  -3 21901.6 2039.02   1
  29  -1  -2 17604.0 2024.30   6
  29  -1  -2 18562.5 1983.66   1
  29  -1  -1 20313.9 2073.64   6
  29  -1  -1 17859.3 2016.59   1
  29  -1   0 5627.69 1528.28   1
  29  -1   0 2846.95 1279.66   6
  29  -1   1 42187.2 2762.13   1
  29  -1   2 3178.92 1659.11   1
  29  -1   3 8205.75 1833.32   1
  29  -1   4 8120.97 1703.80   2
  29  -1   4 6367.44 1948.28   1
  29  -1   5 7087.72 2075.93   1
  29  -1   5 10063.0 1880.71   2
  29  -1   6 8753.82 1672.28   7
  29  -1   6 9269.51 1973.53   2
  29  -1   7 4606.72 1532.86   7
  29  -1   7 3500.18 1765.77   2
  29  -1   8 17964.6 2123.11   7
  29  -1   8 16853.1 2485.64   2
  29  -1   9 3098.46 1578.86   7
  29  -1   9 4499.22 2006.83   2
 -29   1  11 9754.87 1686.09   4
  29   1 -11 12806.1 1551.63   1
  29   1 -11 15080.4 2640.36   6
 -29   1  10 11293.2 1783.04   4
  29   1 -10 11752.7 1506.79   1
  29   1 -10 10838.2 2381.58   6
 -29   1   9 1203.68 1327.06   4
  29   1  -9 2930.83 1795.71   6
  29   1  -9 3049.21 1136.40   1
  29   1  -8 20088.0 1781.19   1
  29   1  -8 20553.5 2569.75   6
  29   1  -7-3.11780 1126.79   1
  29   1  -7 2353.44 1712.46   6
  29   1  -6 19863.2 2576.66   6
  29   1  -6 18307.3 1828.34   1
  29   1  -5 4200.40 1407.73   1
  29   1  -5 1775.62 1574.08   6
  29   1  -4 43009.2 3116.86   6
  29   1  -4 40677.8 2402.90   1
  29   1  -3 17446.3 1877.63   1
  29   1  -3 14289.8 2041.24   6
  29   1  -2 19191.8 1970.41   1
  29   1  -2 21852.6 2287.09   6
  29   1  -1 27304.3 2213.31   1
  29   1  -1 29326.6 2477.90   6
  29   1   0 4349.41 1565.08   1
  29   1   0 4357.26 1424.32   6
  29   1   1 29084.6 2654.66   1
  29   1   1 27342.3 2398.11   6
  29   1   2 1350.38 1408.44   6
  29   1   2 6778.18 1922.80   1
  29   1   3 12724.0 2410.46   1
  29   1   3 10971.3 1783.06   2
  29   1   4 5512.19 1340.87   7
  29   1   4 6293.34 1556.11   2
  29   1   5 8625.57 1468.22   7
  29   1   5 7296.50 1783.45   2
  29   1   6 13837.1 1776.50   7
  29   1   6 14960.5 2316.82   2
  29   1   7 5309.12 1597.40   7
  29   1   7 3070.56 1786.59   2
  29   1   8 18813.2 2215.44   7
 -29   1  -8 13839.9 3004.93   6
  29   1   8 17333.9 2622.55   2
  29   1   9 5402.13 1775.92   7
 -29   1  -9 3516.93 2551.56   6
  29   1   9 2726.22 2020.56   2
  29   3 -10 3330.83 2069.60   6
  29   3  -9 3537.69 2065.84   6
  29   3  -8 24514.3 2874.02   6
  29   3  -7 5127.52 2166.53   6
  29   3  -6 1226.65 2010.25   6
  29   3  -6 278.265 1037.77   1
  29   3  -5 15506.6 1694.24   1
  29   3  -5 17136.6 2488.01   6
  29   3  -4 26787.3 2701.79   6
  29   3  -4 26524.9 2121.54   1
  29   3  -3 5781.90 1575.54   1
  29   3  -3 4623.38 1753.35   6
  29   3  -2 3389.60 1624.94   6
  29   3  -2 1761.96 1495.71   1
  29   3  -1 38692.8 2823.53   6
  29   3  -1 37736.9 2783.96   1
  29   3   0 2278.94 1077.92   2
  29   3   0 868.705 1378.26   6
  29   3   1 857.680 854.091   7
  29   3   1-1557.37 1485.92   6
  29   3   1-1200.32 1143.49   2
  29   3   2 6023.31 1162.00   7
  29   3   2 5960.70 1559.37   6
  29   3   2 5523.16 1448.81   2
  29   3   3 33979.9 2032.21   7
  29   3   3 31771.0 2470.51   2
  29   3   4 1030.00 1256.08   7
  29   3   4 926.670 1523.25   2
  29   3   5 4661.85 1420.62   7
  29   3   5 247.725 1619.35   2
 -29   3  -6 18859.0 3315.63   6
  29   3   6 14083.6 2295.38   2
 -29   3  -7 1438.47 2289.12   6
  29   3   7 3683.15 1996.95   2
  29   5  -6 21375.4 2779.55   6
  29   5  -5 605.699 1792.64   6
  29   5  -4 2755.40 1854.93   6
  29   5  -3 6905.67 1933.85   6
  29   5  -2 11141.9 1958.29   6
  29   5  -1 2891.30 1571.71   6
  29   5   0 2901.75 1515.43   6
  29   5   1 18964.8 2165.99   6
  29   5   2 389.556 1280.93   6
 -30  -4   8 9248.40 1854.28   4
  30  -4  -8 12979.5 1878.41   1
 -30  -4   8 9573.65 1252.06   3
 -30  -4   7-73.5457 1415.07   4
 -30  -4   7 2951.00 1087.33   3
  30  -4  -7 1641.58 1330.52   1
  30  -4  -6 17455.2 1942.19   1
 -30  -4   6 13763.0 1407.92   3
 -30  -4   5 3678.37 1223.58   3
  30  -4  -5 5157.86 1429.63   1
 -30  -4   4 8903.51 1361.60   3
  30  -4  -4 8790.50 1659.10   1
  30  -4  -3 9218.29 1586.70   1
 -30  -4   3 8643.24 1375.71   3
 -30  -4   2 12990.7 1532.51   3
  30  -4  -2 14893.7 1921.06   1
 -30  -4   1 4942.49 1274.20   3
  30  -4  -1 4804.90 1519.35   1
 -30  -4   0 1897.10 1216.58   3
  30  -4   0 5169.30 1474.10   1
  30  -4   1 3703.99 1464.55   1
 -30  -4  -1 4587.63 1328.42   3
 -30  -4  -2 1666.25 1267.50   3
  30  -4   2 3363.09 1488.82   1
 -30  -4  -3 14270.8 1808.32   3
  30  -4   3 14038.1 2092.52   1
 -30  -4  -4 3764.26 1499.40   3
  30  -4   4 5614.85 1516.35   2
  30  -4   4 6148.69 1844.17   1
  30  -4   5 3962.33 1742.06   1
  30  -4   5 2586.42 1525.80   2
 -30  -2  11 5022.06 1728.78   4
  30  -2 -11 7686.09 1667.77   1
  30  -2 -11 4478.74 1967.21   6
 -30  -2  10 9479.08 1894.87   4
  30  -2 -10 11413.2 1807.30   1
  30  -2 -10 11077.8 2055.57   6
 -30  -2   9 7367.12 1710.41   4
  30  -2  -9 13215.1 1834.53   1
  30  -2  -9 11621.2 2078.59   6
 -30  -2   8 6953.41 1699.57   4
  30  -2  -8 9229.11 1684.52   1
  30  -2  -8 7343.23 1833.90   6
 -30  -2   7 2101.41 1460.07   4
 -30  -2   7 821.638 975.992   3
  30  -2  -7 4642.91 1660.68   6
  30  -2  -7 3052.72 1303.92   1
  30  -2  -6 13270.3 1682.08   1
 -30  -2   6 9348.11 1236.70   3
  30  -2  -6 13952.7 2014.57   6
 -30  -2   5 5866.94 1203.35   3
  30  -2  -5 7893.60 1627.81   6
  30  -2  -5 8345.97 1542.89   1
 -30  -2   4 19475.4 1588.82   3
  30  -2  -4 16627.4 1825.16   1
 -30  -2   3 17464.7 1669.91   3
  30  -2  -3 18250.3 2068.20   6
  30  -2  -3 14424.9 1924.85   1
 -30  -2   2 50275.8 2476.04   3
  30  -2  -2 44833.0 2723.55   6
  30  -2  -2 44956.6 2654.33   1
 -30  -2   1 14440.0 1637.63   3
  30  -2  -1 15386.3 1878.96   6
  30  -2  -1 13548.8 1805.58   1
  30  -2   0 12420.8 1756.25   1
 -30  -2   0 12306.6 1683.48   3
  30  -2   1 14760.6 1908.96   1
  30  -2   2 7822.11 1715.53   1
  30  -2   3 15578.6 2140.99   1
  30  -2   4 5136.22 1838.97   1
  30  -2   4 6419.36 1585.31   2
  30  -2   5 14498.3 1998.94   2
  30  -2   5 13691.1 2339.25   1
  30  -2   6 2088.99 1914.72   1
  30  -2   6 1623.12 1473.04   2
  30  -2   7 1208.33 1309.41   7
  30  -2   7 745.047 1616.61   2
  30  -2   8 10544.6 1872.84   7
  30  -2   8 11706.1 2246.90   2
 -30   0  11 16221.1 1996.41   4
  30   0 -11 22748.4 1999.46   1
  30   0 -11 15806.4 2502.42   6
 -30   0  10 6489.46 1655.35   4
  30   0 -10 9094.71 1506.10   1
  30   0 -10 10719.8 2207.06   6
 -30   0   9-53.1383 1299.72   4
  30   0  -9-1188.51 1801.10   6
  30   0  -9 3202.20 1278.77   1
 -30   0   8 21843.2 2094.62   4
  30   0  -8 23291.8 1868.57   1
  30   0  -8 23869.0 2778.33   6
  30   0  -7 4259.06 1862.03   6
  30   0  -7 216.107 1134.53   1
  30   0  -6 5957.53 1467.97   1
  30   0  -6 4204.05 1777.40   6
  30   0  -5 5951.28 1516.92   1
  30   0  -5 3984.69 1685.21   6
  30   0  -4 40189.4 3009.57   6
  30   0  -4 48234.2 2659.31   1
  30   0  -3 6166.93 1766.79   6
  30   0  -3 5251.60 1463.14   1
  30   0  -2 4199.18 1455.60   1
  30   0  -2 4613.96 1618.70   6
  30   0  -1 42200.4 2694.46   1
  30   0  -1 44035.1 2901.86   6
  30   0   0 12069.6 1794.62   1
  30   0   0 12631.4 1884.50   6
  30   0   1 7344.85 1842.95   1
  30   0   1 7881.34 1678.41   6
  30   0   2 11244.9 2032.62   1
  30   0   3 6473.71 1894.35   1
  30   0   4 9660.87 1735.24   2
  30   0   4 8600.87 2152.18   1
  30   0   5 1280.04 1257.15   7
  30   0   5 1886.00 1393.36   2
  30   0   6 9836.96 1658.68   7
  30   0   6 6539.77 1862.06   2
  30   0   7 6045.75 1617.50   7
  30   0   7 8424.17 2096.32   2
  30   0   8 6131.95 1658.54   7
  30   0   8 3158.50 1766.02   2
 -30   2  11 3575.39 1477.81   4
  30   2 -11 6436.70 2096.70   6
  30   2 -10 7079.63 2130.83   6
  30   2  -9 10347.6 2230.07   6
  30   2  -9 11507.5 1589.61   1
  30   2  -8 12086.2 2332.67   6
  30   2  -8 10008.9 1527.16   1
  30   2  -7 3369.94 1987.42   6
  30   2  -7 3551.11 1275.33   1
  30   2  -6 15045.5 2492.37   6
  30   2  -6 14471.4 1638.29   1
  30   2  -5 9850.86 1531.99   1
  30   2  -5 10156.9 2041.22   6
  30   2  -4 14769.1 1686.82   1
  30   2  -4 17175.1 2320.57   6
  30   2  -3 16880.1 1932.69   1
  30   2  -3 21887.1 2417.95   6
  30   2  -2 60547.5 3551.51   6
  30   2  -2 64119.2 3153.77   1
  30   2  -1 8746.28 1862.36   6
  30   2  -1 11510.3 1846.62   1
  30   2   0 10221.0 1838.08   1
  30   2   0 11912.1 1951.35   6
  30   2   1 24526.3 2306.04   6
  30   2   1 19810.2 2400.58   1
  30   2   2 7279.61 1223.87   7
  30   2   2 7446.20 1523.20   2
  30   2   2 4767.36 1483.82   6
  30   2   3 16252.2 1569.01   7
  30   2   3 15424.1 1776.83   2
  30   2   4 5308.00 1381.66   7
  30   2   4 5938.16 1601.79   2
  30   2   5 11578.8 1664.22   7
  30   2   5 14603.9 2123.23   2
  30   2   6 2016.64 1394.79   7
  30   2   6 892.807 1737.31   2
  30   2   7 1297.92 1448.60   7
 -30   2  -7 4485.82 2685.06   6
  30   2   7-527.716 1807.54   2
  30   2   8 9134.18 1856.55   7
 -30   2  -8 5776.96 2642.12   6
  30   2   8 4018.59 2002.08   2
  30   4  -8 9594.60 2435.92   6
  30   4  -7 4814.68 2063.22   6
  30   4  -6 11260.4 2358.53   6
  30   4  -5 4126.94 1943.14   6
  30   4  -4 11534.1 2136.14   6
  30   4  -3 11218.4 2055.99   6
  30   4  -2 17174.5 2293.59   6
  30   4  -1 5113.66 1627.83   6
  30   4   0 2179.59 1422.66   6
  30   4   1 4453.76 1487.62   6
  30   4   2 8085.86 1639.25   2
  30   4   2 4631.48 1608.69   6
  30   4   3 15784.9 2133.09   2
 -30   4  -4 636.480 2025.19   6
  30   4   4 3287.62 1652.52   2
 -30   4  -5 7602.13 2892.34   6
  30   4   5 5533.83 2038.56   2
  31  -5  -4 2110.89 1405.71   1
 -31  -5   4 1981.50 1109.68   3
  31  -5  -3 6679.19 1726.12   1
 -31  -5   3 6581.10 1309.47   3
  31  -5  -2 8221.66 1693.45   1
 -31  -5   2 9735.48 1516.33   3
 -31  -5   1 3495.71 1346.73   3
  31  -5  -1 3666.50 1549.31   1
  31  -5   0 792.151 1332.02   1
 -31  -5   0 897.376 1214.29   3
  31  -5   1 7151.10 1663.96   1
 -31  -5  -1 4666.24 1371.08   3
 -31  -3   9-180.898 1475.69   4
  31  -3  -9 178.611 1385.16   1
 -31  -3   8 8196.25 1733.63   4
  31  -3  -8 10211.4 1693.03   1
 -31  -3   7 2405.31 1444.51   4
 -31  -3   7 2030.92 1039.08   3
  31  -3  -7-388.555 1271.97   6
  31  -3  -7 3833.28 1361.14   1
 -31  -3   6 1685.81 1085.98   3
  31  -3  -6 799.149 1293.10   6
  31  -3  -6 1296.74 1280.49   1
 -31  -3   5 635.634 979.401   3
  31  -3  -5 2047.65 1331.20   6
  31  -3  -5 557.731 1271.95   1
 -31  -3   4 15228.6 1544.89   3
  31  -3  -4 15242.7 1869.90   1
  31  -3  -4 13886.7 1818.18   6
 -31  -3   3 10396.9 1470.99   3
  31  -3  -3 10812.2 1841.53   1
  31  -3  -3 12291.7 1750.66   6
 -31  -3   2 16699.8 1627.13   3
  31  -3  -2 17828.1 2039.39   1
 -31  -3   1 19952.4 1752.49   3
  31  -3  -1 19745.6 2040.32   1
  31  -3   0 7001.30 1693.53   1
 -31  -3   0 4152.29 1343.38   3
 -31  -3  -1 1492.66 1360.66   3
  31  -3   1 4076.23 1598.04   1
  31  -3   2 3750.39 1580.38   1
 -31  -3  -2 2630.45 1398.13   3
  31  -3   3 18335.3 2201.68   1
  31  -3   4 2618.83 1565.63   1
  31  -3   4 570.581 1309.33   2
  31  -3   5 1989.55 1447.00   2
  31  -3   5-480.986 1634.73   1
  31  -3   6 9619.38 2234.36   1
  31  -3   6 8670.39 1935.31   2
 -31  -1  11 3026.76 1665.23   4
  31  -1 -11 3022.20 1474.41   1
  31  -1 -11 6134.02 2110.36   6
 -31  -1  10 6416.85 1664.27   4
  31  -1 -10 8696.26 1654.97   1
  31  -1 -10 10561.1 2313.42   6
 -31  -1   9 22793.4 2197.65   4
  31  -1  -9 27986.9 2935.88   6
 -31  -1   8 9332.43 1815.38   4
  31  -1  -8 11421.3 1661.56   1
  31  -1  -8 9730.32 1999.20   6
  31  -1  -7 7088.83 1925.66   6
  31  -1  -7 4243.86 1383.91   1
  31  -1  -6 23552.3 2106.94   1
  31  -1  -6 24310.9 2486.82   6
  31  -1  -5 1200.64 1265.34   1
  31  -1  -5 1534.80 1448.48   6
  31  -1  -4 27363.9 2536.57   6
  31  -1  -4 21690.7 2132.26   1
  31  -1  -3 12034.2 1830.07   6
  31  -1  -3 14362.8 1866.93   1
  31  -1  -2 26984.2 2335.59   6
  31  -1  -2 25893.4 2187.78   1
  31  -1  -1 10337.4 1822.86   1
  31  -1  -1 10674.4 1743.93   6
  31  -1   0 8995.11 1634.88   1
  31  -1   0 9268.36 1659.22   6
  31  -1   1 22824.1 2191.40   1
  31  -1   2 1597.05 1614.76   1
  31  -1   3 9429.17 1954.52   1
  31  -1   4 3906.56 1503.58   2
  31  -1   4 6938.19 1981.93   1
  31  -1   5 15204.5 2571.63   1
  31  -1   5 20776.0 2236.38   2
  31  -1   6 3048.57 1480.62   7
  31  -1   6 4176.80 1706.80   2
  31  -1   7 4207.48 1530.12   7
  31  -1   7 5247.43 1807.88   2
  31  -1   8 11769.6 1923.02   7
  31  -1   8 9252.57 2071.10   2
 -31   1  11 4989.26 1620.18   4
  31   1 -11 6907.09 2143.61   6
  31   1 -11 2565.54 1238.33   1
 -31   1  10 6934.32 1655.82   4
  31   1 -10 9370.80 1497.66   1
  31   1 -10 10731.5 2386.21   6
  31   1  -9 24939.5 1952.57   1
  31   1  -9 28659.6 3161.87   6
  31   1  -8 11895.2 1759.58   1
  31   1  -8 11651.0 2347.42   6
  31   1  -7 2910.55 1233.74   1
  31   1  -7 1740.54 1669.32   6
  31   1  -6 17084.3 2452.37   6
  31   1  -6 22648.2 2061.69   1
  31   1  -5 1780.62 1593.17   6
  31   1  -5 4777.67 1422.89   1
  31   1  -4 20085.0 2398.86   6
  31   1  -4 22686.7 1983.21   1
  31   1  -3 12025.7 1675.58   1
  31   1  -3 13272.5 2051.75   6
  31   1  -2 16003.3 1819.22   1
  31   1  -2 20572.0 2287.00   6
  31   1  -1 11547.6 1847.14   1
  31   1  -1 10291.8 1836.80   6
  31   1   0 6859.45 1726.24   6
  31   1   0 9027.49 1898.27   1
  31   1   1 21473.7 2382.33   1
  31   1   1 15961.3 2125.86   6
  31   1   2 2639.30 1401.37   6
  31   1   2 3273.63 1723.18   1
  31   1   3 4733.86 1818.95   1
  31   1   3 9408.18 1641.01   2
  31   1   4 6174.59 1341.80   7
  31   1   4 4954.73 1491.54   2
  31   1   5 18790.4 1856.24   7
  31   1   5 16811.4 2129.08   2
  31   1   6 4264.62 1411.87   7
  31   1   6 7934.76 1998.14   2
  31   1   7 3176.49 1540.19   7
  31   1   7 2246.91 1591.68   2
  31   1   8 7868.17 1759.22   7
 -31   1  -8 13189.0 3064.70   6
  31   1   8 9870.27 2299.14   2
  31   3  -9 2442.96 1985.86   6
  31   3  -8 12105.6 2454.22   6
  31   3  -7 5177.82 2078.05   6
  31   3  -6 1972.67 1167.80   1
  31   3  -6 612.337 1886.26   6
  31   3  -5 1108.18 1230.97   1
  31   3  -5 2015.89 1610.33   6
  31   3  -4 15675.9 2426.53   6
  31   3  -4 17195.8 1917.60   1
  31   3  -3 11864.0 1838.28   1
  31   3  -3 9283.95 2013.11   6
  31   3  -2 16853.1 2109.25   1
  31   3  -2 18707.8 2362.10   6
  31   3  -1 17766.2 2291.84   6
  31   3  -1 16953.7 2271.50   1
  31   3   0 1969.23 1132.46   2
  31   3   0 3213.08 1485.84   6
  31   3   1 119.595 1448.73   6
  31   3   1 2107.32 1199.98   2
  31   3   2 2509.26 1612.94   6
  31   3   2 2582.84 1373.33   2
  31   3   3 17591.6 2053.77   2
  31   3   4 1378.47 1402.70   2
  31   3   5 2859.94 1680.42   2
 -31   3  -6 11759.6 2943.15   6
  31   3   6 14968.6 2363.12   2
  31   5  -5 4022.31 1951.02   6
  31   5  -4 1105.42 1627.49   6
  31   5  -3 10141.5 2070.37   6
  31   5  -2 8903.13 1983.71   6
  31   5  -1 3630.34 1636.89   6
  31   5   0 912.575 1344.23   6
  31   5   1 3750.04 1552.47   6
  31   5   2 119.090 1336.96   6
 -32  -4   7 2996.01 1094.70   3
  32  -4  -7 2711.31 1387.83   1
  32  -4  -6 9410.70 1735.23   1
 -32  -4   6 5823.51 1286.75   3
 -32  -4   5 3313.32 1157.46   3
  32  -4  -5 3735.58 1464.79   1
  32  -4  -4 6266.00 1611.40   1
 -32  -4   4 8599.38 1370.88   3
 -32  -4   3 10787.8 1505.78   3
  32  -4  -3 13806.3 2063.11   1
 -32  -4   2 18183.9 1645.46   3
  32  -4  -2 16246.7 2032.21   1
 -32  -4   1 4554.66 1378.02   3
  32  -4  -1 5081.77 1562.62   1
  32  -4   0 17168.2 2060.88   1
 -32  -4   0 16720.7 1752.23   3
 -32  -4  -1 7496.27 1496.41   3
  32  -4   1 7432.54 1672.81   1
  32  -4   2 5002.44 1587.35   1
 -32  -4  -2 8737.47 1660.88   3
  32  -4   3 7231.87 1892.97   1
 -32  -4  -3 8467.36 1631.18   3
 -32  -4  -4 4277.37 1523.03   3
  32  -4   4 846.693 1372.96   2
  32  -4   4 4173.19 1744.51   1
 -32  -2  10 4186.21 1761.87   4
  32  -2 -10 5075.21 1463.67   1
  32  -2 -10 4273.94 1694.57   6
 -32  -2   9 10380.6 1751.79   4
  32  -2  -9 10828.8 1762.04   1
  32  -2  -9 10757.5 2065.23   6
 -32  -2   8 9209.38 1875.51   4
  32  -2  -8 14957.4 1815.66   1
  32  -2  -8 14330.1 2164.22   6
 -32  -2   7 3704.36 1167.31   3
  32  -2  -7 2811.53 1578.68   6
  32  -2  -7 5263.20 1458.97   1
  32  -2  -6 16853.6 1898.98   1
 -32  -2   6 15293.6 1516.68   3
  32  -2  -6 16682.4 2067.47   6
  32  -2  -5 5470.33 1612.65   1
 -32  -2   5 6232.20 1301.24   3
  32  -2  -5 7004.51 1734.62   6
 -32  -2   4 15196.6 1584.67   3
  32  -2  -4 15872.2 1913.16   1
  32  -2  -4 13791.9 1810.27   6
 -32  -2   3 6703.26 1424.42   3
  32  -2  -3 7572.89 1641.29   6
  32  -2  -3 8444.99 1813.55   1
 -32  -2   2 6966.71 1426.43   3
  32  -2  -2 6205.55 1515.90   6
  32  -2  -2 7958.56 1670.87   1
  32  -2  -1 309.546 1292.16   6
  32  -2  -1 2176.42 1500.23   1
  32  -2   0 3332.34 1548.17   1
  32  -2   1 20956.5 2123.83   1
  32  -2   2 5537.62 1600.03   1
  32  -2   3 12812.2 2148.64   1
  32  -2   4 4303.13 1726.51   1
  32  -2   4 4806.73 1563.11   2
  32  -2   5 22337.0 2358.20   2
  32  -2   5 23049.8 2713.38   1
  32  -2   6 2938.70 1905.57   1
  32  -2   6 2104.67 1500.43   2
  32  -2   7 3063.23 1441.48   7
  32  -2   7 3102.69 1760.97   2
 -32   0  11 31078.5 2500.00   4
  32   0 -11 37927.3 2394.20   1
  32   0 -11 34278.2 3445.88   6
 -32   0  10 2009.57 1463.39   4
  32   0 -10-1299.91 2135.76   6
  32   0 -10-297.561 1222.90   1
 -32   0   9 1092.33 1394.15   4
  32   0  -9 3241.76 2103.07   6
  32   0  -9 263.754 1188.40   1
  32   0  -8 7498.55 2059.13   6
  32   0  -8 6474.21 1415.51   1
  32   0  -7 14258.6 1739.75   1
  32   0  -7 13258.3 2211.73   6
  32   0  -6 2668.64 1371.72   1
  32   0  -6 2414.35 1994.06   6
  32   0  -5 5153.54 1816.42   6
  32   0  -5 8993.11 1667.22   1
  32   0  -4 21588.4 2382.31   6
  32   0  -4 17998.6 1865.71   1
  32   0  -3 5289.04 1643.08   6
  32   0  -3 3653.88 1333.39   1
  32   0  -2 7632.13 1674.98   1
  32   0  -2 9314.06 1762.88   6
  32   0  -1 8293.91 1673.71   1
  32   0  -1 6818.74 1607.07   6
  32   0   0 28278.0 2450.96   1
  32   0   0 28980.2 2537.72   6
  32   0   1 525.555 1509.82   1
  32   0   1 2217.70 1586.70   6
  32   0   2-78.1846 1628.32   1
  32   0   3 18944.6 2529.51   1
  32   0   3 17735.9 1989.90   2
  32   0   4 269.746 1838.96   1
  32   0   4 1769.48 1441.99   2
  32   0   5 10956.2 1658.43   7
  32   0   5 13336.9 2032.91   2
  32   0   6 5203.84 1504.66   7
  32   0   6 4329.06 1762.20   2
  32   0   7 14439.4 1943.42   7
  32   0   7 15159.7 2392.17   2
  32   0   8-461.766 1665.01   2
  32   2 -10 3647.87 2144.14   6
  32   2  -9 12713.3 2569.37   6
  32   2  -9 14179.8 1699.18   1
  32   2  -8 14668.1 2722.76   6
  32   2  -8 13565.3 1669.23   1
  32   2  -7 6444.07 2146.48   6
  32   2  -7 1624.62 1254.52   1
  32   2  -6 20048.0 1858.36   1
  32   2  -6 22510.2 2723.16   6
  32   2  -5 8272.22 1485.82   1
  32   2  -5 7275.86 1993.81   6
  32   2  -4 17339.7 1897.43   1
  32   2  -4 19462.0 2556.08   6
  32   2  -3 7486.44 1602.74   1
  32   2  -3 8641.83 2134.52   6
  32   2  -2 10518.6 1947.18   6
  32   2  -2 9884.32 1772.29   1
  32   2  -1 1917.17 1495.23   1
  32   2  -1 2457.22 1522.02   6
  32   2   0 474.443 1630.09   1
  32   2   0 3876.25 1560.19   6
  32   2   1 17353.4 2141.20   6
  32   2   1 21263.0 2603.84   1
  32   2   2 5552.58 1176.26   7
  32   2   2 4458.16 1503.71   6
  32   2   2 4798.19 1376.29   2
  32   2   3 8264.60 1356.56   7
  32   2   3 10454.2 1772.22   2
  32   2   4 3793.62 1282.58   7
  32   2   4 5061.33 1626.45   2
  32   2   5 25362.3 2120.72   7
  32   2   5 26046.1 2663.58   2
  32   2   6 2046.28 1391.92   7
  32   2   6 5384.04 1952.79   2
  32   2   7 3062.10 1620.84   7
 -32   2  -7 2839.23 2499.82   6
  32   2   7-615.803 1937.81   2
  32   4  -7 3666.26 2012.72   6
  32   4  -6 5305.81 2127.64   6
  32   4  -5 731.319 1676.42   6
  32   4  -4 8169.47 2057.43   6
  32   4  -3 13895.9 2258.22   6
  32   4  -2 16998.5 2354.99   6
  32   4  -1 7481.09 1750.16   6
  32   4   0 10036.5 2009.63   6
  32   4   1 5332.82 1635.44   6
  32   4   2 6304.62 1681.31   6
 -32   4  -4 4096.71 2409.01   6
 -33  -3   8 3761.47 1648.67   4
  33  -3  -8 5764.55 1634.08   1
  33  -3  -7 19436.7 1991.17   1
 -33  -3   7 14025.8 1419.48   3
 -33  -3   6 5471.63 1226.18   3
  33  -3  -6 5535.88 1610.50   6
  33  -3  -6 7990.28 1658.87   1
  33  -3  -5 6027.86 1611.31   1
 -33  -3   5 6450.87 1280.69   3
  33  -3  -5 5373.87 1433.21   6
 -33  -3   4 25687.7 1856.71   3
  33  -3  -4 31975.5 2472.88   1
  33  -3  -4 29223.3 2301.64   6
  33  -3  -3 4736.35 1699.35   1
 -33  -3   3 3954.39 1299.10   3
  33  -3  -3 4519.08 1420.21   6
 -33  -3   2 4253.22 1360.64   3
  33  -3  -2 4232.47 1514.35   1
 -33  -3   1 5382.65 1503.50   3
  33  -3  -1 3964.31 1657.60   1
  33  -3   0 16624.3 2060.38   1
 -33  -3   0 16365.8 1821.12   3
 -33  -3  -1 1430.43 1264.10   3
  33  -3   1 1180.63 1383.76   1
  33  -3   2 596.774 1434.99   1
  33  -3   3 6628.10 1842.62   1
  33  -3   4 1749.93 1574.31   1
  33  -3   4 1360.17 1362.39   2
  33  -3   5 2728.18 1944.97   1
  33  -3   5 2085.32 1473.71   2
 -33  -1  10 5449.62 1715.55   4
  33  -1 -10 7270.43 1955.27   6
  33  -1 -10 6119.52 1484.61   1
 -33  -1   9 8151.66 1759.93   4
  33  -1  -9 4284.50 1766.77   6
  33  -1  -9 3968.22 1479.52   1
  33  -1  -8 9656.83 1611.13   1
  33  -1  -8 12972.2 2212.06   6
  33  -1  -7 7871.57 1907.65   6
  33  -1  -7 5527.14 1509.70   1
  33  -1  -6 13049.4 1824.33   1
  33  -1  -6 9404.36 1890.29   6
  33  -1  -5 4247.67 1540.44   1
  33  -1  -5 4006.20 1602.22   6
  33  -1  -4 9053.00 1739.17   6
  33  -1  -4 9904.74 1799.47   1
  33  -1  -3 9435.50 1867.12   6
  33  -1  -3 9612.68 1675.05   1
  33  -1  -2 14231.4 1894.63   6
  33  -1  -2 16363.4 1905.47   1
  33  -1  -1 5383.91 1584.78   1
  33  -1  -1 5505.88 1596.09   6
  33  -1   0 11289.4 1801.54   6
  33  -1   0 7871.24 1657.64   1
  33  -1   1 23333.9 2394.60   1
  33  -1   2 8237.36 1911.48   1
  33  -1   3 12634.3 2093.04   1
  33  -1   4 5633.84 2102.72   1
  33  -1   4 2911.49 1509.70   2
  33  -1   5 12966.2 2370.61   1
  33  -1   5 14982.2 2059.28   2
  33  -1   6-1217.90 1400.21   7
  33  -1   6 418.234 1527.01   2
  33  -1   7 2807.04 1506.47   7
  33  -1   7 1019.45 1647.23   2
  33   1 -10 5573.16 1431.09   1
  33   1 -10 8738.28 2405.32   6
  33   1  -9 9212.17 1582.45   1
  33   1  -9 8144.74 2205.60   6
  33   1  -8 12430.6 2391.73   6
  33   1  -8 11954.8 1695.79   1
  33   1  -7 5841.77 1503.16   1
  33   1  -7-545.569 1767.04   6
  33   1  -6 10411.6 2223.08   6
  33   1  -6 11146.4 1641.42   1
  33   1  -5 7482.34 1977.47   6
  33   1  -5 4252.27 1398.29   1
  33   1  -4 4627.19 1437.92   1
  33   1  -4 6395.38 1792.99   6
  33   1  -3 13044.3 1823.75   1
  33   1  -3 13373.2 2107.35   6
  33   1  -2 16514.9 2028.77   1
  33   1  -2 17490.9 2208.97   6
  33   1  -1 7006.98 1832.02   1
  33   1  -1 6305.25 1695.28   6
  33   1   0 6669.04 1697.28   6
  33   1   0 12548.3 2039.43   1
  33   1   1 18755.6 2291.64   1
  33   1   1 17340.4 2048.92   6
  33   1   2 7549.57 2003.87   1
  33   1   3 12612.5 2334.38   1
  33   1   3 17465.5 2078.15   2
  33   1   4 4077.57 1352.87   7
  33   1   4 4188.89 1560.84   2
  33   1   5 21779.9 2062.78   7
  33   1   5 17873.3 2218.84   2
  33   1   6-335.284 1310.63   7
  33   1   6-838.574 1557.23   2
  33   1   7 3255.36 1608.16   7
  33   1   7-338.771 1753.53   2
  33   3  -8 3465.49 2010.55   6
  33   3  -7 13377.9 2492.13   6
  33   3  -6 4464.60 1882.34   6
  33   3  -5 3812.91 1466.36   1
  33   3  -5 4355.15 2158.38   6
  33   3  -4 27621.7 2834.67   6
  33   3  -4 23782.1 2151.66   1
  33   3  -3 5379.88 1578.04   1
  33   3  -3 3654.44 1781.22   6
  33   3  -2 4728.63 1682.14   1
  33   3  -2 4425.91 1747.08   6
  33   3  -1 9237.09 1957.55   6
  33   3  -1 6208.98 1882.97   1
  33   3   0 11984.8 1546.90   2
  33   3   0 12056.5 1942.30   6
  33   3   1-1293.69 1398.14   6
  33   3   1-601.791 1224.41   2
  33   3   2 2937.88 1557.40   6
  33   3   2 265.622 1215.85   2
  33   3   3 9492.20 1782.81   2
  33   3   4 1837.03 1527.17   2
  33   3   5-744.197 1533.78   2
  34  -4  -5 3085.72 1606.93   1
 -34  -4   5 4091.54 1265.45   3
  34  -4  -4 10769.3 1854.73   1
 -34  -4   4 8490.07 1422.15   3
  34  -4  -3 4567.68 1657.47   1
 -34  -4   3 1202.91 1222.11   3
 -34  -4   2 13153.5 1646.50   3
  34  -4  -2 10991.9 1831.80   1
 -34  -4   1 4806.39 1387.17   3
  34  -4  -1 6479.03 1550.77   1
  34  -4   0 11236.1 1850.27   1
 -34  -4   0 14327.6 1755.59   3
 -34  -4  -1 3884.11 1480.27   3
  34  -4   1 4507.25 1554.65   1
  34  -4   2 4076.53 1671.10   1
 -34  -4  -2 252.159 1450.84   3
 -34  -2   9 8828.10 1949.55   4
  34  -2  -9 9694.12 1709.70   1
  34  -2  -9 8801.70 2019.21   6
  34  -2  -8 8354.92 1573.67   1
  34  -2  -8 4190.17 1689.45   6
  34  -2  -7 8828.58 1768.71   1
  34  -2  -7 7711.94 1645.94   6
  34  -2  -6 16148.4 1960.52   1
  34  -2  -6 17023.5 2083.84   6
  34  -2  -5 8796.05 1757.90   1
  34  -2  -5 5761.98 1587.90   6
  34  -2  -4 6913.88 1742.00   1
  34  -2  -4 7044.47 1540.54   6
  34  -2  -3 8517.26 1733.26   1
  34  -2  -3 9408.54 1756.11   6
  34  -2  -2 15912.6 2019.39   6
  34  -2  -2 12583.6 1843.22   1
  34  -2  -1 2748.79 1449.47   1
  34  -2   0 9050.14 1822.34   1
  34  -2   1 5126.91 1683.18   1
  34  -2   2 11088.6 1952.12   1
  34  -2   3 2631.12 1671.89   1
  34  -2   4 2242.16 1700.67   1
  34  -2   4-1156.36 1342.08   2
  34  -2   5 17097.3 2239.89   2
  34  -2   5 12629.6 2418.19   1
  34  -2   6 1660.00 1615.38   2
 -34   0  10-414.595 1574.56   4
  34   0 -10 3161.70 1987.74   6
  34   0 -10 227.007 1287.41   1
  34   0  -9 2443.81 1967.20   6
  34   0  -9 3280.53 1535.93   1
  34   0  -8 6577.66 1549.31   1
  34   0  -8 5058.20 1972.85   6
  34   0  -7 40285.4 3291.16   6
  34   0  -7 40846.0 2589.78   1
  34   0  -6 420.496 1387.17   1
  34   0  -6 3089.69 1860.00   6
  34   0  -5-141.550 1328.57   1
  34   0  -5-1100.72 1449.20   6
  34   0  -4 21847.7 2417.94   6
  34   0  -4 24098.1 2203.51   1
  34   0  -3 6861.27 1693.05   1
  34   0  -3 3072.30 1435.04   6
  34   0  -2 5505.38 1695.96   1
  34   0  -2 3492.46 1548.20   6
  34   0  -1 4635.74 1722.92   6
  34   0  -1 2987.30 1519.13   1
  34   0   0 13632.9 1986.11   1
  34   0   0 14875.2 2048.88   6
  34   0   1 1547.13 1542.21   6
  34   0   1-33.6121 1496.25   1
  34   0   2 927.721 1745.80   1
  34   0   3 27567.6 2921.94   1
  34   0   3 25021.6 2322.49   2
  34   0   4 13747.5 2411.84   1
  34   0   4 15195.0 2088.64   2
  34   0   5 6830.12 1495.60   7
  34   0   5 5891.67 1851.25   2
  34   0   6 2625.52 1370.84   7
  34   0   6 7260.14 1985.33   2
  34   2  -9 11948.5 2618.19   6
  34   2  -8 4439.02 2098.60   6
  34   2  -8 4889.61 1462.15   1
  34   2  -7 7964.24 2065.52   6
  34   2  -7 11195.6 1687.10   1
  34   2  -6 14680.8 1694.47   1
  34   2  -6 17630.0 2439.59   6
  34   2  -5 7051.86 1591.96   1
  34   2  -5 10411.2 2406.98   6
  34   2  -4 3735.61 1477.76   1
  34   2  -4 5900.46 1829.59   6
  34   2  -3 9711.55 1787.03   1
  34   2  -3 8124.26 1915.03   6
  34   2  -2 16718.9 2297.99   6
  34   2  -2 15825.7 2203.74   1
  34   2  -1 1711.47 1586.11   1
  34   2  -1 3443.42 1581.72   6
  34   2   0 6573.44 1656.28   6
  34   2   0 7999.03 1896.56   1
  34   2   1 5083.51 1713.81   6
  34   2   1 7183.07 2049.57   1
  34   2   2 7205.20 1336.31   7
  34   2   2 4923.48 1700.88   6
  34   2   2 6287.88 1644.25   2
  34   2   3 1290.37 1109.40   7
  34   2   3 2873.62 1409.82   2
  34   2   4 1782.06 1235.39   7
  34   2   4-757.903 1452.35   2
  34   2   5 14728.6 1820.33   7
  34   2   5 14323.2 2163.23   2
  34   2   6 1334.68 1423.96   7
  34   2   6 3017.77 1748.11   2
  34   4  -6 9368.57 2323.01   6
  34   4  -5 4558.74 2024.93   6
  34   4  -4 9246.61 2122.71   6
  34   4  -3 3775.40 1769.64   6
  34   4  -2 7796.29 2000.00   6
  34   4  -1 4596.95 1724.03   6
  34   4   0 7998.26 1909.58   6
  34   4   1 5148.46 1692.75   6
  34   4   2 2542.52 1596.90   6
  35  -3  -7 14594.7 1963.54   1
  35  -3  -6 3735.15 1560.72   1
 -35  -3   6 2138.35 1182.02   3
  35  -3  -5 735.718 1319.08   1
 -35  -3   5-1560.02 1214.34   3
  35  -3  -5 362.322 1291.60   6
 -35  -3   4 12475.6 1669.59   3
  35  -3  -4 10900.5 1711.28   6
  35  -3  -4 14963.4 2089.46   1
 -35  -3   3 12259.7 1669.56   3
  35  -3  -3 10573.9 1878.52   1
 -35  -3   2 4521.35 1482.36   3
  35  -3  -2 8381.83 1833.26   1
  35  -3  -1 3458.97 1615.65   1
 -35  -3   1 3659.54 1497.18   3
  35  -3   0 12981.6 2065.65   1
 -35  -3   0 13964.7 1880.69   3
  35  -3   1-1215.73 1566.51   1
  35  -3   2 4400.40 1676.46   1
  35  -3   3 5562.36 1860.98   1
  35  -3   4 5793.92 1854.59   1
  35  -3   4 3605.50 1619.41   2
  35  -1  -9 2748.78 1865.07   6
  35  -1  -9 5203.83 1530.43   1
  35  -1  -8 9853.81 1710.10   1
  35  -1  -8 6848.35 2094.38   6
  35  -1  -7 10565.2 1838.42   1
  35  -1  -7 6046.51 1998.76   6
  35  -1  -6 9736.07 1731.79   1
  35  -1  -6 6749.93 1883.24   6
  35  -1  -5 9706.00 2021.54   6
  35  -1  -5 12518.9 1947.93   1
  35  -1  -4-1369.95 1391.93   1
  35  -1  -4 1037.38 1397.76   6
  35  -1  -3 2069.21 1473.22   6
  35  -1  -3 4762.24 1585.48   1
  35  -1  -2 24911.4 2345.37   1
  35  -1  -2 22754.8 2399.88   6
  35  -1  -1 1840.03 1413.93   1
  35  -1  -1 1750.59 1505.76   6
  35  -1   0 8106.73 1775.95   1
  35  -1   1 1082.31 1681.84   1
  35  -1   2 15383.8 2221.81   1
  35  -1   3 8604.16 2030.79   1
  35  -1   4 2211.32 1917.99   1
  35  -1   4 2553.92 1472.30   2
  35  -1   5 14795.6 2592.72   1
  35  -1   5 15600.9 2163.48   2
  35  -1   6 5159.03 1544.41   7
  35  -1   6 2742.40 1725.81   2
  35   1  -9 4570.46 1522.71   1
  35   1  -9 6784.34 2240.54   6
  35   1  -8 8658.70 1671.51   1
  35   1  -8 10437.9 2332.53   6
  35   1  -7 11023.5 2187.64   6
  35   1  -7 9987.23 1675.20   1
  35   1  -6 6899.98 1960.56   6
  35   1  -6 7510.97 1607.46   1
  35   1  -5 8271.87 1628.31   1
  35   1  -5 6930.92 2069.61   6
  35   1  -4 3668.41 1446.71   1
  35   1  -4 5375.37 1727.96   6
  35   1  -3 1331.02 1462.96   6
  35   1  -3 4289.17 1409.43   1
  35   1  -2 23774.8 2289.33   1
  35   1  -2 24650.9 2530.57   6
  35   1  -1 5472.50 1744.18   1
  35   1  -1 5384.32 1662.03   6
  35   1   0 9085.51 1873.75   6
  35   1   0 9711.44 1934.20   1
  35   1   1 3780.17 1780.78   1
  35   1   1 4027.07 1647.69   6
  35   1   2 20235.0 2065.53   2
  35   1   2 19492.9 2611.13   1
  35   1   3 7263.47 1448.31   7
  35   1   3 5614.93 1659.77   2
  35   1   3 9526.63 2359.40   1
  35   1   4 2714.72 1314.31   7
  35   1   4 1961.24 1489.09   2
  35   1   5 15876.0 1838.01   7
  35   1   5 13689.6 2192.88   2
  35   1   6 4509.38 1576.15   7
  35   1   6 2308.43 1729.61   2
  35   3  -7 16688.1 2644.05   6
  35   3  -6 395.186 1755.16   6
  35   3  -5 996.614 1802.65   6
  35   3  -5 492.547 1393.88   1
  35   3  -4 17447.5 2102.59   1
  35   3  -4 20600.0 2719.33   6
  35   3  -3 11713.8 1936.10   1
  35   3  -3 15224.4 2469.56   6
  35   3  -2 2859.48 1622.29   1
  35   3  -2 1359.89 1685.96   6
  35   3  -1 2085.29 1803.46   1
  35   3  -1 2162.27 1529.28   6
  35   3   0 10784.1 1595.89   2
  35   3   0 12604.8 1979.55   6
  35   3   1 1891.86 1654.61   6
  35   3   1 2424.30 1344.92   2
  35   3   2 660.687 1432.42   6
  35   3   2-1319.63 1385.11   2
  35   3   3 3996.70 1770.77   2
  35   3   4 3384.18 1741.52   2
  36  -4  -2 8973.31 1858.63   1
  36  -2  -8 5383.85 1829.89   6
  36  -2  -8 6078.66 1583.01   1
  36  -2  -7 8417.44 1792.06   1
  36  -2  -7 6783.34 1857.27   6
  36  -2  -6 10534.4 1782.66   1
  36  -2  -6 8773.42 1830.42   6
  36  -2  -5 7766.66 1704.36   1
  36  -2  -5 8179.68 1761.76   6
  36  -2  -4 2220.97 1517.13   1
  36  -2  -4 495.110 1378.00   6
  36  -2  -3 6246.87 1676.24   6
  36  -2  -3 2992.18 1591.65   1
  36  -2  -2 17132.7 2078.48   6
  36  -2  -2 15549.1 2054.61   1
  36  -2  -1 1542.06 1460.62   1
  36  -2   0 10479.1 1886.83   1
  36  -2   1 3970.20 1693.19   1
  36  -2   2 16708.7 2371.04   1
  36  -2   3 2118.95 1793.67   1
  36  -2   4 1446.99 1713.73   1
  36  -2   4-284.619 1356.01   2
  36   0  -9 868.852 1422.12   1
  36   0  -9 2114.62 1980.31   6
  36   0  -8 4800.75 1581.00   1
  36   0  -8 4471.58 2018.27   6
  36   0  -7 22584.0 2667.50   6
  36   0  -7 25220.4 2327.41   1
  36   0  -6 447.724 1482.11   1
  36   0  -6-299.946 1553.67   6
  36   0  -5 987.312 1596.47   6
  36   0  -5 3386.82 1566.25   1
  36   0  -4 14483.4 2142.26   6
  36   0  -4 15303.8 1970.25   1
  36   0  -3 14929.2 1998.89   1
  36   0  -3 12777.4 2049.73   6
  36   0  -2 10266.1 1867.34   1
  36   0  -2 8944.05 1832.78   6
  36   0  -1 2571.25 1535.12   1
  36   0  -1 2421.30 1519.49   6
  36   0   0 7881.65 1905.76   1
  36   0   0 7542.26 1894.62   6
  36   0   1 1678.05 1754.06   1
  36   0   2-1341.00 1855.17   1
  36   0   3 15581.8 2151.79   2
  36   0   3 14952.1 2574.25   1
  36   0   4 12926.6 2573.82   1
  36   0   4 1150.27 1461.93   2
  36   0   5 3598.60 1485.53   7
  36   0   5 2508.47 1617.61   2
  36   2  -8 7957.78 2274.90   6
  36   2  -8 10002.1 1539.80   1
  36   2  -7 6699.46 1530.72   1
  36   2  -7 6884.00 2135.61   6
  36   2  -6 8365.78 1606.93   1
  36   2  -6 5284.68 1963.70   6
  36   2  -5 12669.3 2351.78   6
  36   2  -5 6921.12 1606.41   1
  36   2  -4 4754.07 1578.73   1
  36   2  -4 5636.23 2041.22   6
  36   2  -3 4353.12 1610.88   1
  36   2  -3 2104.86 1645.03   6
  36   2  -2 11396.7 2045.75   6
  36   2  -2 14485.5 2119.63   1
  36   2  -1 3333.23 1697.10   1
  36   2  -1 1457.17 1503.83   6
  36   2   0 12481.6 2208.88   1
  36   2   0 13243.4 2221.97   6
  36   2   1 9349.41 2182.42   1
  36   2   1 7144.30 1483.56   2
  36   2   1 9096.23 1875.68   6
  36   2   2 20950.6 1795.63   7
  36   2   2 18524.8 2097.18   2
  36   2   3 5168.82 1323.39   7
  36   2   3 3196.92 1544.61   2
  36   2   4 1311.80 1302.33   7
  36   2   4 1761.61 1571.46   2
  36   4  -3 2033.08 1682.56   6
  36   4  -2 8240.92 2062.68   6
  36   4  -1 1566.91 1553.75   6
  37  -3  -5 386.466 1685.38   1
 -37  -3   5 4460.76 1395.26   3
  37  -3  -5 2732.72 1468.79   6
  37  -3  -4 7844.00 1899.16   1
 -37  -3   4 4886.94 1432.51   3
  37  -3  -4 3977.99 1457.91   6
 -37  -3   3 9080.24 1648.89   3
  37  -3  -3 8858.49 1774.64   1
 -37  -3   2 1720.22 1430.82   3
  37  -3  -2-785.838 1469.44   1
  37  -3  -1 830.317 1475.29   1
  37  -3   0 10151.9 1872.89   1
  37  -3   1 1858.26 1607.88   1
  37  -3   2-163.024 1631.30   1
  37  -1  -8 3601.98 1581.01   1
  37  -1  -8 5077.62 1957.90   6
  37  -1  -7 4895.49 1648.86   1
  37  -1  -7 4260.82 1874.43   6
  37  -1  -6 2034.95 1519.42   1
  37  -1  -6 1744.43 1720.13   6
  37  -1  -5 5665.95 1571.70   1
  37  -1  -5 6361.63 1853.59   6
  37  -1  -4 1357.62 1608.48   6
  37  -1  -4 2863.20 1541.15   1
  37  -1  -3 3304.40 1645.53   6
  37  -1  -3 5423.26 1747.03   1
  37  -1  -2 9594.58 1836.73   1
  37  -1  -2 7933.25 1742.02   6
  37  -1  -1-232.222 1439.32   6
  37  -1  -1 261.526 1404.39   1
  37  -1   0 5219.70 1680.49   1
  37  -1   1 1827.33 1601.50   1
  37  -1   2 18038.4 2391.93   1
  37  -1   3 3334.84 1828.32   1
  37  -1   4 2050.64 1867.97   1
  37  -1   4 913.356 1520.02   2
  37   1  -8 6331.61 1617.25   1
  37   1  -8 3085.07 1843.37   6
  37   1  -7 4260.52 1922.06   6
  37   1  -7 3106.61 1483.95   1
  37   1  -6 2954.13 1827.80   6
  37   1  -6 890.670 1354.00   1
  37   1  -5 8363.39 1745.92   1
  37   1  -5 4111.29 1736.97   6
  37   1  -4 2310.39 1421.82   1
  37   1  -4 759.166 1681.96   6
  37   1  -3 7333.94 1665.31   1
  37   1  -3 7341.17 1919.74   6
  37   1  -2 8425.80 1779.03   1
  37   1  -2 8971.96 1868.96   6
  37   1  -1 3213.19 1787.16   1
  37   1  -1 4022.20 1674.39   6
  37   1   0 6821.87 1887.59   1
  37   1   0 6212.49 1804.00   6
  37   1   1 1188.72 1791.02   1
  37   1   1 779.320 1644.95   6
  37   1   2 19473.1 2094.86   2
  37   1   2 15622.4 2477.88   1
  37   1   3 543.063 1182.75   7
  37   1   3 645.001 1386.82   2
  37   1   3 823.538 1861.77   1
  37   1   4 4113.82 1433.46   7
  37   1   4 4587.26 1579.57   2
  37   3  -5 4405.87 1930.76   6
  37   3  -4 9525.96 1884.63   1
  37   3  -4 3618.93 1823.64   6
  37   3  -3 7451.62 1841.69   1
  37   3  -3 5055.94 1873.03   6
  37   3  -2 168.614 1693.31   1
  37   3  -2 542.780 1654.59   6
  37   3  -1 2858.16 1694.94   6
  37   3  -1 766.191 1684.11   1
  37   3   0 12624.3 2218.76   6
  37   3   0 8288.46 1500.51   2
  37   3   1 4091.88 1644.97   6
  37   3   1 2928.55 1423.93   2
  37   3   2-1760.53 1553.52   2
  38  -2  -6 4855.96 1775.78   1
  38  -2  -6 1859.08 1464.09   6
  38  -2  -5 10219.1 1991.72   6
  38  -2  -5 15087.9 2149.11   1
  38  -2  -4 2567.08 1579.89   1
  38  -2  -4 1445.65 1511.05   6
  38  -2  -3 2681.19 1625.03   6
  38  -2  -3 3246.92 1546.47   1
  38  -2  -2 11535.6 2028.39   1
  38  -2  -2 13644.9 2051.97   6
  38  -2  -1 5024.84 1621.55   1
  38  -2   0 16049.3 2105.01   1
  38  -2   1 5213.13 1771.12   1
  38  -2   2 13476.2 2207.27   1
  38   0  -7 8584.13 1722.29   1
  38   0  -7 10020.5 2195.76   6
  38   0  -6-2733.86 1745.91   6
  38   0  -6-64.7866 1373.43   1
  38   0  -5 6222.73 1830.76   6
  38   0  -5 9241.92 1723.38   1
  38   0  -4 7754.46 1829.57   1
  38   0  -4 8370.94 2005.51   6
  38   0  -3 31894.1 2571.12   1
  38   0  -3 30756.7 2720.14   6
  38   0  -2 404.702 1374.80   6
  38   0  -2 1525.27 1465.03   1
  38   0  -1-1209.96 1484.99   1
  38   0  -1 180.758 1405.30   6
  38   0   0 29148.5 2609.13   6
  38   0   0 23296.5 2565.63   1
  38   0   1 4213.10 1859.65   1
  38   0   2 4459.63 2073.34   1
  38   0   3 3004.91 2017.13   1
  38   0   3 2468.08 1410.32   2
  38   0   4 1581.13 1812.70   1
  38   0   4 1651.65 1511.00   2
  38   2  -6 2892.17 2002.52   6
  38   2  -6 548.316 1356.42   1
  38   2  -5 11634.2 1840.04   1
  38   2  -5 13685.6 2512.23   6
  38   2  -4-856.136 1488.12   1
  38   2  -4 2430.52 1708.90   6
  38   2  -3 3099.46 1876.28   6
  38   2  -3 3785.95 1722.99   1
  38   2  -2 11026.2 2106.24   1
  38   2  -2 10058.8 2058.28   6
  38   2  -1 6512.00 2003.51   1
  38   2  -1 6995.94 1847.31   6
  38   2   0 10084.5 2116.58   1
  38   2   0 16235.7 2232.12   6
  38   2   1 3675.15 1990.60   1
  38   2   1 5019.71 1566.32   2
  38   2   1 3199.05 1718.47   6
  38   2   2 7095.24 1705.15   2
  38   2   3 802.148 1416.38   2
  39  -1  -6 1545.11 1559.03   1
  39  -1  -6 435.042 1569.95   6
  39  -1  -5 9067.01 1950.03   6
  39  -1  -5 11134.5 1940.04   1
  39  -1  -4 1933.06 1631.79   6
  39  -1  -4-757.989 1512.62   1
  39  -1  -3 1401.31 1474.28   1
  39  -1  -3 465.720 1423.74   6
  39  -1  -2 1601.61 1521.84   1
  39  -1  -2 2800.99 1476.94   6
  39  -1  -1 7222.86 1791.67   1
  39  -1  -1 5157.32 1757.15   6
  39  -1   0 8360.67 1938.52   1
  39  -1   1-1202.97 1999.79   1
  39  -1   2 14252.6 2444.22   1
  39  -1   3 862.645 1386.50   2
  39   1  -6-270.373 1426.15   1
  39   1  -6 3982.48 2182.49   6
  39   1  -5 8479.85 1749.68   1
  39   1  -5 12315.7 2369.58   6
  39   1  -4 3172.62 1783.25   6
  39   1  -4 1445.03 1462.54   1
  39   1  -3 3978.72 1579.78   1
  39   1  -3 2499.16 1620.16   6
  39   1  -2 4987.20 1782.43   1
  39   1  -2 6873.42 1880.95   6
  39   1  -1 11406.5 2108.58   6
  39   1  -1 7244.35 1989.18   1
  39   1   0 8339.53 2084.51   1
  39   1   0 13440.8 2111.22   6
  39   1   1 1492.67 1417.99   6
  39   1   1 733.816 1737.63   1
  39   1   2 10980.7 2447.54   1
  39   1   2 6758.96 1739.65   2
  39   1   3 786.753 1214.91   7
  39   1   3 2344.18 1594.05   2
  40  -2  -3 3035.64 1665.82   1
  40  -2  -3 2416.77 1539.87   6
  40  -2  -2 2869.47 1684.66   1
  40  -2  -1 6660.90 1762.26   1
  40   0  -6 2285.72 1674.38   6
  40   0  -6 1847.64 1599.55   1
  40   0  -5-1520.01 1644.64   1
  40   0  -5-1068.70 1741.37   6
  40   0  -4 9343.29 1871.72   1
  40   0  -4 6942.39 1943.49   6
  40   0  -3 13127.0 1997.61   1
  40   0  -3 14470.1 2261.77   6
  40   0  -2 1956.06 1496.95   1
  40   0  -2-569.166 1581.89   6
  40   0  -1-1293.94 1882.39   1
  40   0  -1 803.037 1593.01   6
  40   0   0 19875.8 2439.02   6
  40   0   0 18955.0 2490.45   1
  40   0   1 1903.19 1756.00   1
  40   0   2-2234.55 1938.16   1
  40   2  -3-126.447 1716.00   6
  40   2  -3 1094.30 1649.17   1
  40   2  -2 1574.13 1744.01   1
  40   2  -2-303.374 1592.84   6
  40   2  -1 4155.85 1766.34   6
  40   2  -1 3915.72 1959.99   1
  41  -1  -3 5597.37 1625.16   1
  41  -1  -3 4724.74 1699.33   6
  41  -1  -2 1312.08 1678.41   6
  41  -1  -2 3206.55 1822.80   1
  41  -1  -1 11075.7 2092.29   1
  41   1  -3 7669.11 1947.92   1
  41   1  -3 5572.73 1825.85   6
  41   1  -2 3385.81 1737.65   1
  41   1  -2 3467.70 1631.15   6
  41   1  -1 10574.3 2087.28   6
  41   1  -1 15063.4 2469.61   1
   0   0   0    0.00    0.00   0
TITL 2014lhb061 in C2
REM C2 (#5 in standard setting)
CELL 0.71073  32.076085   6.163779  11.561837  90.0000  97.5692  90.0000
ZERR    3.00   0.002529   0.000349   0.000675   0.0000   0.0067   0.0000
LATT -7
SYMM -x, y,-z
SFAC C H N O F Sr
UNIT 63.00 21.00 3.00 30.00 24.00 6.00
TREF
HKLF 4
END
;
_shelx_hkl_checksum              76392
_olex2_date_sample_data_collection 05/07/2014
_olex2_date_sample_submission    05/07/2014
_olex2_submission_original_sample_id '2014lhb061, lhb4_070_05'
_olex2_submission_special_instructions 'No special instructions were received'
loop_
_space_group_symop_operation_xyz
'x, y, z'
'-x, y, -z'
'x+1/2, y+1/2, z'
'-x+1/2, y+1/2, -z'
loop_
_atom_site_label
_atom_site_type_symbol
_atom_site_fract_x
_atom_site_fract_y
_atom_site_fract_z
_atom_site_U_iso_or_equiv
_atom_site_adp_type
_atom_site_occupancy
_atom_site_site_symmetry_order
_atom_site_calc_flag
_atom_site_refinement_flags_posn
_atom_site_refinement_flags_adp
_atom_site_refinement_flags_occupancy
_atom_site_disorder_assembly
_atom_site_disorder_group
Sr1 Sr 0.5000 0.6613(3) 0.0000 0.0226(5) Uani 1 2 d S TU P . .
Sr2 Sr 0.52714(5) 1.3373(2) -0.28360(11) 0.0219(3) Uani 1 1 d . U . . .
F1 F 0.6521(3) 1.2979(17) 0.4661(8) 0.033(2) Uani 1 1 d . U . . .
F2 F 0.7075(3) 1.0198(19) 0.3947(9) 0.035(2) Uani 1 1 d . U . . .
F3 F 0.6795(3) 0.658(2) 0.2727(9) 0.036(2) Uani 1 1 d . U . . .
F4 F 0.5984(3) 0.5910(17) 0.2150(9) 0.032(2) Uani 1 1 d . U . . .
F11 F 0.6369(4) 1.2208(17) 0.0818(9) 0.036(2) Uani 1 1 d . U . . .
F12 F 0.7173(4) 1.0830(19) 0.1406(9) 0.040(2) Uani 1 1 d . U . . .
F13 F 0.7410(3) 0.6919(19) 0.0649(9) 0.039(2) Uani 1 1 d . U . . .
F14 F 0.6863(3) 0.4376(18) -0.0669(9) 0.034(2) Uani 1 1 d . U . . .
O1 O 0.5674(4) 1.1907(19) 0.5581(9) 0.024(2) Uani 1 1 d . U . . .
O1W O 0.5257(3) 0.3190(19) 0.1232(9) 0.0218(19) Uani 1 1 d . U . . .
H1WA H 0.5536 0.3319 0.1565 0.026 Uiso 1 1 calc R . . . .
H1WB H 0.5223 0.1923 0.0793 0.026 Uiso 1 1 calc R . . . .
O2 O 0.5481(4) 1.3883(17) 0.3969(9) 0.028(3) Uani 1 1 d . U . . .
O2W O 0.5483(3) 1.6736(17) -0.4032(8) 0.020(2) Uani 1 1 d . U . . .
H2WA H 0.5306 1.7936 -0.3977 0.030 Uiso 1 1 d GR . . . .
H2WB H 0.5471 1.6425 -0.4832 0.030 Uiso 1 1 d GR . . . .
O3 O 0.5186(4) 0.7181(18) 0.2222(9) 0.026(2) Uani 1 1 d . U . . .
O4 O 0.5109(4) 0.9633(19) 0.3544(10) 0.028(2) Uani 1 1 d . U . . .
O11 O 0.5669(4) 1.039(2) -0.1680(10) 0.028(2) Uani 1 1 d . U . . .
O12 O 0.5502(4) 0.9861(18) 0.0163(8) 0.0211(19) Uani 1 1 d . U . . .
O13 O 0.6083(4) 0.4504(19) -0.2164(10) 0.028(2) Uani 1 1 d . U . . .
O14 O 0.5632(4) 0.5403(19) -0.0940(10) 0.026(2) Uani 1 1 d . U . . .
C1 C 0.5661(5) 1.232(3) 0.4520(13) 0.023(3) Uani 1 1 d . U . . .
C2 C 0.5943(6) 1.082(3) 0.3869(13) 0.023(2) Uani 1 1 d . U . . .
C3 C 0.6367(6) 1.120(3) 0.4063(13) 0.026(3) Uani 1 1 d . U . . .
C4 C 0.6662(6) 0.980(3) 0.3685(15) 0.031(3) Uani 1 1 d . U . . .
C5 C 0.6520(6) 0.799(3) 0.3091(14) 0.029(3) Uani 1 1 d . U . . .
C6 C 0.6100(6) 0.765(3) 0.2815(16) 0.031(3) Uani 1 1 d . U . . .
C7 C 0.5792(5) 0.900(2) 0.3199(13) 0.024(2) Uani 1 1 d . U . . .
C8 C 0.5320(5) 0.852(3) 0.2958(11) 0.023(2) Uani 1 1 d . U . . .
C11 C 0.5744(5) 0.976(2) -0.0629(13) 0.022(2) Uani 1 1 d . U . . .
C12 C 0.6189(5) 0.896(3) -0.0235(13) 0.024(2) Uani 1 1 d . U . . .
C13 C 0.6482(6) 1.027(3) 0.0416(14) 0.028(3) Uani 1 1 d . U . . .
C14 C 0.6899(6) 0.963(3) 0.0733(14) 0.027(2) Uani 1 1 d . U . . .
C15 C 0.7016(6) 0.763(3) 0.0305(14) 0.029(3) Uani 1 1 d . U . . .
C16 C 0.6726(6) 0.630(3) -0.0349(15) 0.030(3) Uani 1 1 d . U . . .
C17 C 0.6302(5) 0.696(3) -0.0630(12) 0.023(2) Uani 1 1 d . U . . .
C18 C 0.5985(5) 0.552(3) -0.1307(13) 0.023(3) Uani 1 1 d . U . . .
N101 N 0.6299(5) 0.860(3) -0.3411(11) 0.031(3) Uani 1 1 d . U . . .
H101 H 0.6022 0.8580 -0.3508 0.037 Uiso 1 1 calc R . . . .
C101 C 0.6497(6) 1.031(3) -0.2920(15) 0.032(3) Uani 1 1 d . U . . .
H10A H 0.6342 1.1513 -0.2684 0.039 Uiso 1 1 calc R . . . .
C102 C 0.6931(6) 1.035(3) -0.2754(14) 0.033(3) Uani 1 1 d . U . . .
H102 H 0.7077 1.1550 -0.2378 0.040 Uiso 1 1 calc R . . . .
C103 C 0.7148(6) 0.868(3) -0.3122(16) 0.039(3) Uani 1 1 d . U . . .
H103 H 0.7447 0.8704 -0.3018 0.047 Uiso 1 1 calc R . . . .
C104 C 0.6930(6) 0.690(4) -0.3662(16) 0.039(4) Uani 1 1 d . U . . .
H104 H 0.7076 0.5713 -0.3949 0.047 Uiso 1 1 calc R . . . .
C105 C 0.6506(6) 0.692(3) -0.3758(14) 0.031(3) Uani 1 1 d . U . . .
H105 H 0.6353 0.5701 -0.4085 0.037 Uiso 1 1 calc R . . . .
loop_
_atom_site_aniso_label
_atom_site_aniso_U_11
_atom_site_aniso_U_22
_atom_site_aniso_U_33
_atom_site_aniso_U_23
_atom_site_aniso_U_13
_atom_site_aniso_U_12
Sr1 0.0336(11) 0.0204(10) 0.0143(9) 0.000 0.0052(8) 0.000
Sr2 0.0336(7) 0.0214(7) 0.0110(6) 0.0000(6) 0.0048(5) 0.0000(7)
F1 0.043(5) 0.030(5) 0.025(4) -0.004(3) 0.006(4) -0.001(3)
F2 0.041(4) 0.038(5) 0.027(5) 0.003(4) 0.007(3) 0.001(3)
F3 0.042(5) 0.037(5) 0.030(5) -0.007(4) 0.010(4) 0.006(4)
F4 0.042(5) 0.032(4) 0.025(4) -0.005(3) 0.012(4) 0.001(3)
F11 0.049(5) 0.033(4) 0.026(5) -0.006(3) 0.007(4) -0.002(4)
F12 0.045(5) 0.044(5) 0.029(5) -0.005(4) 0.002(4) -0.008(4)
F13 0.037(4) 0.043(6) 0.035(5) 0.001(4) 0.002(3) -0.004(4)
F14 0.038(5) 0.034(4) 0.029(5) -0.004(4) 0.001(4) 0.003(3)
O1 0.037(6) 0.022(5) 0.016(4) 0.000(3) 0.008(3) 0.003(5)
O1W 0.022(5) 0.015(4) 0.028(4) -0.007(4) 0.000(4) 0.001(4)
O2 0.050(6) 0.020(5) 0.017(4) 0.001(3) 0.011(4) 0.008(4)
O2W 0.038(6) 0.007(4) 0.016(4) -0.005(4) 0.008(4) 0.006(4)
O3 0.046(5) 0.018(4) 0.014(3) -0.002(3) 0.006(3) 0.005(3)
O4 0.041(5) 0.023(6) 0.021(4) -0.008(4) 0.009(4) 0.005(4)
O11 0.035(5) 0.030(5) 0.019(4) 0.004(3) 0.005(3) -0.003(4)
O12 0.035(4) 0.018(4) 0.011(4) 0.000(3) 0.008(3) 0.001(3)
O13 0.037(6) 0.029(5) 0.019(4) -0.001(4) 0.009(4) -0.001(4)
O14 0.034(4) 0.023(5) 0.022(4) 0.003(4) 0.007(3) 0.002(3)
C1 0.037(6) 0.017(5) 0.017(4) -0.001(3) 0.008(3) -0.001(4)
C2 0.041(4) 0.017(4) 0.012(4) 0.003(3) 0.007(3) 0.003(3)
C3 0.041(4) 0.025(5) 0.014(5) 0.002(4) 0.007(3) 0.001(3)
C4 0.043(4) 0.030(5) 0.021(6) 0.000(4) 0.009(3) 0.003(3)
C5 0.040(4) 0.028(5) 0.020(6) 0.000(4) 0.011(3) 0.004(3)
C6 0.041(4) 0.027(5) 0.026(6) -0.003(5) 0.010(3) 0.004(3)
C7 0.040(4) 0.020(4) 0.012(5) 0.001(4) 0.006(3) 0.003(3)
C8 0.040(4) 0.019(5) 0.011(4) -0.001(4) 0.005(3) 0.006(3)
C11 0.035(4) 0.015(5) 0.015(4) -0.002(3) 0.006(3) -0.001(3)
C12 0.036(4) 0.024(4) 0.013(5) 0.002(3) 0.007(3) -0.001(3)
C13 0.040(4) 0.029(4) 0.016(5) 0.000(4) 0.007(3) -0.006(3)
C14 0.038(4) 0.031(4) 0.012(5) 0.005(4) 0.008(3) -0.007(3)
C15 0.037(4) 0.034(4) 0.017(5) 0.003(4) 0.005(3) -0.005(3)
C16 0.035(4) 0.031(4) 0.023(6) 0.000(4) 0.003(3) 0.000(3)
C17 0.035(4) 0.024(4) 0.010(5) 0.004(3) 0.006(3) -0.002(3)
C18 0.032(4) 0.024(5) 0.015(4) 0.000(4) 0.005(3) 0.002(3)
N101 0.041(5) 0.032(6) 0.020(5) 0.003(5) 0.008(4) -0.003(4)
C101 0.045(6) 0.031(6) 0.022(7) 0.002(5) 0.009(5) -0.004(4)
C102 0.045(6) 0.039(7) 0.016(6) 0.006(5) 0.008(4) -0.004(4)
C103 0.047(6) 0.041(7) 0.030(7) 0.002(6) 0.010(5) -0.003(5)
C104 0.046(6) 0.039(7) 0.033(8) 0.002(6) 0.010(5) 0.001(5)
C105 0.047(6) 0.033(6) 0.015(6) 0.006(5) 0.010(5) -0.001(4)
loop_
_atom_type_symbol
_atom_type_description
_atom_type_scat_dispersion_real
_atom_type_scat_dispersion_imag
_atom_type_scat_source
C C 0.0033 0.0016 'International Tables Vol C Tables 4.2.6.8 and 6.1.1.4'
H H 0.0000 0.0000 'International Tables Vol C Tables 4.2.6.8 and 6.1.1.4'
F F 0.0171 0.0103 'International Tables Vol C Tables 4.2.6.8 and 6.1.1.4'
N N 0.0061 0.0033 'International Tables Vol C Tables 4.2.6.8 and 6.1.1.4'
O O 0.0106 0.0060 'International Tables Vol C Tables 4.2.6.8 and 6.1.1.4'
Sr Sr -1.5307 3.2498 'International Tables Vol C Tables 4.2.6.8 and 6.1.1.4'
loop_
_geom_angle_atom_site_label_1
_geom_angle_atom_site_label_2
_geom_angle_atom_site_label_3
_geom_angle
_geom_angle_site_symmetry_1
_geom_angle_site_symmetry_3
Sr2 Sr1 Sr2 120.61(6) 1_545 2_645
O1W Sr1 Sr2 87.5(2) . 1_545
O1W Sr1 Sr2 87.5(2) 2_655 2_645
O1W Sr1 Sr2 40.9(2) . 2_645
O1W Sr1 Sr2 40.9(2) 2_655 1_545
O1W Sr1 O1W 72.6(5) . 2_655
O3 Sr1 Sr2 45.9(3) . 2_645
O3 Sr1 Sr2 146.1(3) . 1_545
O3 Sr1 Sr2 45.9(3) 2_655 1_545
O3 Sr1 Sr2 146.1(3) 2_655 2_645
O3 Sr1 O1W 63.5(3) 2_655 2_655
O3 Sr1 O1W 131.7(3) 2_655 .
O3 Sr1 O1W 131.7(3) . 2_655
O3 Sr1 O1W 63.5(3) . .
O3 Sr1 O3 164.4(5) . 2_655
O12 Sr1 Sr2 121.9(2) 2_655 1_545
O12 Sr1 Sr2 121.9(2) . 2_645
O12 Sr1 Sr2 104.3(2) . 1_545
O12 Sr1 Sr2 104.3(2) 2_655 2_645
O12 Sr1 O1W 116.1(3) . .
O12 Sr1 O1W 145.1(3) . 2_655
O12 Sr1 O1W 116.1(3) 2_655 2_655
O12 Sr1 O1W 145.1(3) 2_655 .
O12 Sr1 O3 91.6(3) . 2_655
O12 Sr1 O3 76.1(3) 2_655 2_655
O12 Sr1 O3 91.6(3) 2_655 .
O12 Sr1 O3 76.1(3) . .
O12 Sr1 O12 77.2(5) . 2_655
O14 Sr1 Sr2 118.3(3) . 2_645
O14 Sr1 Sr2 118.3(3) 2_655 1_545
O14 Sr1 Sr2 40.1(3) 2_655 2_645
O14 Sr1 Sr2 40.1(3) . 1_545
O14 Sr1 O1W 75.0(3) . 2_655
O14 Sr1 O1W 77.5(3) . .
O14 Sr1 O1W 77.5(3) 2_655 2_655
O14 Sr1 O1W 75.0(3) 2_655 .
O14 Sr1 O3 111.9(4) 2_655 2_655
O14 Sr1 O3 72.9(4) 2_655 .
O14 Sr1 O3 111.9(4) . .
O14 Sr1 O3 72.9(4) . 2_655
O14 Sr1 O12 74.4(4) . .
O14 Sr1 O12 74.4(4) 2_655 2_655
O14 Sr1 O12 136.8(3) . 2_655
O14 Sr1 O12 136.8(3) 2_655 .
O14 Sr1 O14 145.8(5) 2_655 .
O1 Sr2 Sr1 161.2(3) 1_554 1_565
O1 Sr2 O1W 155.9(4) 1_554 2_665
O1 Sr2 O2 101.9(4) 1_554 2_655
O1 Sr2 O2W 73.2(3) 1_554 .
O1 Sr2 O3 141.7(3) 1_554 2_665
O1 Sr2 O4 74.3(4) 1_554 2_655
O1 Sr2 O13 74.8(4) 1_554 1_565
O1 Sr2 O14 123.7(4) 1_554 1_565
O1 Sr2 C1 90.7(4) 1_554 2_655
O1 Sr2 C18 99.2(4) 1_554 1_565
O1W Sr2 Sr1 39.9(2) 2_665 1_565
O1W Sr2 O3 58.5(3) 2_665 2_665
O1W Sr2 O4 82.6(4) 2_665 2_655
O1W Sr2 O13 119.0(3) 2_665 1_565
O1W Sr2 C1 78.4(3) 2_665 2_655
O1W Sr2 C18 96.6(4) 2_665 1_565
O2 Sr2 Sr1 93.7(2) 2_655 1_565
O2 Sr2 O1W 74.0(3) 2_655 2_665
O2 Sr2 O2W 85.8(3) 2_655 .
O2 Sr2 O3 64.0(3) 2_655 2_665
O2 Sr2 O4 66.2(4) 2_655 2_655
O2 Sr2 O13 154.7(3) 2_655 1_565
O2 Sr2 O14 129.2(4) 2_655 1_565
O2 Sr2 C1 18.6(4) 2_655 2_655
O2 Sr2 C18 145.5(4) 2_655 1_565
O2W Sr2 Sr1 97.8(2) . 1_565
O2W Sr2 O1W 129.0(3) . 2_665
O2W Sr2 O3 70.5(3) . 2_665
O2W Sr2 O4 130.9(3) . 2_655
O2W Sr2 O13 69.1(3) . 1_565
O2W Sr2 O14 87.0(3) . 1_565
O2W Sr2 C1 96.7(4) . 2_655
O2W Sr2 C18 74.5(4) . 1_565
O3 Sr2 Sr1 39.7(2) 2_665 1_565
O3 Sr2 C1 82.0(4) 2_665 2_655
O3 Sr2 C18 82.6(4) 2_665 1_565
O4 Sr2 Sr1 122.3(3) 2_655 1_565
O4 Sr2 O3 123.0(4) 2_655 2_665
O4 Sr2 O13 133.6(4) 2_655 1_565
O4 Sr2 C1 48.2(4) 2_655 2_655
O4 Sr2 C18 146.8(4) 2_655 1_565
O11 Sr2 Sr1 94.5(3) . 1_565
O11 Sr2 O1 81.5(4) . 1_554
O11 Sr2 O1W 85.7(4) . 2_665
O11 Sr2 O2 136.4(4) . 2_655
O11 Sr2 O2W 134.9(4) . .
O11 Sr2 O3 134.2(3) . 2_665
O11 Sr2 O4 73.3(4) . 2_655
O11 Sr2 O13 68.6(4) . 1_565
O11 Sr2 O14 76.7(4) . 1_565
O11 Sr2 C1 120.6(4) . 2_655
O11 Sr2 C18 73.5(4) . 1_565
O13 Sr2 Sr1 86.6(2) 1_565 1_565
O13 Sr2 O3 102.7(3) 1_565 2_665
O13 Sr2 C1 161.9(3) 1_565 2_655
O13 Sr2 C18 24.5(4) 1_565 1_565
O14 Sr2 Sr1 38.0(2) 1_565 1_565
O14 Sr2 O1W 72.2(3) 1_565 2_665
O14 Sr2 O3 66.2(3) 1_565 2_665
O14 Sr2 O4 142.0(3) 1_565 2_655
O14 Sr2 O13 49.0(3) 1_565 1_565
O14 Sr2 C1 144.7(4) 1_565 2_655
O14 Sr2 C18 24.8(4) 1_565 1_565
C1 Sr2 Sr1 107.0(3) 2_655 1_565
C18 Sr2 Sr1 62.2(3) 1_565 1_565
C18 Sr2 C1 164.1(4) 1_565 2_655
C1 O1 Sr2 132.8(10) . 1_556
Sr1 O1W Sr2 99.2(3) . 2_645
Sr1 O1W H1WA 111.9 . .
Sr1 O1W H1WB 111.9 . .
Sr2 O1W H1WA 111.9 2_645 .
Sr2 O1W H1WB 111.9 2_645 .
H1WA O1W H1WB 109.6 . .
C1 O2 Sr2 119.8(11) . 2_655
Sr2 O2W H2WA 112.5 . .
Sr2 O2W H2WB 112.1 . .
H2WA O2W H2WB 106.2 . .
Sr1 O3 Sr2 94.3(4) . 2_645
C8 O3 Sr1 142.9(10) . .
C8 O3 Sr2 121.2(10) . 2_645
C8 O4 Sr2 124.9(11) . 2_655
C11 O11 Sr2 138.6(11) . .
C11 O12 Sr1 110.2(9) . .
C18 O13 Sr2 91.4(10) . 1_545
Sr1 O14 Sr2 101.9(4) . 1_545
C18 O14 Sr1 158.5(11) . .
C18 O14 Sr2 93.5(9) . 1_545
O1 C1 Sr2 121.0(11) . 2_655
O1 C1 O2 127.8(15) . .
O1 C1 C2 114.0(14) . .
O2 C1 Sr2 41.6(8) . 2_655
O2 C1 C2 117.9(13) . .
C2 C1 Sr2 111.1(10) . 2_655
C3 C2 C1 116.7(14) . .
C3 C2 C7 119.1(15) . .
C7 C2 C1 123.9(15) . .
F1 C3 C2 120.6(15) . .
F1 C3 C4 116.5(16) . .
C2 C3 C4 122.9(16) . .
F2 C4 C3 120.5(16) . .
F2 C4 C5 121.3(16) . .
C5 C4 C3 118.1(17) . .
F3 C5 C4 119.9(16) . .
F3 C5 C6 119.9(16) . .
C4 C5 C6 120.2(16) . .
F4 C6 C5 116.5(15) . .
F4 C6 C7 120.1(17) . .
C5 C6 C7 123.4(17) . .
C2 C7 C8 120.7(14) . .
C6 C7 C2 116.0(16) . .
C6 C7 C8 123.2(15) . .
O3 C8 O4 126.4(16) . .
O3 C8 C7 120.3(13) . .
O4 C8 C7 113.4(14) . .
O11 C11 O12 128.0(15) . .
O11 C11 C12 116.0(13) . .
O12 C11 C12 115.8(13) . .
C13 C12 C11 121.1(15) . .
C17 C12 C11 117.8(14) . .
C17 C12 C13 120.9(16) . .
F11 C13 C12 120.7(16) . .
F11 C13 C14 117.0(15) . .
C12 C13 C14 122.3(17) . .
F12 C14 C13 122.2(17) . .
F12 C14 C15 120.9(17) . .
C15 C14 C13 116.9(16) . .
F13 C15 C14 118.0(15) . .
F13 C15 C16 120.2(16) . .
C16 C15 C14 121.4(17) . .
F14 C16 C15 117.1(16) . .
F14 C16 C17 122.1(15) . .
C15 C16 C17 120.9(17) . .
C12 C17 C16 117.7(16) . .
C12 C17 C18 121.1(15) . .
C16 C17 C18 121.3(15) . .
O13 C18 Sr2 64.2(9) . 1_545
O13 C18 O14 124.7(16) . .
O13 C18 C17 119.4(14) . .
O14 C18 Sr2 61.7(8) . 1_545
O14 C18 C17 115.9(13) . .
C17 C18 Sr2 169.6(11) . 1_545
C101 N101 H101 119.2 . .
C101 N101 C105 121.5(17) . .
C105 N101 H101 119.2 . .
N101 C101 H10A 120.3 . .
N101 C101 C102 119.5(18) . .
C102 C101 H10A 120.3 . .
C101 C102 H102 120.0 . .
C103 C102 C101 120.0(19) . .
C103 C102 H102 120.0 . .
C102 C103 H103 120.2 . .
C102 C103 C104 119.5(19) . .
C104 C103 H103 120.2 . .
C103 C104 H104 121.1 . .
C105 C104 C103 117.7(19) . .
C105 C104 H104 121.1 . .
N101 C105 C104 121.7(19) . .
N101 C105 H105 119.1 . .
C104 C105 H105 119.1 . .
loop_
_geom_bond_atom_site_label_1
_geom_bond_atom_site_label_2
_geom_bond_distance
_geom_bond_site_symmetry_2
Sr1 Sr2 4.0310(16) 2_645
Sr1 Sr2 4.0310(16) 1_545
Sr1 O1W 2.618(12) 2_655
Sr1 O1W 2.618(12) .
Sr1 O3 2.583(11) .
Sr1 O3 2.583(11) 2_655
Sr1 O12 2.560(11) 2_655
Sr1 O12 2.560(11) .
Sr1 O14 2.535(11) .
Sr1 O14 2.535(11) 2_655
Sr2 Sr1 4.0310(16) 1_565
Sr2 O1 2.541(10) 1_554
Sr2 O1W 2.675(10) 2_665
Sr2 O2 2.609(13) 2_655
Sr2 O2W 2.630(10) .
Sr2 O3 2.905(12) 2_665
Sr2 O4 2.685(13) 2_655
Sr2 O11 2.520(12) .
Sr2 O13 2.708(13) 1_565
Sr2 O14 2.653(12) 1_565
Sr2 C1 3.408(17) 2_655
Sr2 C18 3.009(16) 1_565
F1 C3 1.35(2) .
F2 C4 1.34(2) .
F3 C5 1.349(19) .
F4 C6 1.34(2) .
F11 C13 1.35(2) .
F12 C14 1.32(2) .
F13 C15 1.35(2) .
F14 C16 1.34(2) .
O1 Sr2 2.541(10) 1_556
O1 C1 1.248(18) .
O1W Sr2 2.675(10) 2_645
O1W H1WA 0.9300 .
O1W H1WB 0.9300 .
O2 Sr2 2.608(13) 2_655
O2 C1 1.252(19) .
O2W H2WA 0.9411 .
O2W H2WB 0.9406 .
O3 Sr2 2.905(12) 2_645
O3 C8 1.224(19) .
O4 Sr2 2.685(13) 2_655
O4 C8 1.226(19) .
O11 C11 1.268(19) .
O12 C11 1.279(18) .
O13 Sr2 2.709(13) 1_545
O13 C18 1.247(19) .
O14 Sr2 2.653(12) 1_545
O14 C18 1.264(19) .
C1 Sr2 3.408(17) 2_655
C1 C2 1.56(2) .
C2 C3 1.37(2) .
C2 C7 1.41(2) .
C3 C4 1.39(2) .
C4 C5 1.36(3) .
C5 C6 1.36(3) .
C6 C7 1.40(2) .
C7 C8 1.53(2) .
C11 C12 1.52(2) .
C12 C13 1.38(2) .
C12 C17 1.38(2) .
C13 C14 1.40(3) .
C14 C15 1.39(3) .
C15 C16 1.39(2) .
C16 C17 1.41(2) .
C17 C18 1.49(2) .
C18 Sr2 3.009(16) 1_545
N101 H101 0.8800 .
N101 C101 1.32(2) .
N101 C105 1.32(2) .
C101 H10A 0.9500 .
C101 C102 1.38(3) .
C102 H102 0.9500 .
C102 C103 1.34(3) .
C103 H103 0.9500 .
C103 C104 1.40(3) .
C104 H104 0.9500 .
C104 C105 1.35(3) .
C105 H105 0.9500 .
loop_
_geom_hbond_atom_site_label_D
_geom_hbond_atom_site_label_H
_geom_hbond_atom_site_label_A
_geom_hbond_distance_DH
_geom_hbond_distance_HA
_geom_hbond_distance_DA
_geom_hbond_angle_DHA
_geom_hbond_site_symmetry_A
O1W H1WB O12 0.93 1.77 2.571(15) 143.0 1_545
O2W H2WA O4 0.94 1.81 2.721(16) 160.8 2_665
N101 H101 O2W 0.88 2.09 2.861(18) 145.8 1_545
loop_
_geom_torsion_atom_site_label_1
_geom_torsion_atom_site_label_2
_geom_torsion_atom_site_label_3
_geom_torsion_atom_site_label_4
_geom_torsion
_geom_torsion_site_symmetry_1
_geom_torsion_site_symmetry_2
_geom_torsion_site_symmetry_3
_geom_torsion_site_symmetry_4
Sr1 O3 C8 O4 99(2) . . . .
Sr1 O3 C8 C7 -79(2) . . . .
Sr1 O12 C11 O11 83.5(18) . . . .
Sr1 O12 C11 C12 -101.9(13) . . . .
Sr1 O14 C18 Sr2 -136(3) . . . 1_545
Sr1 O14 C18 O13 -149(2) . . . .
Sr1 O14 C18 C17 32(4) . . . .
Sr2 O1 C1 Sr2 -37.9(18) 1_556 . . 2_655
Sr2 O1 C1 O2 13(3) 1_556 . . .
Sr2 O1 C1 C2 -174.5(10) 1_556 . . .
Sr2 O2 C1 O1 -96.2(18) 2_655 . . .
Sr2 O2 C1 C2 91.0(16) 2_655 . . .
Sr2 O3 C8 O4 -62(2) 2_645 . . .
Sr2 O3 C8 C7 119.9(13) 2_645 . . .
Sr2 O4 C8 O3 -83(2) 2_655 . . .
Sr2 O4 C8 C7 94.8(14) 2_655 . . .
Sr2 O11 C11 O12 34(3) . . . .
Sr2 O11 C11 C12 -140.1(13) . . . .
Sr2 O13 C18 O14 12.4(17) 1_545 . . .
Sr2 O13 C18 C17 -169.0(13) 1_545 . . .
Sr2 O14 C18 O13 -12.7(17) 1_545 . . .
Sr2 O14 C18 C17 168.6(12) 1_545 . . .
Sr2 C1 C2 C3 144.3(11) 2_655 . . .
Sr2 C1 C2 C7 -42.2(16) 2_655 . . .
F1 C3 C4 F2 2(2) . . . .
F1 C3 C4 C5 179.4(14) . . . .
F2 C4 C5 F3 -2(2) . . . .
F2 C4 C5 C6 -178.6(16) . . . .
F3 C5 C6 F4 -2(2) . . . .
F3 C5 C6 C7 177.3(15) . . . .
F4 C6 C7 C2 -178.5(14) . . . .
F4 C6 C7 C8 4(2) . . . .
F11 C13 C14 F12 1(2) . . . .
F11 C13 C14 C15 -179.3(13) . . . .
F12 C14 C15 F13 3(2) . . . .
F12 C14 C15 C16 176.4(15) . . . .
F13 C15 C16 F14 -4(2) . . . .
F13 C15 C16 C17 174.5(14) . . . .
F14 C16 C17 C12 178.5(14) . . . .
F14 C16 C17 C18 0(2) . . . .
O1 C1 C2 C3 -74.9(19) . . . .
O1 C1 C2 C7 98.6(18) . . . .
O2 C1 C2 C3 98.9(18) . . . .
O2 C1 C2 C7 -88(2) . . . .
O11 C11 C12 C13 101.0(17) . . . .
O11 C11 C12 C17 -73.6(19) . . . .
O12 C11 C12 C13 -74.3(19) . . . .
O12 C11 C12 C17 111.1(15) . . . .
C1 C2 C3 F1 -9(2) . . . .
C1 C2 C3 C4 170.0(15) . . . .
C1 C2 C7 C6 -171.0(14) . . . .
C1 C2 C7 C8 7(2) . . . .
C2 C3 C4 F2 -176.7(15) . . . .
C2 C3 C4 C5 1(2) . . . .
C2 C7 C8 O3 167.4(15) . . . .
C2 C7 C8 O4 -11(2) . . . .
C3 C2 C7 C6 2(2) . . . .
C3 C2 C7 C8 -179.8(14) . . . .
C3 C4 C5 F3 -178.9(14) . . . .
C3 C4 C5 C6 4(3) . . . .
C4 C5 C6 F4 175.1(15) . . . .
C4 C5 C6 C7 -6(3) . . . .
C5 C6 C7 C2 2(2) . . . .
C5 C6 C7 C8 -175.5(15) . . . .
C6 C7 C8 O3 -15(2) . . . .
C6 C7 C8 O4 166.8(16) . . . .
C7 C2 C3 F1 177.4(13) . . . .
C7 C2 C3 C4 -4(2) . . . .
C11 C12 C13 F11 7(2) . . . .
C11 C12 C13 C14 -176.3(14) . . . .
C11 C12 C17 C16 174.5(14) . . . .
C11 C12 C17 C18 -7(2) . . . .
C12 C13 C14 F12 -176.4(14) . . . .
C12 C13 C14 C15 4(2) . . . .
C12 C17 C18 Sr2 32(6) . . . 1_545
C12 C17 C18 O13 139.0(15) . . . .
C12 C17 C18 O14 -42(2) . . . .
C13 C12 C17 C16 0(2) . . . .
C13 C12 C17 C18 178.5(14) . . . .
C13 C14 C15 F13 -176.5(14) . . . .
C13 C14 C15 C16 -4(2) . . . .
C14 C15 C16 F14 -176.6(14) . . . .
C14 C15 C16 C17 2(2) . . . .
C15 C16 C17 C12 0(2) . . . .
C15 C16 C17 C18 -178.5(14) . . . .
C16 C17 C18 Sr2 -150(5) . . . 1_545
C16 C17 C18 O13 -42(2) . . . .
C16 C17 C18 O14 136.4(16) . . . .
C17 C12 C13 F11 -178.8(13) . . . .
C17 C12 C13 C14 -2(2) . . . .
N101 C101 C102 C103 2(3) . . . .
C101 N101 C105 C104 -2(2) . . . .
C101 C102 C103 C104 -1(3) . . . .
C102 C103 C104 C105 -2(3) . . . .
C103 C104 C105 N101 3(3) . . . .
C105 N101 C101 C102 -1(2) . . . .
