#------------------------------------------------------------------------------
#$Date: 2015-07-16 18:05:34 +0300 (Thu, 16 Jul 2015) $
#$Revision: 152130 $
#$URL: svn://www.crystallography.net/cod/cif/7/11/75/7117543.cif $
#------------------------------------------------------------------------------
#
# This file is available in the Crystallography Open Database (COD),
# http://www.crystallography.net/
#
# All data on this site have been placed in the public domain by the
# contributors.
#
data_7117543
loop_
_publ_author_name
'L. H. Blair'
'A. Colakel'
'R. M. Vrcelj'
'I. Sinclair'
'S. J. Coles'
_publ_section_title
;
 Metal-organic fireworks: MOFs as integrated structural scaffolds for
 pyrotechnic materials
;
_journal_name_full               Chem.Commun.
_journal_page_first              12185
_journal_paper_doi               10.1039/C5cc04174K
_journal_volume                  51
_journal_year                    2015
_chemical_formula_moiety         '0.25(C32 F16 O16 Rb4)'
_chemical_formula_sum            'C8 F4 O4 Rb'
_chemical_formula_weight         321.55
_chemical_name_systematic
;
 ?
;
_space_group_crystal_system      monoclinic
_space_group_IT_number           15
_space_group_name_Hall           '-I 2ya'
_space_group_name_H-M_alt        'I 1 2/a 1'
_symmetry_space_group_name_Hall  '-I 2ya'
_symmetry_space_group_name_H-M   'I 1 2/a 1'
_atom_sites_solution_hydrogens   .
_atom_sites_solution_primary     iterative
_audit_creation_date             2014-09-22
_audit_creation_method
;
Olex2 1.2
(compiled 2014.09.19 svn.r3010 for OlexSys, GUI svn.r4874)
;
_audit_update_record
;
2015-01-30 deposited with the CCDC.
2015-06-23 downloaded from the CCDC.
;
_cell_angle_alpha                90
_cell_angle_beta                 110.340(5)
_cell_angle_gamma                90
_cell_formula_units_Z            4
_cell_length_a                   9.2821(7)
_cell_length_b                   9.7189(7)
_cell_length_c                   10.9837(8)
_cell_measurement_reflns_used    0
_cell_measurement_temperature    293
_cell_measurement_theta_max      27.5
_cell_measurement_theta_min      3.1
_cell_volume                     929.08(12)
_computing_cell_refinement
'CrystalClear-SM Expert 3.1 b27 (Rigaku, 2013)'
_computing_data_collection
'CrystalClear-SM Expert 3.1 b27 (Rigaku, 2013)'
_computing_data_reduction
'CrystalClear-SM Expert 3.1 b27 (Rigaku, 2013)'
_computing_molecular_graphics    'Olex2 (Dolomanov et al., 2009)'
_computing_publication_material  'Olex2 (Dolomanov et al., 2009)'
_computing_structure_refinement  'ShelXL (Sheldrick, 2008)'
_computing_structure_solution
;
Superflip (Palatinus & Chapuis, 2007;Palatinus & van der Lee, 2008;
Palatinus et al., 2012)
;
_diffrn_ambient_temperature      293
_diffrn_detector                 'CCD area detector'
_diffrn_detector_area_resol_mean 28.5714
_diffrn_detector_type            'Rigaku HG Saturn724+ (2x2 bin mode)'
_diffrn_measured_fraction_theta_full 0.998
_diffrn_measured_fraction_theta_max 0.998
_diffrn_measurement_details
;
scan:
    Number of images: 180
               Slice: -107.0000 - 73.0000
         Image width: 1.0000
            Exp time: 10.0000
       Rotation axis: Omega
               Omega: 0.0000
               Kappa: 0.0000
                 Phi: -120.0000
                 XTD: 45.5059
              2theta: -16.7138
scan:
    Number of images: 84
               Slice: -62.0000 - 22.0000
         Image width: 1.0000
            Exp time: 10.0000
       Rotation axis: Omega
               Omega: 0.0000
               Kappa: -72.0000
                 Phi: 0.0000
                 XTD: 45.5059
              2theta: -16.7138
scan:
    Number of images: 71
               Slice: -49.0000 - 22.0000
         Image width: 1.0000
            Exp time: 10.0000
       Rotation axis: Omega
               Omega: 0.0000
               Kappa: -72.0000
                 Phi: -180.0000
                 XTD: 45.5059
              2theta: -16.7138
scan:
    Number of images: 98
               Slice: -25.0000 - 73.0000
         Image width: 1.0000
            Exp time: 10.0000
       Rotation axis: Omega
               Omega: 0.0000
               Kappa: 72.0000
                 Phi: 120.0000
                 XTD: 45.5059
              2theta: -16.7138
scan:
    Number of images: 15
               Slice: -31.0000 - -16.0000
         Image width: 1.0000
            Exp time: 10.0000
       Rotation axis: Omega
               Omega: 0.0000
               Kappa: 72.0000
                 Phi: -60.0000
                 XTD: 45.5059
              2theta: -16.7138
scan:
    Number of images: 104
               Slice: -31.0000 - 73.0000
         Image width: 1.0000
            Exp time: 10.0000
       Rotation axis: Omega
               Omega: 0.0000
               Kappa: 72.0000
                 Phi: -150.0000
                 XTD: 45.5059
              2theta: -16.7138
scan:
    Number of images: 16
               Slice: -68.0000 - -52.0000
         Image width: 1.0000
            Exp time: 10.0000
       Rotation axis: Omega
               Omega: 0.0000
               Kappa: -72.0000
                 Phi: 90.0000
                 XTD: 45.5059
              2theta: -16.7138
;
_diffrn_measurement_device       'four-circle \k diffractometer'
_diffrn_measurement_device_type  'Rigaku Saturn724+ (2x2 bin mode)'
_diffrn_measurement_method       'profile data from \w-scans'
_diffrn_measurement_specimen_support 'MiTeGen MicroMesh'
_diffrn_orient_matrix_type       d*Trek
_diffrn_orient_matrix_UB_11      0.008087
_diffrn_orient_matrix_UB_12      0.089357
_diffrn_orient_matrix_UB_13      -0.037122
_diffrn_orient_matrix_UB_21      -0.086514
_diffrn_orient_matrix_UB_22      -0.014510
_diffrn_orient_matrix_UB_23      -0.053774
_diffrn_orient_matrix_UB_31      -0.052863
_diffrn_orient_matrix_UB_32      0.091924
_diffrn_orient_matrix_UB_33      0.060244
_diffrn_radiation_collimation    0.3
_diffrn_radiation_monochromator  'Confocal mirrors, VHF Varimax'
_diffrn_radiation_probe          x-ray
_diffrn_radiation_type           MoK\a
_diffrn_radiation_wavelength     0.71075
_diffrn_reflns_av_R_equivalents  0.0665
_diffrn_reflns_av_unetI/netI     0.0321
_diffrn_reflns_laue_measured_fraction_full 0.998
_diffrn_reflns_laue_measured_fraction_max 0.998
_diffrn_reflns_limit_h_max       11
_diffrn_reflns_limit_h_min       -9
_diffrn_reflns_limit_k_max       12
_diffrn_reflns_limit_k_min       -12
_diffrn_reflns_limit_l_max       14
_diffrn_reflns_limit_l_min       -14
_diffrn_reflns_number            5406
_diffrn_reflns_point_group_measured_fraction_full 0.998
_diffrn_reflns_point_group_measured_fraction_max 0.998
_diffrn_reflns_theta_full        25.242
_diffrn_reflns_theta_max         27.313
_diffrn_reflns_theta_min         3.142
_diffrn_source                   'Rotating Anode'
_diffrn_source_current           55.0
_diffrn_source_power             2.475
_diffrn_source_target            Mo
_diffrn_source_type              'Rotating Anode'
_diffrn_source_voltage           45.0
_exptl_absorpt_coefficient_mu    5.394
_exptl_absorpt_correction_T_max  1.000
_exptl_absorpt_correction_T_min  0.661
_exptl_absorpt_correction_type   multi-scan
_exptl_absorpt_process_details
'CrystalClear-SM Expert 3.1 b27 (Rigaku, 2013)'
_exptl_crystal_colour            colourless
_exptl_crystal_colour_primary    colourless
_exptl_crystal_density_diffrn    2.299
_exptl_crystal_description       Block
_exptl_crystal_F_000             612
_exptl_crystal_size_max          0.1
_exptl_crystal_size_mid          0.05
_exptl_crystal_size_min          0.04
_refine_diff_density_max         3.634
_refine_diff_density_min         -0.627
_refine_diff_density_rms         0.329
_refine_ls_extinction_coef       .
_refine_ls_extinction_method     none
_refine_ls_goodness_of_fit_ref   1.098
_refine_ls_hydrogen_treatment    undef
_refine_ls_matrix_type           full
_refine_ls_number_parameters     78
_refine_ls_number_reflns         1045
_refine_ls_number_restraints     0
_refine_ls_restrained_S_all      1.098
_refine_ls_R_factor_all          0.0837
_refine_ls_R_factor_gt           0.0802
_refine_ls_shift/su_max          0.000
_refine_ls_shift/su_mean         0.000
_refine_ls_structure_factor_coef Fsqd
_refine_ls_weighting_details
'w=1/[\s^2^(Fo^2^)+(0.1526P)^2^] where P=(Fo^2^+2Fc^2^)/3'
_refine_ls_weighting_scheme      calc
_refine_ls_wR_factor_gt          0.1850
_refine_ls_wR_factor_ref         0.1900
_reflns_Friedel_coverage         0.000
_reflns_friedel_fraction_full    .
_reflns_friedel_fraction_max     .
_reflns_number_gt                948
_reflns_number_total             1045
_reflns_threshold_expression     'I > 2\s(I)'
_cod_data_source_file            c5cc04174k2.cif
_cod_data_source_block           rb_fbdc_2
_cod_depositor_comments
;
The following automatic conversions were performed:

'_exptl_absorpt_correction_type' value 'Multi-scan' changed to
'multi-scan' according to the built-in table from CIF Core dictionary
named 'cif_core.dic' version 2.4.1 from 2010-06-29.

Automatic conversion script
Id: cif_fix_values 3392 2015-05-12 13:50:21Z andrius 
;
_cod_database_code               7117543
_shelxl_version_number           2013-3
_shelx_space_group_comment
;
The symmetry employed for this shelxl refinement is uniquely defined
by the following loop, which should always be used as a source of
symmetry information in preference to the above space-group names.
They are only intended as comments.
;
_olex2_refinement_description
;
;
_shelx_res_file
;
TITL 2014ac013
CELL 0.71075 9.2821 9.7189 10.9837 90 110.34 90
ZERR 4 0.0007 0.0007 0.0008 0 0.005 0
LATT 2
SYMM 0.5-X,+Y,-Z

SFAC C F O Rb
UNIT 32 16 16 4

L.S. 4 0 0
PLAN  20
TEMP 19.85
MORE -1
BOND $H
CONF
HTAB
fmap 2 53
acta
REM <HKL>C:/Users/lhb1u10/Desktop/My%20Structures/Ayhan/2014ac013_%20Rb%20fBDC
REM %203D%20MOF/I2upona.hkl</HKL>

WGHT    0.152600
FVAR       2.99020
C1    1    0.394702    0.606090    0.707278    11.00000    0.03242    0.03485 =
         0.04377   -0.00198    0.02141    0.00422
C2    1    0.453651    0.550994    0.602459    11.00000    0.03188    0.03388 =
         0.04067   -0.00056    0.01958    0.00623
C3    1    0.517989    0.637599    0.533073    11.00000    0.03661    0.02891 =
         0.04597   -0.00128    0.02300    0.00497
C4    1    0.561904    0.588585    0.432314    11.00000    0.03211    0.03394 =
         0.04462    0.00256    0.02257    0.00365
O1    3    0.306152    0.712753    0.669404    11.00000    0.04288    0.04691 =
         0.04620    0.00277    0.02664    0.01584
O2    3    0.069781    0.951827    0.686773    11.00000    0.06084    0.04538 =
         0.04764    0.00385    0.03077    0.01336
F1    2    0.540012    0.772303    0.563663    11.00000    0.05806    0.03097 =
         0.06207   -0.00658    0.03682   -0.00070
F2    2    0.627913    0.676853    0.372790    11.00000    0.04714    0.03856 =
         0.05676    0.00299    0.03405   -0.00038
RB1   4    0.250000    0.969692    0.500000    10.50000    0.04413    0.04649 =
         0.05383    0.00000    0.02643    0.00000
HKLF 4

REM  2014ac013
REM R1 =  0.0802 for     948 Fo > 4sig(Fo)  and  0.0837 for all    1045 data
REM     78 parameters refined using      0 restraints

END

WGHT      0.1522      0.0000

REM No hydrogen bonds found for HTAB generation

REM Highest difference peak  3.634,  deepest hole -0.627,  1-sigma level  0.329
Q1    1   0.2008  0.9739  0.4178  11.00000  0.05    3.63
Q2    1   0.2500  1.0512  0.5000  10.50000  0.05    2.08
Q3    1   0.2500  0.8855  0.5000  10.50000  0.05    1.67
Q4    1   0.3461  0.9730  0.4988  11.00000  0.05    1.17
Q5    1   0.5442  0.5237  0.4028  11.00000  0.05    0.74
Q6    1   0.4824  0.7650  0.4825  11.00000  0.05    0.72
Q7    1   0.5959  0.6057  0.5037  11.00000  0.05    0.69
Q8    1   0.0638  0.8881  0.7001  11.00000  0.05    0.67
Q9    1   0.4025  0.5346  0.7294  11.00000  0.05    0.65
Q10   1   0.2677  0.7199  0.5948  11.00000  0.05    0.64
Q11   1   0.3601  0.7062  0.7497  11.00000  0.05    0.62
Q12   1   0.4035  0.5558  0.5330  11.00000  0.05    0.61
Q13   1   0.5750  0.6744  0.3019  11.00000  0.05    0.59
Q14   1   0.6753  0.6758  0.4672  11.00000  0.05    0.59
Q15   1   0.4862  0.6165  0.4626  11.00000  0.05    0.58
Q16   1   0.6513  0.6016  0.4272  11.00000  0.05    0.57
Q17   1   0.2500  0.7500  0.7500  10.50000  0.05    0.55
Q18   1   0.5543  0.6748  0.4020  11.00000  0.05    0.52
Q19   1   0.5383  0.6045  0.5809  11.00000  0.05    0.50
Q20   1   0.5918  0.7755  0.6398  11.00000  0.05    0.50
;
_shelx_res_checksum              24507
_shelx_hkl_file
;
  -1   1   0 32737.3 512.390   1
  -1   1   0 33242.2 589.020   1
  -1  -1   0 32891.2 526.280   1
  -1  -1   0 38208.8 1316.65   1
   1   1   0 29346.6 543.750   1
  -1  -1   0 29995.3 763.570   1
   1   1   0 28377.6 527.900   1
   1   0   1 72.7800 97.4400   1
   1   0   1 -68.520 93.6800   1
  -1   0  -1 74.1500 98.1300   1
  -1   0  -1 -8.8900 104.700   1
   0   0   2 243930. 2734.08   1
   0   2   0 85366.7 1690.48   1
   0  -2   0 85062.2 1597.12   1
   0  -2   0 88382.1 1214.41   1
   0   2   0 83051.9 1079.84   1
   0   2   0 81061.6 1636.09   1
   0  -2   0 82749.5 1308.04   1
   0   2   0 88453.3 1341.56   1
   0  -2   0 92012.0 1578.31   1
  -1   1   2 2153.15 130.790   1
  -1  -1   2 1682.48 249.020   1
   1  -1  -2 2168.93 122.630   1
  -1   1   2 1950.00 116.600   1
   1   1  -2 2377.13 109.590   1
  -1  -1   2 2674.73 127.200   1
   1   1  -2 3060.33 173.880   1
   1  -1  -2 2181.19 132.070   1
   1   1  -2 2359.98 187.970   1
  -1  -1   2 2363.01 154.730   1
  -2   0   0 11132.5 418.060   1
  -2   0   0 10747.5 483.280   1
   2   0   0 12537.6 586.260   1
   2   0   0 10166.3 552.850   1
   2   0   0 9676.29 251.000   1
  -1   2   1 9979.98 399.890   1
   1  -2  -1 12521.1 472.070   1
   1  -2  -1 12660.0 325.440   1
  -1   2   1 13465.8 364.130   1
  -1   2   1 9782.88 264.430   1
   1  -2  -1 11732.9 252.090   1
  -1  -2   1 14008.0 535.860   1
   1   2  -1 12797.8 420.740   1
  -1  -2   1 9904.07 304.690   1
  -1  -2   1 10078.8 340.540   1
   1   2  -1 12013.3 315.290   1
   1   2  -1 12188.1 457.940   1
  -1  -2   1 11799.0 577.280   1
   1   2  -1 11892.3 446.130   1
   2  -1  -1 53183.9 1715.20   1
   2  -1  -1 44546.4 605.280   1
  -2   1   1 47825.6 651.760   1
  -2  -1   1 46410.0 755.270   1
  -2  -1   1 43835.9 744.040   1
   2   1  -1 50422.8 819.140   1
  -2  -1   1 46797.4 839.250   1
   2   1  -1 50221.2 885.440   1
   2   1  -1 52534.0 970.130   1
   2   1  -1 48505.3 1142.02   1
   2   0  -2 257497. 3020.33   1
   2   0  -2 268319. 2694.73   1
   1   2   1 124240. 1916.71   1
  -1  -2  -1 129356. 1561.15   1
   1   2   1 119169. 2176.60   1
  -1  -2  -1 122401. 2022.60   1
  -1  -2  -1 124856. 1524.32   1
  -1  -2  -1 130726. 2149.76   1
   1   2   1 138035. 1670.60   1
  -1   2  -1 131895. 1897.66   1
   1  -2   1 127169. 1819.38   1
   1  -2   1 126968. 1483.83   1
   1  -2   1 132901. 2268.24   1
  -1   2  -1 118976. 1396.14   1
   1   0  -3 75.4000 63.9500   1
  -1   0   3 73.1000 85.4200   1
   1   0  -3 6.78000 86.5700   1
  -1   0   3 8.92000 113.050   1
   1  -1   2 38476.7 705.920   1
   1   1   2 38889.9 727.590   1
  -1   1  -2 40873.4 679.080   1
  -1  -1  -2 38010.0 661.450   1
   1   1   2 40108.1 760.150   1
  -1  -1  -2 40444.0 659.610   1
  -1  -1  -2 39952.2 1074.05   1
  -1   1  -2 41045.2 688.240   1
   0  -2  -2 67319.4 1289.15   1
   0  -2  -2 73439.9 1014.31   1
   0   2   2 71589.1 1021.53   1
   0   2   2 71472.6 1053.84   1
   0  -2  -2 68953.0 1104.64   1
   0   2   2 68495.7 1028.56   1
   0  -2   2 66061.1 902.450   1
   0   2  -2 63360.5 1103.13   1
   0  -2   2 73258.7 1236.62   1
  -2  -1  -1 857595. 4337.37   1
   2  -1   1 848363. 2621.23   1
  -2  -1  -1 836317. 2695.60   1
  -2   2   0 54392.1 702.320   1
   2  -2   0 55656.6 1137.10   1
   2  -2   0 53700.6 701.510   1
  -2  -2   0 56382.6 1015.27   1
   2   2   0 46745.6 1314.50   1
   2   2   0 49025.1 913.200   1
  -2  -2   0 54271.4 1058.70   1
  -2  -2   0 45647.3 825.350   1
   2   2   0 45343.5 927.240   1
   0  -1   3 100346. 1412.61   1
   0   1   3 103524. 1320.51   1
   0   1  -3 94432.4 1399.00   1
   0  -1   3 108177. 1308.27   1
   0   1  -3 100371. 1343.55   1
   0   1   3 107460. 1356.75   1
   0  -1  -3 100926. 1279.31   1
   0  -1   3 98745.9 1340.00   1
   0   1  -3 105530. 1334.32   1
  -2  -1   3 182770. 2506.09   1
   2  -1  -3 198971. 2136.85   1
   2   1  -3 179133. 3036.27   1
  -2  -1   3 194062. 2335.43   1
   2   1  -3 194804. 2247.13   1
  -2   1   3 191399. 2104.29   1
  -2   1   3 192553. 2412.69   1
   2  -2  -2 248085. 2541.75   1
  -2   2   2 222838. 3002.25   1
  -2  -2   2 245457. 3169.67   1
   0   3  -1 335080. 1917.20   1
   0  -3  -1 331601. 2109.13   1
   0  -3   1 327424. 1724.33   1
   0  -3   1 347667. 2173.92   1
  -3   0   1 30.0800 113.990   1
   3   0  -1 -30.460 104.990   1
  -3   0   1 3.44000 139.230   1
   3   0  -1 -66.110 99.4800   1
   3   0  -1 82.2700 128.310   1
  -1   3   0 70468.1 894.310   1
  -1   3   0 64781.5 1080.55   1
   1   3   0 65670.0 947.210   1
   1   3   0 67117.5 1029.87   1
  -1  -3   0 67039.9 932.510   1
   1   3   0 75630.1 1365.52   1
  -1  -3   0 66849.9 1272.16   1
  -1   2   3 90539.3 1254.41   1
  -1   2   3 88811.1 1352.16   1
   1  -2  -3 97849.2 1250.59   1
   1  -2  -3 97251.0 1229.61   1
  -1   2   3 95097.1 1211.40   1
   1   2  -3 101883. 1688.54   1
  -1  -2   3 89989.8 1756.14   1
  -3   1   2 15371.8 289.180   1
   3  -1  -2 19371.5 608.200   1
   3  -1  -2 16689.6 367.270   1
  -3  -1   2 16208.5 472.070   1
  -3  -1   2 18670.6 546.070   1
   3   1  -2 13207.5 464.160   1
   3   1  -2 17615.1 586.850   1
  -3  -1   2 16371.0 366.960   1
   1   0   3 14.9600 81.8600   1
  -1   0  -3 -145.51 94.8800   1
   1   0   3 29.7700 70.8100   1
  -1   0  -3 -17.110 100.320   1
   2   0   2 18936.4 482.860   1
   2   0   2 17340.5 476.600   1
  -2   0  -2 16475.4 423.920   1
  -2   0  -2 19189.7 827.740   1
   3  -1   0 108638. 1673.03   1
   3   1   0 113196. 1727.85   1
  -3   1   0 102031. 1539.00   1
  -3  -1   0 104884. 1310.08   1
   3  -1   0 106579. 1352.49   1
   3   1   0 104453. 1828.38   1
  -3  -1   0 113041. 1702.04   1
   3   1   0 119193. 1595.42   1
  -3  -1   0 105225. 1688.24   1
   1   3  -2 2804.82 170.150   1
  -1  -3   2 2347.64 202.620   1
  -1   3   2 3189.36 231.060   1
   1  -3  -2 2904.08 178.690   1
   1   3  -2 2505.55 254.560   1
   1   3  -2 2108.81 228.270   1
   1  -3  -2 2642.69 161.850   1
  -1   3   2 1716.76 124.240   1
   1   3  -2 2082.16 124.320   1
  -1  -3   2 1715.88 174.370   1
  -1  -3   2 2250.18 218.510   1
   1  -3  -2 2548.32 173.930   1
  -1  -3   2 1719.82 179.710   1
   1  -3  -2 2048.12 116.650   1
  -1   3   2 2517.09 156.050   1
   3   0  -3 60.6600 104.890   1
   3   0  -3 -46.420 70.7900   1
   3   0  -3 -22.090 106.130   1
  -3   0   3 -20.640 75.5100   1
   3   0  -3 34.0300 67.1000   1
  -3   0   3 60.9300 119.680   1
   2   0  -4 56311.8 796.480   1
  -2   0   4 55889.0 967.370   1
   2  -3  -1 240695. 3000.80   1
  -2  -3   1 213591. 2768.87   1
   2   3  -1 238208. 2804.02   1
   2   3  -1 223447. 2732.30   1
  -1  -1   4 53234.4 969.170   1
  -1   1   4 55144.9 980.440   1
   1  -1  -4 45755.1 684.870   1
   1   1  -4 49482.9 754.660   1
  -1  -1   4 45489.3 680.980   1
   1   1  -4 52751.6 894.170   1
   1  -1  -4 54370.4 876.190   1
   3  -2  -1 1283.87 155.060   1
   3  -2  -1 1159.54 94.0100   1
  -3   2   1 1043.41 78.6600   1
   3   2  -1 1204.12 198.160   1
  -3  -2   1 1066.91 153.370   1
   3   2  -1 1185.39 184.660   1
  -3  -2   1 1054.78 104.520   1
   3   2  -1 1058.94 114.570   1
  -3  -2   1 1216.80 147.750   1
  -3  -2   1 1149.68 201.960   1
   3   2  -1 1096.42 176.920   1
   0   0   4 11730.9 377.680   1
   0   0  -4 11397.0 383.980   1
   0   0   4 11536.1 335.820   1
   0   0  -4 12507.4 354.660   1
   3   0   1 35.3500 112.390   1
  -3   0  -1 -30.980 148.770   1
  -3   0  -1 -10.920 104.820   1
  -3   0  -1 -27.570 89.3900   1
   3   0   1 33.1800 106.260   1
  -1  -3  -2 63303.3 1408.74   1
   1   3   2 60955.3 1400.13   1
  -1  -3  -2 70703.2 1079.14   1
   1   3   2 67235.9 966.330   1
   1   3   2 71912.0 1200.35   1
  -1  -3  -2 75743.2 1300.06   1
   1  -3   2 67682.5 1035.00   1
  -1   3  -2 72458.6 1081.15   1
   1   2   3 48.1100 113.540   1
  -1  -2  -3 102.050 88.9600   1
   1   2   3 98.1400 92.0000   1
  -1  -2  -3 46.5700 83.1400   1
  -1  -2  -3 199.500 161.200   1
  -1   2  -3 117.250 132.690   1
   1  -2   3 168.570 93.7500   1
  -1   2  -3 80.0800 90.2900   1
   1  -2   3 88.8100 68.1400   1
  -1   2  -3 75.4100 74.3700   1
   1  -2   3 211.870 125.790   1
  -2  -2  -2 291907. 3092.03   1
  -2  -2  -2 274430. 1619.58   1
  -2   2  -2 290690. 1668.06   1
  -2  -2  -2 266297. 3361.50   1
  -2   2  -2 278445. 1822.33   1
   0  -4   0 94236.4 1205.57   1
   0   4   0 94320.4 1440.18   1
   0  -4   0 95322.3 1380.01   1
   0  -4   0 102232. 1631.51   1
   0  -4   0 90594.4 1290.24   1
   2   3   1 23783.2 922.390   1
  -2   3  -1 31119.1 820.640   1
   2   3   1 29977.2 625.490   1
   2   3   1 28550.2 755.720   1
  -2   3  -1 28939.2 518.130   1
   2  -3   1 26835.1 483.570   1
  -2  -3  -1 31818.8 710.830   1
   2  -3   1 26496.2 500.640   1
  -2  -3  -1 32431.6 1091.62   1
   2  -3   1 31323.1 946.330   1
  -2  -3  -1 30071.9 590.380   1
   2   3   1 24820.9 716.470   1
   3  -2  -3 87302.1 1048.61   1
  -3   2   3 84054.1 1064.60   1
  -3   2   3 77661.2 1058.46   1
  -3  -2   3 80182.2 1390.50   1
   3   2  -3 81809.6 1517.76   1
   3   2  -3 73895.6 1546.52   1
  -3  -2   3 81635.0 1271.64   1
   3   2  -3 74860.2 1476.62   1
   0   3   3 1161.10 135.880   1
   0   3   3 1023.74 92.5700   1
   0  -3  -3 1224.44 138.460   1
   0  -3  -3 1169.07 168.680   1
   0  -3  -3 1460.34 122.920   1
   0   3   3 1625.06 158.480   1
   0  -3   3 1647.79 223.530   1
   0  -3   3 1146.84 140.340   1
   0   3  -3 1262.60 108.600   1
   0   3  -3 906.240 113.700   1
   0   3  -3 1958.88 225.440   1
   0  -3   3 1010.61 82.3900   1
   2  -2  -4 366874. 1708.02   1
  -2  -2   4 351712. 2716.91   1
  -2  -2   4 343370. 2162.18   1
   2   2  -4 339131. 4319.29   1
   1   4  -1 882.380 120.120   1
  -1  -4   1 600.400 166.920   1
  -1   4   1 921.020 158.830   1
  -1  -4   1 912.930 214.820   1
   1   4  -1 671.370 220.350   1
   1  -4  -1 827.100 222.020   1
   1   4  -1 567.010 133.380   1
   1  -4  -1 751.390 139.490   1
  -1  -4   1 701.490 150.840   1
  -1  -4   1 777.580 164.140   1
   1  -4  -1 637.210 114.800   1
  -1   4   1 844.410 108.300   1
  -1   4   1 922.380 138.410   1
  -1   4   1 717.010 103.610   1
   1  -4  -1 579.290 85.0400   1
   1   4  -1 548.380 96.6200   1
   2  -3  -3 90970.6 1253.92   1
  -2   3   3 91665.1 1210.58   1
  -2   3   3 96386.6 1233.08   1
   2   3  -3 94109.9 2002.85   1
  -2  -3   3 96168.6 1925.17   1
  -2  -3   3 84677.2 1645.07   1
   4   0  -2 572407. 2681.78   1
   3   1  -4 99210.1 1908.23   1
   3  -1  -4 104614. 1293.43   1
   3   1  -4 113536. 1470.09   1
  -3  -1   4 97009.1 1464.70   1
   3  -1  -4 98612.3 1226.78   1
   3   1  -4 107118. 1369.81   1
  -3   1   4 110406. 1359.78   1
  -3   1   4 104408. 1458.07   1
   0  -2  -4 87593.3 1285.07   1
   0   2   4 95984.8 1335.23   1
   0   2   4 96482.1 1333.48   1
   0  -2   4 86433.6 1306.73   1
   0   2  -4 85415.5 1306.00   1
   0  -2   4 101782. 1494.52   1
   0  -2   4 96121.8 1197.02   1
   0   2  -4 93307.2 1296.52   1
  -3   2  -1 408.010 117.970   1
   3  -2   1 267.550 87.3800   1
   3  -2   1 184.140 126.890   1
  -3   2  -1 313.820 103.090   1
   3  -2   1 394.510 106.010   1
  -3  -2  -1 235.090 163.280   1
   3   2   1 265.580 168.000   1
   3   2   1 256.400 135.100   1
   3   2   1 479.840 136.190   1
  -3  -2  -1 243.690 112.690   1
   3   2   1 292.790 106.530   1
  -3  -2  -1 391.430 125.310   1
  -2  -1  -3 155751. 2837.26   1
   2   1   3 147935. 1785.48   1
   2  -1   3 159562. 1990.59   1
   2   1   3 155735. 1911.34   1
  -2  -1  -3 148801. 1959.81   1
  -2   1  -3 152343. 1789.88   1
  -1  -4  -1 175197. 2673.88   1
   1   4   1 179384. 2401.22   1
   1   4   1 187183. 2109.15   1
   1   4   1 176846. 2101.17   1
   1   4   1 183036. 2614.02   1
  -1  -4  -1 183968. 2289.81   1
  -1   4  -1 190230. 2034.52   1
   1  -4   1 180974. 1955.61   1
   1  -4   1 197245. 2158.29   1
   1  -4   1 199163. 2689.38   1
   4   1  -1 250592. 2966.79   1
   4  -1  -1 266272. 2891.73   1
   4   1  -1 240136. 3079.80   1
  -4  -1   1 248122. 2925.86   1
   4   1  -1 244254. 2918.58   1
   4   1  -1 242113. 2589.84   1
  -4   1   1 243288. 2921.36   1
   3  -3  -2 106713. 1313.11   1
   3  -3  -2 104839. 1965.90   1
   3   3  -2 98072.4 1656.48   1
   3   3  -2 102693. 1598.88   1
  -3  -3   2 109371. 2289.37   1
   3   3  -2 107248. 2450.75   1
   3   3  -2 95143.3 1896.88   1
  -3  -3   2 91710.0 1673.28   1
  -3  -3   2 108281. 1757.38   1
  -1   1  -4 114.320 92.3800   1
   1  -1   4 18.2400 92.1100   1
  -1   1  -4 71.4800 95.5900   1
  -1  -1  -4 107.850 85.5900   1
   1  -1   4 176.110 92.6500   1
   1   1   4 136.970 93.6600   1
  -1   1  -4 39.1900 88.3600   1
  -1  -1  -4 17.0500 80.6400   1
   1   1   4 51.7200 92.6600   1
   0   4   2 40454.8 762.050   1
   0   4   2 45327.3 845.220   1
   0   4   2 37907.7 697.210   1
   0  -4  -2 34825.3 648.850   1
   0   4   2 34470.1 853.140   1
   0  -4  -2 36343.6 1092.17   1
   0  -4   2 36671.5 966.520   1
   0  -4   2 38169.9 922.940   1
  -1   0   5 -12.260 104.880   1
   1   0  -5 -85.690 86.1400   1
   1   0  -5 36.1500 79.4800   1
  -1   0   5 5.40000 86.4400   1
  -4   0   0 77701.4 1299.91   1
   4   0   0 78814.8 1032.52   1
  -4   0   0 72660.5 995.710   1
  -4  -1   3 108420. 1245.02   1
   4   1  -3 111952. 1527.83   1
   4  -1  -3 113770. 1423.75   1
   4   1  -3 113476. 1675.42   1
  -4  -1   3 111341. 1560.87   1
   4  -1  -3 104111. 1245.02   1
   4   1  -3 102318. 1304.05   1
  -3  -1  -2 47776.7 801.770   1
   3   1   2 42863.6 1247.19   1
   3  -1   2 47172.7 855.250   1
   3   1   2 50304.4 984.750   1
  -3   1  -2 53175.0 1055.28   1
  -3  -1  -2 53445.2 1089.28   1
   3   1   2 53094.9 916.940   1
   3  -1   2 56333.2 915.430   1
   3  -3   0 10061.2 472.350   1
   3  -3   0 10543.2 588.290   1
  -3   3   0 9692.59 251.910   1
   3  -3   0 11067.6 323.680   1
   3   3   0 7877.41 587.300   1
   3   3   0 11009.4 448.470   1
  -3  -3   0 10998.5 415.390   1
  -3  -3   0 7193.36 393.250   1
   3   3   0 9438.07 440.910   1
  -3  -3   0 11193.9 577.290   1
  -3  -3   0 9138.55 323.860   1
   2   1  -5 38131.9 854.250   1
   2   1  -5 39437.3 834.350   1
  -2   1   5 33506.5 661.280   1
   2   1  -5 40324.6 937.030   1
  -2  -1   5 33910.0 755.770   1
   2  -1  -5 35348.9 605.040   1
   2  -1  -5 38513.1 688.720   1
   2  -4   0 55417.5 735.230   1
   2   4   0 63667.3 1573.79   1
   2   4   0 64248.6 1136.20   1
  -2  -4   0 54006.5 1034.58   1
  -2  -4   0 53662.5 1056.48   1
   2   4   0 60022.4 1148.46   1
   1  -3  -4 8590.55 366.700   1
  -1   3   4 8612.54 339.370   1
   1  -3  -4 8589.99 297.890   1
  -1   3   4 8763.96 281.100   1
  -1  -3   4 9895.42 417.970   1
   1   3  -4 8970.77 400.660   1
   1   3  -4 11156.9 529.620   1
  -1  -3   4 11093.9 374.170   1
  -1  -3   4 9625.59 391.780   1
   1   3  -4 9126.24 653.640   1
   1   3  -4 8273.40 279.670   1
   2  -4  -2 11088.5 356.500   1
   2  -4  -2 9960.82 273.730   1
   2  -4  -2 13217.6 453.350   1
  -2   4   2 10512.3 301.610   1
   2   4  -2 10845.2 542.980   1
   2   4  -2 8943.48 411.680   1
   2   4  -2 10561.5 595.260   1
  -2  -4   2 10478.6 540.850   1
   2   4  -2 7989.67 342.250   1
   2   4  -2 10704.5 569.320   1
  -2  -4   2 10300.5 348.390   1
  -4   2   2 5156.32 517.600   1
   4  -2  -2 5613.21 194.660   1
   4  -2  -2 6213.63 237.000   1
   4  -2  -2 6126.77 346.730   1
   4   2  -2 6817.79 368.130   1
  -4  -2   2 5264.45 313.270   1
   4   2  -2 5083.98 329.140   1
  -4  -2   2 5647.94 359.190   1
   4   2  -2 5227.08 224.790   1
  -4  -2   2 4480.40 209.740   1
  -4  -2   2 4676.41 236.410   1
   4   2  -2 3566.44 237.640   1
   4   0  -4 77294.8 1025.93   1
   4   0  -4 75363.6 1202.30   1
   4   0  -4 74106.5 1006.35   1
   3   0  -5 -7.0900 79.7900   1
   3   0  -5 66.1200 85.4200   1
  -3   0   5 -49.940 96.3900   1
  -3   0   5 -65.490 93.6900   1
   3   0  -5 18.7900 163.050   1
   1  -4  -3 9342.86 309.290   1
   1  -4  -3 7766.44 330.050   1
  -1   4   3 8872.58 305.080   1
   1  -4  -3 10222.2 415.350   1
   1  -4  -3 8093.77 270.060   1
  -1   4   3 8767.60 306.560   1
  -1   4   3 9572.79 317.800   1
  -1  -4   3 8879.44 448.850   1
   1   4  -3 12019.4 605.440   1
   1   4  -3 8354.53 269.570   1
  -1  -4   3 8632.27 307.910   1
  -1  -4   3 8832.33 288.220   1
   0   1  -5 108536. 1427.77   1
   0   1   5 110726. 1362.43   1
   0  -1   5 103295. 1395.59   1
   0  -1  -5 104317. 1346.65   1
   0   1  -5 100961. 1484.13   1
   0   1  -5 104292. 1680.25   1
   0  -1   5 109987. 1557.35   1
   0   1   5 102528. 1421.76   1
   1  -2  -5 247.500 84.5200   1
  -1   2   5 337.920 78.5200   1
   1  -2  -5 416.810 104.630   1
  -1   2   5 453.830 104.700   1
  -1  -2   5 372.920 80.9000   1
  -1  -2   5 259.250 114.110   1
   1   2  -5 482.690 193.440   1
   1   2  -5 304.240 89.4500   1
  -1  -2   5 325.510 89.9900   1
   1   2  -5 281.300 77.7300   1
   4   2   0 53357.3 871.710   1
  -4   2   0 49992.8 1012.23   1
  -4  -2   0 56038.3 1101.42   1
   4  -2   0 62906.2 1190.11   1
   4   2   0 54228.9 1050.52   1
  -4  -2   0 50827.0 1032.15   1
   4   2   0 46895.8 1297.89   1
  -4  -1  -1 9900.77 395.980   1
   4   1   1 10261.7 375.580   1
  -4   1  -1 10349.7 416.090   1
   4   1   1 12294.5 416.890   1
   4  -1   1 11637.2 407.610   1
  -4   1  -1 11896.6 333.560   1
  -4  -1  -1 11472.9 336.490   1
   4   1   1 8383.98 518.350   1
  -4  -1  -1 10659.7 444.540   1
   4  -1   1 11515.2 330.520   1
   4  -1   1 12436.0 462.230   1
   2   0   4 54924.5 828.630   1
  -2   0  -4 49299.9 946.450   1
   2   0   4 51171.3 815.180   1
  -3  -3   4 63178.1 1245.75   1
   3   3  -4 60270.1 1046.30   1
  -3   3   4 62347.7 894.500   1
   3  -3  -4 64355.7 914.810   1
   3   3  -4 65324.1 1428.06   1
   3   3  -4 60048.7 1084.96   1
   3  -3  -4 60164.7 1188.88   1
  -3   3   4 68078.9 1095.87   1
   3  -3  -4 68013.1 909.490   1
  -3   0  -3 -29.460 117.170   1
  -3   0  -3 -78.620 117.800   1
   3   0   3 -96.950 133.430   1
  -3   0  -3 48.8400 180.570   1
   0  -5   1 62056.3 1423.88   1
   0  -5  -1 52479.4 1093.83   1
   0   5  -1 64459.5 1290.48   1
   0   5   1 67293.2 1295.92   1
   0  -5  -1 59777.4 983.450   1
   0  -5   1 60809.3 1094.79   1
   0  -5  -1 52668.1 905.910   1
   0   5   1 54582.8 897.310   1
   0   5   1 61531.8 857.030   1
   0   5   1 52268.8 1048.25   1
   0   5  -1 56070.4 786.380   1
   0  -5   1 63504.8 902.430   1
   0  -5  -1 58016.8 819.800   1
   3  -4  -1 47040.9 743.840   1
   3  -4  -1 54000.0 904.860   1
   3   4  -1 48604.6 1528.60   1
   3   4  -1 43989.8 919.290   1
   3   4  -1 43169.6 981.210   1
   3   4  -1 44598.9 955.200   1
  -3  -4   1 45885.0 1003.39   1
  -3  -4   1 47543.6 995.080   1
  -3  -4   1 50107.4 1366.89   1
   1  -5   0 124083. 1475.57   1
  -1  -5   0 124002. 1451.33   1
   1  -5   0 129187. 1837.27   1
   1   5   0 125789. 1954.60   1
   1  -5   0 139429. 1805.14   1
   1   5   0 125029. 1759.00   1
  -2  -3  -3 5239.22 372.320   1
   2   3   3 5417.13 384.110   1
  -2  -3  -3 4979.27 213.000   1
   2   3   3 6234.90 257.930   1
   2   3   3 5910.29 251.360   1
  -2  -3  -3 5012.54 248.610   1
  -2   3  -3 5213.72 493.850   1
   2  -3   3 5095.62 358.190   1
  -2   3  -3 4364.42 194.500   1
  -2   3  -3 5526.38 269.210   1
   2  -3   3 4311.05 178.010   1
   2  -3   3 6263.17 301.190   1
  -4  -2   4 876.520 127.970   1
   4   2  -4 1223.52 202.680   1
   4   2  -4 528.080 90.0900   1
   4   2  -4 584.830 117.240   1
  -4  -2   4 690.740 119.730   1
  -4  -2   4 499.280 70.2900   1
   4   2  -4 859.320 99.7600   1
   4  -2  -4 931.280 102.240   1
   4   2  -4 1091.63 178.420   1
   4  -2  -4 846.900 88.6400   1
  -4   2   4 916.920 102.030   1
  -3   2   5 5171.54 222.870   1
  -3  -2   5 5484.04 263.390   1
   3   2  -5 5979.33 340.880   1
   3   2  -5 4917.95 523.910   1
   3   2  -5 4093.91 205.570   1
  -3   2   5 6455.45 261.710   1
  -3  -2   5 5768.69 277.200   1
  -3   2   5 6923.84 281.780   1
   3   2  -5 4746.39 191.030   1
   3  -2  -5 3962.40 165.590   1
  -4   3   1 58010.7 1602.90   1
  -4   3   1 62157.9 868.770   1
  -4  -3   1 59312.5 974.660   1
   4   3  -1 57548.3 1439.00   1
   4   3  -1 56860.8 952.660   1
  -4  -3   1 63106.2 1510.56   1
   1   0   5 -48.600 86.4900   1
   1   0   5 52.9000 99.4500   1
  -1  -3  -4 23072.5 740.100   1
   1   3   4 23389.7 483.010   1
  -1  -3  -4 21532.0 558.620   1
   1   3   4 27397.6 606.750   1
   1  -3   4 24404.4 598.880   1
  -1   3  -4 22859.2 442.700   1
  -1   3  -4 28131.0 962.520   1
  -1   3  -4 26573.2 626.410   1
   1  -3   4 24507.8 548.120   1
   1  -3   4 27544.3 791.050   1
   1   4   3 29634.0 634.370   1
  -1  -4  -3 26518.3 596.510   1
   1   4   3 31709.0 702.800   1
  -1  -4  -3 30015.3 897.230   1
   1   4   3 28792.0 823.650   1
   1   4   3 31112.0 596.210   1
  -1   4  -3 31620.8 619.700   1
   1  -4   3 33395.8 733.800   1
  -1   4  -3 36376.8 1247.85   1
   1  -4   3 31816.8 559.640   1
   2   4   2 46413.3 1219.16   1
  -2  -4  -2 39860.5 788.050   1
   2   4   2 40401.9 753.470   1
   2   4   2 46539.9 930.360   1
  -2  -4  -2 41688.0 860.150   1
  -2  -4  -2 48462.0 1278.68   1
  -2   4  -2 38315.0 652.460   1
  -2   4  -2 44327.5 845.680   1
   2  -4   2 39809.2 714.460   1
   2  -4   2 41553.8 1201.96   1
   2  -4   2 42785.9 687.070   1
   4  -3  -3 117793. 2073.74   1
   4  -3  -3 129255. 1495.79   1
   4   3  -3 136363. 2970.14   1
  -4  -3   3 118112. 1859.49   1
   4   3  -3 131016. 2051.01   1
   4   3  -3 120409. 1664.77   1
   4   3  -3 137132. 2408.63   1
   3   3   2 32685.9 678.540   1
   3   3   2 31749.9 678.500   1
  -3  -3  -2 36218.1 1042.17   1
   3   3   2 27087.7 853.180   1
   3  -3   2 34283.7 644.610   1
  -3   3  -2 29109.3 550.610   1
   3  -3   2 31551.2 1030.79   1
  -3   3  -2 29970.8 776.060   1
   3  -3   2 28540.0 581.250   1
   5   0  -3 -40.120 99.8600   1
   5   0  -3 -12.880 121.530   1
   5   0  -3 -25.480 113.650   1
   5   0  -3 -110.27 162.350   1
   5   0  -3 90.5100 101.420   1
   5   0  -3 36.7700 70.1800   1
  -2   0   6 46194.7 848.910   1
   1  -5  -2 68249.4 1086.99   1
  -1   5   2 56206.4 892.840   1
   1   5  -2 65046.3 1310.99   1
  -5   0   1 -44.370 165.090   1
   5   0  -1 -53.660 130.570   1
   5   0  -1 -65.820 152.760   1
   5   0  -1 100.960 109.520   1
   5   1  -2 18782.9 448.740   1
   5   1  -2 15421.6 491.540   1
   5  -1  -2 18010.0 487.550   1
  -5  -1   2 15710.3 529.530   1
   5  -1  -2 15763.6 454.860   1
   5   1  -2 16792.8 611.830   1
   5   1  -2 13948.9 420.870   1
  -5   1   2 15190.0 469.940   1
  -5  -1   2 16064.5 431.790   1
  -4  -1   5 62864.8 924.920   1
  -4  -1   5 61649.2 1040.53   1
  -4   1   5 67820.8 1016.45   1
   4   1  -5 65630.5 1011.92   1
   4   1  -5 67388.0 928.880   1
  -3   4   3 5837.65 254.940   1
   3  -4  -3 6191.26 260.750   1
   3  -4  -3 5812.79 309.110   1
   3   4  -3 6586.81 456.980   1
   3   4  -3 7145.25 384.820   1
  -3  -4   3 4791.34 255.030   1
  -3  -4   3 6096.17 329.760   1
   3   4  -3 6060.25 392.160   1
  -3  -4   3 7047.35 556.110   1
   3   4  -3 6369.06 439.650   1
  -2   3   5 1913.97 117.260   1
   2  -3  -5 2021.51 137.370   1
   2   3  -5 2153.64 128.480   1
  -2  -3   5 2583.19 184.230   1
  -2  -3   5 2958.77 151.150   1
  -2   3   5 2068.44 153.850   1
   2   3  -5 3550.36 278.020   1
  -2  -3   5 2259.30 192.080   1
   2   3  -5 2432.83 177.550   1
  -2  -3   5 2795.38 151.250   1
   2   3  -5 2551.87 382.060   1
  -2   3   5 2294.02 212.930   1
  -2   2  -4 8228.79 619.040   1
   2   2   4 7556.63 298.180   1
  -2  -2  -4 11329.4 663.690   1
   2  -2   4 7560.46 338.110   1
   2  -2   4 8638.80 333.930   1
  -2   2  -4 8500.51 327.140   1
  -2   2  -4 7682.04 262.720   1
   2   2   4 9454.72 331.900   1
   4   0   2 66604.5 1007.25   1
   4   0   2 65380.8 2265.13   1
  -4   0  -2 66502.9 1188.58   1
   4   0   2 60115.5 978.650   1
   2  -4  -4 34005.6 666.190   1
   2   4  -4 32642.4 663.950   1
   2  -4  -4 38800.4 745.600   1
  -2  -5   1 7090.28 250.240   1
   2   5  -1 4997.92 336.090   1
  -2  -5   1 4554.88 248.280   1
   2   5  -1 6851.19 454.480   1
   2  -5  -1 5220.43 189.940   1
   2  -5  -1 7617.51 337.900   1
  -2  -5   1 6422.80 373.870   1
   2  -5  -1 8755.55 470.890   1
   3  -2   3 2102.46 137.400   1
   3  -2   3 2752.67 193.370   1
  -3   2  -3 2216.06 186.350   1
  -3   2  -3 2939.75 194.880   1
   3   2   3 2190.15 148.560   1
   3   2   3 2328.06 162.460   1
  -3  -2  -3 2449.99 250.730   1
   3   2   3 2308.67 248.160   1
   1   1  -6 56846.3 1012.51   1
  -1  -1   6 69623.8 991.880   1
   1   1  -6 65892.9 1137.74   1
   1   1  -6 65726.6 1314.19   1
  -1  -1   6 60799.2 958.910   1
  -1   1   6 64532.2 1029.35   1
  -1   1   6 63580.7 846.530   1
   0   4   4 8848.02 379.080   1
   0   4   4 9408.34 336.310   1
   0   4   4 9483.52 366.180   1
   0  -4  -4 7008.54 296.630   1
   0   4  -4 11063.4 666.760   1
   0  -4   4 9026.99 495.520   1
   0   4  -4 7395.91 235.690   1
   0  -4   4 9692.62 322.930   1
   0  -4   4 9819.67 372.090   1
   0   4  -4 11482.2 580.170   1
   3  -4   1 15572.5 395.980   1
   3   4   1 16229.3 545.440   1
   3  -4   1 13694.3 635.600   1
   3   4   1 13364.2 643.390   1
  -3   4  -1 17241.8 835.400   1
  -3   4  -1 13538.9 560.770   1
  -3  -4  -1 15709.3 443.910   1
   3   4   1 17627.6 546.190   1
  -3  -4  -1 15071.7 722.670   1
  -3  -1   6 1171.27 103.950   1
   3   1  -6 1630.47 180.090   1
   3   1  -6 1930.75 203.300   1
   3   1  -6 942.900 94.8400   1
  -3   1   6 1093.59 109.180   1
  -3  -1   6 781.110 110.640   1
  -3   1   6 1215.02 115.130   1
   1   2   5 427.630 110.430   1
   1  -2   5 351.340 85.9400   1
  -1  -2  -5 290.840 117.420   1
   1  -2   5 440.420 136.840   1
  -1   2  -5 488.010 99.1400   1
  -1   2  -5 396.830 97.3300   1
   1   2   5 329.660 103.020   1
  -1   2  -5 345.260 158.960   1
   0   3   5 64406.1 774.120   1
   0   3   5 69107.8 846.580   1
   0  -3  -5 57790.8 1220.01   1
   0   3   5 72553.0 1157.62   1
   0  -3   5 62356.6 696.110   1
   0   3  -5 70900.0 969.010   1
   0  -3   5 63103.2 904.110   1
   0  -3   5 64390.8 894.670   1
  -1  -5  -2 2681.51 232.200   1
   1   5   2 3389.97 200.450   1
   1   5   2 3032.50 261.550   1
  -1  -5  -2 3556.05 210.140   1
   1   5   2 3405.18 192.390   1
  -1  -5  -2 3585.78 175.420   1
   1  -5   2 3894.14 194.190   1
  -1   5  -2 3125.09 154.790   1
  -1   5  -2 4943.47 311.000   1
   1  -5   2 4078.46 206.690   1
   1  -5   2 4407.62 285.760   1
   1  -5   2 2944.17 158.170   1
   5   1  -4 1211.21 115.050   1
   5   1  -4 874.750 72.6700   1
  -5  -1   4 1301.95 175.250   1
   5   1  -4 1835.56 173.760   1
   5  -1  -4 1339.93 85.5000   1
   5   1  -4 1541.63 152.870   1
   5  -1  -4 1706.15 143.890   1
   5   1  -4 1757.23 121.320   1
   5  -1  -4 1396.34 96.4600   1
  -5  -1   4 1406.80 97.3000   1
   0   0   6 39690.0 694.390   1
   0   0   6 35542.1 562.300   1
   0   0  -6 39649.7 612.950   1
   5   1   0 -13.260 129.810   1
   5  -1   0 75.2400 120.910   1
   5   1   0 -13.360 142.700   1
  -5   1   0 24.5100 114.400   1
   5  -1   0 66.2800 103.790   1
   5   1   0 94.5300 147.190   1
   5  -1   0 55.3300 150.690   1
   5  -2  -3 327.110 102.330   1
   5   2  -3 248.560 105.740   1
   5   2  -3 144.360 167.140   1
   5   2  -3 193.230 105.790   1
  -5  -2   3 178.880 90.0700   1
   5   2  -3 457.790 189.590   1
   5  -2  -3 321.200 125.590   1
   5  -2  -3 359.970 96.2800   1
  -5  -2   3 230.600 111.650   1
  -2  -2   6 20365.0 511.160   1
  -2  -2   6 22837.2 423.930   1
   2   2  -6 22248.7 733.610   1
  -2   2   6 20161.9 459.050   1
   2   5   1 1547.37 154.380   1
  -2  -5  -1 1143.97 101.230   1
   2   5   1 1757.94 266.450   1
  -2  -5  -1 1852.07 148.710   1
  -2  -5  -1 1263.63 167.350   1
   2   5   1 1607.74 193.790   1
  -2   5  -1 2264.12 251.620   1
  -2   5  -1 2101.61 227.500   1
  -2   5  -1 2554.57 240.020   1
   2  -5   1 1231.54 91.1100   1
   2  -5   1 1852.63 185.260   1
   2  -5   1 1979.06 164.930   1
   2  -5   1 1217.92 88.6500   1
   5   2  -1 3316.75 250.470   1
  -5   2   1 4430.98 240.110   1
   5   2  -1 4890.71 286.270   1
   5  -2  -1 4750.85 176.610   1
   5   2  -1 4281.16 218.320   1
   5  -2  -1 6159.58 272.440   1
  -5  -2   1 4044.23 314.790   1
   5   2  -1 4109.58 389.760   1
   4  -3   1 2028.84 162.120   1
  -4   3  -1 2532.13 157.220   1
   4  -3   1 3322.82 187.110   1
   4  -3   1 3534.02 284.510   1
   4   3   1 2189.08 306.850   1
   4   3   1 2085.09 145.470   1
  -4  -3  -1 2436.28 251.150   1
   4   3   1 2534.21 208.510   1
   0  -5  -3 75754.8 837.370   1
   0  -5   3 77592.7 1253.89   1
   0  -5   3 75134.4 1391.44   1
   4  -2   2 75823.1 931.500   1
  -4  -2  -2 75206.4 1396.99   1
   4   2   2 77556.7 973.770   1
  -2   5   3 5205.00 198.220   1
   2   5  -3 4605.44 235.230   1
   2   5  -3 5741.61 390.290   1
  -2   5   3 4013.57 187.660   1
   2  -5  -3 5575.48 290.360   1
  -2  -5   3 6241.52 246.450   1
  -2  -5   3 3822.20 251.430   1
  -2   5   3 6829.73 295.390   1
   2   5  -3 5535.27 359.650   1
   4  -4  -2 62503.9 1014.34   1
   4  -4  -2 60709.0 1107.49   1
   4  -4  -2 57949.0 919.690   1
   4   4  -2 55090.3 1037.12   1
  -4  -4   2 55848.3 934.590   1
   4   4  -2 57168.1 1373.59   1
   4   4  -2 52907.8 1155.40   1
   4   0  -6 66668.0 904.870   1
  -4   0   6 66280.6 937.390   1
   5   0  -5 33.8700 131.040   1
   5   0  -5 79.0300 117.960   1
  -3  -1  -4 11269.7 664.560   1
   3  -1   4 9073.84 295.910   1
   3   1   4 11675.5 358.990   1
   3   1   4 11093.0 313.720   1
   3  -1   4 11368.5 311.020   1
  -3  -5   2 57554.0 803.140   1
   3   5  -2 64773.8 1499.76   1
  -2   1  -5 8153.50 297.380   1
  -2   1  -5 5522.07 465.560   1
  -2  -1  -5 6835.77 404.160   1
   2  -1   5 7617.08 260.570   1
   2   1   5 8297.71 277.030   1
   2   1   5 8262.74 278.170   1
   2  -1   5 7163.91 242.280   1
   5   0   1 107.340 141.000   1
   5   0   1 22.6000 122.010   1
   5   0   1 -0.3900 140.970   1
  -1   4   5 65360.7 1017.31   1
  -1  -4   5 54669.3 1013.92   1
   1   4  -5 68142.9 1806.17   1
  -1  -4   5 67202.2 1042.19   1
  -1  -4   5 62247.4 766.400   1
   4  -4   0 38110.7 821.140   1
   4  -4   0 32216.6 470.270   1
  -4   4   0 33300.6 1037.41   1
   4  -4   0 36305.0 660.910   1
   4   4   0 34633.1 1136.86   1
   0   6   0 216.380 186.860   1
   0  -6   0 100.140 132.270   1
   0  -6   0 136.080 98.1000   1
   0  -6   0 307.900 145.860   1
   0   6   0 68.6500 91.9500   1
   0   6   0 155.280 114.670   1
   0   2   6 25682.1 540.440   1
   0  -2   6 24291.2 409.010   1
   0   2   6 22619.4 406.080   1
   0   2  -6 25477.1 583.340   1
   0  -2   6 22619.5 556.360   1
   0   2  -6 23040.2 910.180   1
   3   5   0 7654.50 385.460   1
  -3  -5   0 7646.12 302.140   1
   3  -5   0 6248.64 206.490   1
  -3  -5   0 7803.79 291.640   1
   3  -5   0 8014.97 294.500   1
   3  -5   0 6916.55 213.680   1
   3   5   0 6667.41 346.580   1
   3  -5   0 7249.76 401.170   1
   3   5   0 7047.88 507.960   1
  -5   3   2 3035.83 413.970   1
  -5  -3   2 2837.65 176.500   1
   5   3  -2 3741.90 228.450   1
   5   3  -2 4376.29 281.110   1
   5  -3  -2 3631.18 255.330   1
   5  -3  -2 2980.08 168.360   1
   5   3  -2 3206.92 321.070   1
  -4   3   5 32358.3 528.340   1
   4   3  -5 34503.0 1001.84   1
  -4  -3   5 31276.8 662.410   1
  -1   6   1 22113.4 656.230   1
   1   6  -1 20076.6 670.540   1
  -1   6   1 21810.1 548.640   1
   1   6  -1 21371.6 284.560   1
   1  -6  -1 19584.6 403.990   1
  -1   6   1 17773.3 389.440   1
   1  -6  -1 17167.3 398.170   1
  -1   5   4 39714.6 644.940   1
  -1   5   4 40621.7 747.200   1
   1  -5  -4 37363.3 812.250   1
   1  -5  -4 38599.9 723.510   1
  -1  -5   4 36591.1 564.450   1
   1   5  -4 42216.1 1107.03   1
   4   1   3 8288.25 279.620   1
  -4  -1  -3 6863.09 543.210   1
   4   1   3 9653.89 352.140   1
   4  -1   3 9074.98 305.490   1
   4  -1   3 11600.3 382.310   1
  -1   3   6 543.820 141.890   1
  -1   3   6 472.090 123.290   1
  -1   3   6 530.320 150.620   1
  -1  -3   6 374.110 98.0400   1
  -1  -3   6 455.600 104.040   1
   1   3  -6 606.560 175.830   1
   1   3  -6 437.130 105.810   1
  -4  -2   6 31224.8 538.220   1
   4   2  -6 33078.9 527.840   1
  -4   2   6 34895.0 572.950   1
   4   2  -6 34475.6 755.700   1
  -4   2   6 35530.2 497.790   1
  -4   4   4 9483.89 290.490   1
   4  -4  -4 12095.3 652.430   1
  -4   4   4 9701.02 200.220   1
   4  -4  -4 8728.18 285.430   1
   4  -4  -4 11706.3 506.270   1
   4   4  -4 10479.5 631.020   1
  -4  -4   4 9638.22 757.410   1
  -4  -4   4 8550.70 367.890   1
   4   4  -4 10487.5 461.350   1
   4   4  -4 8904.60 502.410   1
  -4  -4   4 7153.06 287.220   1
  -3   4   5 6338.72 256.350   1
   3  -4  -5 5379.29 226.890   1
  -3   4   5 7603.48 355.750   1
   3   4  -5 7155.90 332.610   1
  -3  -4   5 6469.06 201.180   1
   3   4  -5 6542.54 364.080   1
   3   4  -5 7817.76 457.650   1
  -3  -4   5 8447.04 398.720   1
  -1   1  -6 14.3400 137.030   1
   1  -1   6 14.6100 82.6500   1
   1   1   6 122.070 106.820   1
  -1   1  -6 139.600 125.570   1
   1   1   6 5.26000 111.130   1
   1  -1   6 56.4400 92.9200   1
   1  -6   1 30125.2 359.990   1
  -1   6  -1 35630.3 607.610   1
  -1  -6  -1 30421.4 576.600   1
   1   6   1 30630.6 681.790   1
   1   6   1 35059.6 656.490   1
   1  -6   1 32742.4 535.550   1
   1  -6   1 31748.5 427.060   1
   1   6   1 28754.7 826.120   1
  -3  -3   6 15000.0 391.900   1
   3   3  -6 12017.7 247.150   1
  -3   3   6 13757.7 464.750   1
   3   3  -6 11859.5 372.120   1
   3   3  -6 12686.5 804.270   1
   3   3  -6 17222.8 642.640   1
  -3   3   6 14554.0 400.600   1
  -5  -2   5 44703.6 676.520   1
   5   2  -5 40640.2 618.560   1
   5   2  -5 47389.2 941.740   1
  -5   2   5 42262.3 585.810   1
   5   2  -5 46878.6 843.000   1
   5  -2  -5 40250.2 445.980   1
  -2   1   7 22127.0 516.270   1
  -2  -1   7 17591.2 439.010   1
  -2   1   7 21116.1 408.120   1
  -2  -1   7 18492.0 409.870   1
   2   1  -7 20129.8 507.850   1
   2   1  -7 20439.6 692.350   1
  -3   0   7 -102.70 121.020   1
   3   0  -7 -31.920 154.230   1
  -3   0   7 -256.28 111.770   1
   0   6   2 5595.97 333.620   1
   0  -6  -2 4596.11 224.030   1
   0  -6  -2 4685.95 217.160   1
   0  -6   2 4993.20 182.820   1
   0   6  -2 5543.40 348.960   1
   0   6  -2 4175.19 162.460   1
   0   6   2 3475.96 263.520   1
   0  -6   2 4853.46 243.930   1
   0  -6  -2 3164.51 161.400   1
   0   6   2 4481.35 232.270   1
   6   0  -2 7935.92 293.520   1
   6   0  -2 10135.8 275.830   1
   6   0  -2 8666.22 365.050   1
   5   2   1 6143.22 310.800   1
   5  -2   1 5474.63 284.550   1
   5  -2   1 3567.78 288.880   1
  -5  -2  -1 5385.81 325.720   1
   5   2   1 5032.12 375.690   1
   5  -2   1 5163.23 420.390   1
   5  -2   1 6176.90 236.440   1
   5   2   1 5772.15 238.120   1
  -5   2  -1 5304.18 345.470   1
  -1   0   7 -91.920 103.160   1
  -1   0   7 66.3400 91.1800   1
   1   0  -7 -11.800 148.420   1
   5   3  -4 17981.4 570.790   1
  -5  -3   4 19145.8 770.260   1
   5   3  -4 18303.4 692.070   1
   5  -3  -4 21709.6 377.100   1
   5   3  -4 22806.1 757.510   1
   5  -3  -4 24630.9 714.490   1
   5   3  -4 20454.0 487.120   1
  -5  -3   4 24346.8 634.880   1
   5  -3  -4 17436.1 601.290   1
   5  -3   0 28197.8 563.510   1
   5  -3   0 31158.0 802.100   1
   5   3   0 30903.7 592.350   1
  -5  -3   0 31432.2 789.160   1
   6  -1  -3 21171.8 499.230   1
   6   1  -3 20273.4 580.510   1
   6   1  -3 23479.8 416.050   1
   6   1  -3 26218.0 609.250   1
   6   1  -3 21720.2 526.430   1
   2  -6   0 29187.0 396.810   1
   2  -6   0 33666.1 491.420   1
   2  -6   0 32170.9 447.760   1
  -2  -6   0 33106.7 510.720   1
   2   6   0 29266.1 679.200   1
   2   6   0 25715.0 861.560   1
   2   6   0 27050.6 580.990   1
   2   4   4 21791.3 455.840   1
  -2   4  -4 21189.1 419.500   1
   2  -4   4 22851.4 470.860   1
   2  -4   4 20658.7 562.870   1
  -2   4  -4 19171.9 514.660   1
   2  -4   4 23419.6 737.690   1
  -2   4  -4 20705.2 850.620   1
   2   4   4 24108.3 485.720   1
   6   0  -4 42321.1 825.050   1
   6   0  -4 49237.3 793.130   1
   2  -6  -2 27591.3 660.780   1
  -2   6   2 25753.8 495.870   1
   2   6  -2 26031.7 767.570   1
   2   6  -2 29561.0 909.060   1
  -3   5   4 18483.9 437.190   1
   3  -5  -4 20076.8 475.580   1
   3  -5  -4 17453.4 488.260   1
  -3   5   4 22680.3 471.860   1
   3   5  -4 24646.0 754.460   1
  -3  -5   4 17874.9 352.220   1
  -3  -5   4 20350.7 587.420   1
   3   5  -4 23817.7 884.200   1
  -3   4  -3 4691.96 343.130   1
   3  -4   3 4444.74 202.510   1
  -3   4  -3 3740.64 211.140   1
   3  -4   3 5835.01 255.920   1
  -3   4  -3 5407.08 228.400   1
   3  -4   3 3598.35 318.850   1
   3   4   3 5306.35 251.640   1
   3   4   3 5093.74 196.000   1
   3   4   3 4915.75 409.960   1
  -5   1   6 6924.95 226.400   1
   5   1  -6 5921.29 308.970   1
  -5  -1   6 7373.24 333.110   1
   5  -1  -6 6822.82 228.230   1
  -5  -1   6 8031.90 248.250   1
  -6   1   1 30765.8 621.770   1
   6   1  -1 28760.1 959.980   1
   6  -1  -1 36406.2 515.520   1
   6   1  -1 37147.4 578.500   1
  -2   5  -3 22358.8 522.390   1
   2   5   3 24592.3 545.400   1
   2  -5   3 23479.2 492.010   1
   2   5   3 20432.5 429.470   1
   2   5   3 21010.4 676.760   1
  -2   5  -3 17157.8 745.550   1
   2  -5   3 20373.0 629.000   1
   2  -5   3 24523.0 444.270   1
   4   5  -1 10884.6 512.650   1
   4   5  -1 8758.11 291.160   1
   4  -5  -1 11180.5 400.240   1
  -4  -5   1 10211.5 387.320   1
   4  -5  -1 8469.03 237.260   1
  -4  -5   1 7753.98 309.360   1
   4  -5  -1 11178.0 626.460   1
   4   5  -1 11708.3 486.430   1
   5   1   2 18016.2 430.370   1
   5  -1   2 16549.4 460.150   1
   5   1   2 19585.0 483.800   1
   5   1   2 15244.6 748.350   1
  -1   6   3 52235.5 637.960   1
   1   6  -3 60032.6 1295.09   1
   1   6  -3 53151.7 671.460   1
   1   6  -3 53165.6 1026.40   1
  -1  -6   3 56823.7 1063.82   1
  -1   4  -5 14420.6 341.960   1
   1   4   5 15146.3 368.930   1
  -1   4  -5 17068.7 844.370   1
   1   4   5 17476.1 395.980   1
  -1   4  -5 12648.0 365.570   1
   1  -4   5 15976.0 379.010   1
   1  -4   5 17158.2 446.820   1
  -3   3  -4 8662.49 761.470   1
  -3  -3  -4 4745.86 388.750   1
  -3   3  -4 3963.66 261.060   1
   3  -3   4 4489.96 230.800   1
  -3   3  -4 4413.16 218.720   1
   3  -3   4 4668.24 241.120   1
   3   3   4 4486.54 213.490   1
   3   3   4 4210.98 193.890   1
   1  -5   4 602.560 159.110   1
  -1   5  -4 535.820 232.220   1
   1   5   4 563.010 128.000   1
   1  -5   4 542.420 110.850   1
   1   5   4 410.200 119.970   1
  -1   5  -4 453.820 93.1600   1
   1  -5   4 504.460 96.3500   1
  -1   5  -4 331.030 162.040   1
  -3  -2   7 109.380 102.060   1
  -3   2   7 171.460 110.180   1
  -3   2   7 187.220 100.770   1
  -3  -2   7 370.310 125.230   1
   3   2  -7 381.660 179.730   1
   3   2  -7 113.130 75.3100   1
  -3   2   7 171.790 127.830   1
   2  -3   5 17441.6 509.240   1
   2   3   5 16090.9 349.490   1
  -2   3  -5 14207.0 350.030   1
   2   3   5 16082.2 416.360   1
   2  -3   5 14554.8 348.680   1
   2  -3   5 15262.2 371.180   1
  -2  -3  -5 16426.0 723.270   1
   6   2  -2 60445.3 795.030   1
   6   2  -2 52486.5 1632.06   1
   6   2  -2 60844.8 791.100   1
   1   2  -7 360.890 97.1900   1
   1   2  -7 474.390 163.990   1
  -1   2   7 452.670 84.7500   1
  -1  -2   7 511.680 102.810   1
  -1   2   7 626.370 123.780   1
  -1  -2   7 569.120 103.430   1
   4   1  -7 31252.5 521.920   1
   4   1  -7 33356.4 762.920   1
  -4   1   7 34376.4 594.840   1
  -4  -1   7 36756.1 534.180   1
  -4  -1   7 37761.7 703.710   1
   4  -5  -3 23805.3 602.230   1
   4  -5  -3 21663.2 627.420   1
   4  -5  -3 23097.3 623.000   1
   4  -5  -3 22615.4 349.890   1
   4   5  -3 19042.5 526.740   1
   4   5  -3 23325.5 672.200   1
  -4  -5   3 27363.1 740.650   1
   4   5  -3 24686.2 1091.20   1
   3  -5   2 19329.0 689.530   1
  -3   5  -2 16978.1 563.290   1
   3  -5   2 18439.0 405.180   1
  -3   5  -2 23831.0 894.500   1
  -3   5  -2 23529.2 982.420   1
   3   5   2 20047.4 714.050   1
   3   5   2 17034.7 400.120   1
   3   5   2 22005.4 608.880   1
   5  -4  -3 5914.01 248.340   1
   5  -4  -3 3704.65 256.980   1
   5  -4  -3 3582.93 248.930   1
   5  -4  -3 5360.22 191.550   1
   5   4  -3 5485.44 289.000   1
   5   4  -3 4840.71 243.090   1
  -5  -4   3 4550.81 232.880   1
   5   4  -3 3855.36 352.130   1
  -2   4   6 20494.3 620.860   1
  -2   4   6 17332.3 441.810   1
   2   4  -6 19827.7 1033.81   1
  -2  -4   6 19741.6 463.040   1
   2   4  -6 21386.9 796.660   1
  -2  -4   6 18238.9 501.350   1
  -2  -4   6 15673.6 358.010   1
  -5   4   1 88194.6 1859.19   1
   5  -4  -1 103425. 2526.84   1
   5  -4  -1 99134.9 2254.47   1
   5   4  -1 89542.4 1977.55   1
   5   4  -1 92327.7 2398.55   1
   5   4  -1 88549.9 991.390   1
  -3   0  -5 -37.740 120.540   1
   3   0   5 69.9500 113.110   1
   3   0   5 -0.5400 112.430   1
  -3   0  -5 30.6600 133.360   1
   0   1   7 22464.7 351.040   1
   0  -1   7 22903.3 460.630   1
   0   1  -7 22891.2 670.540   1
   0  -1   7 27614.8 508.480   1
   6   0   0 53290.3 750.560   1
   6   0   0 56545.8 935.600   1
  -2   5   5 21129.7 409.990   1
   2   5  -5 28730.6 941.060   1
  -2  -5   5 22271.6 427.630   1
   4  -4   2 387.910 91.7200   1
  -4   4  -2 278.230 122.460   1
   4  -4   2 225.810 150.380   1
   4  -4   2 409.900 122.390   1
   4   4   2 370.180 168.540   1
   4   4   2 202.000 187.020   1
   4   4   2 479.760 121.450   1
   6  -2  -4 152373. 3483.56   1
   6  -2  -4 148744. 3291.59   1
   6   2  -4 140218. 3700.78   1
   4  -3   3 34348.6 678.910   1
   4  -3   3 34932.5 521.360   1
   4   3   3 35741.2 1000.87   1
   4   3   3 37794.3 562.470   1
   4   3   3 39741.6 726.910   1
  -4  -3  -3 41235.3 1057.89   1
  -2   0  -6 81302.7 1298.89   1
   2   0   6 79069.9 782.720   1
   2   0   6 85576.8 831.260   1
   3  -6  -1 33044.5 443.310   1
  -3  -6   1 29385.5 645.510   1
   3   6  -1 24247.4 897.980   1
   3   6  -1 29036.4 771.640   1
   4   0   4 59877.9 767.660   1
   4   0   4 53430.3 713.490   1
   6   1  -5 71834.0 1187.85   1
   6  -1  -5 67668.4 999.520   1
   6   1  -5 69175.4 690.570   1
   6  -1  -5 65305.4 612.430   1
   1   3   6 11783.9 341.820   1
   1  -3   6 10456.9 347.940   1
  -1   3  -6 9686.48 596.650   1
   1   3   6 13696.5 374.270   1
   1  -3   6 13068.1 356.190   1
  -1   3  -6 10386.4 318.230   1
   0  -5   5 10630.7 310.500   1
   0   5   5 10524.5 321.890   1
   0   5   5 11382.1 320.850   1
   0  -5   5 10402.5 312.870   1
   0   5  -5 11914.6 605.160   1
   0   5  -5 11434.4 696.300   1
  -2   3   7 12196.5 417.960   1
  -2   3   7 10941.9 339.710   1
  -2   3   7 10929.9 340.850   1
  -2  -3   7 11727.4 319.460   1
   2   3  -7 13134.3 571.530   1
   2   3  -7 10068.1 351.220   1
  -1  -6  -3 10670.1 331.650   1
   1  -6   3 9935.97 373.540   1
   1  -6   3 8032.04 259.230   1
   1   6   3 8549.17 305.940   1
   1   6   3 9348.16 469.340   1
   1   6   3 9076.35 332.490   1
  -1   6  -3 12343.3 494.590   1
   2   6   2 2157.76 275.480   1
  -2   6  -2 4327.45 282.600   1
   2   6   2 2899.32 211.350   1
   2  -6   2 2547.16 150.700   1
   2  -6   2 3166.72 197.280   1
  -2  -6  -2 3473.76 219.060   1
   2  -6   2 2879.89 174.890   1
  -2   6  -2 2184.35 159.630   1
   2   6   2 2313.57 173.350   1
  -2   6  -2 2716.43 211.160   1
   0  -4   6 11394.1 347.630   1
   0   4  -6 8367.79 513.670   1
   0   4   6 9935.87 274.930   1
   0  -4   6 9814.49 303.480   1
   0   4   6 9711.76 328.610   1
   0   4  -6 9946.27 321.680   1
   3  -2   5 3752.00 196.090   1
  -3  -2  -5 4719.78 377.290   1
   3  -2   5 4285.25 207.130   1
   3   2   5 4693.47 217.470   1
   3   2   5 4483.00 193.680   1
   3   6  -3 59553.1 1192.44   1
  -3  -6   3 58071.3 852.680   1
   3  -6  -3 52846.7 564.050   1
   3  -6  -3 55686.4 1112.74   1
   6  -3  -3 6745.14 190.660   1
   6  -3  -3 8365.77 339.360   1
   6   3  -3 6963.68 273.090   1
   6   3  -3 5782.06 527.290   1
   6   3  -3 7448.44 379.480   1
   4  -5   1 30035.7 923.030   1
   4   5   1 39278.0 799.990   1
   4  -5   1 29900.2 541.000   1
  -4   5  -1 37229.2 1215.48   1
   4   5   1 33274.8 977.840   1
   4   5   1 33543.6 574.410   1
   6   2   0 65582.7 845.440   1
   5   0  -7 -112.31 157.650   1
   5   0  -7 24.4100 134.580   1
  -5   0   7 42.3200 190.810   1
   5   0  -7 119.940 99.5200   1
  -5   0   7 65.2200 135.290   1
  -2   6   4 2668.86 141.910   1
  -2   6   4 2158.27 153.440   1
   2   6  -4 2473.29 258.630   1
   2  -6  -4 2506.35 197.190   1
   2   6  -4 2256.67 210.450   1
   2  -6  -4 2517.99 172.340   1
  -2  -6   4 4084.18 238.390   1
   2   2   6 3802.47 169.710   1
   2  -2   6 2909.02 133.490   1
   2  -2   6 4196.73 240.500   1
   2   2   6 3420.25 196.730   1
  -2   2  -6 2318.51 350.730   1
  -2  -2  -6 3033.99 267.190   1
   0  -7  -1 -125.79 153.470   1
   0  -7   1 57.6800 77.9200   1
   0   7  -1 37.7000 84.2200   1
   0   7   1 74.3500 120.670   1
   0   7   1 -34.620 115.330   1
   0  -7   1 52.7200 145.750   1
   0  -7  -1 36.7700 131.120   1
   0   7  -1 64.5100 152.740   1
   0   7  -1 -68.700 183.210   1
   0   7   1 -31.350 184.070   1
   0  -7  -1 7.63000 94.5600   1
   4   2   4 20922.5 496.440   1
   4  -2   4 20789.7 649.480   1
   4   2   4 23944.0 455.230   1
   4  -2   4 22971.2 489.720   1
  -4  -2  -4 19141.4 894.030   1
  -1   0  -7 236.870 132.800   1
   1   0   7 -59.390 117.230   1
   1   0   7 -97.910 109.810   1
   5   0   3 167.520 132.620   1
   5   0   3 -29.550 119.190   1
  -1   7   0 26387.9 950.690   1
   1   7   0 26606.0 962.900   1
   1   7   0 21902.3 710.320   1
   1  -7   0 20382.8 570.370   1
  -1  -7   0 23300.5 630.410   1
  -1  -7   0 26438.6 741.060   1
  -1   7   0 20543.4 547.340   1
   0   6  -4 810.060 195.650   1
   0   6  -4 686.710 97.1300   1
   0   6   4 761.900 127.400   1
   0  -6  -4 1004.73 157.910   1
   0  -6   4 1513.16 193.600   1
   0  -6   4 1005.92 134.210   1
   0  -6   4 1034.80 173.880   1
   0   6   4 842.380 145.070   1
   0  -6   4 832.160 95.2200   1
   5  -3  -6 6733.79 239.800   1
  -5   3   6 7723.96 314.220   1
   5   3  -6 7423.85 478.740   1
  -5   3   6 6582.68 251.240   1
  -5  -3   6 6990.26 298.180   1
   5   3  -6 9197.46 520.230   1
   5   3  -6 8529.43 331.190   1
  -2   0   8 40623.2 984.480   1
  -2   0   8 53005.1 1425.81   1
   2   0  -8 51598.4 1498.93   1
   3  -6   1 33153.6 903.980   1
  -3  -6  -1 38200.8 1060.98   1
   3  -6   1 32421.4 931.830   1
   3  -6   1 27440.2 747.680   1
   3   6   1 26341.2 807.010   1
   3   6   1 33629.0 1313.52   1
   3   6   1 34318.0 1047.12   1
   6   3  -1 6122.58 479.000   1
   6   3  -1 9287.32 453.030   1
  -6   3   1 6037.37 423.070   1
   6   3  -1 6163.83 310.730   1
   6  -3  -1 9882.74 354.320   1
   6  -3  -1 8098.34 375.040   1
  -4   4   6 21936.6 620.470   1
   4   4  -6 23033.0 970.170   1
   4   4  -6 20101.2 704.770   1
  -4   4   6 23157.3 706.510   1
  -4   4   6 21348.4 695.370   1
  -4  -4   6 19213.0 625.870   1
   4   4  -6 25938.8 823.590   1
   4   4  -6 25910.5 969.550   1
   6   0  -6 11316.8 370.650   1
   6   0  -6 14868.6 597.240   1
   6   0  -6 13731.9 495.220   1
   6   0  -6 16743.5 559.290   1
   5  -3   2 11767.9 666.720   1
   5  -3   2 8327.34 337.010   1
   5   3   2 8829.47 385.400   1
  -5   3  -2 5777.03 328.700   1
   5  -3   2 8780.40 338.820   1
   5   3   2 9955.89 619.840   1
   5   3   2 7644.04 313.190   1
  -5  -3  -2 7198.08 395.420   1
   5  -4  -5 1264.78 190.990   1
  -5   4   5 1271.67 104.280   1
   5  -4  -5 1384.93 105.580   1
   5   4  -5 1783.69 188.770   1
   5   4  -5 1565.53 143.960   1
   5  -4  -5 1618.29 119.910   1
   5  -4  -5 1498.29 149.340   1
  -5  -4   5 1404.94 158.580   1
   5   4  -5 799.070 125.880   1
  -5  -4   5 1250.80 245.860   1
   5   4  -5 1442.03 255.080   1
  -5  -4   5 1131.23 98.0900   1
   6  -1   1 30583.6 833.670   1
   6   1   1 20726.9 956.200   1
   6   1   1 31736.6 943.210   1
   6  -1   1 27239.8 847.910   1
   6   1   1 30765.9 892.550   1
  -3   1   8 670.260 120.440   1
   3   1  -8 310.370 182.480   1
   3   1  -8 776.820 181.650   1
  -3  -1   8 838.810 128.890   1
  -3  -1   8 747.110 126.290   1
  -3   1   8 696.560 109.960   1
   5   4   1 4801.98 412.550   1
   5  -4   1 4801.66 376.200   1
   5  -4   1 6222.97 273.050   1
  -5   4  -1 3502.16 328.480   1
   5   4   1 5529.49 316.280   1
   5  -4   1 4513.82 231.050   1
   5   4   1 4839.95 251.840   1
  -4  -3   7 23175.6 688.300   1
  -4   3   7 22053.2 644.150   1
   4   3  -7 24992.6 657.650   1
   4   3  -7 27726.2 989.590   1
   4   3  -7 21772.7 678.980   1
  -4   3   7 28698.0 864.380   1
  -4  -3   7 25134.8 759.660   1
  -4   3   7 24368.7 797.010   1
   1  -7  -2 11668.5 485.470   1
   1  -7  -2 13621.5 424.740   1
  -1   7   2 9008.79 365.840   1
  -1   7   2 11572.0 518.970   1
   1   7  -2 12388.2 586.880   1
   1   7  -2 13348.1 461.460   1
  -1   7   2 10276.9 366.520   1
   5  -5  -2 12621.0 403.510   1
   5  -5  -2 11585.7 492.010   1
   5   5  -2 12787.3 781.800   1
   5   5  -2 10626.9 493.550   1
   5   5  -2 10230.9 407.910   1
  -5  -5   2 13496.6 542.350   1
  -4   5   5 3458.05 184.460   1
   4   5  -5 4310.34 296.220   1
   4  -5  -5 2922.56 167.230   1
   4   5  -5 4605.81 293.950   1
   4   5  -5 2710.84 179.480   1
  -4  -5   5 3982.43 286.550   1
   4  -5  -5 4016.26 262.800   1
   4   5  -5 3966.68 372.720   1
   0   3  -7 29149.8 865.720   1
   0   3   7 28328.5 825.020   1
   0  -3   7 24686.5 719.370   1
   0   3  -7 20635.2 931.290   1
   0  -3   7 28288.3 790.650   1
   0   3   7 26838.0 714.810   1
  -5  -2   7 115.030 102.200   1
   5   2  -7 98.1600 102.080   1
  -5  -2   7 138.710 125.220   1
   5  -2  -7 45.8800 69.7000   1
  -5   2   7 141.730 101.460   1
   5   2  -7 170.040 87.0100   1
  -5   2   7 176.830 104.870   1
   5   2  -7 27.5700 187.980   1
   1   1  -8 252.910 166.520   1
  -1   1   8 152.300 131.960   1
  -1  -1   8 281.290 121.750   1
  -1  -1   8 410.340 126.410   1
   1   1  -8 74.1500 160.230   1
  -1   1   8 156.610 102.480   1
   2   7  -1 34369.4 1014.80   1
   2  -7  -1 40715.2 1011.61   1
   2   7  -1 30664.4 1078.30   1
  -2   7   1 41375.7 1261.18   1
  -4   0   8 32717.2 914.160   1
  -4   0   8 35981.7 1046.29   1
   4   0  -8 36732.5 1076.41   1
   4  -6  -2 3687.44 193.590   1
   4  -6  -2 2304.27 174.830   1
   4   6  -2 2678.48 335.980   1
   4   6  -2 2491.12 257.580   1
  -4  -6   2 1713.19 155.840   1
  -4  -6   2 2377.54 187.860   1
   4   6  -2 2025.20 166.600   1
   7   0  -3 9.66000 149.990   1
   7   0  -3 -11.230 106.190   1
   7   0  -3 -24.430 135.280   1
   7   0  -3 -96.960 128.200   1
   1   5  -6 5327.06 439.720   1
  -1  -5   6 4885.14 309.360   1
  -1   5   6 4670.06 237.760   1
  -1  -5   6 5435.39 338.420   1
   1   5  -6 5467.12 481.200   1
  -1  -5   6 4848.34 239.190   1
  -1   5   6 4220.45 218.020   1
   1  -2   7 13209.0 472.630   1
  -1   2  -7 13438.1 773.930   1
   1   2   7 14045.0 442.710   1
   1  -2   7 14251.9 425.160   1
  -1   2  -7 15295.9 511.670   1
   1   2   7 14153.3 467.630   1
   6  -3  -5 39315.4 979.400   1
   6  -3  -5 34975.6 1006.24   1
   6   3  -5 43013.9 1576.79   1
  -6  -3   5 37514.9 1308.07   1
  -6  -3   5 41297.8 1092.51   1
   6   3  -5 45087.8 1167.50   1
   5  -2   3 16026.5 528.530   1
   5   2   3 18143.8 582.840   1
   5  -2   3 19261.8 587.200   1
   5   2   3 17261.0 531.390   1
   5   2   3 17228.0 675.510   1
  -5  -2  -3 14981.0 655.450   1
  -2  -2   8 7940.45 308.770   1
   2   2  -8 6993.69 316.380   1
   2   2  -8 6945.14 478.650   1
  -2   2   8 10588.2 411.210   1
  -2  -2   8 6868.18 316.540   1
  -2   2   8 7534.72 301.310   1
   6   2  -6 31840.3 850.720   1
   6  -2  -6 35985.1 922.830   1
   6   2  -6 32223.8 934.870   1
  -6  -2   6 29306.6 850.220   1
   6   2  -6 36315.6 1242.13   1
   3   5  -6 6302.05 459.470   1
  -3   5   6 4879.87 248.440   1
  -3  -5   6 5430.25 218.250   1
  -3   5   6 4798.22 223.420   1
   3  -5  -6 3692.13 234.810   1
  -3   5   6 7146.58 441.800   1
  -3  -5   6 5142.61 288.030   1
  -1   7  -2 53775.6 1278.18   1
   1   7   2 52677.9 1455.53   1
  -1   7  -2 60266.3 1563.82   1
   1   7   2 51491.9 1360.13   1
   1  -7   2 55257.0 1373.93   1
   1  -7   2 55859.5 1337.47   1
   1  -7   2 68378.3 1635.65   1
  -1  -7  -2 67021.1 1671.27   1
   7   1  -2 26663.2 783.190   1
   7   1  -2 21827.5 619.040   1
   7  -1  -2 18634.3 703.730   1
  -3   4   7 53398.9 1334.81   1
  -3   4   7 51213.0 1368.72   1
   3   4  -7 52826.6 2142.69   1
   3   4  -7 46375.0 1436.39   1
  -3  -4   7 42425.8 1278.13   1
   3   4  -7 46835.3 1194.65   1
   6  -4  -2 21024.0 607.600   1
   6  -4  -2 31525.4 968.670   1
   6  -4  -2 29606.0 758.830   1
   6   4  -2 24494.8 758.160   1
   6   4  -2 22776.3 1082.06   1
   6   4  -2 24053.2 875.820   1
   1   4  -7 7356.01 329.330   1
   1   4  -7 7656.35 564.070   1
  -1  -4   7 9165.41 392.400   1
  -1   4   7 8924.01 358.310   1
  -1  -4   7 8479.40 300.590   1
  -1   4   7 8444.25 360.590   1
   5  -5  -4 9646.03 542.440   1
   5  -5  -4 12396.0 420.890   1
   5  -5  -4 11593.1 494.060   1
   5  -5  -4 11157.9 393.280   1
   5   5  -4 15399.4 644.210   1
   5   5  -4 12006.7 488.240   1
   5   5  -4 11527.9 711.830   1
  -5  -5   4 12751.8 483.880   1
   7  -1  -4 7072.64 351.350   1
   7  -1  -4 8199.56 432.090   1
   7   1  -4 7165.53 424.540   1
   7   1  -4 5521.84 293.920   1
   7  -1  -4 9075.26 310.110   1
   7   1  -4 9000.38 323.040   1
   7   1  -4 8474.85 327.160   1
   7  -1  -4 8414.18 325.150   1
  -1  -6   5 54531.7 1510.04   1
  -1   6   5 39748.5 1038.49   1
  -1  -6   5 45265.2 1134.46   1
   1   6  -5 53675.4 1677.79   1
  -1   6   5 48374.0 1232.57   1
   4  -6   0 374.780 128.470   1
   4  -6   0 296.580 138.640   1
  -4  -6   0 396.980 183.430   1
   4   6   0 276.000 173.950   1
   4   6   0 269.190 220.790   1
   4   6   0 39.1300 114.440   1
   5  -5   0 12586.0 701.450   1
   5  -5   0 12409.0 532.270   1
   5  -5   0 12203.4 527.750   1
  -5   5   0 9800.18 677.210   1
   5  -5   0 11753.0 414.830   1
   5   5   0 11029.9 605.320   1
   5   5   0 10045.5 387.480   1
   5   5   0 12210.0 533.260   1
  -2   7  -1 2643.66 314.480   1
   2  -7   1 1860.72 163.290   1
   2  -7   1 1586.22 117.700   1
  -2   7  -1 2030.70 218.550   1
   2   7   1 1269.05 182.240   1
   2   7   1 1397.00 152.820   1
  -2  -7  -1 1596.83 176.830   1
   2  -7   1 1459.52 113.910   1
   2   7   1 1811.97 239.480   1
  -2   7  -1 1767.91 196.890   1
   7   0  -1 -71.180 125.770   1
   7   0  -1 -173.30 176.820   1
   7   0  -1 -12.320 162.910   1
   0   0  -8 983.630 171.010   1
   0   0   8 1842.16 167.790   1
   0   0   8 1296.64 119.020   1
   0  -7   3 1010.58 109.330   1
   0   7   3 948.960 138.040   1
   0   7  -3 784.140 88.1300   1
   0   7  -3 1406.59 219.550   1
   0  -7   3 1112.07 210.710   1
   0  -7   3 1051.66 141.070   1
   0  -7  -3 1210.90 171.030   1
   0   7   3 1091.76 140.740   1
   0   7  -3 1273.65 169.040   1
   6   0   2 15175.0 769.180   1
   6   0   2 20033.5 611.530   1
   6   0   2 14570.0 497.260   1
   3   1   6 -201.97 115.380   1
   3   1   6 45.8600 128.200   1
  -3   1  -6 63.8900 252.530   1
   3  -1   6 78.8900 113.860   1
  -3  -1  -6 -12.890 154.400   1
   3  -1   6 106.040 129.140   1
  -3   1  -6 -75.540 240.700   1
  -4  -2   8 35342.4 995.550   1
  -4  -2   8 46181.7 1243.57   1
  -4   2   8 39997.5 1166.20   1
   4   2  -8 43227.2 1090.94   1
  -4   2   8 46801.8 1139.68   1
  -4  -2   8 47224.5 1171.83   1
   4   2  -8 44971.0 1447.10   1
   4   2  -8 42588.5 1613.32   1
  -4   2   8 36888.4 1042.57   1
   6  -4  -4 1949.50 202.240   1
   6  -4  -4 3509.80 189.660   1
   6  -4  -4 2633.03 151.220   1
   6  -4  -4 2869.04 253.670   1
   6   4  -4 2777.12 191.520   1
   6   4  -4 2605.54 340.220   1
  -6  -4   4 2569.40 182.430   1
   6   4  -4 2141.46 242.830   1
   2   7  -3 7813.23 359.790   1
  -2   7   3 5273.53 246.010   1
   2  -7  -3 5215.18 289.360   1
   2  -7  -3 6569.05 277.050   1
  -2  -7   3 6609.64 302.640   1
  -2   7   3 6094.67 267.860   1
   2   7  -3 5987.41 396.360   1
   7   0  -5 -24.540 131.400   1
   7   0  -5 29.0800 144.360   1
   7   0  -5 28.2400 135.360   1
   7   0  -5 -94.580 166.140   1
   7  -2  -3 2915.00 233.690   1
  -7   2   3 1939.74 275.140   1
   7   2  -3 1934.93 181.030   1
   7   2  -3 3325.23 206.330   1
   7  -2  -3 3986.50 196.670   1
   7  -2  -3 3642.68 197.140   1
   7   2  -3 2783.41 165.070   1
   7   2  -3 2038.19 246.240   1
   4   1   5 12223.7 426.390   1
  -4  -1  -5 8407.90 666.950   1
   4  -1   5 12859.7 438.170   1
   4   1   5 12854.8 417.420   1
   4  -1   5 12178.7 452.620   1
   4  -6  -4 25204.0 934.350   1
  -4   6   4 20314.3 680.500   1
   4   6  -4 24163.0 1120.72   1
   4   6  -4 22431.9 792.700   1
  -4  -6   4 19690.7 628.570   1
  -3   6   5 258.850 90.2900   1
   3  -6  -5 186.510 94.7300   1
   3   6  -5 332.510 159.050   1
   3  -6  -5 156.950 156.190   1
  -3  -6   5 677.480 149.800   1
  -3   6   5 457.340 144.730   1
   3   6  -5 415.000 261.920   1
   6   1  -7 45988.3 1365.07   1
  -6  -1   7 37029.4 1002.08   1
   6  -1  -7 41814.3 1088.23   1
   6   1  -7 34967.7 907.500   1
   6   3   1 12427.7 676.180   1
   6  -3   1 13454.3 641.590   1
   6  -3   1 14171.4 510.790   1
   3   5   4 23937.4 678.860   1
   3   5   4 24114.9 793.640   1
   3  -5   4 21726.4 606.560   1
   3  -5   4 21221.3 667.580   1
  -3   5  -4 22475.2 955.750   1
  -3   5  -4 21202.1 670.770   1
   3   7  -2 4268.49 286.940   1
  -3  -7   2 3074.65 191.530   1
  -3  -7   2 4655.59 267.500   1
   3  -7  -2 4745.72 220.530   1
   3   7  -2 2862.64 225.730   1
   3   7  -2 4212.36 320.010   1
   3  -7  -2 2755.30 117.780   1
   2   5   5 318.260 132.560   1
   2   5   5 258.110 120.140   1
   2  -5   5 169.430 137.920   1
  -2   5  -5 192.370 153.690   1
   2  -5   5 335.250 107.270   1
  -2   5  -5 323.740 72.4500   1
   2  -5   5 414.950 85.4300   1
  -3   3   8 5856.82 304.260   1
  -3   3   8 6053.51 306.790   1
  -3   3   8 6605.97 255.030   1
   3   3  -8 6979.13 471.930   1
   3   3  -8 5425.17 258.220   1
  -3  -3   8 8839.66 360.420   1
   3   3  -8 6345.61 256.210   1
  -3  -3   8 7141.64 379.150   1
  -3  -3   8 6077.69 284.590   1
   5   1  -8 42677.6 1239.14   1
  -5   1   8 44124.9 1209.98   1
  -5  -1   8 42118.4 1186.81   1
   5   1  -8 42995.5 1121.25   1
  -5   1   8 43712.8 1090.55   1
  -2   1  -7 9254.49 646.940   1
  -2  -1  -7 10223.0 565.930   1
   2  -1   7 13496.0 443.920   1
   2  -1   7 13078.6 418.840   1
   2   1   7 12826.0 420.110   1
   2   1   7 14786.2 475.290   1
  -3  -7   0 14327.3 511.820   1
   3   7   0 11620.5 455.170   1
   3   7   0 11811.7 592.660   1
   3  -7   0 11659.3 413.950   1
   3  -7   0 11514.5 364.860   1
   3   7   0 12188.6 522.400   1
   3   4   5 3421.39 213.160   1
   3   4   5 2973.87 187.010   1
   3  -4   5 2212.16 143.260   1
  -3   4  -5 3179.01 403.790   1
   3  -4   5 3064.35 171.660   1
   7  -2  -1 402.790 139.310   1
   7   2  -1 420.310 191.540   1
   7  -2  -1 333.560 134.170   1
   7   2  -1 336.910 158.130   1
  -7  -2   1 111.710 139.960   1
   7  -2  -1 211.840 123.630   1
   7   2  -1 329.180 176.750   1
   6  -4   0 9270.98 442.820   1
   6  -4   0 8337.40 380.000   1
   6   4   0 6693.19 461.050   1
   6   4   0 8396.04 394.150   1
   0   2   8 14018.7 486.890   1
   0   2  -8 11849.0 454.570   1
   0   2   8 11626.7 384.790   1
   0  -2   8 13810.6 437.430   1
   0   2  -8 9625.45 620.740   1
   0  -2   8 12714.2 445.740   1
  -5  -1  -4 262.110 143.370   1
   5  -1   4 502.390 149.380   1
   5  -1   4 283.680 133.290   1
   5   1   4 606.660 156.320   1
   5   1   4 481.170 131.160   1
   2   6   4 743.070 132.520   1
   2   6   4 685.950 147.540   1
  -2   6  -4 524.130 161.090   1
  -2   6  -4 711.450 247.550   1
   2  -6   4 570.380 121.470   1
   2  -6   4 781.730 105.970   1
  -2   6  -4 544.760 117.140   1
  -6  -2  -2 2874.14 277.040   1
   6   2   2 2856.66 307.840   1
   6  -2   2 4019.60 214.030   1
   6  -2   2 3024.97 192.690   1
   6   2   2 4055.15 219.420   1
   6   2   2 2848.69 202.620   1
  -1  -3   8 2454.27 161.800   1
  -1  -3   8 2031.95 156.180   1
  -1   3   8 3083.77 211.690   1
   1   3  -8 1897.78 259.400   1
   1   3  -8 2657.27 195.890   1
  -1   3   8 2156.08 136.850   1
   1   7  -4 40830.6 1323.36   1
   1  -7  -4 45907.3 1220.27   1
  -1   7   4 34718.5 934.770   1
   7  -2  -5 9075.88 431.500   1
   7   2  -5 7407.86 541.350   1
   7   2  -5 10646.5 437.160   1
   7  -2  -5 8976.35 389.350   1
   7   2  -5 9853.36 336.410   1
  -7  -2   5 5809.42 419.330   1
   4   5   3 7164.37 347.210   1
   4   5   3 6320.53 438.090   1
   4   5   3 5784.07 277.020   1
  -4   5  -3 5211.29 337.960   1
   4  -5   3 6143.78 248.970   1
   4  -5   3 5292.15 285.030   1
   4  -5   3 3425.35 345.140   1
   3   6   3 45548.4 1191.59   1
   3   6   3 43777.4 1198.23   1
   3   6   3 43418.8 1402.70   1
  -3   6  -3 33884.1 1235.64   1
   3  -6   3 41165.5 1099.46   1
   3  -6   3 42916.5 1130.00   1
   2   4   6 21019.5 592.430   1
   2   4   6 24021.4 679.670   1
   2  -4   6 22057.4 663.710   1
  -2   4  -6 18777.4 554.410   1
   2  -4   6 21144.5 668.160   1
   2  -4   6 24462.5 681.150   1
   4   4   4 6266.33 290.310   1
   4  -4   4 6326.15 289.230   1
   4  -4   4 4164.34 214.840   1
   4   4   4 5437.91 252.500   1
   4   4   4 5467.71 328.530   1
   4  -4   4 4378.89 251.180   1
   7  -1   0 1283.46 180.250   1
   7  -1   0 1651.74 148.300   1
   7   1   0 1563.70 195.340   1
   7  -1   0 1183.50 228.740   1
   7   1   0 1096.02 222.710   1
   7   1   0 2252.64 189.110   1
   1   5   6 37699.1 996.850   1
   1   5   6 40464.8 1084.57   1
   1  -5   6 36362.7 965.940   1
  -1   5  -6 26990.7 1191.48   1
   1  -5   6 38634.8 1027.63   1
  -1   5  -6 32089.0 878.670   1
   1   6   5 2748.40 180.580   1
   1   6   5 2783.94 181.500   1
  -1   6  -5 2254.24 256.190   1
   1  -6   5 2999.87 204.260   1
   1  -6   5 2632.85 155.600   1
  -1   6  -5 3366.44 387.810   1
   1  -6   5 3140.96 250.180   1
  -2   5   7 10968.0 365.700   1
   2   5  -7 13277.1 808.320   1
  -2  -5   7 15244.7 488.400   1
  -2  -5   7 13740.1 515.100   1
   2   5  -7 13802.0 794.730   1
  -2   5   7 13598.8 469.470   1
   7   1  -6 14488.6 536.670   1
   7   1  -6 14746.3 456.230   1
   7  -1  -6 14680.3 424.640   1
   7   1  -6 14751.8 662.840   1
   7  -1  -6 13944.7 580.110   1
   7  -1  -6 13284.5 449.450   1
   7  -3  -2 1276.54 107.120   1
   7   3  -2 1105.90 215.210   1
  -7   3   2 1186.70 225.280   1
   7  -3  -2 2075.60 151.760   1
   7   3  -2 1854.88 177.780   1
   7   3  -2 2245.39 223.960   1
   7  -3  -2 2234.14 175.560   1
   3   0  -9 -73.320 172.190   1
  -3   0   9 4.79000 101.970   1
  -3   0   9 -7.6100 111.450   1
   7  -3  -4 11346.4 358.020   1
   7   3  -4 11340.2 392.450   1
   7   3  -4 11183.5 758.070   1
   7   3  -4 16237.5 604.220   1
   7  -3  -4 15731.7 533.790   1
   0   8   0 2119.59 190.030   1
   0   8   0 1284.85 100.290   1
   0  -8   0 2279.79 167.640   1
   0   8   0 1825.32 141.870   1
   0  -8   0 1343.29 95.2700   1
   0   8   0 1913.45 237.580   1
   5  -6  -3 11036.8 476.030   1
   5   6  -3 12203.5 485.220   1
  -5  -6   3 14479.7 538.500   1
   5   6  -3 13053.3 703.220   1
   5   6  -3 13354.1 563.850   1
  -2  -6   6 3359.48 223.050   1
  -2   6   6 2449.51 158.800   1
  -2  -6   6 3057.10 160.630   1
  -2   6   6 3365.84 195.020   1
   2   6  -6 3967.43 368.220   1
   5  -6  -1 559.610 169.370   1
   5  -6  -1 969.870 151.970   1
   5   6  -1 480.950 219.000   1
   5   6  -1 680.830 143.370   1
   5   6  -1 548.110 212.000   1
  -5  -6   1 505.290 165.350   1
   6  -5  -3 5957.66 228.290   1
   6  -5  -3 3536.68 245.500   1
   6  -5  -3 5362.12 227.230   1
   6  -5  -3 6905.23 393.760   1
   6   5  -3 5666.30 489.540   1
   6   5  -3 4671.74 341.560   1
   6   5  -3 5126.19 320.060   1
  -6  -5   3 5281.26 311.820   1
  -2  -1   9 43417.1 1154.09   1
  -2  -1   9 38372.5 993.490   1
  -2   1   9 45287.7 1275.45   1
   2   1  -9 41789.2 1228.71   1
  -2   1   9 40555.3 1038.37   1
   1  -1   8 523.430 114.120   1
   1   1   8 592.000 126.040   1
   1  -1   8 578.510 147.210   1
  -1   1  -8 566.050 194.000   1
   1   1   8 507.970 114.780   1
  -5   4   7 12335.8 436.640   1
   5   4  -7 12706.6 654.990   1
   5   4  -7 14271.7 675.920   1
   5   4  -7 9622.10 460.360   1
  -5   4   7 15688.2 500.890   1
  -5  -4   7 11360.9 394.790   1
   5   4  -7 12834.6 472.090   1
   4  -6   2 416.050 167.810   1
   4   6   2 632.610 131.980   1
  -4   6  -2 617.290 268.160   1
   4   6   2 759.150 214.170   1
   4  -6   2 691.670 124.550   1
   4  -6   2 767.700 103.990   1
   4   6   2 1100.08 198.400   1
  -4   6  -2 691.090 163.010   1
  -1   8   1 32356.9 1094.88   1
  -1   8   1 28392.6 761.230   1
   1  -8  -1 30009.0 761.840   1
  -1   8   1 24297.4 658.100   1
   1   8  -1 27974.0 923.390   1
  -1   8   1 31476.5 886.260   1
   3  -3   6 303.480 87.5400   1
   3   3   6 477.710 137.760   1
   3   3   6 332.810 110.050   1
   3  -3   6 504.500 123.290   1
  -3  -3  -6 358.620 164.460   1
   3   7  -4 24419.6 871.350   1
  -3  -7   4 22046.6 718.750   1
   3   7  -4 23953.9 1038.96   1
  -3   7   4 26191.1 753.330   1
  -3   7   4 18091.0 582.910   1
   3  -7  -4 22283.0 840.050   1
  -4  -3  -5 20290.3 923.950   1
   4   3   5 25934.7 700.190   1
   4  -3   5 23113.1 686.540   1
   4   3   5 25885.6 760.070   1
   1   4   7 1841.15 164.140   1
   1   4   7 1604.30 141.400   1
  -1   4  -7 1023.59 272.360   1
   1  -4   7 1218.93 112.200   1
  -1   4  -7 1368.10 135.700   1
   1  -4   7 1802.59 131.050   1
  -5   4  -3 2713.77 222.160   1
   5  -4   3 3129.42 173.370   1
   5   4   3 4678.32 257.740   1
   5   4   3 4114.40 347.340   1
   5   4   3 4302.86 209.770   1
  -5   5   6 23396.4 661.860   1
   5  -5  -6 24512.2 1007.89   1
  -5   5   6 26969.9 756.820   1
   5  -5  -6 22004.9 653.550   1
   5   5  -6 32486.3 1183.99   1
  -5  -5   6 30313.7 920.740   1
   2   4  -8 13482.1 438.600   1
  -2   4   8 15817.7 489.140   1
  -2  -4   8 16366.5 565.650   1
  -2   4   8 17331.0 570.290   1
   2   4  -8 15120.4 645.690   1
   2   4  -8 15670.0 592.680   1
   6  -5  -1 5574.54 275.140   1
   6  -5  -1 6470.13 326.570   1
   6  -5  -1 7322.31 282.390   1
  -6   5   1 6200.74 538.790   1
   6   5  -1 5653.43 484.920   1
   6   5  -1 6940.64 335.250   1
   6   5  -1 4436.07 241.110   1
   2   7   3 86.7400 130.940   1
   2   7   3 64.0300 141.670   1
   2   7   3 42.4400 167.360   1
   2  -7   3 93.1100 178.510   1
   2  -7   3 95.6900 111.870   1
  -2   7  -3 62.8600 127.280   1
  -2   7  -3 61.6300 94.0600   1
   2  -7   3 108.650 80.3300   1
  -2   7  -3 111.240 209.350   1
  -6   4   6 6951.97 258.080   1
   6  -4  -6 7856.63 309.220   1
   6   4  -6 9896.33 507.160   1
  -6  -4   6 9207.63 388.520   1
   6   4  -6 4924.51 318.690   1
   6   4  -6 8027.92 550.800   1
   6   4  -6 7499.18 321.020   1
  -4   1   9 5924.69 281.140   1
   4  -1  -9 5471.39 338.720   1
  -4  -1   9 7415.35 293.050   1
   4   1  -9 6169.10 372.440   1
  -4  -1   9 6283.73 288.000   1
  -4   1   9 6544.69 340.550   1
  -6   0   8 7146.85 301.220   1
   6   0  -8 8949.38 332.800   1
   6   0  -8 9108.79 457.380   1
   6   0  -8 8492.89 417.330   1
  -6  -3   7 26700.0 788.650   1
  -6   3   7 18164.9 543.220   1
   6  -3  -7 19386.1 558.570   1
   6   3  -7 22580.5 758.510   1
   6   3  -7 25637.7 753.080   1
   6   3  -7 20737.1 948.350   1
  -1   0   9 -40.760 133.100   1
  -1   0   9 -31.290 117.880   1
   1   0  -9 -276.06 159.970   1
  -1   8  -1 32730.6 799.090   1
   1   8   1 37380.2 1027.63   1
  -1  -8  -1 41221.8 922.660   1
   1   8   1 31143.5 1031.69   1
   1  -8   1 34153.6 754.730   1
   4  -7  -1 493.930 129.910   1
   4  -7  -1 338.840 99.8600   1
   4   7  -1 400.250 129.590   1
   4   7  -1 455.770 206.050   1
  -4  -7   1 683.130 169.960   1
   4   7  -1 385.770 209.010   1
   5  -5   2 3199.02 169.500   1
   5  -5   2 2858.48 303.350   1
   5  -5   2 4275.41 215.870   1
   5   5   2 3804.44 387.400   1
   5   5   2 4782.33 273.090   1
   5   5   2 5324.68 301.430   1
   6  -1   3 19934.7 614.480   1
   6   1   3 21226.1 656.120   1
   6   1   3 19239.2 637.320   1
   6  -1   3 20727.7 658.020   1
   7   0   1 32.7300 141.770   1
   7   0   1 -13.170 146.340   1
   7   0   1 -52.290 158.380   1
   1   7   4 7362.73 314.460   1
   1   7   4 8107.48 420.640   1
   1  -7   4 5764.54 247.410   1
   1  -7   4 9422.06 417.450   1
  -1   7  -4 7819.52 462.460   1
  -1   7  -4 5847.21 266.040   1
  -1   7  -4 9305.13 521.300   1
   1  -7   4 7006.62 322.390   1
   0  -8   2 2268.38 180.560   1
   0   8   2 1904.05 163.860   1
   0  -8   2 1829.21 139.600   1
   0   8   2 2067.79 245.860   1
   0   8  -2 2048.07 225.960   1
   0  -8  -2 2428.43 184.620   1
   0   8  -2 1738.92 111.060   1
   0   8   2 2225.01 177.260   1
   0   8  -2 2434.74 179.660   1
   0  -8  -2 1819.61 174.620   1
   0  -8   2 1710.12 127.660   1
  -3  -2   9 19354.0 549.730   1
  -3   2   9 16396.4 484.410   1
  -3   2   9 19876.4 651.300   1
  -3  -2   9 21748.5 712.400   1
   3   2  -9 16941.2 771.560   1
  -5   3   8 1477.53 165.280   1
  -5  -3   8 1358.65 186.900   1
   5   3  -8 1843.08 159.450   1
   5   3  -8 791.140 106.770   1
  -5   3   8 1730.91 200.890   1
  -5  -3   8 1320.71 126.900   1
   5   3  -8 1176.37 240.500   1
  -5   3   8 1119.00 120.950   1
   2  -3   7 11384.3 418.400   1
   2  -3   7 12326.4 425.580   1
   2   3   7 12015.0 426.870   1
   2   3   7 11348.0 386.350   1
   0   6   6 7722.22 313.060   1
   0   6   6 10824.2 428.880   1
   0  -6   6 9014.15 374.630   1
   0  -6   6 9167.45 435.250   1
   0  -6   6 8805.56 380.660   1
   0   6  -6 9474.70 687.090   1
   0   6  -6 6605.52 472.820   1
  -4   5   7 6135.92 278.250   1
   4   5  -7 8292.53 559.040   1
   4   5  -7 6668.58 352.730   1
  -4   5   7 8976.81 362.360   1
  -4  -5   7 7593.99 392.350   1
   4   5  -7 7326.14 391.610   1
   4   5  -7 7196.89 466.020   1
   4  -7  -3 7781.26 302.090   1
   4  -7  -3 6643.34 256.810   1
  -4  -7   3 8672.18 427.290   1
   4   7  -3 6018.32 371.670   1
   4   7  -3 6906.55 418.620   1
   4   7  -3 6641.14 514.820   1
   3   7   2 13787.6 624.320   1
   3   7   2 11463.4 453.380   1
   3   7   2 11027.5 424.410   1
  -3   7  -2 14593.6 671.900   1
   3  -7   2 12740.2 436.530   1
  -3   7  -2 18693.2 879.800   1
   3  -7   2 13975.5 518.060   1
   0   5   7 1387.14 137.080   1
   0   5   7 1343.29 152.160   1
   0   5  -7 1511.40 267.450   1
   0  -5   7 1309.49 119.310   1
   0  -5   7 1381.07 122.220   1
   0   5  -7 1359.22 133.050   1
   7   0  -7 -71.810 182.520   1
   7   0  -7 -136.70 179.820   1
   7   0  -7 134.170 153.250   1
   7   0  -7 22.7300 111.420   1
   2  -7  -5 9495.45 404.380   1
  -2  -7   5 11119.6 391.460   1
   2   7  -5 8273.33 525.470   1
   2   7  -5 9957.30 449.010   1
   2  -7  -5 7326.70 407.130   1
  -2   7   5 9741.62 330.280   1
  -2   7   5 8295.92 342.110   1
  -2  -8   0 328.280 165.800   1
   2   8   0 -46.450 131.810   1
   2  -8   0 32.7200 105.410   1
   2   8   0 -81.000 191.380   1
   2  -8   0 174.640 158.610   1
  -2   8   0 69.1800 215.840   1
   2   8   0 23.5700 102.060   1
  -5  -3  -4 100.460 146.120   1
   5  -3   4 50.6300 99.1500   1
   5   3   4 65.2900 138.520   1
   5  -3   4 -59.310 137.140   1
   5   3   4 52.5700 119.040   1
  -4  -4   8 4444.99 250.490   1
   4   4  -8 5501.38 232.420   1
  -4   4   8 4937.27 274.780   1
  -4   4   8 6373.34 291.730   1
   4   4  -8 4390.13 238.730   1
  -4   4   8 5317.40 244.670   1
   4   4  -8 5733.84 404.050   1
  -4  -4   8 5956.99 269.970   1
   4   0   6 3000.37 168.660   1
   4   0   6 2872.95 180.840   1
   2   8  -2 3646.55 297.440   1
  -2   8   2 4868.02 242.100   1
   2  -8  -2 5741.73 210.660   1
  -2   8   2 5040.07 216.750   1
   2   8  -2 6467.73 401.430   1
  -2  -8   2 4117.43 276.690   1
  -2  -8   2 5744.69 216.690   1
   7  -4  -3 31279.5 779.950   1
   7  -4  -3 36098.2 959.120   1
   7  -4  -3 28372.4 769.120   1
   7   4  -3 30326.7 947.790   1
   7   4  -3 24060.4 1094.93   1
   7  -3   0 3139.54 342.500   1
   7  -3   0 5355.48 387.170   1
   7   3   0 4881.42 443.190   1
   7  -3   0 5702.98 297.310   1
   7   3   0 5848.81 306.870   1
   7   3   0 6058.61 299.510   1
   6  -5  -5 4958.71 318.410   1
   6  -5  -5 4280.15 200.430   1
   6  -5  -5 4378.73 250.220   1
   6   5  -5 5122.14 303.130   1
   6   5  -5 4410.75 397.020   1
  -6  -5   5 6282.51 352.900   1
   3   0   7 75.5100 113.600   1
   3   0   7 -65.430 124.260   1
  -3   0  -7 105.160 184.870   1
  -3   0  -7 -65.990 140.970   1
  -3   0  -7 -34.240 130.180   1
   5   0  -9 145.300 181.880   1
  -5   0   9 -99.250 139.310   1
   5   0  -9 -36.430 84.4500   1
  -5   0   9 98.9800 121.660   1
  -5   0   9 -138.74 147.410   1
   4  -6  -6 3964.51 217.950   1
  -4   6   6 3867.13 212.920   1
  -4   6   6 4267.88 271.420   1
  -4   6   6 6320.29 267.140   1
  -4  -6   6 5074.55 308.960   1
   4   6  -6 5529.14 345.980   1
   4   6  -6 6363.16 461.330   1
   8   0  -4 33515.3 998.160   1
   8   0  -4 42058.7 951.980   1
  -6  -2   8 1296.42 134.960   1
   6   2  -8 1935.66 170.820   1
  -6   2   8 1918.79 158.420   1
  -6  -2   8 1906.14 144.410   1
   6   2  -8 1474.62 229.030   1
   6  -2  -8 1342.00 135.050   1
   1   2  -9 3488.40 338.630   1
  -1   2   9 4390.94 246.810   1
  -1  -2   9 3928.40 216.100   1
  -1   2   9 4482.05 218.320   1
  -1  -2   9 4105.77 220.680   1
   1  -8  -3 481.850 136.300   1
   1   8  -3 518.550 218.900   1
  -1   8   3 451.620 104.620   1
  -1  -8   3 424.670 96.4000   1
   1   8  -3 883.360 228.250   1
  -1   8   3 742.170 150.910   1
  -1  -8   3 843.200 216.230   1
   1  -8  -3 640.710 174.530   1
   7   2   1 4311.59 367.800   1
   7  -2   1 5348.67 466.770   1
  -7  -2  -1 4590.04 318.830   1
   7  -2   1 7338.56 298.390   1
   7  -2   1 5613.50 279.760   1
   7   2   1 7742.63 375.320   1
   7   2   1 7191.37 393.450   1
   5  -6  -5 55090.6 1296.59   1
   5  -6  -5 43843.9 908.820   1
  -5   6   5 40288.9 948.480   1
  -5  -6   5 41183.6 866.740   1
   5   6  -5 53199.5 1696.28   1
   8  -1  -3 44341.4 1165.41   1
   8   1  -3 51101.7 1029.00   1
   8   1  -3 46638.1 1055.22   1
   0   7   5 -3.1100 138.830   1
   0   7   5 326.590 132.840   1
   0   7  -5 -178.00 193.800   1
   0  -7   5 -48.900 174.010   1
  -7  -3   6 8256.55 338.320   1
   7  -3  -6 10898.9 360.230   1
   7   3  -6 11936.2 509.940   1
   7  -3  -6 9210.80 427.770   1
   7   3  -6 8272.11 332.020   1
   7   3  -6 8063.91 577.610   1
   8   0  -2 28425.0 754.280   1
   8   0  -2 30233.2 875.290   1
   5  -6   1 6852.14 287.720   1
  -5   6  -1 5034.33 480.990   1
   5   6   1 5803.42 326.460   1
   5   6   1 4895.50 256.030   1
   5   6   1 4387.00 376.090   1
   5   0   5 149.220 153.140   1
   5   0   5 58.5000 127.080   1
   4  -7   1 133.320 113.540   1
   4   7   1 450.750 168.990   1
   4  -7   1 32.1600 186.970   1
   4   7   1 374.560 145.300   1
   4   7   1 -113.93 201.250   1
   7  -2  -7 16177.1 490.400   1
   7   2  -7 16683.5 528.930   1
   7  -2  -7 14425.4 582.890   1
   7   2  -7 16036.9 546.670   1
   7  -2  -7 15261.1 630.160   1
   7   2  -7 14479.3 698.470   1
  -7   4   1 5142.93 412.760   1
   7  -4  -1 5773.53 252.850   1
   7  -4  -1 3916.58 261.290   1
   7   4  -1 5275.98 332.650   1
   7   4  -1 3430.75 348.270   1
   7   4  -1 5096.72 251.860   1
  -2  -3   9 13368.3 483.180   1
  -2   3   9 15140.5 454.350   1
   2   3  -9 13238.4 685.430   1
  -2  -3   9 15243.0 509.960   1
  -2   3   9 14265.3 485.140   1
   0   4   8 2387.77 152.830   1
   0   4   8 2116.86 173.220   1
   0  -4   8 2278.80 158.870   1
   0  -4   8 2179.31 170.890   1
   0   4  -8 2451.34 315.110   1
   1   3   8 6211.28 266.400   1
   1   3   8 7225.92 338.310   1
   1  -3   8 6779.63 286.800   1
  -1   3  -8 3845.01 464.420   1
   1  -3   8 6883.69 284.420   1
   0  -1   9 6065.37 255.510   1
   0   1  -9 3703.04 311.360   1
   0  -1   9 6117.24 296.830   1
   0   1   9 7039.36 317.180   1
   0   1   9 4737.14 203.550   1
   6  -4   2 7507.02 310.680   1
   6  -4   2 6657.64 280.690   1
   6   4   2 6063.20 408.690   1
   6   4   2 7230.88 346.530   1
   6   4   2 7350.59 306.150   1
   4  -2   6 8787.37 349.650   1
   4   2   6 8902.04 319.910   1
   4   2   6 8901.48 327.740   1
   4  -2   6 6454.38 285.160   1
   2   0   8 23777.5 698.010   1
  -2   0  -8 17599.7 724.110   1
  -2   0  -8 20400.7 884.450   1
   7  -4  -5 2062.95 276.270   1
   7  -4  -5 3194.98 153.060   1
   7  -4  -5 2498.50 267.520   1
   7   4  -5 2417.72 377.260   1
  -7  -4   5 2738.72 201.220   1
   7   4  -5 3152.12 208.050   1
   7   4  -5 3734.54 266.640   1
   8  -1  -5 6465.17 385.160   1
   8   1  -5 5577.00 446.710   1
   8  -1  -5 8616.19 303.300   1
   8   1  -5 7100.09 265.570   1
   8   1  -5 7034.87 298.060   1
   8  -1  -5 7357.09 312.720   1
   3  -8  -1 31189.2 809.900   1
   3   8  -1 33211.8 1052.39   1
  -3  -8   1 33197.4 900.020   1
   3   8  -1 31376.6 1012.52   1
   3   2   7 869.980 137.280   1
  -3   2  -7 710.900 360.120   1
  -3  -2  -7 645.980 175.410   1
   3  -2   7 659.790 101.680   1
   3  -2   7 1083.26 168.730   1
   3   2   7 821.100 117.620   1
  -5   2   9 3376.86 164.650   1
   5   2  -9 3466.42 198.870   1
  -5   2   9 3698.28 194.440   1
  -5  -2   9 3012.92 196.460   1
  -5  -2   9 3832.54 231.350   1
   5   2  -9 2666.32 270.630   1
   5   2  -9 2744.52 261.730   1
   8  -2  -4 14250.5 594.860   1
   8   2  -4 16894.8 519.450   1
   8   2  -4 18154.5 590.730   1
   8  -2  -4 21722.6 630.860   1
  -4  -3   9 2779.94 223.690   1
  -4  -3   9 1938.39 125.850   1
  -4   3   9 3105.62 225.640   1
   4   3  -9 2910.94 309.300   1
   4   3  -9 2574.23 298.480   1
  -4  -3   9 3440.78 217.860   1
  -4   3   9 2490.99 171.010   1
   4   3  -9 3132.92 179.930   1
   6  -3   3 6492.36 288.700   1
   6   3   3 7382.94 330.760   1
   6   3   3 8665.16 319.000   1
   6  -3   3 9989.90 376.060   1
   6   3   3 6133.96 330.450   1
   6  -5   1 11129.5 396.160   1
   6  -5   1 8296.11 335.720   1
  -6   5  -1 8949.71 672.710   1
   6   5   1 10508.2 476.420   1
   6   5   1 9294.95 371.300   1
   6   5   1 7321.99 519.210   1
   1   8   3 16953.7 686.420   1
   1   8   3 17146.1 594.160   1
  -1  -8  -3 19770.9 645.410   1
  -1   8  -3 18922.0 713.040   1
  -1   8  -3 19158.0 715.720   1
   1  -8   3 17637.4 570.540   1
   1  -8   3 17248.2 600.880   1
  -3   6   7 816.910 124.280   1
  -3  -6   7 537.680 140.850   1
  -3   6   7 656.710 135.300   1
   3   6  -7 479.010 244.980   1
   2   8   2 198.420 206.330   1
  -2  -8  -2 484.720 168.390   1
   2   8   2 340.730 165.880   1
   2   8   2 414.150 146.560   1
  -2   8  -2 696.770 218.540   1
   2  -8   2 433.740 101.980   1
   2  -8   2 551.920 159.570   1
  -2   8  -2 448.060 127.160   1
  -3  -5   8 15235.3 545.980   1
  -3   5   8 14444.8 549.500   1
  -3   5   8 12385.5 399.420   1
   3   5  -8 15966.2 943.390   1
   3   5  -8 15120.2 1014.39   1
  -3  -5   8 13335.7 429.280   1
   8  -2  -2 3536.49 295.230   1
   8   2  -2 3226.43 402.320   1
   8  -2  -2 4920.41 215.190   1
   8   2  -2 4617.99 250.000   1
   8   2  -2 6265.06 331.800   1
   8  -2  -2 5558.04 282.720   1
   6  -6  -2 -56.180 147.870   1
   6  -6  -2 38.3700 148.690   1
   6   6  -2 168.160 128.120   1
  -6  -6   2 216.020 161.390   1
   6   6  -2 -128.46 203.890   1
   6   6  -2 37.3800 245.930   1
   5   2   5 4921.14 244.810   1
   5   2   5 3552.17 210.030   1
   5  -2   5 4553.03 245.050   1
   5  -2   5 4109.27 212.940   1
  -1   6   7 10766.6 433.710   1
  -1   6   7 9381.76 345.700   1
  -1  -6   7 10144.2 464.460   1
   1   6  -7 10955.5 714.010   1
   1   6  -7 10433.6 646.560   1
  -1  -6   7 11461.9 419.870   1
   8  -1  -1 8849.17 516.770   1
   8  -1  -1 10101.4 444.550   1
   8   1  -1 13668.6 473.900   1
   8  -1  -1 12326.1 413.380   1
   8   1  -1 12280.0 498.660   1
   7   1   2 411.730 154.390   1
   7  -1   2 723.390 144.340   1
   7   1   2 753.270 168.540   1
   7   1   2 792.190 160.030   1
   7  -1   2 630.560 162.660   1
   5  -7  -2 25704.4 829.110   1
   5  -7  -2 31631.3 864.310   1
  -5  -7   2 27998.1 844.830   1
   5   7  -2 27705.0 1116.38   1
   5   7  -2 24050.5 729.500   1
   5   7  -2 29254.5 1082.05   1
  -4   7   5 4000.19 190.810   1
  -4   7   5 2551.66 168.470   1
   4  -7  -5 3820.83 246.910   1
   4   7  -5 3925.21 289.950   1
   4   7  -5 4776.39 424.050   1
  -4  -7   5 4160.49 260.190   1
  -3  -8   3 28485.0 791.430   1
   3   8  -3 32956.6 1108.79   1
   3   8  -3 33829.9 915.610   1
   8   0  -6 80351.9 1503.80   1
   8   0  -6 68474.4 1622.47   1
   8   0  -6 79273.2 1582.79   1
   6   0   4 10366.7 367.720   1
   2   8  -4 4191.56 335.320   1
  -2   8   4 3515.83 201.660   1
   2   8  -4 5862.36 302.670   1
   2  -8  -4 4920.13 251.090   1
  -2  -8   4 5315.04 262.120   1
  -2   8   4 4890.35 254.740   1
  -1   5   8 4028.09 215.260   1
  -1   5   8 3523.41 185.960   1
   1   5  -8 3045.62 388.420   1
   1   5  -8 4296.31 426.260   1
  -1  -5   8 3755.13 272.730   1
  -1  -5   8 4986.99 276.120   1
   6  -6  -4 241.970 114.730   1
   6  -6  -4 491.960 121.040   1
  -6  -6   4 591.290 148.980   1
   6   6  -4 472.580 187.200   1
   6   6  -4 371.140 280.330   1
   6   6  -4 307.690 108.540   1
   2   2   8 12872.9 423.080   1
   2  -2   8 14774.6 445.620   1
   2  -2   8 12068.0 415.390   1
  -1   7   6 3697.61 180.570   1
  -1   7   6 5234.89 276.700   1
  -1  -7   6 5546.51 307.190   1
   1   7  -6 4648.37 478.730   1
   7  -1  -8 1062.23 121.250   1
   7   1  -8 1819.35 178.370   1
   7  -1  -8 1728.53 209.050   1
   7   1  -8 884.370 221.970   1
   7   1  -8 1334.17 223.220   1
   0  -8  -4 6906.58 312.510   1
   0   8   4 5166.01 253.880   1
   0   8   4 5291.96 283.660   1
   0  -8   4 5746.96 242.320   1
   0   8  -4 8457.68 474.210   1
   0   8  -4 7008.37 440.780   1
   3  -8   1 1239.35 144.220   1
   3   8   1 1162.14 196.480   1
   3   8   1 846.180 240.910   1
   3   8   1 858.260 136.850   1
   3  -8   1 1312.43 170.930   1
  -3  -8  -1 1250.33 178.160   1
   6   1  -9 29004.5 1044.63   1
   6  -1  -9 23410.6 652.140   1
   6   1  -9 22481.7 632.070   1
   6  -1  -9 16740.5 1061.53   1
   6  -1  -9 27429.5 900.500   1
  -6  -1   9 23557.0 676.880   1
   3   7  -6 35053.0 1288.22   1
  -3  -7   6 31264.5 871.860   1
   3   7  -6 32323.6 1057.88   1
   8  -3  -3 11146.9 594.410   1
   8  -3  -3 18075.0 515.610   1
   8   3  -3 13046.2 464.790   1
   8   3  -3 15151.4 540.490   1
   3  -1 -10 7217.13 443.680   1
   3   1 -10 5274.74 392.430   1
  -3   1  10 6773.03 302.120   1
  -3  -1  10 5318.44 257.970   1
  -3   1  10 7133.76 257.670   1
  -3  -1  10 5851.73 271.330   1
   2   0 -10 16095.8 608.620   1
  -2   0  10 19294.5 651.900   1
  -2   0  10 15308.9 430.390   1
   7  -5  -2 7851.57 380.270   1
   7  -5  -2 5092.44 325.560   1
   7  -5  -2 8608.43 317.540   1
   7   5  -2 8819.64 416.620   1
   7   5  -2 5809.89 455.390   1
   7   5  -2 6252.26 301.890   1
  -3  -4   9 5318.31 348.400   1
   3   4  -9 7227.75 844.630   1
  -3  -4   9 6039.41 296.350   1
  -3   4   9 7143.60 330.110   1
   3   4  -9 6308.85 482.850   1
   3   4  -9 8156.93 331.860   1
  -3   4   9 7376.73 325.580   1
  -3  -4   9 8958.95 334.010   1
   4   0 -10 1005.84 199.210   1
  -4   0  10 885.080 155.310   1
  -4   0  10 1100.23 133.060   1
   5  -7  -4 114.660 111.980   1
   5  -7  -4 324.950 115.490   1
   5   7  -4 365.590 109.610   1
  -5  -7   4 136.670 161.810   1
   5   7  -4 306.540 181.540   1
   5   7  -4 476.570 254.000   1
   8   0   0 5030.87 272.470   1
   8   0   0 5329.43 296.800   1
   8   0   0 3602.73 364.850   1
   7  -5  -4 15684.4 730.580   1
   7  -5  -4 23211.2 857.150   1
   7  -5  -4 18393.9 538.610   1
   7   5  -4 16341.7 899.880   1
   7   5  -4 23107.0 790.010   1
   7   5  -4 17881.7 628.190   1
   1   0   9 -65.420 106.720   1
   1   0   9 161.080 125.300   1
  -1   0  -9 -74.630 171.780   1
   5  -7   0 30619.6 845.170   1
   5  -7   0 43443.9 1136.13   1
   5   7   0 32281.1 920.130   1
   5   7   0 39286.8 1118.24   1
   5   7   0 37697.0 968.330   1
   3  -6   5 2128.25 145.970   1
   3   6   5 2704.09 206.100   1
   3  -6   5 2002.50 155.080   1
   3   6   5 2267.90 161.460   1
  -3   6  -5 3032.57 341.720   1
  -3   6  -5 1596.71 223.710   1
   8  -2  -6 15925.8 648.870   1
   8   2  -6 15010.7 859.770   1
   8  -2  -6 23295.4 656.480   1
   8   2  -6 21046.6 593.260   1
   8  -2  -6 22352.1 718.980   1
   8   2  -6 23367.6 745.000   1
   6  -2   4 269.320 133.990   1
   6   2   4 370.370 135.900   1
   6   2   4 155.230 130.950   1
   6  -2   4 240.520 162.600   1
   6  -6   0 196.350 154.800   1
  -6   6   0 310.130 280.310   1
   6   6   0 348.600 232.560   1
   6   6   0 94.7400 161.900   1
   6   6   0 158.240 132.430   1
   0   3  -9 4713.26 428.070   1
   0   3   9 5566.27 288.720   1
   0  -3   9 5063.63 274.890   1
   0   3   9 5065.06 216.470   1
   0  -3   9 5681.49 249.250   1
  -3   5  -6 1469.01 261.140   1
   3  -5   6 1744.12 132.150   1
   3   5   6 1709.72 152.390   1
   3   5   6 2258.35 188.150   1
   3  -5   6 2264.01 182.740   1
   4  -8  -2 2709.37 184.610   1
   4  -8  -2 2729.20 166.370   1
   4   8  -2 1646.99 157.720   1
   4   8  -2 2034.55 247.330   1
   4   8  -2 2248.95 224.950   1
  -4  -8   2 2564.06 193.730   1
   8  -3  -5 2814.37 260.440   1
   8  -3  -5 3583.93 169.190   1
   8  -3  -5 5397.56 290.070   1
   8   3  -5 2633.80 337.050   1
   8   3  -5 5297.61 320.780   1
   8   3  -5 3574.36 213.030   1
   2   6   6 2600.35 177.770   1
   2   6   6 2534.11 190.620   1
   2  -6   6 2292.43 180.970   1
  -2   6  -6 1455.58 264.670   1
  -2   6  -6 2441.61 335.240   1
   2  -6   6 2172.08 153.950   1
   4  -5   5 132.100 135.000   1
   4   5   5 29.3400 169.880   1
   4   5   5 265.300 138.040   1
   4  -5   5 -31.420 105.940   1
   0   9   1 664.950 149.180   1
   0   9  -1 1014.58 265.350   1
   0   9   1 974.500 197.210   1
   0   9  -1 1073.81 158.950   1
   0  -9  -1 1231.38 211.150   1
   0  -9   1 1330.25 186.400   1
   0   9   1 775.980 130.460   1
   4  -6   4 3020.61 153.830   1
  -4   6  -4 3883.63 408.820   1
   4  -6   4 3019.29 211.580   1
   4   6   4 4392.11 231.680   1
   4   6   4 3142.34 174.980   1
   4   6   4 3763.46 320.830   1
  -1   9   0 14248.7 553.130   1
   1   9   0 17587.2 694.550   1
  -1   9   0 15098.0 515.210   1
   1   9   0 16338.9 562.340   1
  -6   4   8 10823.5 319.130   1
  -6   4   8 12828.2 408.960   1
   6  -4  -8 11162.6 334.630   1
   6   4  -8 13656.7 470.590   1
   6   4  -8 13608.3 687.840   1
  -6  -4   8 11273.8 356.850   1
  -6   5   7 265.390 93.2900   1
   6  -5  -7 269.970 121.350   1
  -6  -5   7 341.710 151.830   1
   6   5  -7 524.330 302.420   1
   6   5  -7 399.470 173.330   1
   6   5  -7 591.540 133.430   1
  -1   4   9 850.950 111.360   1
  -1   4   9 995.470 166.890   1
  -1  -4   9 865.070 131.930   1
  -1  -4   9 1136.48 141.200   1
   1   4  -9 721.230 245.940   1
   7  -4   1 657.260 128.290   1
   7  -4   1 1069.47 131.700   1
   7  -4   1 1378.40 154.850   1
   7   4   1 1194.70 246.700   1
   7   4   1 997.530 196.170   1
   7   4   1 964.860 140.230   1
   3   7   4 5685.87 278.600   1
  -3   7  -4 3629.29 307.710   1
  -3   7  -4 5572.21 442.130   1
   3   7   4 5062.46 266.650   1
   3  -7   4 5957.77 352.740   1
   3  -7   4 3968.84 233.440   1
   3   7   4 4873.55 330.310   1
   3  -7   4 4277.99 227.750   1
   2   2 -10 2042.73 266.140   1
  -2   2  10 3814.98 278.650   1
  -2  -2  10 2816.55 181.770   1
  -2  -2  10 3026.31 176.950   1
  -2   2  10 3210.34 169.950   1
   8  -1  -7 3835.23 251.350   1
   8  -1  -7 4555.67 317.310   1
   8   1  -7 4005.51 300.580   1
   8   1  -7 4476.53 255.450   1
   8  -1  -7 5668.58 235.650   1
   8   1  -7 4983.65 201.080   1
   8  -1  -7 3817.69 238.480   1
   2  -7   5 2169.74 155.110   1
   2  -7   5 3148.45 234.740   1
   2   7   5 2478.51 176.030   1
  -2   7  -5 2651.46 308.890   1
   2  -7   5 2388.53 179.380   1
   2   7   5 2248.02 170.800   1
  -2   7  -5 1898.82 229.060   1
   4   2 -10 16769.3 743.690   1
  -4   2  10 19570.4 611.890   1
  -4  -2  10 15873.3 519.640   1
  -4  -2  10 14943.9 457.130   1
  -4   2  10 17738.5 509.240   1
   8  -2   0 3671.37 368.920   1
   8   2   0 3426.63 347.300   1
   8  -2   0 5476.48 221.130   1
   8   2   0 6210.99 294.430   1
   8   2   0 5613.21 317.070   1
   8  -2   0 5676.81 284.570   1
   8  -3  -1 18063.4 570.520   1
   8   3  -1 14849.8 840.970   1
   8   3  -1 21272.4 552.990   1
   8   3  -1 18692.0 585.560   1
   1  -8  -5 4123.92 249.440   1
  -1   8   5 3194.97 174.440   1
  -1   8   5 3824.19 208.210   1
   1   8  -5 4136.49 268.090   1
  -1  -8   5 5925.80 329.640   1
   1   8  -5 4022.28 344.870   1
  -5   5   8 4822.28 219.310   1
  -5   5   8 6530.82 322.300   1
   5   5  -8 7477.97 436.890   1
   5   5  -8 5229.31 264.570   1
  -5  -5   8 7717.48 351.950   1
   5   5  -8 5643.45 480.070   1
   2   5   7 5898.77 249.770   1
   2   5   7 5798.20 286.390   1
   2  -5   7 4915.35 202.720   1
  -2   5  -7 2540.08 356.460   1
   2  -5   7 4554.42 220.030   1
   7   3   2 2839.88 169.690   1
   7  -3   2 3697.41 228.030   1
   7  -3   2 2701.57 178.170   1
   7   3   2 3473.79 338.020   1
   7   3   2 2958.05 189.420   1
   4  -8   0 861.560 143.000   1
   4  -8   0 991.710 115.830   1
   4   8   0 1161.90 160.650   1
  -4  -8   0 1293.95 183.380   1
   4   8   0 784.150 169.710   1
   4   8   0 1814.64 309.420   1
  -1   2  -9 396.590 194.260   1
   1  -2   9 459.980 120.680   1
   1   2   9 592.970 167.840   1
   1   2   9 455.700 124.190   1
   1  -2   9 534.110 122.600   1
  -1   1  10 116.560 111.350   1
  -1   1  10 117.870 167.120   1
  -1  -1  10 246.530 134.380   1
   1   1 -10 30.9100 169.650   1
   1  -1 -10 517.070 184.830   1
  -1  -1  10 115.280 123.090   1
  -1   9   2 22996.2 538.650   1
   1   9  -2 25757.8 779.070   1
   1   9  -2 27678.6 653.350   1
   7   0   3 -191.17 166.280   1
   7   0   3 -77.140 137.790   1
  -5  -1  10 1560.59 139.490   1
  -5  -1  10 1872.98 154.280   1
  -5   1  10 2101.31 173.330   1
  -5  -1  10 1558.76 186.730   1
   5  -1 -10 1778.50 220.150   1
   5   1 -10 1105.95 194.330   1
  -5   1  10 1609.19 143.260   1
   5   1 -10 1565.97 139.550   1
   7  -4  -7 6041.90 265.130   1
   7  -4  -7 5452.79 362.970   1
   7   4  -7 5315.10 258.350   1
   7   4  -7 6455.31 360.300   1
   7   4  -7 3786.12 347.440   1
  -7  -4   7 4596.41 228.380   1
   5  -5   4 8588.29 307.180   1
   5  -5   4 10898.4 389.200   1
   5   5   4 11605.4 527.740   1
   5   5   4 12115.0 413.800   1
   5   5   4 9759.46 346.440   1
   4  -1   7 6133.64 260.100   1
   4   1   7 7038.44 264.480   1
   4   1   7 7212.80 274.280   1
   4  -1   7 8511.92 315.500   1
  -4  -1  -7 4473.52 326.570   1
  -5   6   7 14845.2 477.020   1
  -5   6   7 17007.4 522.830   1
   5   6  -7 16663.6 671.800   1
  -5  -6   7 17503.0 493.430   1
   5   6  -7 15174.6 759.620   1
   2  -9  -1 2212.36 98.4200   1
   2   9  -1 2188.47 243.250   1
   2   9  -1 1862.08 186.780   1
   2  -9  -1 4059.71 218.930   1
   2   9  -1 2799.13 218.340   1
   4  -4   6 484.010 108.910   1
   4   4   6 473.360 124.820   1
   4  -4   6 376.130 125.010   1
   4   4   6 428.430 132.010   1
   4  -7   3 1717.33 221.610   1
  -4   7  -3 1350.90 290.510   1
   4  -7   3 1375.35 131.390   1
   4   7   3 1625.18 245.050   1
   4   7   3 1758.88 182.730   1
   4   7   3 2148.55 188.730   1
   1   6   7 2990.06 159.440   1
   1   6   7 3388.54 193.580   1
   1  -6   7 3048.92 178.670   1
  -1   6  -7 3951.31 400.530   1
  -1   6  -7 2324.12 311.140   1
   1  -6   7 3145.89 171.970   1
   7   3  -8 1829.85 168.290   1
   7  -3  -8 1843.38 181.650   1
  -7  -3   8 1375.91 163.450   1
   7   3  -8 1526.09 263.020   1
  -7   3   8 1697.95 147.260   1
   7   3  -8 1764.68 204.160   1
  -7   5   0 3935.97 358.330   1
   7  -5   0 4668.64 193.110   1
   7   5   0 4493.82 286.990   1
   7   5   0 3652.15 207.370   1
   7   5   0 3140.35 307.040   1
   5  -6   3 1500.48 154.100   1
   5  -6   3 1552.58 124.010   1
  -5   6  -3 2340.67 317.130   1
   5   6   3 1800.89 161.900   1
   5   6   3 1674.21 200.390   1
   5   6   3 1574.04 210.050   1
   5  -1   6 1223.27 141.740   1
   5   1   6 1267.48 150.570   1
   5   1   6 1327.36 175.070   1
   5  -1   6 1391.93 156.760   1
   3  -4   7 5726.46 215.690   1
   3  -4   7 6347.78 289.740   1
   3   4   7 6920.30 276.510   1
   3   4   7 7203.16 290.300   1
  -2   6   8 812.340 155.600   1
  -2   6   8 280.720 114.210   1
   2   6  -8 32.9200 274.390   1
   2   6  -8 746.730 336.590   1
  -2  -6   8 440.150 126.090   1
  -2  -6   8 492.540 205.220   1
   5   4  -9 1957.73 150.290   1
  -5   4   9 2347.84 164.280   1
  -5   4   9 1925.17 142.800   1
  -5  -4   9 2335.58 171.660   1
   5   4  -9 1472.19 260.860   1
  -5  -4   9 1596.09 173.280   1
  -6   3   9 3786.84 194.610   1
  -6  -3   9 3339.73 200.860   1
  -6   3   9 4335.11 227.330   1
  -6  -3   9 4872.84 191.230   1
   6  -3  -9 3425.29 151.520   1
   6   3  -9 3872.66 339.480   1
   6   3  -9 3588.66 193.940   1
   4  -8  -4 3373.33 233.200   1
   4   8  -4 3555.30 308.110   1
  -4  -8   4 3361.10 186.250   1
   4   8  -4 3565.35 277.990   1
   3  -8  -5 6095.76 267.290   1
  -3   8   5 7241.27 280.680   1
  -3  -8   5 6899.95 275.750   1
   3   8  -5 6306.13 449.870   1
   3   8  -5 7913.47 416.140   1
   6  -6  -6 12323.8 490.860   1
   6  -6  -6 12307.1 389.480   1
   6  -6  -6 11743.2 600.850   1
   6   6  -6 12994.4 478.480   1
   6   6  -6 17256.8 649.810   1
  -6  -6   6 13122.2 510.310   1
   6   6  -6 11665.7 686.260   1
   8  -4  -4 20845.3 581.780   1
   8  -4  -4 19576.9 446.320   1
   8   4  -4 20990.1 643.500   1
   8   4  -4 17389.0 611.620   1
   1   7   6 10142.9 371.060   1
   1   7   6 12351.2 420.490   1
  -1   7  -6 9969.28 612.790   1
   1  -7   6 12228.9 502.510   1
   1  -7   6 11494.0 404.260   1
  -1   7  -6 10961.9 674.160   1
  -3  -1  -8 205.010 153.420   1
   3   1   8 80.8000 142.300   1
   3   1   8 69.0300 111.860   1
   3  -1   8 -13.190 115.850   1
   3  -1   8 -64.080 138.260   1
   7   0  -9 67.7400 199.570   1
  -7   0   9 -137.19 115.080   1
   7   0  -9 -123.97 127.600   1
   7   0  -9 37.6500 201.300   1
   1   9   2 3583.80 235.020   1
  -1   9  -2 6215.31 327.650   1
   1  -9   2 4129.85 165.680   1
  -1  -9  -2 4880.43 239.440   1
   1  -9   2 5514.94 237.620   1
   1   9   2 3427.46 249.260   1
  -1   9  -2 5510.45 357.280   1
   1   9   2 4933.97 313.280   1
  -3  -3  10 100.190 134.980   1
   3   3 -10 74.6300 209.700   1
  -3   3  10 97.1500 124.620   1
  -3  -3  10 93.1500 90.6900   1
  -3   3  10 111.700 151.200   1
  -2   7   7 2007.43 128.460   1
  -2   7   7 2105.74 176.630   1
   2   7  -7 2567.11 264.890   1
  -2  -7   7 2625.62 206.850   1
   2   7  -7 2363.12 399.570   1
   7  -5  -6 4260.02 356.000   1
   7  -5  -6 4750.05 216.920   1
   7   5  -6 3591.24 444.660   1
   7   5  -6 6661.08 328.380   1
  -7  -5   6 4939.93 282.290   1
   7   5  -6 4915.30 281.960   1
   8   1   1 12674.6 401.660   1
   8   1   1 12024.0 413.930   1
   8  -1   1 11344.8 414.500   1
   8  -1   1 13838.2 423.080   1
   8  -4  -2 8196.65 383.510   1
  -8   4   2 5847.98 449.470   1
   8   4  -2 7560.10 370.480   1
   8   4  -2 6436.67 360.710   1
   8   4  -2 4755.27 465.830   1
   5   4   5 11968.3 384.480   1
   5   4   5 9478.64 320.190   1
   5  -4   5 11090.8 375.730   1
   2  -9   1 3714.48 203.450   1
   2   9   1 2276.25 164.190   1
  -2   9  -1 3586.17 265.770   1
   2   9   1 3630.93 280.430   1
   2   9   1 2540.90 215.710   1
  -2  -9  -1 3728.08 222.840   1
   2  -9   1 3173.59 149.900   1
   7  -2   3 -29.560 109.810   1
   7   2   3 51.2800 128.760   1
   7  -2   3 -50.330 156.150   1
   7   2   3 254.020 162.920   1
   6  -7  -3 15215.9 406.490   1
  -6  -7   3 17484.8 555.860   1
   6   7  -3 15869.9 648.920   1
   6   7  -3 15641.9 765.800   1
   6   7  -3 15951.0 588.720   1
  -2   5   9 3437.85 226.080   1
  -2   5   9 3247.43 185.370   1
  -2  -5   9 3755.09 200.070   1
   2   5  -9 3381.82 413.270   1
   2   5  -9 3527.74 374.540   1
  -2  -5   9 3667.27 286.990   1
   0   9   3 859.710 161.070   1
   0  -9  -3 761.780 182.730   1
   0   9  -3 765.590 150.590   1
   0   9   3 478.970 137.880   1
   0   9  -3 384.200 193.290   1
   0  -9   3 510.130 155.000   1
   0   0  10 10238.2 380.980   1
   0   0  10 11369.0 371.210   1
   0   0 -10 8683.49 439.000   1
   2   8   4 551.030 143.180   1
  -2   8  -4 298.120 145.500   1
   2  -8   4 362.130 199.530   1
   2   8   4 352.350 156.810   1
  -2   8  -4 738.240 228.440   1
   1   5   8 9803.39 351.620   1
   1   5   8 10855.8 362.200   1
   1  -5   8 11115.7 358.730   1
   1  -5   8 10864.7 389.960   1
  -1   5  -8 6984.76 658.300   1
   9   0  -3 20.3000 157.900   1
   9   0  -3 32.1900 145.240   1
   9   0  -3 -124.07 189.140   1
  -4   6   8 -3.1000 161.560   1
  -4   6   8 -141.63 106.580   1
   4   6  -8 93.3800 225.240   1
  -4  -6   8 202.600 169.440   1
   4   6  -8 -343.44 234.520   1
  -2  -9   3 -37.700 179.750   1
   2  -9  -3 332.880 160.410   1
   2   9  -3 86.0800 164.680   1
  -2   9   3 -55.800 142.790   1
   2   9  -3 32.3000 236.740   1
   2   4   8 1332.40 137.400   1
   2  -4   8 1481.16 137.790   1
  -2   4  -8 771.230 221.810   1
   2  -4   8 1614.10 153.420   1
   2   4   8 1800.12 159.580   1
   7  -6  -3 1521.26 175.200   1
   7   6  -3 1819.94 281.030   1
   7   6  -3 2336.67 239.480   1
   7   6  -3 1808.82 145.960   1
  -3   8  -3 4743.06 384.440   1
   3  -8   3 4814.12 298.800   1
   3  -8   3 3498.17 215.080   1
   3   8   3 4325.34 255.680   1
   3   8   3 3100.71 262.570   1
   3   8   3 3467.76 234.380   1
   9   1  -4 712.650 144.810   1
   9  -1  -4 627.370 183.480   1
   9   1  -4 354.780 197.690   1
   9  -1  -4 650.220 150.920   1
   9  -1  -4 1098.42 168.670   1
   9   1  -4 752.690 155.540   1
   8   0  -8 72431.3 1290.21   1
   8   0  -8 75395.8 1196.91   1
   8   0  -8 68044.9 1164.51   1
  -6   0  10 10472.9 369.010   1
   6   0 -10 8298.90 319.800   1
   6   0 -10 6894.75 424.190   1
   6   0 -10 8092.48 429.730   1
   6   1   5 8647.33 305.230   1
   6  -1   5 9824.83 345.630   1
   6   1   5 7882.89 282.940   1
   6  -1   5 9275.11 306.910   1
  -5   7   6 4514.54 264.640   1
   5  -7  -6 4401.86 289.010   1
   5   7  -6 6900.16 495.980   1
  -5  -7   6 4898.46 236.470   1
   5   7  -6 7112.11 384.460   1
   9   0  -5 -11.950 207.860   1
   9   0  -5 -118.84 164.910   1
   9   0  -5 64.2600 148.660   1
   6  -7  -1 7420.30 276.840   1
   6  -7  -1 7794.51 398.240   1
   6   7  -1 6927.07 467.860   1
   6   7  -1 9404.40 414.830   1
   6   7  -1 7954.32 310.950   1
   4   5  -9 4325.05 425.640   1
  -4  -5   9 4579.24 191.810   1
  -4   5   9 3813.85 210.960   1
  -4  -5   9 5033.19 289.020   1
  -4   5   9 5489.36 298.950   1
   5  -7   2 3815.07 264.070   1
  -5   7  -2 4917.83 464.530   1
   5  -7   2 3084.75 184.500   1
   5   7   2 3462.23 204.380   1
   5   7   2 3702.91 223.470   1
   5   7   2 3432.34 301.520   1
  -7   2   9 1510.13 122.970   1
   7   2  -9 1867.53 259.110   1
   7   2  -9 1545.08 132.880   1
   7  -2  -9 2701.57 242.170   1
   7   2  -9 1859.60 274.610   1
   7  -2  -9 2186.79 177.540   1
   6  -5   3 427.120 153.100   1
   6  -5   3 114.370 90.2000   1
   6   5   3 67.9000 170.040   1
   6   5   3 57.7300 169.850   1
   6   5   3 52.0100 183.510   1
  -1   8  -5 30648.2 1012.37   1
  -1   8  -5 24860.4 865.270   1
   1   8   5 30465.7 763.400   1
   1  -8   5 31985.3 733.840   1
   1   8   5 24199.1 554.100   1
   2  -1   9 3465.86 166.350   1
  -2  -1  -9 3275.82 259.920   1
   2   1   9 5185.22 208.690   1
   2   1   9 3973.65 213.450   1
   2  -1   9 3494.50 214.740   1
  -2   1  -9 2720.93 359.110   1
   3  -9  -2 7231.94 248.930   1
   3  -9  -2 5647.81 182.900   1
   3   9  -2 5667.28 398.980   1
   3   9  -2 5898.49 333.710   1
   8  -3  -7 15180.5 541.870   1
   8  -3  -7 16756.8 427.690   1
   8   3  -7 13118.9 798.140   1
   8   3  -7 16738.2 466.370   1
   8   3  -7 17806.9 599.710   1
  -1  -3  10 22267.1 638.860   1
  -1   3  10 18948.0 496.480   1
  -1  -3  10 19350.2 528.670   1
  -1   3  10 23427.5 585.240   1
  -4   7   7 954.210 125.320   1
  -4   7   7 1361.80 150.880   1
   4   7  -7 1267.64 183.090   1
   4   7  -7 2267.16 330.610   1
  -4  -7   7 2170.99 246.410   1
   5   8  -3 13437.7 638.580   1
   5   8  -3 14134.3 588.280   1
  -5  -8   3 16431.6 523.600   1
   3  -9   0 3965.77 205.310   1
   3  -9   0 3934.66 177.850   1
  -3  -9   0 4066.69 244.550   1
   3   9   0 3493.37 254.850   1
   3   9   0 2343.51 209.740   1
   3   9   0 2347.61 295.850   1
  -2   8   6 1294.23 109.760   1
  -2   8   6 1954.43 158.380   1
   2   8  -6 1702.54 195.480   1
   2   8  -6 1720.37 288.120   1
  -2  -8   6 2379.62 207.290   1
   9   1  -2 -178.55 184.140   1
   9  -1  -2 -59.890 146.590   1
   9   1  -2 -150.76 152.610   1
   9  -1  -2 84.2400 149.550   1
   9   1  -2 76.5700 174.900   1
   9  -1  -2 -45.960 146.220   1
   5  -8  -1 9598.30 451.250   1
   5  -8  -1 7978.52 289.520   1
   5   8  -1 8242.92 422.470   1
  -5  -8   1 11128.3 418.420   1
   5   8  -1 8734.95 499.490   1
   5   8  -1 9225.41 458.560   1
  -5   3  10 6137.38 301.470   1
   5   3 -10 4733.96 412.850   1
  -5  -3  10 7134.64 274.090   1
  -5  -3  10 5109.57 252.160   1
   5   3 -10 5829.02 498.100   1
   5   3 -10 6403.76 247.590   1
  -5   3  10 5810.79 241.180   1
   0   7   7 874.240 163.410   1
   0   7   7 632.460 130.610   1
   0   7  -7 775.090 246.220   1
   0  -7   7 1039.45 187.430   1
   0  -7   7 776.160 122.800   1
   0   7  -7 1306.02 356.940   1
   8  -4  -6 874.840 125.450   1
   8  -4  -6 999.920 181.170   1
   8   4  -6 830.180 261.990   1
   8   4  -6 1211.47 151.050   1
   8   4  -6 1598.46 210.270   1
   6  -4   4 7567.24 316.870   1
   6  -4   4 8340.92 298.570   1
   6   4   4 8413.70 339.030   1
   6   4   4 8390.62 415.710   1
   7  -6  -1 8947.18 446.710   1
   7  -6  -1 10767.1 354.230   1
   7   6  -1 8638.76 342.110   1
   7   6  -1 10055.6 442.420   1
   7   6  -1 8265.66 529.520   1
   0   6   8 13698.1 504.530   1
   0   6   8 9794.43 332.420   1
   0  -6   8 13753.2 469.700   1
   0   6  -8 9448.84 623.040   1
   0   6  -8 8063.69 725.620   1
   0   2  10 14680.9 391.070   1
   0   2  10 17119.1 556.500   1
   0  -2  10 18897.2 568.520   1
   0  -2  10 15690.2 465.730   1
   4  -3   7 2724.67 161.250   1
   4  -3   7 2098.09 126.550   1
   4   3   7 3189.73 197.810   1
   4   3   7 2203.68 153.740   1
   9   2  -3 167.550 205.150   1
   9   2  -3 756.290 194.550   1
   9  -2  -3 876.260 186.220   1
   9   2  -3 580.870 160.180   1
   9  -2  -3 870.330 157.670   1
   9  -2  -3 707.330 186.500   1
   6  -6   2 2099.98 164.190   1
  -6   6  -2 2176.09 311.030   1
   6   6   2 2081.90 240.250   1
   6   6   2 2047.51 183.580   1
   6   6   2 2338.62 185.900   1
   4  -8   2 379.190 126.190   1
   4  -8   2 406.370 217.100   1
   4   8   2 626.900 232.090   1
   4   8   2 556.650 149.720   1
   4   8   2 257.690 140.060   1
   1  -9  -4 22032.2 525.640   1
   1   9  -4 20683.0 709.200   1
   1   9  -4 19542.9 656.210   1
   7  -6  -5 14742.7 451.810   1
  -7  -6   5 12186.6 423.360   1
   7   6  -5 11662.7 497.100   1
   7   6  -5 15802.9 597.850   1
   7   6  -5 11690.2 663.920   1
   8   2  -8 6166.45 333.840   1
   8  -2  -8 4960.33 297.760   1
   8   2  -8 6287.33 249.760   1
   8  -2  -8 5542.89 201.160   1
   8   2  -8 5974.47 441.320   1
   8  -2  -8 6825.84 358.130   1
  -6  -2  10 16306.2 571.370   1
   6   2 -10 15682.4 480.580   1
  -6  -2  10 16004.3 441.040   1
  -6   2  10 16261.8 508.940   1
   6  -2 -10 17404.2 657.210   1
   6   2 -10 16786.6 753.260   1
  -6   2  10 13564.1 407.280   1
   6  -7  -5 670.190 139.250   1
   6  -7  -5 975.810 158.400   1
   6   7  -5 1347.92 237.640   1
   6   7  -5 707.870 255.650   1
  -6  -7   5 931.770 165.010   1
   5  -3   6 2111.14 161.410   1
   5   3   6 2001.73 159.480   1
   5  -3   6 2256.23 156.840   1
   5   3   6 2313.36 177.540   1
   9  -2  -5 -98.290 163.750   1
   9   2  -5 78.4800 177.860   1
   9  -2  -5 -62.450 146.610   1
   9   2  -5 6.49000 140.920   1
   9  -2  -5 200.200 196.910   1
   9  -2  -5 78.7000 141.020   1
   9   2  -5 -33.430 208.790   1
   9   1  -6 1330.71 233.380   1
   9   1  -6 1687.11 161.410   1
   9  -1  -6 1554.90 151.710   1
   9   1  -6 1588.14 185.230   1
   9  -1  -6 1536.03 181.250   1
   9  -1  -6 1456.07 220.330   1
   3  -3   8 5854.29 238.140   1
   3  -3   8 5313.76 219.770   1
   3   3   8 4171.80 201.600   1
   3   3   8 5758.72 270.700   1
   3   0 -11 -440.44 186.480   1
  -3   0  11 114.020 101.940   1
  -3   0  11 77.7800 128.260   1
   8   0   2 5431.77 246.550   1
   8   0   2 5282.08 246.820   1
   8   5  -3 2157.93 159.860   1
   8  -5  -3 3101.30 172.340   1
   8  -5  -3 1290.69 156.450   1
   8   5  -3 1421.48 283.650   1
   8   5  -3 2755.68 248.100   1
   9   0  -1 -320.46 197.130   1
   9   0  -1 -156.58 176.290   1
   9   0  -1 198.750 156.680   1
  -2   4  10 3095.74 180.660   1
  -2   4  10 2528.89 199.160   1
  -2  -4  10 1729.30 132.930   1
   2   4 -10 1901.28 272.830   1
  -2  -4  10 2801.91 185.290   1
   8   3   1 8821.93 323.260   1
   8  -3   1 8628.97 289.550   1
   8   3   1 6491.12 487.450   1
   8   3   1 9039.44 411.680   1
   8  -3   1 6876.33 310.340   1
  -4   4  10 661.760 117.540   1
  -4  -4  10 716.850 158.260   1
  -4   4  10 748.960 144.570   1
   4   4 -10 530.310 249.910   1
   4   4 -10 972.030 275.510   1
  -4  -4  10 832.010 172.400   1
   8  -4   0 277.800 127.740   1
   8   4   0 381.470 199.390   1
   8  -4   0 306.750 139.450   1
   8   4   0 376.150 198.600   1
   1  -4   9 -48.760 113.590   1
  -1   4  -9 49.0100 226.950   1
   1   4   9 240.610 139.680   1
   1  -4   9 141.300 123.590   1
   1   4   9 -163.88 144.060   1
   0  -8   6 -204.65 177.050   1
   0   8  -6 -67.680 189.910   1
   0   8   6 92.3900 126.210   1
   0   8  -6 -29.000 202.370   1
   0   8   6 -70.000 148.840   1
  -4  -1  11 6566.44 247.700   1
  -4   1  11 6156.42 244.930   1
  -4  -1  11 6908.57 304.680   1
  -4   1  11 5927.95 250.020   1
   4   1 -11 3975.40 323.560   1
   4  -1 -11 6263.32 341.000   1
   7   1   4 3254.89 171.710   1
   7  -1   4 3465.61 172.050   1
   7   1   4 4970.06 228.060   1
   7  -1   4 5037.22 233.920   1
   0   5  -9 690.160 274.300   1
   0   5   9 1069.17 159.370   1
   0  -5   9 1220.05 126.970   1
   0   5   9 1597.65 159.760   1
   0  -5   9 1121.47 125.470   1
  -2   1  11 3092.44 161.000   1
   2   1 -11 1652.75 222.970   1
  -2  -1  11 2881.64 186.170   1
  -2  -1  11 2547.81 156.290   1
   2  -1 -11 2984.62 236.370   1
  -2   1  11 2505.98 184.930   1
   3  -9  -4 10626.1 303.950   1
   3   9  -4 8211.19 418.640   1
  -3  -9   4 10171.8 293.200   1
  -3   9   4 8871.86 261.230   1
   3   9  -4 8112.70 493.250   1
   8   5  -5 28396.8 800.650   1
   8   5  -5 22529.0 742.450   1
   9  -3  -4 803.730 207.300   1
   9   3  -4 258.300 162.530   1
   9   3  -4 562.460 153.240   1
   9   3  -4 487.510 225.940   1
   9  -3  -4 1168.77 171.040   1
   9  -3  -4 196.350 147.480   1
   6   3   5 4298.26 233.080   1
   6  -3   5 4612.98 220.060   1
   6   3   5 5202.35 241.170   1
   6  -3   5 3311.18 180.900   1
  -2   9  -3 1201.57 227.000   1
  -2  -9  -3 734.350 172.010   1
   2   9   3 754.180 164.970   1
   2  -9   3 968.560 149.810   1
   2   9   3 696.830 170.930   1
   2   9   3 616.480 256.510   1
   4   8  -6 -40.960 202.180   1
  -4  -8   6 78.7100 171.700   1
  -4   8   6 -265.62 166.850   1
   4  -8  -6 -33.300 162.400   1
   4   8  -6 21.5000 211.810   1
   9   0  -7 17.6500 190.940   1
   9   0  -7 -259.32 222.230   1
   9   0  -7 -156.19 138.840   1
  -1  -1 -10 964.570 175.600   1
  -1   1 -10 695.350 210.250   1
   1  -1  10 935.590 131.860   1
   1   1  10 664.090 167.630   1
   1  -1  10 1408.21 150.010   1
   1   1  10 743.190 123.760   1
  -5   0  11 -33.000 141.700   1
  -5   0  11 -279.98 127.490   1
   5   0 -11 137.330 196.960   1
   5   0 -11 -135.03 176.950   1
  -3  -2  11 5297.29 195.910   1
  -3   2  11 5210.38 248.270   1
   3   2 -11 3448.11 351.500   1
  -3   2  11 4719.46 179.970   1
  -3  -2  11 4484.66 242.890   1
   4   9  -1 346.350 125.900   1
   4  -9  -1 1188.95 232.200   1
  -4  -9   1 1041.88 191.380   1
   4   9  -1 545.400 196.060   1
   4  -9  -1 776.640 130.060   1
   4   9  -1 456.270 228.150   1
   8  -2   2 9171.03 329.790   1
   8  -2   2 9888.40 320.940   1
   8   2   2 10123.0 328.000   1
   8   2   2 9926.73 354.230   1
   5   8  -5 8386.74 472.590   1
   5  -8  -5 8052.38 247.900   1
   5  -8  -5 7227.77 310.630   1
  -5  -8   5 9017.24 407.030   1
   5   8  -5 7220.06 431.890   1
   6   7   1 -60.940 189.130   1
   6  -7   1 217.170 138.510   1
   6  -7   1 10.7500 196.450   1
   6   7   1 118.480 139.680   1
   6   7   1 175.040 283.350   1
   9  -2  -1 1611.94 151.560   1
   9   2  -1 966.980 247.540   1
   9  -2  -1 1630.29 193.150   1
   9   2  -1 1453.30 167.370   1
   9   2  -1 1575.21 217.670   1
   2  -3   9 1724.05 158.280   1
   2   3   9 2111.11 158.300   1
   2   3   9 1606.13 143.040   1
   2  -3   9 1429.15 135.640   1
   1   9   4 328.320 135.210   1
   1   9   4 227.140 136.860   1
   1  -9   4 508.860 156.140   1
  -1   9  -4 447.010 218.540   1
  -3  -6   9 4018.37 272.240   1
  -3   6   9 4118.46 228.770   1
   3   6  -9 3026.44 333.900   1
  -3  -6   9 3832.43 198.690   1
  -3   6   9 3657.11 203.100   1
  -3   7   8 15260.8 411.800   1
  -3   7   8 17278.0 432.050   1
  -3  -7   8 17987.4 476.530   1
   3   7  -8 22596.7 998.670   1
   5   8   1 4499.60 361.130   1
   5  -8   1 4826.22 330.900   1
   5   8   1 6403.39 305.620   1
   5  -8   1 6007.83 251.160   1
   5   8   1 4333.39 273.600   1
   8   5  -1 2095.12 207.610   1
   8  -5  -1 2480.60 178.840   1
  -8   5   1 1971.02 261.770   1
   8   5  -1 1724.51 149.850   1
   8   5  -1 1444.46 266.750   1
   7  -1 -10 307.440 187.270   1
  -7   1  10 492.340 129.540   1
  -7  -1  10 417.000 153.990   1
   7   1 -10 352.060 236.590   1
   7  -1 -10 324.840 165.840   1
   7   1 -10 175.210 112.700   1
   7   5   2 5181.06 254.920   1
   7   5   2 5267.41 413.070   1
   7   5   2 5334.04 219.750   1
   7  -5   2 6586.08 263.830   1
   0  10   0 1956.89 267.840   1
   0 -10   0 2025.12 181.990   1
   4   9  -3 182.880 170.430   1
   4  -9  -3 224.490 126.500   1
  -4  -9   3 106.140 181.500   1
   4  -9  -3 230.880 135.520   1
   4   9  -3 163.740 234.680   1
   3  -9   2 8636.62 345.380   1
   3   9   2 7731.77 422.660   1
   3   9   2 7365.24 326.310   1
  -3   9  -2 10212.5 437.530   1
   3   9   2 9769.78 413.070   1
   3  -9   2 8440.76 294.260   1
  -3  -9  -2 10536.3 340.310   1
   8   1  -9 10507.0 523.090   1
   8   1  -9 7991.32 262.150   1
   8  -1  -9 10522.2 438.530   1
   8  -1  -9 6934.05 237.620   1
   8  -1  -9 9319.56 456.250   1
   8  -1  -9 11077.1 490.660   1
   8   1  -9 8182.75 359.630   1
   9   3  -2 6457.07 645.570   1
   9   3  -2 11569.1 455.280   1
   9  -3  -2 7470.50 475.960   1
   9  -3  -2 11360.3 443.410   1
   9   3  -2 9244.49 358.550   1
   4   0   8 239.600 141.600   1
   4   0   8 237.800 121.090   1
   5   0   7 14.4300 116.910   1
   5   0   7 -96.030 181.710   1
   7   4   3 3070.13 185.550   1
   7  -4   3 3625.56 191.010   1
   7   4   3 2661.30 264.330   1
   7   4   3 2530.06 191.060   1
   2  -9  -5 485.530 179.120   1
   2   9  -5 -19.780 205.670   1
  -2  -9   5 123.060 215.620   1
  -2   9   5 208.810 90.6800   1
   2   9  -5 83.1300 188.930   1
  -2   9   5 473.480 153.460   1
   1   0 -11 -122.13 177.210   1
   1   0 -11 -173.38 186.080   1
  -1   0  11 93.8300 137.960   1
  -1   0  11 69.1700 180.060   1
  -1  -7   8 1874.93 143.320   1
  -1   7   8 1904.05 160.840   1
  -1  -7   8 2022.24 248.320   1
  -1   7   8 2108.17 175.990   1
   1   7  -8 2577.09 413.740   1
   1   7  -8 2157.21 306.660   1
   1  10  -1 611.960 157.000   1
   1 -10  -1 1205.20 187.680   1
  -1 -10   1 764.830 171.080   1
  -1  10   1 812.170 224.480   1
   1  10  -1 718.710 283.610   1
   9  -1   0 1829.46 181.520   1
   9   1   0 2176.49 225.860   1
   9   1   0 2289.78 193.880   1
   9  -1   0 2185.79 180.400   1
  -7   5   8 4694.81 200.830   1
   7   5  -8 5922.88 369.780   1
   7   5  -8 5080.47 235.860   1
   7  -5  -8 5488.30 222.120   1
  -7  -5   8 5196.74 227.490   1
   7   5  -8 4444.04 422.760   1
   6   5  -9 6506.29 408.670   1
   6   5  -9 3799.98 383.110   1
  -6  -5   9 4760.34 227.280   1
  -6   5   9 3952.19 188.170   1
  -6   5   9 4246.73 204.710   1
   9   2  -7 1927.85 219.790   1
   9   2  -7 1754.65 157.680   1
   9  -2  -7 1299.06 126.240   1
   9  -2  -7 1200.10 193.740   1
   9   2  -7 1274.95 278.200   1
   9  -2  -7 1793.09 207.610   1
   9   3  -6 7946.22 680.900   1
   9  -3  -6 13102.4 422.250   1
   9   3  -6 11550.9 335.470   1
   9  -3  -6 9248.80 477.240   1
   9  -3  -6 11342.0 255.700   1
   5  -2 -11 3745.25 288.000   1
   5   2 -11 2948.50 361.390   1
  -5   2  11 4987.17 225.050   1
  -5  -2  11 3250.08 263.450   1
   5   2 -11 3264.47 163.250   1
  -5   2  11 3981.67 183.120   1
   5   2 -11 3171.51 302.520   1
  -5  -2  11 4064.63 184.960   1
   6   6  -8 1391.80 300.130   1
  -6  -6   8 1008.29 129.150   1
   6   6  -8 1304.80 212.780   1
  -6   6   8 999.070 126.110   1
   6  -6  -8 1106.01 125.840   1
  -1   6   9 13253.0 333.690   1
  -1   6   9 17422.4 508.900   1
  -1  -6   9 17095.9 453.340   1
  -1  -6   9 13649.6 505.360   1
   1   6  -9 14016.9 761.230   1
   1   6  -9 12931.2 803.210   1
  -1  10  -1 4380.94 319.690   1
  -1 -10  -1 5445.89 226.020   1
   1  10   1 3567.05 263.340   1
   1  10   1 3394.94 295.310   1
  -7   4   9 13482.1 363.560   1
   7   4  -9 14488.5 428.190   1
   7   4  -9 15747.7 719.650   1
  -7  -4   9 18594.7 482.680   1
   7   4  -9 15373.4 581.780   1
   7  -4  -9 15982.8 419.770   1
   7   6   1 21930.7 661.600   1
  -7   6  -1 21646.5 1011.20   1
   7  -6   1 19591.0 442.860   1
   7   6   1 21023.6 854.550   1
   3   0   9 95.9200 135.050   1
   3   0   9 90.6600 112.920   1
   0   9  -5 9043.55 565.220   1
   0   9   5 7222.01 303.550   1
   0  -9   5 8451.36 286.600   1
   0   9  -5 10133.5 534.670   1
   0   9   5 7132.64 277.050   1
  -3   5  10 3314.01 188.100   1
  -3   5  10 2524.74 172.310   1
  -3  -5  10 2629.08 231.330   1
  -3  -5  10 3319.25 196.290   1
   3   5 -10 2766.37 355.740   1
   3   5 -10 3550.06 451.040   1
   6   0   6 5870.48 216.230   1
   6   0   6 6110.17 218.850   1
   7  -7  -2 9837.25 451.420   1
   7  -7  -2 11589.6 312.380   1
   7   7  -2 9823.36 413.380   1
   7   7  -2 10593.4 627.170   1
   7   7  -2 11425.7 468.400   1
  -3  -8   7 15047.7 420.440   1
   3   8  -7 13785.0 814.800   1
  -3   8   7 14777.1 397.880   1
   3   8  -7 16021.7 608.990   1
   0  10   2 1968.62 243.240   1
   0  10  -2 2997.67 300.420   1
   0  10   2 1733.54 165.600   1
   0 -10  -2 2531.95 215.510   1
   0  10   2 1846.93 155.330   1
   0 -10   2 3177.50 205.770   1
   6  -8  -2 457.850 167.850   1
   6  -8  -2 545.400 125.220   1
   6   8  -2 709.620 250.920   1
  -6  -8   2 550.710 183.080   1
   6   8  -2 644.160 207.470   1
   6   8  -2 401.820 125.370   1
   1   8  -7 4035.64 317.480   1
  -1   8   7 3120.13 182.590   1
  -1  -8   7 4101.81 282.000   1
  -1   8   7 3422.07 240.680   1
   1   8  -7 3686.27 398.330   1
   7  -7  -4 18222.7 423.400   1
  -7  -7   4 19601.4 548.050   1
   7   7  -4 15023.5 560.160   1
   7   7  -4 15260.6 464.370   1
   7   7  -4 16065.2 789.000   1
   4   2   8 7547.25 266.530   1
   4  -2   8 6375.10 228.860   1
   4   2   8 6945.16 287.840   1
   4  -2   8 7623.78 264.830   1
   5  -2   7 121.140 146.680   1
   5   2   7 -34.390 144.580   1
   5   2   7 113.300 149.510   1
   5  -2   7 -24.050 131.210   1
  -4   3  11 7503.97 249.400   1
   4   3 -11 7934.41 732.100   1
  -4  -3  11 5596.13 251.740   1
  -4   3  11 8595.83 296.140   1
   4   3 -11 6485.46 468.590   1
  -4  -9  -1 453.850 184.290   1
   4  -9   1 175.690 137.910   1
   4   9   1 223.310 149.930   1
   4   9   1 -419.61 244.680   1
   4   9   1 626.940 180.910   1
   4  -9   1 340.120 119.810   1
   7   6  -7 742.930 241.870   1
  -7  -6   7 906.060 176.340   1
   7  -6  -7 1182.33 170.100   1
   7   6  -7 1002.42 228.820   1
   7  -3   4 2888.62 191.620   1
   7   3   4 2920.68 188.540   1
   7  -3   4 2188.63 147.270   1
   7   3   4 2770.74 190.970   1
  -1   2  11 907.150 183.920   1
  -1  -2  11 616.950 150.840   1
  -1  -2  11 952.630 134.070   1
  -1   2  11 828.310 138.400   1
   1   2 -11 182.750 246.170   1
  -2 -10   0 576.910 173.390   1
   2 -10   0 483.490 121.560   1
   2  10   0 237.880 189.670   1
   2  10   0 17.5400 281.900   1
   2 -10   0 200.660 152.820   1
   0   4 -10 1500.37 306.690   1
   0   4  10 2103.52 145.850   1
   0  -4  10 2567.66 163.880   1
   0   4  10 2482.64 180.100   1
   0  -4  10 1817.07 147.470   1
   9   4  -3 10538.4 421.900   1
  -6   1  11 17150.6 436.980   1
   6   1 -11 13760.1 698.520   1
   6  -1 -11 17909.2 604.310   1
   3   7   6 4247.89 249.820   1
   3   7   6 4136.67 206.910   1
   3  -7   6 3938.52 196.530   1
  -3   7  -6 3214.10 341.550   1
   3  -7   6 3843.82 206.440   1
   6  -8  -4 474.780 108.120   1
   6  -8  -4 664.630 148.530   1
   6   8  -4 466.230 255.750   1
  -6  -8   4 957.860 168.430   1
   6   8  -4 874.920 215.410   1
   4   6   6 997.980 135.900   1
   4   6   6 1404.75 174.390   1
   4  -6   6 1109.92 130.220   1
   4  -6   6 946.700 113.470   1
   2  10  -2 -79.300 221.140   1
  -2 -10   2 334.700 189.700   1
   2 -10  -2 198.850 178.260   1
   2  10  -2 50.3500 161.610   1
  -2  -3  11 5743.19 248.000   1
  -2  -3  11 4376.76 233.950   1
  -2   3  11 5655.75 253.040   1
  -2   3  11 5182.45 220.350   1
   2   3 -11 3178.64 397.310   1
   4   7   5 1281.61 152.790   1
   4   7   5 1889.67 203.680   1
  -4   7  -5 2204.45 311.650   1
   4  -7   5 1486.66 150.620   1
   8   4  -8 4094.38 462.260   1
   8   4  -8 7343.36 368.500   1
   8  -4  -8 5095.23 281.240   1
   8   4  -8 6630.26 238.670   1
   8  -4  -8 5817.63 228.160   1
  -8  -4   8 5885.51 249.670   1
  -6   4  10 11637.1 429.900   1
  -6   4  10 11860.7 378.000   1
  -6  -4  10 12129.0 297.110   1
  -6  -4  10 10169.7 345.430   1
   6   4 -10 8354.35 563.090   1
   3   6   7 9304.82 291.110   1
   3   6   7 7714.31 286.770   1
   3  -6   7 8036.46 277.170   1
   3  -6   7 7295.63 277.090   1
   9  -1  -8 1229.74 227.520   1
   9   1  -8 1504.66 269.760   1
   9  -1  -8 1317.38 130.980   1
   9   1  -8 1804.06 159.330   1
   9  -1  -8 1315.21 220.030   1
   9   1  -8 1458.94 229.010   1
   9   4  -5 2848.65 408.530   1
   9  -4  -5 4191.00 293.920   1
   9  -4  -5 2848.88 290.590   1
   9  -4  -5 4328.48 165.830   1
   9   4  -5 4141.50 251.800   1
   9   4  -5 3903.70 245.710   1
  -5   6   9 4719.67 226.770   1
   5   6  -9 5007.15 483.320   1
  -5   6   9 6333.57 249.680   1
  -5  -6   9 7994.28 333.440   1
   5   6  -9 7307.03 474.210   1
   8   1   3 4869.81 222.890   1
   8  -1   3 4252.16 201.500   1
   8  -1   3 4650.01 232.790   1
   8  -6  -4 564.860 166.380   1
   8   6  -4 201.390 261.530   1
   8   6  -4 -0.0600 152.760   1
   1   3  10 122.840 164.880   1
   1   3  10 30.6600 127.650   1
   1  -3  10 79.6700 132.360   1
   1  -3  10 -116.36 121.610   1
   6   7  -7 2163.42 327.710   1
  -6  -7   7 2192.75 199.950   1
   6  -7  -7 1771.52 151.490   1
   6   7  -7 2347.56 247.440   1
   1 -10  -3 12174.8 373.970   1
   1  10  -3 11083.5 535.390   1
  -1  10   3 10722.2 353.650   1
   1  10  -3 13509.6 438.440   1
   3   2   9 557.030 174.720   1
   3   2   9 561.080 145.380   1
   3  -2   9 523.990 124.220   1
   3  -2   9 412.250 129.220   1
   6  -2   6 6377.10 231.950   1
   6   2   6 7003.54 248.120   1
   6   2   6 8756.49 335.290   1
   6  -2   6 7472.98 270.700   1
   8   5  -7 3691.96 217.180   1
   8   5  -7 5177.59 322.780   1
   8   5  -7 3065.04 362.740   1
  -8  -5   7 4250.86 229.110   1
   8  -5  -7 3974.20 196.580   1
   8  -6  -2 3149.59 166.520   1
   8  -6  -2 1866.10 189.410   1
   8   6  -2 2987.34 258.160   1
   8   6  -2 1878.93 152.550   1
   8   6  -2 1619.72 311.650   1
   5   6   5 4031.50 211.270   1
   5   6   5 3476.87 184.940   1
   5  -6   5 2785.45 203.310   1
  -5   7   8 1901.63 140.920   1
   5   7  -8 2612.65 338.030   1
  -5  -7   8 2594.42 222.230   1
  -5   7   8 3833.52 227.890   1
   5   7  -8 2988.83 255.950   1
  -7   3  10 6807.34 285.500   1
   7  -3 -10 6598.22 280.630   1
   7   3 -10 9236.31 522.550   1
   7   3 -10 6893.25 309.170   1
   7   3 -10 6833.94 544.360   1
   2   7   7 87.4900 149.670   1
   2   7   7 184.740 152.550   1
  -2   7  -7 -46.120 180.870   1
  -2   7  -7 -176.42 290.560   1
   2  -7   7 21.5900 140.500   1
  -1  -5  10 5332.59 276.830   1
  -1   5  10 3882.09 234.140   1
   1   5 -10 2854.29 465.140   1
  -1   5  10 3389.71 166.390   1
   8  -3  -9 18936.7 713.790   1
   8   3  -9 19016.1 654.750   1
   8   3  -9 17902.5 543.150   1
   8  -3  -9 16204.4 657.040   1
   8  -3  -9 15683.5 437.470   1
   8   3  -9 13061.6 704.570   1
   5  -9  -2 4714.15 220.870   1
   5  -9  -2 4063.75 240.710   1
   5   9  -2 3851.60 305.340   1
  -5  -9   2 4462.59 229.260   1
   5   9  -2 3532.61 315.920   1
   3   8   5 1652.08 178.550   1
   3  -8   5 1140.13 209.080   1
   3   8   5 1104.36 184.880   1
  -3   8  -5 1600.23 375.040   1
  -3   8  -5 641.110 168.910   1
   9   0   1 -8.3500 172.120   1
   9   0   1 26.4000 172.690   1
   4  -9  -5 3936.89 221.730   1
  -4  -9   5 2642.99 170.970   1
   4   9  -5 4254.00 419.840   1
   4   9  -5 3947.86 329.330   1
  -5   5  10 3905.77 208.430   1
   5   5 -10 4185.12 374.020   1
  -5   5  10 3839.91 215.610   1
  -5  -5  10 3705.88 213.570   1
  -5  -5  10 4064.82 248.410   1
   2   0  10 1320.89 142.910   1
   2   0  10 1595.65 126.450   1
   0   1  11 7063.05 308.380   1
   0   1 -11 4290.90 429.940   1
   0  -1 -11 5777.08 374.220   1
   0  -1  11 8347.11 302.710   1
   0   1  11 8760.53 307.710   1
   0  -1  11 6952.61 315.070   1
   6   8   0 177.410 190.130   1
   6   8   0 3.94000 219.040   1
   6   8   0 145.570 140.580   1
   6  -8   0 401.550 181.190   1
   6  -8   0 2.22000 131.610   1
   7   0   5 91.2700 151.010   1
   7   0   5 60.3500 133.150   1
   5   7   4 5661.37 264.920   1
   5   7   4 4675.02 270.510   1
   5   7   4 4540.85 328.800   1
   5  -7   4 4448.32 246.770   1
  -5   7  -4 4881.67 406.890   1
   4   5   7 4993.19 244.960   1
   4   5   7 4317.22 205.450   1
   4  -5   7 4394.30 215.940   1
   4  -5   7 3892.77 210.690   1
  10   0  -4 260.930 176.080   1
  10   0  -4 361.530 154.900   1
  10   0  -4 362.590 187.730   1
   2   6   8 -31.450 166.120   1
   2   6   8 25.4300 131.350   1
   2  -6   8 156.030 127.620   1
   2   8   6 1082.12 164.410   1
   2   8   6 1236.05 164.220   1
  -2   8  -6 1236.28 378.270   1
   2  -8   6 1029.47 205.210   1
  -2   8  -6 893.340 207.370   1
  -1   9   6 4587.06 267.560   1
   1   9  -6 3773.25 337.400   1
   1   9  -6 5715.20 409.650   1
  -1   9   6 3589.88 196.850   1
  -1  -9   6 6995.20 358.630   1
   3 -10  -1 7298.20 276.420   1
  -3 -10   1 5900.46 265.620   1
   3 -10  -1 7766.98 275.050   1
   3  10  -1 4528.10 258.300   1
   4   8   4 1958.80 208.080   1
   4   8   4 1943.63 268.840   1
   4   8   4 2061.35 209.490   1
   4  -8   4 1867.68 237.860   1
  -4   8  -4 2518.42 390.020   1
   9   3   0 4367.16 247.070   1
   9  -3   0 4728.94 210.130   1
   9   3   0 4844.25 298.040   1
   9   3   0 2391.08 315.750   1
   9  -3   0 4061.86 227.820   1
   7  -7   0 275.540 186.030   1
   7  -7   0 336.080 154.020   1
   7   7   0 313.180 139.120   1
   7   7   0 198.920 232.650   1
   7   7   0 315.350 184.420   1
   5   5   6 2240.97 166.750   1
   5   5   6 2430.13 177.460   1
   5  -5   6 2489.40 167.610   1
   5  -5   6 2514.09 161.820   1
   8   0 -10 6229.79 373.600   1
   8   0 -10 6576.19 267.230   1
   8   0 -10 8144.74 453.360   1
   3   5   8 329.620 146.090   1
   3   5   8 74.2200 143.480   1
   3  -5   8 132.780 122.340   1
   3  -5   8 37.8000 106.690   1
  -3   4  11 438.420 149.560   1
  -3   4  11 196.240 124.470   1
   3   4 -11 110.010 319.800   1
   3   4 -11 236.050 239.230   1
  -3  -4  11 342.600 174.430   1
  -3  -4  11 191.550 139.510   1
   8   4   2 4221.27 227.670   1
   8  -4   2 4610.92 243.410   1
   8  -4   2 3203.91 183.640   1
   8   4   2 3037.15 328.870   1
   8   4   2 3905.02 232.730   1
   3   9  -6 1301.81 220.290   1
   3   9  -6 1892.70 310.490   1
  -3   9   6 1800.03 186.240   1
  -3  -9   6 2185.40 206.210   1
   3  -9  -6 1122.54 181.880   1
   9   4  -1 154.590 216.820   1
   9   4  -1 553.310 180.730   1
  -9   4   1 406.250 252.570   1
   9  -4  -1 460.730 148.630   1
   9   4  -1 574.590 184.890   1
  10  -1  -5 26588.7 872.770   1
  10  -1  -5 37786.0 1420.41   1
  10   1  -5 34557.8 1314.31   1
  10  -1  -5 37299.2 1437.14   1
  10   1  -5 33171.5 782.730   1
   7  -7  -6 6149.63 276.430   1
   7   7  -6 5630.02 534.060   1
  -7  -7   6 6089.64 291.520   1
   7   7  -6 7870.06 410.430   1
   1  10   3 6424.82 351.580   1
  -1  10  -3 9190.60 466.940   1
   1  10   3 6907.95 316.840   1
  -1 -10  -3 8879.65 369.940   1
   2  10   2 1585.73 161.130   1
   2  10   2 2260.73 180.340   1
  -2 -10  -2 2800.84 214.280   1
   2 -10   2 2459.29 200.260   1
  -2  10  -2 3245.83 288.940   1
   2  10   2 1546.67 242.920   1
   8  -5   1 555.320 150.290   1
   8   5   1 408.050 150.440   1
   8   5   1 436.900 208.240   1
   8   5   1 221.120 217.350   1
  10   1  -3 7426.19 336.590   1
  10  -1  -3 6714.68 326.770   1
  10   1  -3 6642.45 303.860   1
  10  -1  -3 7237.50 259.550   1
  10   1  -3 4413.24 486.870   1
  10  -1  -3 4510.83 362.380   1
   5  -9  -4 8415.92 289.910   1
   5  -9  -4 8653.63 407.500   1
  -5  -9   4 8231.63 351.010   1
   5   9  -4 6871.95 528.960   1
   5   9  -4 6161.41 368.500   1
   5  -9   0 3303.09 165.000   1
   5  -9   0 4864.92 313.920   1
  -5  -9   0 4422.27 240.780   1
   5   9   0 3482.83 250.340   1
   5   9   0 3386.77 331.490   1
   5   9   0 4735.91 279.790   1
   7   0 -11 98.6600 222.870   1
   7   0 -11 305.330 146.710   1
  -7   0  11 116.210 120.960   1
   9   2   1 1948.99 195.540   1
   9   2   1 2103.52 206.380   1
   9  -2   1 1800.44 190.650   1
   9  -2   1 2166.71 186.400   1
   3 -10  -3 2883.56 202.550   1
  -3 -10   3 2744.60 224.670   1
   3  10  -3 2147.23 287.440   1
   3  10  -3 2898.92 251.920   1
   2   2  10 1761.29 162.140   1
   2  -2  10 1271.78 143.100   1
   2  -2  10 1937.01 173.060   1
   2   2  10 1407.52 146.630   1
   8  -6  -6 95.9700 118.360   1
   8   6  -6 146.370 130.160   1
   8   6  -6 493.570 272.500   1
  -8  -6   6 102.110 162.960   1
   8   6  -6 139.300 205.520   1
   6   6   4 1637.61 202.710   1
   6   6   4 1172.08 162.890   1
   6   6   4 1444.84 236.170   1
   6  -6   4 1386.84 170.240   1
  10   0  -6 963.090 189.430   1
  10   0  -6 1122.65 168.180   1
  10   0  -6 549.690 218.060   1
  -2  -7   9 1759.98 203.140   1
  -2   7   9 1384.31 142.700   1
  -2  -7   9 1278.42 133.650   1
  -2   7   9 1452.49 164.160   1
   2   7  -9 2245.20 312.160   1
   7   2   5 1907.45 182.070   1
   7  -2   5 1406.16 149.070   1
   7   2   5 1395.77 179.040   1
   7  -2   5 1169.29 141.810   1
  -4   0  12 13115.9 446.950   1
   4   0 -12 9907.71 536.520   1
  -4   0  12 15363.0 485.050   1
   4   0 -12 12078.2 512.410   1
   1   7   8 1883.98 162.720   1
   1   7   8 1934.86 181.040   1
  -1   7  -8 1693.00 293.960   1
   1  -7   8 1875.33 149.440   1
   1  -7   8 2520.02 251.660   1
  -1   7  -8 2502.28 331.380   1
   5   8  -7 6463.87 575.090   1
  -5   8   7 5525.00 221.650   1
  -5  -8   7 5783.24 276.150   1
   5   8  -7 6672.82 352.680   1
  -6   3  11 824.370 163.420   1
   6   3 -11 125.000 270.810   1
  -6   3  11 642.600 161.430   1
  -6  -3  11 675.150 137.040   1
   2  10  -4 3429.35 354.080   1
  -2  10   4 5112.09 240.310   1
  -2 -10   4 5566.03 266.300   1
   2 -10  -4 4646.13 239.390   1
   2  10  -4 5387.30 303.930   1
  10   0  -2 17691.9 613.570   1
  10   0  -2 17835.8 523.400   1
  10  -2  -4 2278.71 251.420   1
  10   2  -4 1700.03 338.750   1
  10  -2  -4 3313.00 195.640   1
  10   2  -4 2650.69 187.910   1
  10   2  -4 3152.61 233.980   1
  10  -2  -4 3430.34 222.040   1
   9   0  -9 -384.14 243.840   1
   9   0  -9 163.050 119.240   1
   9   0  -9 -87.960 183.160   1
   9  -5  -4 2341.33 177.050   1
   9   5  -4 1414.14 172.670   1
   9   5  -4 1066.00 298.200   1
   9   5  -4 2104.75 247.600   1
   1   8   7 5908.59 255.080   1
   1   8   7 7337.21 329.260   1
   1  -8   7 5745.12 279.070   1
  -1   8  -7 5039.99 504.260   1
  -1   8  -7 8788.90 582.710   1
   1  -8   7 7812.58 352.150   1
  -3   1  12 775.130 121.960   1
  -3  -1  12 668.340 132.730   1
   3  -1 -12 518.920 184.610   1
   3   1 -12 406.040 249.710   1
  -3  -1  12 922.590 145.130   1
  -3   1  12 1012.94 154.480   1
   6   5   5 1694.76 159.010   1
   6   5   5 2315.93 189.430   1
   6  -5   5 2059.54 174.860   1
   6  -5   5 1671.53 130.060   1
   5   8   3 5586.59 281.210   1
   5   8   3 5855.40 449.980   1
   5   8   3 7780.48 340.050   1
  -5   8  -3 8208.67 657.590   1
   5  -8   3 6861.11 365.270   1
   5  -8   3 5610.90 251.100   1
   0 -10  -4 217.020 190.200   1
   0  10   4 186.520 136.780   1
   0  10   4 441.510 184.720   1
   0  10  -4 297.280 235.240   1
   0 -10   4 411.580 164.030   1
   9  -3  -8 1266.93 219.880   1
   9   3  -8 1774.29 234.540   1
   9   3  -8 1446.07 162.920   1
   9  -3  -8 1455.84 153.410   1
   9   3  -8 1608.27 264.550   1
   9  -3  -8 1376.29 215.580   1
   8  -2 -10 6041.67 226.030   1
   8   2 -10 5610.97 448.250   1
   8  -2 -10 6770.30 405.300   1
   8   2 -10 8311.60 460.250   1
   8   2 -10 5689.92 234.090   1
  -8   2  10 6834.25 261.240   1
   2   8  -8 278.540 245.340   1
  -2   8   8 -20.670 172.590   1
  -2  -8   8 58.8400 165.580   1
   2   8  -8 -26.930 228.080   1
  -2   8   8 -127.14 104.680   1
  -3 -10  -1 19208.9 539.450   1
   3  10   1 11935.9 504.880   1
   3  10   1 12870.7 597.540   1
   3 -10   1 18872.5 541.680   1
   3  10   1 14630.8 477.720   1
   8   3   3 3832.66 226.510   1
   8  -3   3 3314.30 194.640   1
   8   3   3 2928.01 184.640   1
   8  -3   3 3166.71 208.750   1
   9   4  -7 2309.92 215.640   1
   9  -4  -7 3097.80 213.180   1
   9   4  -7 1330.01 312.270   1
   9   4  -7 1941.12 168.030   1
   9  -4  -7 2146.29 226.020   1
   6  -8  -6 1331.39 147.700   1
   6   8  -6 989.270 225.100   1
  -6  -8   6 832.630 169.970   1
   6   8  -6 1246.46 295.530   1
  -5   4  11 2688.34 180.540   1
   5   4 -11 2041.22 302.900   1
  -5  -4  11 2725.95 170.480   1
  -5   4  11 3277.65 224.400   1
  -5  -4  11 2356.38 188.520   1
  -4   7   9 1988.41 156.710   1
  -4   7   9 2298.37 185.950   1
  -4  -7   9 2763.12 205.980   1
   4   7  -9 2804.33 349.860   1
   4   7  -9 2020.41 337.190   1
   6   7   3 -276.83 225.780   1
   6   7   3 -168.37 191.370   1
   6   7   3 -69.740 148.820   1
  -6   7  -3 287.000 321.620   1
   6  -7   3 185.910 143.360   1
   3   9   4 7436.94 356.130   1
   3   9   4 7913.20 324.800   1
   3   9   4 8067.29 427.800   1
  -3   9  -4 6894.75 451.420   1
   3  -9   4 9825.44 445.220   1
   2   5   9 7613.41 335.570   1
   2   5   9 6915.83 259.160   1
   2  -5   9 6305.51 248.250   1
   2  -5   9 5729.20 253.700   1
   2   6 -10 1243.17 302.030   1
  -2   6  10 1802.60 156.940   1
  -2  -6  10 1464.12 189.260   1
  -2   6  10 1939.27 173.770   1
  -2  -6  10 2044.46 165.030   1
   2   6 -10 1056.73 314.130   1
   2   9   5 2213.20 237.130   1
   2   9   5 1563.84 167.920   1
   2  -9   5 1474.51 218.670   1
  -2   9  -5 1340.32 231.300   1
   2   0 -12 5984.37 381.080   1
   2   0 -12 3646.33 359.370   1
  -2   0  12 7081.70 322.960   1
  -2   0  12 6545.62 257.550   1
  -4   6  10 2193.00 169.400   1
  -4  -6  10 1991.66 172.910   1
  -4   6  10 2915.60 215.210   1
   4   6 -10 2277.90 328.850   1
  -4  -6  10 2521.38 195.370   1
   8  -6   0 6226.78 245.940   1
  -8   6   0 5920.72 578.430   1
   8   6   0 6714.35 348.610   1
   8   6   0 5293.65 280.930   1
   8   6   0 4974.03 415.260   1
   1   6   9 2263.07 157.870   1
   1   6   9 2693.45 198.600   1
   1  -6   9 2415.84 177.470   1
   9  -5  -2 6285.23 242.950   1
   9   5  -2 3862.85 227.830   1
   9   5  -2 2861.76 390.150   1
   9   5  -2 4870.58 300.520   1
   4  -4   8 2168.87 191.870   1
   4   4   8 1269.15 171.030   1
   4   4   8 1508.53 161.750   1
   4  -4   8 1940.10 167.590   1
  -7   2  11 400.400 162.890   1
   7   2 -11 350.490 126.210   1
   7  -2 -11 359.090 145.750   1
   7   2 -11 177.670 272.800   1
   7  -2 -11 518.010 214.990   1
  -7  -2  11 678.320 170.820   1
   5  -4   7 266.420 118.220   1
   5  -4   7 158.640 127.230   1
   5   4   7 236.550 153.870   1
   5   4   7 182.790 140.950   1
  -5   1  12 139.030 146.010   1
   5   1 -12 178.250 255.790   1
   5  -1 -12 -234.26 210.120   1
  -5   1  12 -32.850 131.100   1
   5   1 -12 75.4700 94.7800   1
  -5  -1  12 -47.010 124.730   1
  -5  -1  12 41.6100 127.660   1
   0  -3  11 1614.57 153.600   1
   0   3  11 2216.52 186.570   1
   0   3  11 1495.97 142.390   1
   0  -3  11 2146.87 156.150   1
   0   3 -11 786.630 234.770   1
  10   2  -6 20713.0 570.140   1
  10  -2  -6 21972.0 606.340   1
  10   2  -6 22146.9 568.130   1
   1   4 -11 814.370 279.260   1
  -1   4  11 1783.04 187.960   1
  -1   4  11 1201.85 150.540   1
  -1  -4  11 1571.72 162.500   1
   4   2 -12 3205.59 397.380   1
  -4   2  12 6265.59 252.650   1
  -4  -2  12 5213.94 252.220   1
  -4   2  12 5137.39 260.720   1
   4  -2 -12 5680.50 356.830   1
   1   0  11 8.46000 146.700   1
   1   0  11 52.3500 123.870   1
   8   0   4 5060.62 227.980   1
   8   0   4 4330.90 221.170   1
  -4  -8   8 177.900 245.000   1
   4   8  -8 100.200 179.410   1
  -4   8   8 -64.220 158.050   1
   4   8  -8 180.470 307.490   1
  10  -2  -2 5292.86 295.740   1
  10   2  -2 3554.41 226.580   1
  10   2  -2 5304.08 292.380   1
  10  -2  -2 6426.48 240.500   1
  10   2  -2 2891.24 390.180   1
  -4 -10   2 1888.93 217.110   1
   4 -10  -2 1078.01 154.390   1
   4  10  -2 1327.02 221.100   1
   4  10  -2 991.970 248.550   1
   4 -10  -2 1738.74 178.680   1
   7  -8  -3 1462.53 185.490   1
   7  -8  -3 1027.14 198.700   1
   7   8  -3 1143.86 267.730   1
  -7  -8   3 785.880 169.800   1
   7   8  -3 655.090 226.920   1
   4   9   3 287.220 175.040   1
   4   9   3 79.4000 217.720   1
   4   9   3 -116.89 172.190   1
   4  -9   3 -124.24 215.300   1
   9  -2  -9 3023.01 228.360   1
   9   2  -9 4088.95 229.040   1
   9  -2  -9 3024.97 177.090   1
   9   2  -9 2099.67 281.300   1
   9  -2  -9 3109.39 253.470   1
   9   2  -9 3968.23 286.410   1
  10   1  -7 22487.5 559.610   1
  10  -1  -7 20900.5 523.820   1
  10  -1  -7 18142.3 763.160   1
  10  -1  -7 24681.7 720.950   1
   5   1   8 -62.980 151.860   1
   5   1   8 204.520 141.370   1
   5  -1   8 165.800 124.370   1
   5  -1   8 206.200 153.150   1
   9  -5  -6 4175.44 221.410   1
   9   5  -6 1970.14 318.400   1
   9   5  -6 3082.43 233.370   1
   9   5  -6 3265.03 237.270   1
   1   9   6 1889.19 165.930   1
   1   9   6 2190.78 226.720   1
   1  -9   6 1677.44 217.200   1
  -1   9  -6 1808.25 276.220   1
   9   1   2 105.040 165.330   1
   9  -1   2 442.810 158.230   1
   9  -1   2 -32.440 150.230   1
   9   1   2 249.120 158.100   1
   3  -4   9 5623.83 269.020   1
   3  -4   9 7819.75 302.180   1
   3   4   9 7642.68 262.120   1
   3   4   9 6352.96 276.180   1
   8  -7  -3 62.6500 110.800   1
   8   7  -3 -106.74 128.540   1
   8   7  -3 278.490 222.580   1
   8   7  -3 144.120 269.760   1
  10  -1  -1 4390.92 269.840   1
  10   1  -1 4475.28 284.400   1
  10   1  -1 4272.05 224.760   1
  10  -1  -1 4442.38 232.110   1
   6  -4   6 1394.78 129.520   1
   6   4   6 1750.94 190.430   1
   6  -4   6 1656.75 157.780   1
   6   4   6 1877.65 168.730   1
  10   3  -5 1575.34 187.600   1
  10  -3  -5 1546.27 196.720   1
  10  -3  -5 966.140 189.910   1
  10  -3  -5 1072.59 199.080   1
  10   3  -5 850.430 248.270   1
  10  -3  -5 1914.07 210.100   1
  10   3  -5 1241.61 188.670   1
   2   9  -7 1048.83 253.900   1
   2   9  -7 897.380 193.780   1
  -2  -9   7 1251.89 242.760   1
  -2   9   7 775.020 161.410   1
  -2   9   7 522.610 99.3700   1
   4   1   9 9041.10 312.930   1
   4  -1   9 8542.71 415.200   1
   4  -1   9 7860.43 363.590   1
   4   1   9 8802.55 246.250   1
   2  -2 -12 751.130 210.790   1
   2   2 -12 164.790 249.570   1
  -2  -2  12 707.750 133.170   1
  -2  -2  12 898.430 144.260   1
  -2   2  12 916.820 173.990   1
  -2   2  12 933.080 152.670   1
  10   3  -3 7574.24 431.870   1
  10   3  -3 6555.39 364.460   1
   1  10  -5 7561.10 622.260   1
  -1  10   5 6798.92 400.790   1
   1 -10  -5 7855.08 406.500   1
   1  10  -5 8725.21 509.030   1
   4  10   0 2573.10 250.460   1
   4 -10   0 2485.80 199.260   1
   4 -10   0 2932.41 214.080   1
   4  10   0 2118.47 293.690   1
  -4 -10   0 2491.08 212.180   1
   6  -1   7 3575.00 211.030   1
   6   1   7 3195.29 198.490   1
   6   1   7 4421.46 280.470   1
   6  -1   7 3803.34 240.140   1
   6   0 -12 6607.60 335.950   1
  -6   0  12 8089.72 398.030   1
   6   0 -12 6262.19 455.410   1
   6   0 -12 6046.68 465.740   1
  -6   0  12 5825.60 309.520   1
   4   5 -11 583.550 326.680   1
   4   5 -11 582.950 273.060   1
  -4  -5  11 1201.06 160.050   1
  -4   5  11 723.470 140.460   1
  -4  -5  11 904.050 177.440   1
  -4   5  11 1079.99 161.570   1
   7   6   3 2956.49 251.340   1
   7  -6   3 3080.20 224.760   1
   7   6   3 1902.11 173.810   1
  -7   6  -3 2146.72 352.630   1
   7   6   3 2423.01 269.890   1
   6   9  -3 965.410 251.680   1
   6  -9  -3 778.710 158.900   1
  -6  -9   3 933.860 174.260   1
   6  -9  -3 935.430 127.930   1
   6   9  -3 1048.52 228.500   1
   7   5   4 419.730 179.040   1
   7  -5   4 834.570 168.410   1
   7   5   4 580.480 161.410   1
   7   8  -1 1495.63 274.060   1
   7   8  -1 1005.33 152.120   1
   7   8  -1 1024.39 194.800   1
   7  -8  -1 1702.49 173.670   1
   7  -8  -1 1586.08 230.020   1
   0   8   8 385.210 136.160   1
   0   8   8 297.320 198.660   1
   0   8  -8 327.160 231.960   1
   0   8  -8 319.570 380.390   1
   0  -8   8 259.650 218.760   1
   0  -8   8 90.4600 114.710   1
   1  -2  11 2291.37 178.970   1
   1   2  11 2460.21 170.300   1
   1   2  11 1949.24 191.480   1
   1  -2  11 2211.03 201.870   1
  -1  -2 -11 1231.95 186.060   1
   0   7   9 295.880 155.080   1
   0   7   9 534.860 147.720   1
   0   7  -9 806.320 358.720   1
   0   7  -9 414.150 276.680   1
   0  -7   9 418.180 146.320   1
   0  -7   9 683.310 192.530   1
   6  -8   2 -189.18 128.730   1
   6   8   2 -143.70 157.340   1
   6  -8   2 -46.120 205.150   1
   6   8   2 -160.68 268.110   1
   6   8   2 -6.0400 152.120   1
   8  -2   4 5956.82 314.760   1
   8   2   4 5807.82 304.540   1
   8  -2   4 6670.86 334.180   1
   8   2   4 7251.84 356.670   1
  -2   5  11 1307.41 175.480   1
  -2  -5  11 1852.76 227.420   1
   2   5 -11 1410.93 320.760   1
  -2  -5  11 1873.27 171.770   1
  -2   5  11 1725.50 153.820   1
   2   5 -11 1317.42 354.710   1
  -1   1  12 1371.57 169.800   1
  -1   1  12 1261.45 197.580   1
   1   1 -12 417.010 221.220   1
  -1  -1  12 1000.95 180.630   1
  -1  -1  12 1015.63 151.580   1
   1  -1 -12 922.130 213.410   1
   7  -8  -5 3585.75 227.840   1
   7   8  -5 3964.15 347.400   1
  -7  -8   5 3243.54 225.940   1
   7   8  -5 2847.22 327.960   1
   8  -7  -5 309.200 135.830   1
  -8  -7   5 382.680 171.600   1
   8   7  -5 13.4600 274.120   1
   8   7  -5 71.0500 213.540   1
   0 -11  -1 5877.65 320.250   1
   0 -11   1 4572.62 236.230   1
   0  11   1 3885.66 330.410   1
   0  11  -1 4818.36 369.830   1
   3   3 -12 256.750 241.390   1
  -3   3  12 354.530 155.100   1
  -3   3  12 354.340 116.180   1
  -3  -3  12 387.460 168.250   1
   1  11   0 6629.02 466.030   1
  -1  11   0 8269.45 507.180   1
  -1 -11   0 9077.92 275.110   1
   1 -11   0 8317.00 375.580   1
   5  -9  -6 7500.35 332.520   1
   5   9  -6 8563.09 547.500   1
   5   9  -6 6738.20 598.530   1
  -5  -9   6 7599.41 435.480   1
   6  -9  -1 173.470 124.320   1
   6  -9  -1 208.950 180.760   1
   6   9  -1 478.790 181.190   1
   6   9  -1 76.6100 259.250   1
   4  10  -4 837.540 178.880   1
   4 -10  -4 804.460 115.130   1
   4 -10  -4 1068.87 173.410   1
   4  10  -4 925.170 296.420   1
  -4 -10   4 1272.08 238.070   1
  -3  10   5 5482.87 316.540   1
   3  10  -5 3812.27 402.570   1
   3  10  -5 4164.87 298.370   1
  -3 -10   5 4899.04 272.760   1
   3 -10  -5 4187.95 260.150   1
   1   5  10 2374.14 208.430   1
   1   5  10 2846.89 207.870   1
   1  -5  10 2226.91 178.480   1
   5   9   2 2506.34 282.720   1
   5   9   2 3621.40 269.830   1
   5  -9   2 3452.89 284.410   1
   5   9   2 3324.35 240.220   1
   7   6  -9 3766.61 446.160   1
  -7  -6   9 4950.37 332.960   1
   7  -6  -9 3465.50 227.380   1
   7   6  -9 4206.65 373.480   1
  10   0  -8 4151.34 333.560   1
  10   0  -8 6348.38 330.500   1
  10   0  -8 5161.88 314.390   1
   3  -1  10 -63.070 107.620   1
   3  -1  10 129.210 139.130   1
   3   1  10 -17.130 130.430   1
   3   1  10 -89.500 136.160   1
   8  -7  -1 181.160 163.030   1
   8  -7  -1 331.400 192.450   1
   8   7  -1 403.880 146.520   1
   8   7  -1 252.360 224.050   1
   8   7  -1 232.770 166.630   1
   7   5 -10 2024.89 316.810   1
   7  -5 -10 2464.91 188.970   1
   7   5 -10 2240.42 262.000   1
  -7   5  10 1738.63 156.770   1
   7  -7   2 1042.93 163.650   1
  -7   7  -2 894.940 302.590   1
   7   7   2 865.630 152.250   1
   7   7   2 997.270 173.880   1
   7   7   2 924.580 266.950   1
   4   9  -7 3321.78 298.950   1
  -4   9   7 3053.21 242.240   1
   4   9  -7 3133.75 433.860   1
  -4  -9   7 3825.34 263.050   1
   8  -1 -11 6382.59 471.000   1
   8   1 -11 5533.87 324.930   1
   8   1 -11 5614.78 422.630   1
   8   1 -11 6844.84 504.020   1
  -8   1  11 5786.87 287.580   1
   8  -1 -11 5423.76 345.970   1
   8  -1 -11 5382.57 272.830   1
   8   5  -9 943.550 300.600   1
   8  -5  -9 1282.98 204.950   1
   8   5  -9 1912.81 272.110   1
  -1 -11   2 3791.53 232.320   1
   1 -11  -2 3239.16 216.380   1
   1  11  -2 3858.53 332.040   1
  -6  -2  12 2846.52 207.780   1
  -6   2  12 2725.40 238.670   1
   6   2 -12 2759.96 212.890   1
  -6   2  12 3405.05 243.260   1
   6   2 -12 2129.08 276.280   1
   6  -2 -12 2635.08 274.500   1
  -5  -3  12 3875.45 250.100   1
   5   3 -12 3216.40 443.670   1
  -5   3  12 3579.88 225.410   1
   5   3 -12 2375.02 348.740   1
  -5   3  12 3385.17 247.120   1
   9  -4   1 193.740 166.780   1
   9   4   1 218.510 185.640   1
   9   4   1 48.0700 155.480   1
   0   9   7 -13.260 111.250   1
   0   9   7 -35.860 172.570   1
   0  -9   7 -95.980 204.270   1
   0   9  -7 41.8300 240.990   1
   0   9  -7 136.310 189.050   1
   2  -4  10 793.700 130.430   1
   2   4  10 1314.80 188.940   1
   2  -4  10 815.310 131.790   1
   2   4  10 766.120 160.160   1
  10   0   0 4289.30 256.190   1
  10   0   0 5215.67 293.480   1
   7  -1   6 178.150 134.770   1
   7   1   6 83.4800 153.200   1
   7   1   6 -25.380 142.280   1
   7  -1   6 -17.940 162.120   1
   7   4   5 710.780 165.010   1
   7  -4   5 968.680 182.190   1
   7  -4   5 684.730 137.700   1
   7   4   5 1228.48 190.030   1
   0   6  10 300.020 135.700   1
   0   6  10 618.990 186.350   1
   0  -6  10 369.230 157.320   1
   0   6 -10 356.380 276.960   1
   0   6 -10 91.6700 316.550   1
   2  10   4 81.7900 195.330   1
   2  10   4 -113.42 148.890   1
   2 -10   4 157.410 170.660   1
  -2  10  -4 -53.550 199.480   1
   9   1 -10 1146.17 138.220   1
   9   1 -10 1557.84 223.970   1
   9  -1 -10 1262.04 194.040   1
   9  -1 -10 1274.93 252.650   1
   9   1 -10 896.690 268.690   1
   9  -1 -10 1196.41 161.620   1
   9  -6  -3 3061.91 203.350   1
   9   6  -3 1676.01 148.420   1
   9   6  -3 2681.45 261.090   1
   9   6  -3 1108.41 252.860   1
   2  11  -1 240.610 166.690   1
   2 -11  -1 339.240 123.920   1
  -2 -11   1 492.920 191.080   1
   2 -11  -1 583.350 150.980   1
   2  11  -1 670.550 296.040   1
  10  -4  -4 9354.11 244.380   1
  10   4  -4 5008.21 475.750   1
  10  -4  -4 5079.05 422.530   1
  10   4  -4 6375.65 397.940   1
  10   4  -4 9339.02 352.220   1
   3  10   3 4045.02 260.670   1
   3  10   3 3319.47 276.600   1
   3  10   3 3889.12 344.650   1
   3 -10   3 2933.33 233.110   1
  -3  10  -3 3535.75 291.080   1
   8  -6  -8 1768.26 188.140   1
   8   6  -8 1200.93 266.210   1
  -8  -6   8 1464.37 187.340   1
   8   6  -8 1491.69 254.620   1
  -6  -6  10 -31.540 166.040   1
  -6   6  10 186.680 161.470   1
   6   6 -10 -64.490 220.890   1
   6   6 -10 -273.45 253.790   1
  -6   6  10 -33.290 161.600   1
   9   5   0 2788.26 353.860   1
  -9   5   0 2777.81 328.060   1
   9   5   0 2947.78 211.620   1
   9  -5   0 3820.14 239.200   1
   9   5   0 4324.82 312.640   1
  10   3  -7 4039.14 227.960   1
  10  -3  -7 4924.23 261.140   1
  10   3  -7 3318.49 446.130   1
  10  -3  -7 3282.93 313.170   1
  10   3  -7 5778.46 323.710   1
  10  -3  -7 5368.25 343.210   1
   7  -7  -8 5424.14 281.840   1
  -7  -7   8 5811.67 340.520   1
   7   7  -8 6855.32 412.740   1
   7   7  -8 4962.97 487.620   1
   6  -9  -5 924.000 194.120   1
   6   9  -5 974.460 308.140   1
  -6  -9   5 512.990 198.630   1
   6   9  -5 856.730 218.450   1
   8   4 -10 633.780 249.280   1
   8  -4 -10 638.930 177.100   1
   8   4 -10 541.320 216.860   1
  -8   4  10 588.240 131.840   1
   9  -6  -5 2770.57 178.290   1
   9   6  -5 2035.35 204.370   1
   9   6  -5 2555.56 205.690   1
   9   6  -5 2244.63 359.810   1
  -6  -7   9 60.6200 136.250   1
   6   7  -9 93.1200 215.720   1
   6   7  -9 239.350 276.290   1
  -6   7   9 69.7100 120.120   1
   5  -3   8 170.270 109.820   1
   5  -3   8 549.990 186.970   1
   5   3   8 338.410 161.550   1
   5   3   8 324.060 136.130   1
   9  -3   2 93.5800 152.360   1
   9   3   2 251.950 197.990   1
   9  -3   2 160.390 136.910   1
   9   3   2 376.730 152.660   1
  10  -2  -8 9527.81 379.290   1
  10  -2  -8 6674.85 446.980   1
  10  -2  -8 7389.54 473.300   1
  10   2  -8 5590.22 535.610   1
  10  -2  -8 7659.18 357.240   1
  10   2  -8 10278.5 269.120   1
  10   2  -8 8126.93 428.990   1
  -1  10  -5 1909.95 260.430   1
   1  10   5 1500.18 206.720   1
   1  10   5 1878.60 177.890   1
   1 -10   5 2939.20 300.310   1
  10   3  -1 2103.93 223.800   1
  10  -3  -1 2982.56 208.210   1
  10   3  -1 2149.67 206.450   1
  -1 -11  -2 423.140 168.920   1
   1  11   2 834.600 279.210   1
   1 -11   2 1272.05 197.520   1
  -1  11  -2 627.510 213.870   1
  -3   7  10 1222.47 202.090   1
   3   7 -10 649.530 310.070   1
  -3   7  10 982.210 156.230   1
  -3  -7  10 1318.46 173.690   1
  -3  -7  10 1081.41 230.410   1
   4   3   9 787.440 186.780   1
   4  -3   9 797.310 149.290   1
   4  -3   9 1069.64 186.330   1
   4   3   9 909.590 154.730   1
   3   8  -9 2921.56 414.170   1
  -3   8   9 2963.52 222.220   1
  -3  -8   9 3863.51 317.870   1
   3   8  -9 3470.25 331.250   1
  -3   8   9 2176.82 179.590   1
   5 -10  -3 1593.50 142.820   1
   5 -10  -3 2232.77 188.290   1
  -5 -10   3 2145.32 222.630   1
   5  10  -3 1415.24 297.780   1
   5  10  -3 2330.95 275.780   1
   0   0  12 1908.83 183.420   1
   0   0  12 2032.80 198.790   1
   2  10  -6 719.880 202.400   1
  -2  10   6 528.460 188.160   1
   2  10  -6 460.670 291.600   1
  -2 -10   6 684.740 201.160   1
   6  -3   7 256.080 123.180   1
   6   3   7 619.380 150.380   1
   6   3   7 347.170 157.920   1
   6  -3   7 261.440 147.160   1
   2 -11   1 484.910 163.500   1
  -2  11  -1 140.340 215.540   1
   2  11   1 142.860 156.270   1
   2  11   1 355.640 248.190   1
  -2 -11  -1 654.010 199.340   1
   5 -10  -1 3476.91 243.590   1
   5 -10  -1 4543.52 319.960   1
   5  10  -1 3237.77 258.530   1
  -5 -10   1 3763.05 276.140   1
   5  10  -1 3612.92 398.600   1
  -7   4  11 1913.86 190.860   1
   7   4 -11 2603.80 296.260   1
   7   4 -11 1562.12 298.400   1
   7  -4 -11 1626.43 156.130   1
  10  -2   0 4685.27 301.680   1
  10   2   0 5803.96 378.850   1
  10   2   0 4984.29 295.680   1
  10  -2   0 6283.63 343.200   1
   9   0   3 109.700 175.970   1
   9   0   3 11.5400 181.100   1
  10   4  -6 3116.61 204.130   1
  10   4  -6 3868.95 258.110   1
  10   4  -6 2056.49 389.320   1
  10  -4  -6 2001.56 255.250   1
  10  -4  -6 4239.85 240.400   1
   7  -1 -12 181.880 246.660   1
   7  -1 -12 1.23000 217.170   1
   7   1 -12 316.390 258.710   1
   7  -1 -12 145.460 144.000   1
   7   1 -12 147.900 130.780   1
  -7   1  12 -72.090 166.330   1
  -7  -1  12 284.840 143.810   1
   0  11  -3 121.090 253.420   1
   0  11   3 1.45000 168.490   1
   0 -11   3 -53.170 164.570   1
   0 -11  -3 81.6900 177.150   1
  -4   4  12 345.270 119.160   1
  -4  -4  12 295.350 165.410   1
   4   4 -12 449.780 309.600   1
   4   4 -12 252.020 272.470   1
  -4   4  12 280.800 153.260   1
  -4  -4  12 565.590 168.060   1
  -6   5  11 2842.81 213.710   1
   6   5 -11 2415.07 345.140   1
  -6   5  11 3063.06 236.650   1
   6   5 -11 2892.08 338.950   1
   4  10   2 302.520 168.220   1
   4  10   2 168.060 156.640   1
   4  10   2 573.620 272.040   1
   4 -10   2 11.5900 171.880   1
   2 -11  -3 3131.40 208.680   1
  -2 -11   3 3193.43 232.890   1
   2  11  -3 2567.45 283.540   1
  10  -4  -2 2556.03 201.600   1
  10   4  -2 1324.07 222.680   1
  10   4  -2 2037.78 200.680   1
  10   4  -2 2665.72 254.650   1
  -1  -3  12 1256.44 149.980   1
   1   3 -12 364.000 249.810   1
  -1   3  12 1323.67 192.760   1
  -1  -3  12 1016.77 154.300   1
  -1   3  12 1462.03 163.760   1
   9   4  -9 1430.22 224.310   1
   9  -4  -9 1098.91 132.510   1
   9   4  -9 1438.20 159.250   1
   9   4  -9 979.350 248.190   1
   9  -4  -9 1074.16 208.620   1
   9  -4  -9 1035.26 206.110   1
   2  -1  11 3482.53 235.030   1
   2   1  11 2672.15 188.270   1
   2   1  11 3073.38 240.890   1
   2  -1  11 3019.65 206.120   1
   9  -5  -8 11555.0 300.620   1
   9   5  -8 14808.8 458.810   1
   9   5  -8 9118.43 660.540   1
   8   5   3 585.270 171.730   1
   8   5   3 52.1600 170.720   1
   8  -5   3 36.7400 172.820   1
  -6  -8   8 655.320 171.240   1
   6   8  -8 743.090 311.940   1
   6  -8  -8 723.250 124.240   1
   6   8  -8 658.290 237.500   1
  -1   8   9 2768.78 180.500   1
  -1   8   9 2782.65 175.480   1
  -1  -8   9 3667.92 295.140   1
  -1  -8   9 3382.55 227.000   1
   1   8  -9 3614.31 415.280   1
  -3   6  11 4134.57 243.320   1
   3   6 -11 4848.85 551.530   1
  -3  -6  11 4277.47 258.710   1
  -3   6  11 4292.47 246.000   1
  -3  -6  11 4228.82 223.990   1
   3   6 -11 3070.05 382.110   1
  -8   6  -2 1675.47 335.150   1
   8  -6   2 1357.63 175.220   1
   8   6   2 1802.12 266.630   1
   8   6   2 1697.54 184.920   1
   8   6   2 1274.70 183.450   1
   7  -8   1 3152.61 252.640   1
   7  -8   1 3296.72 183.650   1
   7   8   1 4259.91 258.630   1
   7   8   1 2411.00 177.590   1
   7   8   1 3006.43 307.700   1
   6   9   1 20.4800 223.870   1
   6   9   1 182.850 142.260   1
   6  -9   1 22.5100 152.130   1
   6   9   1 44.4300 217.000   1
   6  -9   1 95.4700 204.500   1
   3  -3  10 181.120 130.710   1
   3   3  10 -21.670 136.020   1
   3   3  10 88.5800 136.400   1
   3  -3  10 -120.22 131.700   1
   9  -6  -1 4639.67 198.190   1
   9   6  -1 3134.40 170.390   1
   9   6  -1 1935.05 333.920   1
   9   6  -1 3965.79 269.620   1
   3 -11  -2 7574.99 215.840   1
  -3 -11   2 7466.15 258.480   1
   3  11  -2 5123.19 402.550   1
   3 -11  -2 8026.14 253.650   1
   8  -7  -7 61.1600 141.950   1
   8   7  -7 -9.0000 299.320   1
  -8  -7   7 223.530 163.070   1
   8   7  -7 389.020 219.370   1
   3   9  -8 3381.11 276.050   1
  -3   9   8 2659.85 188.240   1
  -3  -9   8 3020.95 209.550   1
   3   9  -8 3664.49 419.230   1
  -2   4  12 2086.59 177.710   1
  -2  -4  12 2094.49 152.420   1
  -2   4  12 2372.28 193.400   1
   2   4 -12 1330.22 262.590   1
  10  -1  -9 3113.04 288.240   1
  10   1  -9 3013.80 244.220   1
  10   1  -9 2450.05 283.340   1
  10  -1  -9 3364.06 260.200   1
  10   1  -9 4200.42 232.110   1
  10  -1  -9 2964.23 169.540   1
   1   7 -10 1694.00 334.760   1
  -1  -7  10 2064.69 176.310   1
  -1   7  10 1375.16 134.520   1
  -1  -7  10 1656.75 202.710   1
  -1   7  10 1744.62 184.170   1
   1   7 -10 1714.09 364.440   1
   0  10   6 289.980 127.110   1
   0  10   6 121.380 160.670   1
   0 -10   6 483.820 257.380   1
   0  10  -6 66.1400 299.530   1
   8  -3 -11 1236.72 236.090   1
   8   3 -11 1336.72 308.650   1
   8   3 -11 2600.77 302.950   1
  -8   3  11 1481.32 168.630   1
   8  -3 -11 1567.32 202.640   1
   3  11   0 1452.68 278.770   1
   3 -11   0 2278.97 243.080   1
   3  11   0 1949.59 212.440   1
  -3 -11   0 2147.27 215.470   1
   0  -2 -12 1302.81 200.570   1
   0  -2  12 2083.16 160.430   1
   0   2  12 1752.92 185.560   1
   0  -2  12 2045.23 163.690   1
   0   2  12 2234.97 188.950   1
   8   1   5 823.120 152.120   1
   8  -1   5 657.590 157.780   1
   8   1   5 752.420 170.390   1
   8  -1   5 941.550 151.470   1
   5   7 -10 7603.61 431.830   1
  -5   7  10 5096.01 246.100   1
   5   7 -10 6231.77 507.210   1
  -5   7  10 6520.81 255.700   1
   0   5  11 199.790 123.510   1
   0   5  11 126.700 183.210   1
   0  -5  11 329.090 140.620   1
   9   2   3 281.230 190.780   1
   9  -2   3 344.940 172.600   1
   9   2   3 96.8400 137.280   1
   9  -2   3 -46.920 135.120   1
   7  -8  -7 5593.33 242.710   1
  -7  -8   7 5523.78 275.300   1
   7   8  -7 5430.39 507.440   1
   7   8  -7 6126.31 324.480   1
  11   0  -5 -184.87 193.740   1
  11   0  -5 65.4900 161.230   1
  11   0  -5 -76.530 210.600   1
   7  -3   6 3656.76 188.070   1
   7   3   6 3493.13 179.030   1
   7   3   6 3008.84 168.400   1
   7  -3   6 2884.82 164.510   1
   1   4  11 5438.50 231.560   1
   1   4  11 4340.67 191.730   1
   1  -4  11 5569.28 196.760   1
   4   7   7 486.660 165.560   1
   4   7   7 181.860 168.940   1
  -4   7  -7 153.690 336.660   1
   9   3 -10 -163.53 247.490   1
   9  -3 -10 -152.79 133.120   1
   9   3 -10 68.3900 153.870   1
   9  -3 -10 -134.11 187.830   1
   9   3 -10 488.620 214.550   1
   9  -3 -10 138.120 209.370   1
  -3   0  13 82.0400 133.290   1
   3   0 -13 -432.30 207.080   1
  -3   0  13 194.800 142.000   1
   4  -1 -13 3809.65 273.480   1
   4   1 -13 2428.22 302.120   1
  -4   1  13 2437.35 174.590   1
  -4  -1  13 3814.50 227.250   1
  -4   1  13 4096.14 181.200   1
  -4  -1  13 3581.41 192.420   1
  -1   9   8 3403.76 205.540   1
  -1   9   8 3299.03 174.870   1
  -1  -9   8 3919.19 251.280   1
   1   9  -8 3842.48 412.190   1
   1   9  -8 3162.43 286.920   1
   8   4   4 485.560 174.080   1
   8   4   4 499.040 180.930   1
   8  -4   4 516.190 154.290   1
  -1  11   4 475.970 157.570   1
  -1 -11   4 485.250 172.830   1
   1 -11  -4 918.330 188.320   1
   1  11  -4 88.9100 225.190   1
   4   8   6 -9.7600 176.630   1
   4   8   6 -56.380 151.140   1
  -4   8  -6 393.010 288.040   1
   4  -8   6 178.750 249.740   1
  11   1  -4 1884.96 185.940   1
  11  -1  -4 1802.00 197.490   1
  11   1  -4 1888.14 234.410   1
  11  -1  -4 1885.70 163.150   1
  11   1  -4 1001.92 249.940   1
  10  -1   1 1346.89 170.870   1
  10   1   1 1958.80 209.030   1
  10   1   1 1985.25 189.660   1
  10  -1   1 2783.95 205.910   1
  -5   0  13 -26.510 124.740   1
  -5   0  13 178.960 169.780   1
   5   0 -13 -73.150 224.490   1
   5   7   6 1796.63 186.900   1
   5   7   6 1218.80 156.770   1
  -5   7  -6 1525.66 359.570   1
   3   8   7 1245.18 176.650   1
   3   8   7 1374.47 169.210   1
  -3   8  -7 904.920 307.770   1
   3  -8   7 1417.08 233.120   1
   5   8  -9 889.080 350.060   1
   5   8  -9 437.090 197.600   1
  -5  -8   9 662.280 190.420   1
  -5   8   9 425.290 165.790   1
  -4  10   6 1774.50 126.940   1
  -4 -10   6 1841.25 161.700   1
   4 -10  -6 2276.36 197.120   1
   4  10  -6 1866.15 287.720   1
   4  10  -6 2052.44 201.730   1
   9  -6  -7 8392.17 259.270   1
   9   6  -7 5677.97 482.980   1
   9   6  -7 11394.1 397.750   1
   8  -8  -4 2369.05 197.150   1
   8   8  -4 1094.51 270.530   1
   8   8  -4 1330.49 226.360   1
  -5  -6  11 5558.83 275.560   1
  -5   6  11 5058.06 254.760   1
  -5   6  11 4937.52 223.890   1
   5   6 -11 4896.06 518.990   1
  11   0  -3 -60.220 154.250   1
  11   0  -3 135.000 153.250   1
   3   7   8 3178.96 217.730   1
   3   7   8 2928.79 179.870   1
  -3   7  -8 3292.13 398.020   1
   5  10  -5 4133.07 304.300   1
   5 -10  -5 4105.12 177.790   1
  -5 -10   5 4153.80 244.370   1
   5  10  -5 3033.25 361.810   1
  10  -5  -5 125.370 159.200   1
  10   5  -5 84.0800 170.770   1
  10   5  -5 -15.810 194.750   1
  10   5  -5 15.3000 270.530   1
   7  -9  -2 2395.59 194.560   1
   7  -9  -2 2114.38 139.110   1
   7   9  -2 3160.68 253.620   1
   7   9  -2 2820.93 357.740   1
   8  -7   1 -184.36 151.100   1
  -8   7  -1 -83.110 327.850   1
   8   7   1 -294.35 226.210   1
   8   7   1 -160.98 207.950   1
   8   7   1 46.2100 132.870   1
  11   1  -6 313.490 235.010   1
  11  -1  -6 530.780 249.340   1
  11   1  -6 349.010 168.280   1
  11  -1  -6 73.3100 187.030   1
  11   1  -6 323.150 146.300   1
  11  -1  -6 733.890 154.750   1
   8  -8  -2 764.060 160.310   1
   8   8  -2 528.620 238.810   1
   8   8  -2 511.400 201.160   1
   5  10   1 862.140 185.000   1
   5 -10   1 1223.63 266.350   1
   5  10   1 1140.53 308.320   1
  10  -5  -3 -103.41 165.970   1
  10   5  -3 -26.100 238.670   1
  10   5  -3 96.1400 230.380   1
  10   5  -3 98.6200 179.680   1
   5   8   5 4204.38 260.100   1
   5   8   5 6556.28 262.240   1
  -5   8  -5 5495.31 507.830   1
   7  -9  -4 5717.51 218.790   1
  -7  -9   4 6979.16 334.570   1
   7   9  -4 4493.53 385.220   1
   9   0 -11 -181.38 184.390   1
   9   0 -11 197.630 198.070   1
   9   0 -11 168.490 271.770   1
   5   0   9 -324.25 157.910   1
   5   0   9 105.250 146.810   1
  -6   4  12 3950.77 242.030   1
   6   4 -12 3161.52 349.320   1
  -6   4  12 4498.81 238.430   1
  -6  -4  12 4845.57 242.670   1
   4   6   8 84.2200 147.630   1
   4   6   8 36.7400 151.360   1
   5   6   7 2128.74 190.980   1
   5   6   7 1927.12 197.480   1
   5  -6   7 1696.86 162.350   1
  -7   3  12 1042.18 170.670   1
   7  -3 -12 686.030 146.010   1
  -7   3  12 732.960 127.170   1
   7   3 -12 495.010 306.500   1
   7  -3 -12 960.720 241.100   1
  -7  -3  12 1092.71 158.380   1
  11  -2  -5 1464.96 196.010   1
  11   2  -5 571.130 238.890   1
  11   2  -5 2397.10 218.340   1
  11  -2  -5 2509.94 227.030   1
  11   2  -5 2012.42 183.400   1
  11  -2  -5 2453.86 195.210   1
  -1   6  11 1820.81 166.210   1
  -1   6  11 1487.79 156.270   1
  -1  -6  11 1608.74 206.840   1
   1   6 -11 1337.43 322.310   1
  -1  -6  11 1541.58 146.330   1
   1   6 -11 1757.82 385.470   1
   6   0   8 1193.47 153.260   1
   6   0   8 1384.23 160.510   1
   3   2 -13 159.120 273.490   1
  -3   2  13 744.460 160.590   1
  -3  -2  13 713.220 161.730   1
  -3   2  13 389.660 129.920   1
  -3  -2  13 770.800 147.190   1
   3  -2 -13 849.550 217.270   1
  -2   1  13 3624.83 238.270   1
   2   1 -13 1857.51 297.400   1
  -2  -1  13 3490.49 217.100   1
   2  -1 -13 2609.43 241.480   1
  -2   1  13 4043.82 180.640   1
  -2  -1  13 3538.74 158.040   1
   3   9   6 5240.06 234.540   1
   3   9   6 4387.51 234.440   1
   3  -9   6 4646.77 276.140   1
   3  11  -4 1309.25 219.180   1
   3 -11  -4 1103.72 181.710   1
   3  11  -4 1069.35 281.970   1
  -3 -11   4 1569.69 195.890   1
   2   8   8 -116.87 172.150   1
   2   8   8 28.5600 148.810   1
   2  -8   8 11.3300 227.250   1
  -2   8  -8 379.370 332.100   1
  -8   0  12 885.030 176.070   1
   8   0 -12 701.850 165.470   1
   8   0 -12 1367.48 295.870   1
   2  -3  11 2277.93 153.670   1
   2   3  11 2049.46 196.940   1
   2  -3  11 1942.09 182.750   1
   2   3  11 2271.34 145.800   1
   4   9   5 656.380 210.570   1
   4   9   5 705.910 175.050   1
   4  -9   5 667.840 210.250   1
   9  -7  -4 4487.01 182.910   1
   9   7  -4 2189.03 276.510   1
   9   7  -4 5360.51 286.870   1
   5   2 -13 -175.70 286.000   1
  -5   2  13 3.42000 182.070   1
  -5   2  13 34.3500 145.310   1
  -5  -2  13 217.080 147.800   1
   5  -2 -13 148.160 214.750   1
   3   5 -12 3006.14 458.620   1
  -3  -5  12 4046.02 211.640   1
  -3   5  12 3596.29 201.840   1
  -3  -5  12 2852.02 215.860   1
  -3   5  12 3442.16 234.260   1
   3   5 -12 3680.22 399.810   1
  11   0  -7 -19.600 172.220   1
  11   0  -7 159.010 160.520   1
  11   0  -7 38.9400 240.920   1
   6   7   5 -61.740 168.310   1
   6   7   5 63.7900 162.130   1
  -6   7  -5 -32.540 332.120   1
   4   0  10 1753.79 165.460   1
   4   0  10 2129.50 156.400   1
   2  11   3 831.640 245.830   1
  -2 -11  -3 795.840 198.620   1
   2  11   3 796.340 153.180   1
  -2  11  -3 708.080 230.470   1
   2 -11   3 999.460 199.110   1
  11  -2  -3 -414.87 141.130   1
  11   2  -3 -325.01 185.730   1
  11   2  -3 28.2400 197.940   1
   6  -9  -7 -26.240 145.040   1
   6   9  -7 -89.380 175.200   1
  -6  -9   7 52.8300 198.170   1
   6   9  -7 76.4800 265.250   1
   4 -11  -1 481.170 186.430   1
   4  11  -1 12.4400 269.980   1
  -4 -11   1 367.520 186.240   1
   4  11  -1 135.310 191.970   1
  10   4  -8 1959.44 346.960   1
  10  -4  -8 3517.90 217.480   1
  10   4  -8 2927.39 183.060   1
  10   4  -8 3243.71 232.270   1
  10  -4  -8 1991.48 258.490   1
   3   6   9 2675.97 175.330   1
   3   6   9 2860.54 202.310   1
   3  -6   9 2491.99 159.690   1
   6  -1 -13 477.420 225.110   1
  -6   1  13 118.440 152.180   1
  -6  -1  13 431.450 152.070   1
   6  -1 -13 -124.90 245.850   1
   6   1 -13 156.650 260.660   1
  -6   1  13 358.860 169.030   1
  -6  -1  13 -30.990 95.4300   1
   6  -1 -13 166.680 108.800   1
   6   1 -13 293.450 139.030   1
   1   1  12 301.060 134.390   1
   1  -1  12 290.410 156.790   1
   1  -1  12 436.200 157.750   1
   1   1  12 324.250 165.010   1
   2   7   9 -97.810 170.170   1
   2   7   9 278.950 145.980   1
  -2   7  -9 94.5200 357.190   1
   2  -7   9 74.5800 151.280   1
   6   6   6 123.790 131.650   1
   6   6   6 -80.480 172.420   1
   6  -6   6 355.210 123.900   1
  11  -1  -2 499.120 175.250   1
  11  -1  -2 278.660 199.940   1
  11   1  -2 -122.52 177.920   1
  11   1  -2 276.370 171.410   1
   1  11   4 2289.40 207.880   1
   1 -11   4 2935.67 201.010   1
  -1  11  -4 3072.01 255.510   1
   3  10  -7 1959.33 247.480   1
  -3 -10   7 1569.39 211.220   1
  -3  10   7 1341.05 180.270   1
   3  10  -7 1538.06 294.060   1
   6 -10  -2 132.860 147.010   1
   6 -10  -2 -13.550 172.610   1
  -6 -10   2 52.9600 194.080   1
   6  10  -2 221.380 201.000   1
   6  10  -2 -177.55 269.040   1
  -1  10   7 1445.16 219.800   1
   1  10  -7 1534.39 293.370   1
  -1 -10   7 1555.72 226.210   1
  -5   9   8 1761.70 157.750   1
   5   9  -8 1800.10 282.640   1
   5   9  -8 2043.03 251.520   1
  -5  -9   8 2006.10 189.340   1
   2   9   7 189.140 221.810   1
   2   9   7 292.540 157.170   1
   2  -9   7 509.160 264.160   1
  10   3  -9 3277.09 303.620   1
  10  -3  -9 4037.68 281.350   1
  10   3  -9 5221.63 290.280   1
  10  -3  -9 4539.39 307.870   1
  10   3  -9 4462.57 187.220   1
  10  -3  -9 5379.59 236.000   1
   4 -11  -3 3879.90 236.190   1
   4 -11  -3 3690.20 198.940   1
  -4 -11   3 2570.82 208.650   1
   4  11  -3 1474.36 293.970   1
   4  11  -3 2256.60 232.090   1
   3  11   2 1155.94 239.050   1
   3  11   2 1251.96 185.150   1
  -3 -11  -2 1000.68 202.260   1
   3 -11   2 1437.54 182.980   1
   9  -2 -11 -17.190 196.060   1
   9  -2 -11 209.780 253.350   1
   9   2 -11 -22.930 256.850   1
   9   2 -11 234.020 170.060   1
   9   2 -11 -116.42 218.520   1
   9  -2 -11 -107.26 257.320   1
   9  -2 -11 119.150 130.580   1
   5  -2   9 315.880 151.300   1
   5   2   9 161.460 170.190   1
   5   2   9 120.210 146.790   1
   5  -2   9 222.380 125.500   1
   8   3   5 320.550 160.760   1
   8  -3   5 426.960 133.830   1
   8   3   5 346.730 177.490   1
   9  -7  -2 1834.60 184.340   1
   9   7  -2 1004.96 162.510   1
   9   7  -2 1343.07 217.050   1
   9   7  -2 1177.31 261.550   1
  -5   5  12 2699.09 248.770   1
   5   5 -12 2515.42 344.710   1
  -5   5  12 1864.31 179.560   1
  -5  -5  12 1125.43 161.710   1
  -5  -5  12 2636.94 179.880   1
  10   0 -10 12146.0 318.720   1
  10   0 -10 11718.1 769.000   1
  10   0 -10 10388.9 622.520   1
   7   0   7 -17.040 151.010   1
   7   0   7 223.170 154.770   1
  10   4   0 2716.02 255.660   1
  10   4   0 2574.01 202.820   1
  10  -4   0 2554.36 210.160   1
   8  -8  -6 203.130 130.630   1
  -8  -8   6 290.480 174.950   1
   8   8  -6 231.830 265.990   1
   8   8  -6 813.160 200.060   1
   6  -8   4 199.320 225.150   1
  -6   8  -4 -11.410 333.120   1
   6   8   4 -86.640 212.520   1
   6   8   4 238.580 202.420   1
   6   8   4 285.440 182.010   1
   2 -11  -5 677.720 205.820   1
  -2 -11   5 1284.68 218.350   1
  -2  11   5 363.640 181.050   1
   2  11  -5 610.530 247.600   1
   6   2   8 1481.28 178.570   1
   6  -2   8 1930.33 226.270   1
   6   2   8 1861.58 200.260   1
   6  -2   8 1769.33 186.340   1
   5   9   4 1670.95 218.480   1
   5   9   4 1359.96 239.870   1
   5  -9   4 1761.30 238.330   1
   5   9   4 1961.87 207.670   1
  -4   3  13 6039.60 348.270   1
   4   3 -13 5235.16 627.610   1
   4  -3 -13 4033.63 336.380   1
  -4  -3  13 6502.21 340.450   1
  -4   3  13 6107.22 338.290   1
   4   3 -13 3549.32 506.520   1
   6 -10  -4 -64.040 139.320   1
  -6 -10   4 20.7900 171.060   1
   6  10  -4 -144.65 205.550   1
   6  10  -4 183.570 236.610   1
   8   2 -12 4487.86 455.550   1
  -8   2  12 5583.09 321.960   1
   8  -2 -12 7047.37 488.290   1
   8   2 -12 6629.15 472.480   1
   8  -2 -12 7246.71 386.180   1
  11   3  -4 651.310 217.440   1
  11   3  -4 150.850 171.680   1
  11  -3  -4 672.650 181.770   1
  11   3  -4 489.920 259.290   1
  10  -3   1 398.790 174.610   1
  10   3   1 167.080 186.420   1
  10  -5  -7 877.570 187.770   1
  10  -5  -7 1759.95 153.130   1
  10   5  -7 966.910 256.770   1
  10   5  -7 2335.40 242.230   1
  10   5  -7 1643.66 168.870   1
   7  -9   0 3797.50 309.870   1
   7  -9   0 4458.85 264.520   1
   7   9   0 3174.15 338.310   1
   7   9   0 4656.27 351.140   1
  11  -2  -7 -31.870 201.690   1
  11   2  -7 16.0000 218.310   1
  11  -2  -7 -169.46 229.340   1
  11   2  -7 10.0400 153.230   1
  11  -2  -7 293.570 173.900   1
  11   2  -7 -240.26 156.170   1
  -1   0  13 77.7500 128.850   1
  -1   0  13 231.130 169.840   1
   1   0 -13 119.070 180.520   1
   4   2  10 1358.60 171.620   1
   4   2  10 1086.00 200.940   1
   4  -2  10 1302.22 160.790   1
   4  -2  10 1050.70 171.130   1
   5  -5   8 2136.50 186.670   1
   5   5   8 2115.68 204.460   1
   5   5   8 2182.45 221.730   1
   9  -7  -6 2868.89 252.890   1
   9   7  -6 1719.68 350.130   1
   9   7  -6 2067.58 203.830   1
   9   1   4 188.340 170.220   1
   9   1   4 344.580 148.380   1
   9  -5   2 3371.65 240.970   1
   9   5   2 4289.21 310.950   1
   9   5   2 2196.92 169.560   1
  10   0   2 4689.92 290.140   1
  10   0   2 4004.77 256.480   1
   3   0  11 -171.67 127.940   1
   3   0  11 -251.01 144.790   1
   0  11   5 150.690 155.280   1
   0  11  -5 -73.950 222.550   1
   0 -11   5 373.690 171.540   1
  10  -5  -1 1733.79 190.420   1
  10   5  -1 1380.02 215.790   1
  10   5  -1 505.500 218.870   1
  10   5  -1 1218.75 165.120   1
  -2   8  10 147.070 144.360   1
  -2   8  10 31.7600 164.060   1
   2   8 -10 -50.730 295.930   1
  -2  -8  10 -32.740 122.440   1
  -2  -8  10 231.190 235.220   1
   7  -9  -6 4679.34 277.540   1
   7   9  -6 4303.97 446.280   1
  -7  -9   6 4754.29 315.010   1
   7   9  -6 3665.83 335.900   1
   4   5   9 301.170 149.120   1
   4  -5   9 167.730 133.860   1
   4   5   9 68.3000 143.580   1
   4  -5   9 95.8400 135.990   1
  11  -3  -6 1341.50 196.700   1
  11   3  -6 383.120 258.440   1
  11  -3  -6 534.880 194.310   1
  11   3  -6 1152.59 193.090   1
  11   3  -6 1216.21 169.890   1
  -4  -8  10 140.360 247.830   1
   4   8 -10 277.750 220.260   1
   4   8 -10 186.310 306.990   1
  -4   8  10 367.850 166.350   1
  11   0  -1 -57.270 170.000   1
  11   0  -1 -67.240 191.310   1
   8  -8   0 644.760 172.470   1
   8  -8   0 -104.35 262.180   1
   8   8   0 42.7900 132.310   1
   8   8   0 325.050 235.500   1
   8   8   0 457.940 307.380   1
   1   8   9 874.150 200.890   1
   1   8   9 732.540 149.070   1
  -1   8  -9 408.880 345.270   1
   1  -8   9 800.020 219.910   1
   0 -12   0 4402.16 286.550   1
   0  12   0 3439.47 333.350   1
   0   4  12 2534.62 226.210   1
   0   4  12 3197.77 225.300   1
   0  -4  12 3282.01 225.890   1
   6   5   7 1375.13 191.500   1
   6   5   7 724.440 144.940   1
   6  -5   7 846.450 161.650   1
  11  -1  -8 662.570 185.740   1
  11   1  -8 410.810 283.220   1
  11  -1  -8 194.730 267.740   1
  11   1  -8 654.680 206.790   1
  11  -1  -8 223.710 197.410   1
  11   1  -8 198.090 180.600   1
   4   7 -11 831.060 343.000   1
  -4   7  11 378.960 137.900   1
  -4  -7  11 590.600 241.770   1
  -4   7  11 218.540 165.760   1
   3  10   5 286.190 142.180   1
   3  10   5 1.01000 223.190   1
   3 -10   5 -423.10 228.270   1
   9  -6   1 203.960 136.130   1
  -9   6  -1 13.2600 293.600   1
   9   6   1 131.770 155.280   1
   9   6   1 305.160 171.340   1
  10  -2 -10 2926.73 248.440   1
  10   2 -10 3013.34 229.940   1
  10  -2 -10 2195.78 276.200   1
  10   2 -10 2255.81 256.800   1
  10  -2 -10 2544.38 288.280   1
  10   2 -10 2232.14 306.800   1
  10  -2 -10 3042.36 298.490   1
   7  -2   7 536.920 169.980   1
   7   2   7 703.600 186.750   1
   7   2   7 231.080 170.380   1
   7  -2   7 327.510 139.660   1
   2   6  10 121.390 147.540   1
   2   6  10 171.420 135.170   1
   2  -6  10 269.470 149.280   1
   4  11   1 -275.48 223.060   1
   4  11   1 -85.590 167.890   1
  -4 -11  -1 286.970 198.520   1
   4 -11   1 -269.85 183.340   1
   9  -4   3 2196.52 215.420   1
   9   4   3 1848.52 219.850   1
   9   4   3 2104.14 210.650   1
  -7   7  -4 766.130 389.720   1
   7  -7   4 994.770 177.580   1
   7   7   4 1474.57 182.960   1
   7   7   4 1457.44 224.980   1
   6  10   0 104.590 264.600   1
   6 -10   0 -102.40 199.170   1
   6  10   0 -285.37 218.510   1
  -2   9   9 181.760 182.410   1
   2   9  -9 -4.1500 206.790   1
   2   9  -9 266.630 305.140   1
   7   0 -13 83.4500 219.370   1
   7   0 -13 -125.18 173.770   1
  -7   0  13 194.900 155.790   1
   7  -6   5 1017.06 171.360   1
   7   6   5 662.490 152.650   1
   7   6   5 1393.44 177.250   1
   1   9   8 1404.22 163.710   1
   1   9   8 1108.00 228.910   1
   1  -9   8 1820.99 240.110   1
   1 -12  -1 4422.77 284.890   1
  -1 -12   1 4261.82 285.560   1
   1  12  -1 3435.02 335.450   1
  -2  -3  13 1015.40 159.840   1
  -2   3  13 1431.35 175.960   1
  -2   3  13 1125.55 193.670   1
   2   3 -13 679.570 265.680   1
  -2   7  11 47.2800 148.310   1
  -2   7  11 146.600 156.020   1
   2   7 -11 -64.910 335.390   1
  -2  -7  11 47.2800 121.240   1
   2   7 -11 306.840 371.470   1
  -2  -7  11 110.210 235.360   1
  10  -6  -4 2502.63 233.220   1
  10   6  -4 1346.33 282.090   1
  10   6  -4 2413.21 299.390   1
  -1   5  12 474.840 156.140   1
  -1   5  12 395.300 137.320   1
  -1  -5  12 567.380 174.800   1
   2  10   6 533.620 163.390   1
   2  10   6 999.190 180.970   1
   2 -10   6 1434.80 268.610   1
   4  10   4 706.750 167.350   1
   4  10   4 156.570 182.540   1
   4 -10   4 338.730 201.310   1
   1  -2 -13 530.780 189.780   1
  -1  -2  13 9.55000 130.910   1
  -1  -2  13 -11.490 174.550   1
  -1   2  13 126.410 164.120   1
  -1   2  13 -7.3900 190.040   1
   8  -6 -10 321.540 192.220   1
   8   6 -10 369.290 243.170   1
   8   6 -10 303.690 298.460   1
  -1   7 -10 2097.30 363.170   1
   1   7  10 2312.22 254.060   1
   1  -7  10 1555.40 169.380   1
   1   7  10 2172.99 193.670   1
   4   9  -9 253.270 221.040   1
  -4  -9   9 262.440 197.380   1
   4   9  -9 150.480 268.860   1
  -4   9   9 -300.57 149.610   1
   1  12   1 2401.44 314.890   1
   1 -12   1 2039.39 163.620   1
  -1 -12  -1 2519.65 221.090   1
  -1  12  -1 2227.47 299.740   1
  10   2   2 1538.34 206.170   1
  10  -2   2 1477.40 203.840   1
  10  -2   2 1297.62 175.060   1
  10   2   2 1171.31 160.780   1
   8   0   6 486.050 163.040   1
   8   0   6 590.330 178.310   1
   6  -9   3 368.200 234.480   1
   6   9   3 215.270 217.200   1
   6   9   3 -96.420 192.920   1
   6   9   3 156.150 148.600   1
   3  -2  11 -132.33 136.700   1
   3   2  11 -164.14 141.490   1
   3   2  11 76.0400 140.260   1
   3  -2  11 -88.580 165.970   1
  -6   3  13 3289.17 265.310   1
  -6   3  13 3554.26 246.390   1
   6  -3 -13 2840.73 290.210   1
   6   3 -13 1744.48 343.440   1
  -6  -3  13 2872.44 217.340   1
   3   5  10 247.540 147.790   1
   3   5  10 70.0300 161.390   1
   3  -5  10 -52.320 136.840   1
   1   3  12 290.710 180.890   1
   1  -3  12 143.680 130.480   1
   1   3  12 6.96000 135.230   1
  11   3  -2 1133.55 232.130   1
  11   3  -2 1136.48 171.190   1
  11  -3  -2 1289.06 179.370   1
   0  12  -2 833.740 275.020   1
   0 -12   2 498.420 141.750   1
   0 -12  -2 760.810 197.000   1
  11  -2  -1 1588.58 210.900   1
  11   2  -1 1100.69 234.120   1
  11   2  -1 1330.13 195.850   1
   7  -7 -10 3436.14 230.730   1
   7   7 -10 2776.90 341.480   1
   7   7 -10 3721.74 334.130   1
   8  -5 -11 4367.46 296.760   1
   8   5 -11 4507.80 347.500   1
   8   5 -11 3154.64 442.890   1
   8  -7  -9 697.100 213.450   1
   8   7  -9 1068.08 312.850   1
   8   7  -9 753.980 233.430   1
   5 -11  -2 1726.14 156.910   1
   5 -11  -2 1391.21 160.860   1
  -5 -11   2 2151.80 222.150   1
   5  11  -2 1701.28 188.920   1
   5  11  -2 1663.09 370.990   1
   7   6 -11 1405.47 243.890   1
   7  -6 -11 1274.12 144.260   1
   7   6 -11 932.130 320.420   1
   7   8   3 1153.72 224.220   1
  -7   8  -3 2541.96 431.870   1
   7   8   3 1640.14 204.270   1
   7   8   3 1548.74 171.730   1
   7  -8   3 1720.64 286.430   1
   4 -11  -5 351.870 163.950   1
   4  11  -5 414.710 296.650   1
  -4 -11   5 665.590 218.830   1
   4 -11  -5 276.030 128.210   1
   4  11  -5 198.830 168.030   1
  10  -6  -6 669.790 129.170   1
  10   6  -6 361.600 319.320   1
  10   6  -6 364.750 166.030   1
  11  -4  -5 5522.71 303.720   1
  11   4  -5 2945.44 270.770   1
  11   4  -5 3160.67 260.050   1
  11   4  -5 2059.63 316.540   1
   7   5   6 672.870 163.570   1
   7  -5   6 284.320 148.180   1
   7   5   6 754.600 177.440   1
  -7   2  13 134.320 119.560   1
   7   2 -13 556.770 304.140   1
   7  -2 -13 452.170 150.600   1
  -7  -2  13 475.900 142.180   1
  -7   2  13 51.8400 173.680   1
   7  -2 -13 370.720 234.090   1
   2 -12   0 657.940 144.060   1
   2  12   0 740.930 283.570   1
  -2 -12   0 466.630 201.220   1
  -4  -6  12 364.430 140.430   1
  -4   6  12 359.060 143.800   1
  -4  -6  12 290.780 208.180   1
   4   6 -12 -179.93 311.760   1
  -4   6  12 164.640 193.150   1
   9   5 -10 1729.54 337.530   1
   9   5 -10 2239.19 290.690   1
   9  -5 -10 1976.16 185.330   1
   3   4 -13 2340.78 401.980   1
  -3   4  13 2286.43 204.940   1
  -3  -4  13 1148.96 214.050   1
  -3   4  13 2103.31 180.340   1
  -3  -4  13 2253.52 189.140   1
   3   4 -13 1284.28 404.790   1
   5 -10  -7 3858.46 206.740   1
  -5 -10   7 5059.90 303.730   1
   5  10  -7 5292.81 389.600   1
   5  10  -7 4360.61 520.410   1
  10  -6  -2 652.560 171.180   1
  10   6  -2 289.760 174.330   1
  10   6  -2 512.990 151.130   1
  10   6  -2 417.060 241.070   1
  -2 -12   2 185.160 174.510   1
   2 -12  -2 246.630 180.040   1
   2  12  -2 465.300 308.070   1
   9  -6  -9 1480.62 182.020   1
   9   6  -9 805.420 244.690   1
   9   6  -9 1325.80 268.530   1
  -1  11   6 2821.17 227.390   1
   1  11  -6 3517.97 422.050   1
  -1 -11   6 6284.74 421.440   1
   9  -7   0 891.740 240.920   1
   9  -7   0 1219.78 168.220   1
   9   7   0 1264.76 203.390   1
   9   7   0 1838.35 259.260   1
   9   7   0 1397.76 267.950   1
   1  10   7 1368.50 210.130   1
   1  10   7 1224.57 165.410   1
   1 -10   7 1322.95 208.490   1
  -5   4  13 1877.48 224.890   1
  -5  -4  13 2063.92 188.640   1
   5   4 -13 1139.41 311.400   1
  -5   4  13 1840.56 194.430   1
   5  10   3 -51.580 224.410   1
   5  10   3 90.4700 172.980   1
   5  10   3 765.500 199.060   1
   5 -10   3 802.010 274.040   1
  -2  10   8 231.810 178.620   1
   2  10  -8 25.6100 286.230   1
  -2 -10   8 511.960 271.450   1
  11   0  -9 -324.62 291.680   1
  11   0  -9 212.830 184.400   1
  11   0  -9 457.340 190.720   1
   6 -10  -6 -154.45 167.260   1
   6  10  -6 -17.030 290.220   1
   6  10  -6 229.380 189.580   1
  -6 -10   6 143.790 181.750   1
   9   3   4 -38.000 176.080   1
   9  -3   4 -105.07 184.190   1
   9   3   4 168.230 172.580   1
  11   4  -3 -27.180 234.210   1
  11   4  -3 -219.64 152.220   1
  11   4  -3 430.010 211.740   1
  11  -4  -3 172.900 166.860   1
   2   0  12 3589.12 170.440   1
   2   0  12 2980.52 222.370   1
   8  -2   6 1948.52 165.950   1
   8   2   6 2561.65 196.760   1
   8  -2   6 2770.18 194.420   1
   8   2   6 2479.48 195.030   1
  -1 -12   3 2427.47 163.700   1
   1  12  -3 2370.96 310.510   1
   1 -12  -3 1923.31 184.010   1
   7  -8  -9 13783.3 308.020   1
   7   8  -9 13888.1 524.630   1
   7   8  -9 13625.0 826.450   1
  -7  -8   9 11990.7 378.730   1
  -3  11   6 1570.55 205.780   1
   3  11  -6 1020.01 305.400   1
   3 -11  -6 1361.09 197.330   1
  -3 -11   6 1885.04 176.710   1
   9  -1 -12 810.240 149.890   1
   9  -1 -12 413.550 232.740   1
   9   1 -12 769.970 284.070   1
   9   1 -12 1191.96 210.080   1
   9  -1 -12 816.040 281.340   1
   9   1 -12 841.810 290.550   1
   8  -9  -3 706.960 136.410   1
   8   9  -3 120.640 261.170   1
   8   9  -3 230.470 243.680   1
   0  -1  13 1540.27 147.620   1
   0  -1  13 1493.21 218.620   1
   0  -1 -13 958.070 213.900   1
   0   1  13 1819.96 178.360   1
   0   1  13 1541.86 231.160   1
  -2   6  12 468.600 182.460   1
  -2   6  12 751.990 154.970   1
   2   6 -12 52.0900 286.010   1
  -2  -6  12 784.170 170.720   1
  -2  -6  12 492.510 199.330   1
   2   6 -12 499.180 392.760   1
   5 -11  -4 3732.92 230.850   1
   5  11  -4 1403.98 308.820   1
  -5 -11   4 3024.40 237.890   1
   5  11  -4 2340.17 272.850   1
  11  -1   0 -157.77 171.190   1
  11   1   0 -24.490 186.190   1
  11   1   0 27.7200 179.200   1
  11  -1   0 13.6800 159.180   1
   5  11   0 596.360 220.930   1
   5 -11   0 710.110 264.420   1
   5  11   0 317.570 319.490   1
  -5 -11   0 971.220 205.880   1
   9   4 -11 496.830 235.280   1
   9  -4 -11 1428.45 217.930   1
   9   4 -11 1465.26 246.380   1
   9  -4 -11 1464.19 166.320   1
   5  -4   9 36.9900 159.540   1
   5   4   9 330.960 144.420   1
   5   4   9 294.100 189.970   1
   5  -4   9 43.2600 158.610   1
  11  -3  -8 2052.46 254.200   1
  11   3  -8 1313.95 341.030   1
  11  -3  -8 2894.38 195.810   1
  11   3  -8 2658.57 172.250   1
  11   3  -8 3127.15 235.150   1
  -7   5  12 1841.80 176.460   1
   7   5 -12 2992.25 308.540   1
   7  -5 -12 1535.52 151.540   1
  -7   5  12 1634.67 131.600   1
   7   5 -12 1752.56 316.890   1
  10   1 -11 1618.44 232.090   1
  10  -1 -11 1132.67 198.400   1
  10   1 -11 2461.02 198.210   1
  10  -1 -11 2098.08 221.510   1
  10   1 -11 2029.25 328.780   1
  10  -1 -11 3034.67 325.130   1
   6  -4   8 989.950 143.990   1
   6  -4   8 1152.33 171.400   1
   6   4   8 784.140 156.510   1
   6   4   8 887.780 163.370   1
   0   8  10 239.490 173.010   1
   0   8  10 223.970 143.980   1
   0  -8  10 -99.060 147.940   1
   0  -8  10 -67.390 192.970   1
   0   8 -10 -156.12 377.980   1
   1   6  11 672.240 133.350   1
   1   6  11 939.780 223.470   1
   1  -6  11 694.670 141.420   1
   0   9   9 -62.150 182.020   1
   0   9   9 -36.380 153.120   1
   0  -9   9 128.590 215.240   1
   9  -8  -3 9374.48 257.640   1
   9   8  -3 8948.96 396.140   1
   9   8  -3 6890.62 459.500   1
   6   7 -11 316.280 273.170   1
  -6   7  11 778.920 196.210   1
   6   7 -11 712.050 254.240   1
  -6  -7  11 456.410 185.450   1
  -4   0  14 730.390 134.630   1
   4   0 -14 75.7900 208.900   1
   8  -6   4 23.3800 150.270   1
   8   6   4 -144.06 161.410   1
   8   6   4 201.080 140.800   1
  -4 -10   8 -56.080 199.040   1
   4  10  -8 276.820 230.450   1
  -4  10   8 1.41000 198.540   1
   4  10  -8 579.810 329.770   1
   8   4 -12 447.340 215.120   1
  -8   4  12 570.200 145.090   1
   8  -4 -12 562.890 173.070   1
   8   4 -12 673.420 306.470   1
   8  -4 -12 706.720 239.590   1
   7 -10  -3 3199.01 220.740   1
   7  10  -3 3180.33 266.750   1
  -7 -10   3 3096.60 222.790   1
   7  10  -3 2456.37 332.200   1
   8  -9  -5 217.190 152.120   1
   8   9  -5 449.190 242.600   1
  -8  -9   5 289.400 193.580   1
   8   9  -5 -243.39 280.460   1
   2   5  11 127.140 164.850   1
   2   5  11 407.230 170.660   1
   2  -5  11 258.490 116.890   1
   3  12  -1 107.620 265.860   1
  -3 -12   1 120.030 181.100   1
   3 -12  -1 386.850 149.340   1
   8  -8  -8 1674.16 176.750   1
   8   8  -8 1231.83 325.970   1
  -8  -8   8 1607.28 200.040   1
   8   8  -8 1656.00 274.210   1
  -6   8  10 465.230 115.710   1
  -6  -8  10 658.720 170.460   1
   6   8 -10 495.260 274.210   1
   6   8 -10 1095.76 327.640   1
  11  -4  -7 2361.23 189.530   1
  11  -4  -7 1703.44 248.130   1
  11   4  -7 2682.21 241.050   1
  11   4  -7 1651.16 184.730   1
  11   4  -7 1407.31 295.180   1
   9  -7  -8 3569.35 154.320   1
   9   7  -8 3050.34 428.240   1
   9   7  -8 5487.13 351.110   1
   9  -8  -5 2375.23 189.190   1
   9   8  -5 2940.37 269.400   1
   9   8  -5 1578.50 334.760   1
   4  -4  10 1997.64 177.860   1
   4   4  10 2244.16 130.990   1
   4  -4  10 2904.75 187.140   1
   4   4  10 2150.93 157.560   1
  -8   7  -3 1505.80 352.080   1
   8  -7   3 778.620 152.880   1
   8   7   3 1070.23 204.760   1
   8   7   3 499.560 167.860   1
  11  -2  -9 217.870 180.590   1
  11   2  -9 187.760 276.960   1
  11  -2  -9 339.380 279.280   1
  11  -2  -9 117.350 196.560   1
  11   2  -9 350.950 177.330   1
  11   2  -9 221.010 165.620   1
   2   2  12 915.020 128.750   1
   2   2  12 995.340 195.420   1
   2  -2  12 720.210 155.550   1
   2  -2  12 1183.90 174.250   1
   8  -1 -13 7019.63 399.690   1
   8  -1 -13 8413.31 303.840   1
  -8  -1  13 9058.40 328.740   1
   8  -1 -13 7625.05 457.820   1
   8   1 -13 5110.16 505.100   1
  -8   1  13 7350.81 277.800   1
   3  11   4 959.160 220.500   1
   3  11   4 697.270 151.850   1
   3 -11   4 757.600 257.400   1
  -5   1  14 76.2700 154.460   1
   5  -1 -14 136.130 220.580   1
  -5  -1  14 28.5300 132.680   1
  -5  -1  14 -278.01 161.870   1
   5  -1 -14 -427.01 239.980   1
  -5   1  14 -4.4100 142.930   1
   5   1 -14 -73.190 236.820   1
  -1 -12  -3 94.5900 177.320   1
   1 -12   3 699.070 201.900   1
  -1  12  -3 552.050 221.270   1
   2 -12   2 1331.39 194.440   1
  -2  12  -2 1551.19 233.370   1
   2  12   2 798.720 291.260   1
  -2 -12  -2 1346.44 227.960   1
   2  11   5 305.080 187.100   1
   2  11   5 32.7000 153.570   1
   2 -11   5 529.880 279.510   1
  -2  11  -5 67.4900 205.630   1
  10  -1   3 826.010 165.020   1
  10   1   3 1111.68 175.610   1
  10   1   3 720.090 149.050   1
  10  -1   3 574.830 202.490   1
   8   9  -1 -58.290 261.960   1
   8  -9  -1 189.740 175.190   1
   8   9  -1 87.4800 221.010   1
  10  -5  -9 377.760 157.640   1
  10  -5  -9 381.240 216.200   1
  10   5  -9 514.970 190.500   1
  10   5  -9 476.440 292.780   1
   7  -9   2 1821.06 267.840   1
   7   9   2 1998.19 258.530   1
   7   9   2 2168.14 200.420   1
   7   9   2 2606.00 251.310   1
   3  -1 -14 288.350 216.250   1
   3  -1 -14 603.610 232.840   1
   3   1 -14 374.870 254.710   1
  -3  -1  14 534.770 150.080   1
  -3  -1  14 698.270 146.420   1
  -3   1  14 1030.34 152.750   1
  -3   1  14 855.650 147.620   1
   9   0   5 -140.78 175.540   1
   9   0   5 -32.740 157.760   1
   8  -5   5 1010.35 169.880   1
   8   5   5 880.920 161.440   1
   8   5   5 658.960 193.900   1
  -6   6  12 724.160 194.160   1
   6   6 -12 270.390 315.210   1
   6   6 -12 1442.18 292.910   1
  -6   6  12 451.860 168.880   1
  10  -4 -10 3294.42 260.670   1
  10   4 -10 3073.41 453.380   1
  10  -4 -10 3577.15 187.490   1
  10   4 -10 3556.45 257.220   1
   7   4   7 937.630 182.930   1
   7   4   7 1006.57 179.210   1
   7  -4   7 769.220 146.610   1
   3  12  -3 1252.78 256.600   1
  -3 -12   3 1443.19 217.410   1
   3 -12  -3 1370.24 159.750   1
   0   7  11 854.980 190.700   1
   0   7  11 743.520 117.720   1
   0  -7  11 667.350 136.670   1
   7 -10  -1 1849.51 168.680   1
   7 -10  -1 2466.39 285.290   1
   7  10  -1 2648.06 382.480   1
   7  10  -1 2619.57 221.690   1
   0  10   8 251.350 190.660   1
   0  10  -8 496.670 271.790   1
   6  10   2 199.660 272.680   1
  -4   5  13 82.9400 144.670   1
   4  -2 -14 783.370 228.330   1
;
_shelx_hkl_checksum              2722
_olex2_exptl_crystal_mounting_method Grease
_olex2_submission_special_instructions 'No special instructions were received'
loop_
_space_group_symop_operation_xyz
'x, y, z'
'-x+1/2, y, -z'
'x+1/2, y+1/2, z+1/2'
'-x+1, y+1/2, -z+1/2'
'-x, -y, -z'
'x-1/2, -y, z'
'-x+1/2, -y+1/2, -z+1/2'
'x, -y+1/2, z+1/2'
loop_
_atom_site_label
_atom_site_type_symbol
_atom_site_fract_x
_atom_site_fract_y
_atom_site_fract_z
_atom_site_U_iso_or_equiv
_atom_site_adp_type
_atom_site_occupancy
_atom_site_site_symmetry_order
_atom_site_calc_flag
_atom_site_refinement_flags_posn
_atom_site_refinement_flags_adp
_atom_site_refinement_flags_occupancy
_atom_site_disorder_assembly
_atom_site_disorder_group
C1 C 0.3947(5) 0.6061(4) 0.7073(4) 0.0349(9) Uani 1 1 d . . . . .
C2 C 0.4537(6) 0.5510(5) 0.6025(5) 0.0336(9) Uani 1 1 d . . . . .
C3 C 0.5180(5) 0.6376(4) 0.5331(4) 0.0349(9) Uani 1 1 d . . . . .
C4 C 0.5619(5) 0.5886(5) 0.4323(4) 0.0345(9) Uani 1 1 d . . . . .
O1 O 0.3062(4) 0.7128(4) 0.6694(3) 0.0424(8) Uani 1 1 d . . . . .
O2 O 0.0698(6) 0.9518(4) 0.6868(4) 0.0481(10) Uani 1 1 d . . . . .
F1 F 0.5400(4) 0.7723(3) 0.5637(3) 0.0462(7) Uani 1 1 d . . . . .
F2 F 0.6279(3) 0.6769(3) 0.3728(3) 0.0433(7) Uani 1 1 d . . . . .
Rb1 Rb 0.2500 0.96969(6) 0.5000 0.0457(4) Uani 1 2 d S T P . .
loop_
_atom_site_aniso_label
_atom_site_aniso_U_11
_atom_site_aniso_U_22
_atom_site_aniso_U_33
_atom_site_aniso_U_23
_atom_site_aniso_U_13
_atom_site_aniso_U_12
C1 0.032(2) 0.035(2) 0.044(2) -0.0020(17) 0.0214(16) 0.0042(17)
C2 0.032(2) 0.034(2) 0.041(2) -0.0006(16) 0.0196(17) 0.0062(16)
C3 0.037(2) 0.0289(18) 0.046(2) -0.0013(16) 0.0230(17) 0.0050(16)
C4 0.032(2) 0.034(2) 0.045(2) 0.0026(17) 0.0226(17) 0.0037(16)
O1 0.0429(18) 0.0469(18) 0.0462(17) 0.0028(13) 0.0266(14) 0.0158(14)
O2 0.061(3) 0.0454(19) 0.048(2) 0.0039(14) 0.0308(18) 0.0134(16)
F1 0.0581(19) 0.0310(13) 0.0621(17) -0.0066(11) 0.0368(15) -0.0007(11)
F2 0.0471(16) 0.0386(14) 0.0568(16) 0.0030(12) 0.0341(13) -0.0004(11)
Rb1 0.0441(5) 0.0465(5) 0.0538(5) 0.000 0.0264(4) 0.000
loop_
_atom_type_symbol
_atom_type_description
_atom_type_scat_dispersion_real
_atom_type_scat_dispersion_imag
_atom_type_scat_source
C C 0.0033 0.0016 'International Tables Vol C Tables 4.2.6.8 and 6.1.1.4'
F F 0.0171 0.0103 'International Tables Vol C Tables 4.2.6.8 and 6.1.1.4'
O O 0.0106 0.0060 'International Tables Vol C Tables 4.2.6.8 and 6.1.1.4'
Rb Rb -0.9393 2.9676 'International Tables Vol C Tables 4.2.6.8 and 6.1.1.4'
loop_
_geom_angle_atom_site_label_1
_geom_angle_atom_site_label_2
_geom_angle_atom_site_label_3
_geom_angle
_geom_angle_site_symmetry_1
_geom_angle_site_symmetry_3
O1 C1 C2 112.9(4) . .
O2 C1 C2 120.2(4) 7_566 .
O2 C1 O1 126.9(4) 7_566 .
C3 C2 C1 122.0(4) . .
C3 C2 C4 117.1(4) . 5_666
C4 C2 C1 120.8(4) 5_666 .
C4 C3 C2 121.7(4) . .
F1 C3 C2 120.3(4) . .
F1 C3 C4 118.0(4) . .
C3 C4 C2 121.1(4) . 5_666
F2 C4 C2 120.3(4) . 5_666
F2 C4 C3 118.5(4) . .
C1 O1 Rb1 143.6(3) . .
C1 O2 Rb1 128.8(3) 7_566 5_576
C1 O2 Rb1 129.0(3) 7_566 .
Rb1 O2 Rb1 99.48(11) 5_576 .
C3 F1 Rb1 119.2(3) . .
C3 F1 Rb1 135.5(2) . 5_676
Rb1 F1 Rb1 90.68(7) . 5_676
O1 Rb1 O1 70.02(13) 2_556 .
O1 Rb1 O2 122.24(11) 2_556 6_675
O1 Rb1 O2 110.14(10) 2_556 .
O1 Rb1 O2 82.81(10) 2_556 5_576
O1 Rb1 O2 64.09(9) 2_556 2_556
O1 Rb1 O2 82.81(10) . 6_675
O1 Rb1 O2 64.09(9) . .
O1 Rb1 O2 110.14(10) . 2_556
O1 Rb1 O2 122.24(11) . 5_576
O1 Rb1 F1 54.51(8) 2_556 2_556
O1 Rb1 F1 137.91(9) . 5_676
O1 Rb1 F1 54.51(8) . .
O1 Rb1 F1 117.90(8) 2_556 5_676
O1 Rb1 F1 117.90(8) . 6_575
O1 Rb1 F1 137.91(9) 2_556 6_575
O1 Rb1 F1 65.92(9) . 2_556
O1 Rb1 F1 65.92(9) 2_556 .
O1 Rb1 Rb1 93.57(6) . 5_576
O1 Rb1 Rb1 93.57(6) 2_556 5_676
O1 Rb1 Rb1 98.28(7) 2_556 5_576
O1 Rb1 Rb1 98.28(7) . 5_676
O2 Rb1 O2 80.52(11) 5_576 .
O2 Rb1 O2 101.13(12) 6_675 .
O2 Rb1 O2 151.14(15) 6_675 5_576
O2 Rb1 O2 101.13(12) 5_576 2_556
O2 Rb1 O2 173.51(14) 2_556 .
O2 Rb1 O2 80.51(12) 6_675 2_556
O2 Rb1 F1 99.81(10) 6_675 6_575
O2 Rb1 F1 131.66(9) 2_556 6_575
O2 Rb1 F1 59.76(10) 2_556 .
O2 Rb1 F1 131.66(9) . 5_676
O2 Rb1 F1 99.81(10) 5_576 5_676
O2 Rb1 F1 115.81(9) 2_556 2_556
O2 Rb1 F1 56.85(9) 6_675 .
O2 Rb1 F1 57.42(9) 5_576 6_575
O2 Rb1 F1 57.42(9) 6_675 5_676
O2 Rb1 F1 56.85(9) 5_576 2_556
O2 Rb1 F1 147.95(9) 6_675 2_556
O2 Rb1 F1 59.76(10) . 2_556
O2 Rb1 F1 115.81(9) . .
O2 Rb1 F1 54.47(8) . 6_575
O2 Rb1 F1 54.47(8) 2_556 5_676
O2 Rb1 F1 147.95(9) 5_576 .
O2 Rb1 Rb1 40.33(8) 6_675 5_676
O2 Rb1 Rb1 40.19(8) 2_556 5_676
O2 Rb1 Rb1 134.39(8) 6_675 5_576
O2 Rb1 Rb1 40.33(8) 5_576 5_576
O2 Rb1 Rb1 141.10(9) . 5_676
O2 Rb1 Rb1 40.19(8) . 5_576
O2 Rb1 Rb1 141.10(9) 2_556 5_576
O2 Rb1 Rb1 134.39(8) 5_576 5_676
F1 Rb1 F1 89.32(7) 2_556 6_575
F1 Rb1 F1 154.60(10) . 6_575
F1 Rb1 F1 105.77(11) 2_556 .
F1 Rb1 F1 154.60(10) 2_556 5_676
F1 Rb1 F1 84.76(10) 5_676 6_575
F1 Rb1 F1 89.32(7) . 5_676
F1 Rb1 Rb1 123.20(6) 6_575 5_676
F1 Rb1 Rb1 123.20(5) 5_676 5_576
F1 Rb1 Rb1 46.52(5) . 5_676
F1 Rb1 Rb1 46.52(5) 2_556 5_576
F1 Rb1 Rb1 42.80(5) 5_676 5_676
F1 Rb1 Rb1 147.16(6) 2_556 5_676
F1 Rb1 Rb1 42.81(5) 6_575 5_576
F1 Rb1 Rb1 147.16(6) . 5_576
Rb1 Rb1 Rb1 165.53(3) 5_676 5_576
loop_
_geom_bond_atom_site_label_1
_geom_bond_atom_site_label_2
_geom_bond_distance
_geom_bond_site_symmetry_2
C1 C2 1.533(6) .
C1 O1 1.298(5) .
C1 O2 1.230(6) 7_566
C2 C3 1.401(6) .
C2 C4 1.403(6) 5_666
C3 C4 1.390(6) .
C3 F1 1.349(5) .
C4 C2 1.403(6) 5_666
C4 F2 1.348(5) .
O1 Rb1 3.049(3) .
O2 C1 1.230(6) 7_566
O2 Rb1 3.061(5) 5_576
O2 Rb1 3.070(4) .
F1 Rb1 3.179(3) .
F1 Rb1 3.395(3) 5_676
Rb1 O1 3.049(3) 2_556
Rb1 O2 3.061(5) 6_675
Rb1 O2 3.061(5) 5_576
Rb1 O2 3.070(4) 2_556
Rb1 F1 3.179(3) 2_556
Rb1 F1 3.395(3) 5_676
Rb1 F1 3.395(3) 6_575
Rb1 Rb1 4.6783(4) 5_676
Rb1 Rb1 4.6783(4) 5_576
loop_
_geom_torsion_atom_site_label_1
_geom_torsion_atom_site_label_2
_geom_torsion_atom_site_label_3
_geom_torsion_atom_site_label_4
_geom_torsion
_geom_torsion_site_symmetry_1
_geom_torsion_site_symmetry_2
_geom_torsion_site_symmetry_3
_geom_torsion_site_symmetry_4
C1 C2 C3 C4 -175.7(4) . . . .
C1 C2 C3 F1 4.8(7) . . . .
C2 C1 O1 Rb1 -33.6(6) . . . .
C2 C3 C4 C2 -1.3(7) . . . 5_666
C2 C3 C4 F2 -177.7(4) . . . .
C2 C3 F1 Rb1 -70.5(5) . . . .
C2 C3 F1 Rb1 163.5(3) . . . 5_676
C4 C2 C3 C4 1.3(7) 5_666 . . .
C4 C2 C3 F1 -178.3(4) 5_666 . . .
C4 C3 F1 Rb1 -16.0(6) . . . 5_676
C4 C3 F1 Rb1 110.0(4) . . . .
O1 C1 C2 C3 48.4(6) . . . .
O1 C1 C2 C4 -128.4(5) . . . 5_666
O2 C1 C2 C3 -132.9(5) 7_566 . . .
O2 C1 C2 C4 50.3(6) 7_566 . . 5_666
O2 C1 O1 Rb1 147.8(4) 7_566 . . .
F1 C3 C4 C2 178.2(4) . . . 5_666
F1 C3 C4 F2 1.8(6) . . . .
