#------------------------------------------------------------------------------
#$Date: 2015-07-16 18:05:34 +0300 (Thu, 16 Jul 2015) $
#$Revision: 152130 $
#$URL: svn://www.crystallography.net/cod/cif/7/11/75/7117539.cif $
#------------------------------------------------------------------------------
#
# This file is available in the Crystallography Open Database (COD),
# http://www.crystallography.net/
#
# All data on this site have been placed in the public domain by the
# contributors.
#
data_7117539
loop_
_publ_author_name
'L. H. Blair'
'A. Colakel'
'R. M. Vrcelj'
'I. Sinclair'
'S. J. Coles'
_publ_section_title
;
 Metal-organic fireworks: MOFs as integrated structural scaffolds for
 pyrotechnic materials
;
_journal_name_full               Chem.Commun.
_journal_page_first              12185
_journal_paper_doi               10.1039/C5cc04174K
_journal_volume                  51
_journal_year                    2015
_chemical_formula_moiety         '0.25(C64 H8 Ba8 F32 O36)'
_chemical_formula_sum            'C16 H2 Ba2 F8 O9'
_chemical_formula_weight         764.86
_chemical_name_systematic
;
 ?
;
_space_group_crystal_system      monoclinic
_space_group_IT_number           15
_space_group_name_Hall           '-C 2yc'
_space_group_name_H-M_alt        'C 1 2/c 1'
_symmetry_space_group_name_Hall  '-C 2yc'
_symmetry_space_group_name_H-M   'C 1 2/c 1'
_atom_sites_solution_hydrogens   geom
_audit_creation_date             2015-01-29
_audit_creation_method
;
Olex2 1.2
(compiled 2015.01.19 svn.r3143 for OlexSys, GUI svn.r4992)
;
_audit_update_record
;
2015-01-30 deposited with the CCDC.
2015-06-23 downloaded from the CCDC.
;
_cell_angle_alpha                90
_cell_angle_beta                 101.663(2)
_cell_angle_gamma                90
_cell_formula_units_Z            4
_cell_length_a                   12.5647(9)
_cell_length_b                   7.1406(5)
_cell_length_c                   19.8230(14)
_cell_measurement_reflns_used    0
_cell_measurement_temperature    100(2)
_cell_measurement_theta_max      27.5
_cell_measurement_theta_min      3.3
_cell_volume                     1741.8(2)
_computing_cell_refinement
'CrystalClear-SM Expert 3.1 b27 (Rigaku, 2013)'
_computing_data_collection
'CrystalClear-SM Expert 3.1 b27 (Rigaku, 2013)'
_computing_data_reduction
'CrystalClear-SM Expert 3.1 b27 (Rigaku, 2013)'
_computing_molecular_graphics    'Olex2 (Dolomanov et al., 2009)'
_computing_publication_material  'Olex2 (Dolomanov et al., 2009)'
_computing_structure_refinement  'ShelXL (Sheldrick, 2008)'
_diffrn_ambient_temperature      100(2)
_diffrn_detector                 'CCD area detector'
_diffrn_detector_area_resol_mean 28.5714
_diffrn_detector_type            'Rigaku HG Saturn724+ (2x2 bin mode)'
_diffrn_measured_fraction_theta_full 0.999
_diffrn_measured_fraction_theta_max 1.000
_diffrn_measurement_details
;
scan:
    Number of images: 360
               Slice: -107.0000 - 73.0000
         Image width: 0.5000
            Exp time: 45.0000
       Rotation axis: Omega
               Omega: 0.0000
               Kappa: 0.0000
                 Phi: 150.0000
                 XTD: 44.9144
              2theta: -16.8161
scan:
    Number of images: 150
               Slice: -53.0000 - 22.0000
         Image width: 0.5000
            Exp time: 45.0000
       Rotation axis: Omega
               Omega: 0.0000
               Kappa: -72.0000
                 Phi: -60.0000
                 XTD: 44.9144
              2theta: -16.8161
scan:
    Number of images: 162
               Slice: -67.5000 - 13.5000
         Image width: 0.5000
            Exp time: 45.0000
       Rotation axis: Omega
               Omega: 0.0000
               Kappa: -72.0000
                 Phi: 120.0000
                 XTD: 44.9144
              2theta: -16.8161
scan:
    Number of images: 212
               Slice: -34.5000 - 71.5000
         Image width: 0.5000
            Exp time: 45.0000
       Rotation axis: Omega
               Omega: 0.0000
               Kappa: 72.0000
                 Phi: -120.0000
                 XTD: 44.9144
              2theta: -16.8161
scan:
    Number of images: 30
               Slice: -15.0000 - 0.0000
         Image width: 0.5000
            Exp time: 45.0000
       Rotation axis: Omega
               Omega: 0.0000
               Kappa: 54.0000
                 Phi: 60.0000
                 XTD: 44.9144
              2theta: -16.8161
scan:
    Number of images: 200
               Slice: -27.0000 - 73.0000
         Image width: 0.5000
            Exp time: 45.0000
       Rotation axis: Omega
               Omega: 0.0000
               Kappa: 72.0000
                 Phi: -90.0000
                 XTD: 44.9144
              2theta: -16.8161
;
_diffrn_measurement_device       'four-circle \k diffractometer'
_diffrn_measurement_device_type  'Rigaku AFC12 (Right)'
_diffrn_measurement_method       'profile data from \w-scans'
_diffrn_measurement_specimen_support 'MiTeGen MicroMesh'
_diffrn_orient_matrix_type       d*Trek
_diffrn_orient_matrix_UB_11      -0.061455
_diffrn_orient_matrix_UB_12      0.051796
_diffrn_orient_matrix_UB_13      -0.012025
_diffrn_orient_matrix_UB_21      0.091420
_diffrn_orient_matrix_UB_22      0.105081
_diffrn_orient_matrix_UB_23      -0.014584
_diffrn_orient_matrix_UB_31      -0.005622
_diffrn_orient_matrix_UB_32      -0.002209
_diffrn_orient_matrix_UB_33      -0.051155
_diffrn_radiation_collimation    0.3
_diffrn_radiation_monochromator  'Confocal mirrors, HF Varimax'
_diffrn_radiation_probe          x-ray
_diffrn_radiation_type           MoK\a
_diffrn_radiation_wavelength     0.71075
_diffrn_reflns_av_R_equivalents  0.0504
_diffrn_reflns_av_unetI/netI     0.0281
_diffrn_reflns_laue_measured_fraction_full 0.999
_diffrn_reflns_laue_measured_fraction_max 1.000
_diffrn_reflns_limit_h_max       15
_diffrn_reflns_limit_h_min       -16
_diffrn_reflns_limit_k_max       9
_diffrn_reflns_limit_k_min       -9
_diffrn_reflns_limit_l_max       24
_diffrn_reflns_limit_l_min       -25
_diffrn_reflns_number            10971
_diffrn_reflns_point_group_measured_fraction_full 0.999
_diffrn_reflns_point_group_measured_fraction_max 1.000
_diffrn_reflns_theta_full        25.242
_diffrn_reflns_theta_max         27.483
_diffrn_reflns_theta_min         3.299
_diffrn_source                   'Rotating Anode'
_diffrn_source_current           55.0
_diffrn_source_power             2.475
_diffrn_source_target            Mo
_diffrn_source_type              'Rotating Anode'
_diffrn_source_voltage           45.0
_exptl_absorpt_coefficient_mu    4.637
_exptl_absorpt_correction_T_max  1.000
_exptl_absorpt_correction_T_min  0.737
_exptl_absorpt_correction_type   multi-scan
_exptl_absorpt_process_details
'CrystalClear-SM Expert 3.1 b27 (Rigaku, 2013)'
_exptl_crystal_colour            colourless
_exptl_crystal_colour_primary    colourless
_exptl_crystal_density_diffrn    2.917
_exptl_crystal_description       Plate
_exptl_crystal_F_000             1416
_exptl_crystal_size_max          0.04
_exptl_crystal_size_mid          0.03
_exptl_crystal_size_min          0.01
_refine_diff_density_max         0.897
_refine_diff_density_min         -0.687
_refine_diff_density_rms         0.135
_refine_ls_extinction_coef       .
_refine_ls_extinction_method     none
_refine_ls_goodness_of_fit_ref   1.043
_refine_ls_hydrogen_treatment    constr
_refine_ls_matrix_type           full
_refine_ls_number_parameters     159
_refine_ls_number_reflns         2001
_refine_ls_number_restraints     0
_refine_ls_restrained_S_all      1.043
_refine_ls_R_factor_all          0.0259
_refine_ls_R_factor_gt           0.0222
_refine_ls_shift/su_max          0.001
_refine_ls_shift/su_mean         0.000
_refine_ls_structure_factor_coef Fsqd
_refine_ls_weighting_details
'w=1/[\s^2^(Fo^2^)+(0.0326P)^2^+2.6630P] where P=(Fo^2^+2Fc^2^)/3'
_refine_ls_weighting_scheme      calc
_refine_ls_wR_factor_gt          0.0536
_refine_ls_wR_factor_ref         0.0554
_reflns_Friedel_coverage         0.000
_reflns_friedel_fraction_full    .
_reflns_friedel_fraction_max     .
_reflns_number_gt                1826
_reflns_number_total             2001
_reflns_threshold_expression     'I > 2\s(I)'
_cod_data_source_file            c5cc04174k2.cif
_cod_data_source_block           ba_fbdc
_cod_database_code               7117539
_shelxl_version_number           2013-3
_shelx_space_group_comment
;
The symmetry employed for this shelxl refinement is uniquely defined
by the following loop, which should always be used as a source of
symmetry information in preference to the above space-group names.
They are only intended as comments.
;
_shelx_estimated_absorpt_t_max   1.000
_shelx_estimated_absorpt_t_min   0.836
_olex2_refinement_description
;
1. Fixed Uiso
 At 1.2 times of:
  All O(H,H) groups
2. Others
 Fixed Sof: H1Wa(0.5) H1Wb(0.5)
3.a Secondary CH2 refined with riding coordinates:
 O1W(H1Wa,H1Wb)
;
_shelx_res_file
;
TITL 2013lhb014
CELL 0.71075 12.5647 7.1406 19.823 90 101.663 90
ZERR 4 0.0009 0.0005 0.0014 0 0.002 0
LATT 7
SYMM -X,+Y,0.5-Z
SFAC C H Ba F O
UNIT 64 8 8 32 36

L.S. 24
PLAN  20
SIZE 0 0.03 0.04
TEMP -173(2)
BOND
BOND $H
MORE -1
CONF
fmap 2
acta
MERG 2
SHEL 7 0.77
REM <olex2.extras>
REM <HklSrc "%.\\c2uponc.hkl">
REM </olex2.extras>

WGHT    0.032600    2.663000
FVAR       0.20096
BA1   3    0.325829    0.202559    0.708701    11.00000    0.00988    0.00723 =
         0.01080   -0.00002    0.00193   -0.00019
F1    4    0.096660    0.429182    0.905889    11.00000    0.01334    0.01546 =
         0.01297    0.00163    0.00010    0.00427
F2    4    0.399619    0.022950    0.960663    11.00000    0.01407    0.01402 =
         0.01513   -0.00123    0.00275    0.00594
F11   4    0.358276    0.316723    0.563125    11.00000    0.01248    0.01601 =
         0.01602    0.00207    0.00468   -0.00433
F12   4    0.318989    0.332246    0.428688    11.00000    0.01067    0.01469 =
         0.01523    0.00062   -0.00159   -0.00417
O1    5    0.237569    0.345349    0.817404    11.00000    0.01395    0.00988 =
         0.01366    0.00058    0.00387    0.00064
O1W   5    0.500000   -0.064299    0.750000    10.50000    0.01530    0.01073 =
         0.01601    0.00000    0.00214    0.00000
AFIX  23  0.8500
H1WA  2    0.509774   -0.132707    0.716690    10.50000   -1.20000
H1WB  2    0.490225   -0.132705    0.783311    10.50000   -1.20000
AFIX   0
O2    5    0.261670    0.038275    0.830483    11.00000    0.01764    0.01167 =
         0.01404   -0.00026    0.00359    0.00029
O11   5    0.519885    0.334278    0.678184    11.00000    0.01251    0.01599 =
         0.01691    0.00415    0.00392   -0.00120
O12   5    0.589898    0.625394    0.684160    11.00000    0.01494    0.01504 =
         0.01629   -0.00378    0.00138    0.00036
C1    1    0.247583    0.198692    0.852298    11.00000    0.00926    0.00903 =
         0.01291   -0.00185    0.00135   -0.00223
C2    1    0.246690    0.221732    0.928531    11.00000    0.01163    0.00948 =
         0.01244   -0.00167    0.00187   -0.00226
C3    1    0.173829    0.339320    0.951579    11.00000    0.01003    0.00901 =
         0.01251    0.00148    0.00086   -0.00063
C4    1    0.323216    0.132727    0.978888    11.00000    0.01147    0.00799 =
         0.01480   -0.00143    0.00261    0.00147
C11   1    0.545350    0.486643    0.652775    11.00000    0.00980    0.01577 =
         0.01322   -0.00070    0.00037    0.00063
C12   1    0.520888    0.494215    0.574123    11.00000    0.01121    0.00851 =
         0.01354    0.00152    0.00502    0.00250
C13   1    0.432218    0.406958    0.533525    11.00000    0.01119    0.00949 =
         0.01814    0.00243    0.00734   -0.00073
C14   1    0.411337    0.412659    0.462559    11.00000    0.00709    0.00967 =
         0.01520   -0.00055   -0.00066   -0.00190
HKLF 4

REM  2013lhb014
REM R1 =  0.0222 for    1826 Fo > 4sig(Fo)  and  0.0259 for all    2001 data
REM    159 parameters refined using      0 restraints

END

WGHT      0.0326      2.6630

REM Highest difference peak  0.897,  deepest hole -0.687,  1-sigma level  0.135
Q1    1   0.4012  0.2021  0.6904  11.00000  0.05    0.90
Q2    1   0.2648  0.2037  0.7262  11.00000  0.05    0.76
Q3    1   0.3324  0.1505  0.7689  11.00000  0.05    0.70
Q4    1   0.2292  0.1984  0.6803  11.00000  0.05    0.64
Q5    1   0.5574  0.5277  0.5583  11.00000  0.05    0.63
Q6    1   0.3146  0.2821  0.7593  11.00000  0.05    0.50
Q7    1   0.2884  0.0463  0.6711  11.00000  0.05    0.49
Q8    1   0.3354  0.2761  0.6642  11.00000  0.05    0.49
Q9    1   0.3255  0.1141  0.6627  11.00000  0.05    0.47
Q10   1   0.4270  0.2237  0.7359  11.00000  0.05    0.47
Q11   1   0.2890  0.2030  0.6408  11.00000  0.05    0.45
Q12   1   0.3649  0.0542  0.6797  11.00000  0.05    0.45
Q13   1   0.2143  0.2776  0.9477  11.00000  0.05    0.44
Q14   1   0.1419  0.2905  0.9624  11.00000  0.05    0.43
Q15   1   0.3010  0.3859  0.7225  11.00000  0.05    0.43
Q16   1   0.4012  0.3817  0.5420  11.00000  0.05    0.42
Q17   1   0.3710  0.3272  0.6830  11.00000  0.05    0.42
Q18   1   0.2258  0.4245  0.8405  11.00000  0.05    0.41
Q19   1   0.5321  0.4736  0.6091  11.00000  0.05    0.41
Q20   1   0.2804  0.1688  0.9562  11.00000  0.05    0.40
;
_shelx_res_checksum              75787
_shelx_hkl_file
;
  -1   1   0 20.1700 3.97000   1
   1  -1   0 20.9100 4.90000   1
  -1  -1   0 19.9700 3.60000   1
   1  -1   0 23.9400 5.45000   1
  -1   1   0 13.4400 4.07000   1
   1   1   0 17.9500 3.91000   1
   1   1   0 20.2000 4.63000   1
  -1  -1   0 16.9700 4.74000   1
   1   1   0 15.9100 4.30000   1
  -1  -1   0 11.2700 3.95000   1
  -2   0   0 2942.54 66.0700   1
   2   0   0 2900.58 74.9100   1
   2   0   0 2781.81 62.6600   1
  -2   0   0 3090.31 74.2600   1
  -1   1   1 1615.24 37.8600   1
  -1   1   1 1717.66 49.2100   1
   1  -1  -1 1774.78 42.3300   1
  -1   1   1 1639.46 38.9200   1
  -1  -1   1 1485.48 34.8000   1
  -1  -1   1 1760.86 41.4700   1
  -1   1   1 1714.58 40.7400   1
   1  -1  -1 1716.09 41.1500   1
   1   1  -1 1795.00 43.2900   1
   1   1  -1 1620.53 38.7400   1
  -1   1   1 1822.74 43.7300   1
  -1  -1   1 1753.23 41.0400   1
  -2   0   2 77.2800 5.18000   1
  -2   0   2 78.0800 5.09000   1
   2   0  -2 82.2900 5.42000   1
   2   0  -2 89.2700 6.06000   1
   1   1   1 622.840 19.4000   1
  -1  -1  -1 558.660 17.7700   1
  -1   1  -1 603.180 17.0800   1
   1  -1   1 587.250 18.4500   1
   1  -1   1 596.370 16.9400   1
   1   1   1 549.810 15.7600   1
   1  -1   1 624.380 25.7600   1
  -1   1  -1 570.930 16.8900   1
  -1  -1  -1 588.550 16.9300   1
   1   1   1 584.910 16.6700   1
  -1  -1  -1 589.640 17.3400   1
  -1   1  -1 635.810 21.9700   1
  -1  -1  -1 584.180 16.0300   1
  -1   1  -1 556.850 15.9900   1
   1  -1   1 595.320 16.7500   1
   1   1   1 574.830 15.7500   1
   1   1  -2 526.370 15.0500   1
   1  -1  -2 535.240 15.0700   1
  -1   1   2 532.630 16.4400   1
   1  -1  -2 576.600 18.8500   1
   1  -1  -2 538.690 27.9900   1
  -1   1   2 505.490 23.8400   1
   1   1  -2 530.520 15.0800   1
  -1   1   2 570.840 16.4100   1
  -1   1   2 529.750 14.5900   1
   1   1  -2 543.550 16.3000   1
   1  -1  -2 570.080 15.9000   1
  -1  -1   2 523.250 14.6000   1
  -1  -1   2 509.670 14.1500   1
   1   1   2 37.4100 4.14000   1
   1   1   2 44.9500 5.14000   1
  -1  -1  -2 47.7000 5.08000   1
   1   1   2 47.8400 5.70000   1
  -1   1  -2 43.4700 6.06000   1
   1  -1   2 48.0600 11.5300   1
   1  -1   2 51.6100 5.90000   1
  -1   1  -2 37.7900 5.77000   1
  -1   1  -2 44.1700 5.63000   1
  -1  -1  -2 38.0600 5.40000   1
   1  -1   2 45.0700 5.66000   1
   1   1   2 42.2300 5.02000   1
  -1   1  -2 41.2900 4.55000   1
   1  -1   2 45.0100 4.46000   1
   0   0   4 1270.31 31.3300   1
   0   0  -4 1172.67 30.0400   1
   0   0  -4 1266.43 30.7700   1
   0   0  -4 1185.38 30.1200   1
   0   0   4 1236.01 42.8800   1
   0   0   4 1172.25 29.8300   1
  -2   0  -2 3598.59 93.8800   1
   2   0   2 3743.00 83.6500   1
  -2   0  -2 3763.65 83.4600   1
   2   0   2 3775.37 105.180   1
  -1   1   3 3378.10 89.3700   1
   1  -1  -3 3251.58 83.6800   1
  -1  -1   3 3306.05 74.1700   1
   1   1  -3 3475.01 77.4000   1
  -1   1   3 3309.96 73.9100   1
  -1  -1   3 3360.57 75.5400   1
   1  -1  -3 3593.28 79.7400   1
   1  -1  -3 3472.30 78.2700   1
   1   1  -3 3333.40 75.0900   1
  -1   1   3 3462.65 77.4400   1
   1   1  -3 3094.35 69.6500   1
  -1   1   3 3446.69 76.6100   1
  -1  -1  -3 93.8200 6.34000   1
  -1  -1  -3 92.7700 6.66000   1
  -1   1  -3 90.6200 6.05000   1
   1  -1   3 112.630 7.31000   1
   1   1   3 91.2600 7.16000   1
  -1  -1  -3 92.7800 5.77000   1
   1   1   3 95.3300 5.80000   1
  -1   1  -3 88.4800 5.69000   1
   1  -1   3 86.5900 4.98000   1
   1   1   3 107.740 7.06000   1
  -1   1  -3 104.330 7.56000   1
  -1  -1  -3 108.290 6.88000   1
   1  -1   3 112.150 14.0100   1
  -1   1  -3 102.500 6.74000   1
   2   0  -4 674.890 19.4000   1
   2   0  -4 675.480 17.8100   1
  -2   0   4 728.820 19.2100   1
  -2   0   4 701.200 18.1100   1
  -2   0   4 791.870 21.8200   1
   1  -1  -4 1079.54 27.0100   1
  -1   1   4 1093.17 27.9800   1
  -1   1   4 1029.54 34.9500   1
   1  -1  -4 1055.56 26.5400   1
  -1   1   4 1055.17 26.1700   1
   1  -1  -4 1168.48 42.6900   1
  -1   1   4 1008.49 28.4500   1
  -1  -1   4 1159.09 28.4500   1
   1   1  -4 1099.01 27.8300   1
  -1  -1   4 1104.01 27.3300   1
  -1  -1   4 1079.40 27.5000   1
   1   1  -4 1078.24 27.6200   1
   1   1  -4 1072.31 26.5200   1
  -1  -1  -4 8.55000 4.39000   1
   1  -1   4 12.9500 6.13000   1
  -1   1  -4 8.88000 4.83000   1
   3   1  -1 1557.03 38.8500   1
  -3   1   1 1665.15 39.9200   1
  -3  -1   1 1604.24 37.6800   1
  -3   1   1 1710.83 67.1500   1
   3   1  -1 1584.15 38.3500   1
  -3  -1   1 1637.38 38.7800   1
  -3   1   1 1794.46 42.3300   1
   3   1  -1 1622.04 38.2300   1
   3  -1  -1 1460.95 36.9500   1
   3  -1  -1 1684.29 39.5700   1
  -3  -1   1 1552.53 36.7700   1
   0   2   0 2572.11 58.0900   1
   0  -2   0 2805.55 63.2800   1
   0   2   0 2664.53 59.7700   1
   0   2   0 2811.93 63.7300   1
   0   2   0 2780.48 63.8800   1
   0  -2   0 2624.79 62.0200   1
   0  -2   0 2702.26 60.8900   1
   3   1   0 1749.72 41.9900   1
   3  -1   0 1812.76 42.9500   1
  -3   1   0 1903.50 70.5100   1
  -3  -1   0 1711.00 40.7600   1
  -3   1   0 1737.31 41.8200   1
  -3  -1   0 1810.99 42.7700   1
   3   1   0 1747.71 40.7100   1
  -3  -1   0 1882.92 43.4500   1
  -3  -1   2 138.110 6.39000   1
   3  -1  -2 134.700 6.49000   1
   3   1  -2 142.650 6.53000   1
  -3   1   2 147.240 6.15000   1
  -3  -1   2 142.800 6.55000   1
   3   1  -2 137.520 6.71000   1
   3   1  -2 147.280 7.12000   1
  -3  -1   2 145.240 7.16000   1
  -3   1   2 154.690 7.69000   1
   3  -1  -2 152.800 7.25000   1
  -3  -1   2 158.260 7.40000   1
  -3   1   2 151.550 29.5100   1
   0   2  -1 1134.17 29.6000   1
   0  -2  -1 1068.07 26.7600   1
   0   2   1 1043.66 25.8900   1
   0   2   1 1034.82 25.6900   1
   0  -2   1 1045.31 26.3400   1
   0  -2  -1 1047.98 25.6800   1
   0   2  -1 1072.40 27.2900   1
   0   2   1 1083.30 27.6400   1
   0  -2   1 1064.90 27.9500   1
   0  -2  -1 1082.88 29.2800   1
   0  -2   1 1055.56 26.2800   1
   0  -2  -1 1030.75 25.9800   1
   0   2  -1 1041.66 26.4100   1
   0   2  -1 1015.75 25.4900   1
   0   2   1 1063.24 26.0200   1
   0  -2   1 1010.87 26.1700   1
   2   0   4 2545.56 59.4400   1
  -2   0  -4 2584.99 58.7800   1
   2   0   4 2826.46 98.0400   1
  -2   0  -4 2694.91 78.0500   1
  -2   0  -4 2451.04 56.1200   1
  -1  -1   5 3217.91 72.1100   1
  -1   1   5 3295.51 82.5800   1
   1  -1  -5 3295.66 89.3700   1
  -1   1   5 3671.19 98.1700   1
  -1  -1   5 3339.70 74.3700   1
   1   1  -5 3476.33 77.5600   1
  -1   1   5 3462.01 77.0200   1
  -1  -1   5 3438.22 76.9200   1
   1   1  -5 3318.50 74.4200   1
   1  -1  -5 3203.01 73.5900   1
   1  -1  -5 3282.58 73.6000   1
  -1   1   5 3381.77 76.8500   1
   1   1  -5 3132.72 70.0900   1
   3   1   1 5354.00 119.290   1
  -3  -1  -1 5991.50 129.890   1
  -3   1  -1 6075.18 132.870   1
  -3   1  -1 6311.56 170.240   1
   3  -1   1 6101.54 133.580   1
  -3  -1  -1 5969.91 130.450   1
  -3  -1  -1 5960.17 129.870   1
   3  -1   1 5545.73 120.670   1
   3   1   1 5638.27 121.960   1
   3   1  -3 3003.37 68.3000   1
   3  -1  -3 2745.57 63.1200   1
  -3  -1   3 2931.19 65.5800   1
   3  -1  -3 2972.27 66.2600   1
  -3   1   3 3086.90 85.3900   1
  -3  -1   3 2847.47 63.8300   1
   3   1  -3 2986.33 67.5000   1
  -3   1   3 2909.67 65.8000   1
   3   1  -3 2975.79 67.4900   1
  -3   1   3 2759.12 63.0000   1
  -3  -1   3 3028.73 67.7100   1
   0  -2  -2 3383.59 75.6300   1
   0  -2   2 3251.51 73.2900   1
   0   2   2 3167.71 70.4000   1
   0   2  -2 3093.27 69.2400   1
   0   2   2 3430.33 78.9400   1
   0   2   2 3304.49 73.8800   1
   0  -2   2 3292.10 74.6000   1
   0   2  -2 3293.49 74.0800   1
   0  -2  -2 3173.42 70.5100   1
   0  -2  -2 3345.37 78.0300   1
   0  -2   2 3409.48 75.8100   1
   0  -2  -2 3264.38 72.7200   1
   0   2   2 3249.70 72.4400   1
   0   2  -2 3268.28 72.6200   1
   0   2  -2 3140.11 70.4900   1
   0  -2   2 3223.10 72.9700   1
   0   0   6 23.3900 4.89000   1
   0   0   6 22.4800 4.86000   1
   0   0  -6 22.4100 4.14000   1
   0   0  -6 26.5000 3.74000   1
   0   0  -6 28.6900 5.02000   1
  -3   1  -2 903.990 23.6300   1
  -3   1  -2 981.930 54.6400   1
   3   1   2 924.330 26.5700   1
  -3  -1  -2 882.650 24.5900   1
  -3  -1  -2 903.680 22.9700   1
   3   1   2 912.350 22.7800   1
   3  -1   2 940.120 24.7400   1
  -3   1  -2 874.290 22.6200   1
   1   1   5 2040.67 48.1100   1
  -1  -1  -5 2185.63 55.5900   1
  -1  -1  -5 1957.01 47.2500   1
   1   1   5 1963.37 54.8200   1
   1  -1   5 2054.85 47.6600   1
  -1   1  -5 1914.82 44.6400   1
   1   1   5 2074.02 49.9700   1
  -1  -1  -5 2005.76 46.9600   1
  -1   1  -5 1915.32 44.9100   1
   1  -1   5 1967.51 46.3800   1
   3   1  -4 82.1800 5.47000   1
  -3   1   4 74.0300 4.63000   1
   3  -1  -4 83.1000 5.30000   1
   3   1  -4 74.7900 5.34000   1
  -3  -1   4 80.0000 5.47000   1
   3  -1  -4 77.2400 5.53000   1
   3   1  -4 82.4300 5.68000   1
  -3  -1   4 73.1600 7.36000   1
  -3   1   4 81.4700 10.0500   1
  -3  -1   4 77.3100 5.14000   1
   2   0  -6 2687.01 60.1100   1
   2   0  -6 2525.39 58.5800   1
  -2   0   6 2408.09 54.8800   1
  -2   0   6 2757.93 62.1700   1
   2   0  -6 2511.75 57.5700   1
   0  -2   3 813.960 21.8700   1
   0  -2  -3 833.860 21.5700   1
   0   2   3 793.760 20.7500   1
   0   2   3 855.820 22.3000   1
   0  -2  -3 801.920 24.3600   1
   0   2  -3 756.070 20.0900   1
   0  -2   3 768.540 20.0100   1
   0   2   3 794.110 20.5900   1
   0  -2   3 845.270 23.2800   1
   0   2   3 801.250 22.4300   1
   0   2   3 817.890 21.0600   1
   0  -2   3 851.990 23.1000   1
   0   2  -3 826.060 21.8900   1
   0  -2  -3 847.340 21.4600   1
   4   0  -2 581.660 20.6100   1
  -4   0   2 629.150 18.9500   1
  -4   0   2 638.190 17.1900   1
   4   0  -2 609.740 16.5900   1
   2  -2  -1 5571.15 122.880   1
  -2   2   1 6145.48 133.430   1
   2   2  -1 5333.15 116.230   1
  -2  -2   1 5328.02 115.550   1
  -2  -2   1 5081.20 111.870   1
   2   2  -1 5665.23 123.470   1
  -2   2   1 5496.00 119.460   1
  -2   2   1 5350.91 123.450   1
   2  -2  -1 5664.76 140.300   1
   2  -2  -1 5572.26 123.560   1
  -2   2   1 5295.30 115.990   1
  -2   2   1 5428.33 118.720   1
  -2  -2   1 5387.45 117.050   1
   2   2  -1 5580.08 121.920   1
  -2  -2   1 5742.76 124.890   1
   2  -2   0 4547.42 100.500   1
   2   2   0 4682.25 102.300   1
  -2  -2   0 4607.34 101.310   1
   2  -2   0 4478.51 100.500   1
  -2  -2   0 4698.58 104.700   1
  -2   2   0 4225.23 92.8300   1
   2   2   0 4520.01 99.2000   1
  -2   2   0 4471.10 99.1500   1
   2  -2   0 4854.34 120.880   1
   2   2   0 4821.75 105.610   1
   2  -2   0 4993.84 110.180   1
  -2   2   0 4599.23 101.490   1
  -2  -2   0 4695.61 102.660   1
  -2  -2   0 4598.21 100.550   1
  -2   2   0 4545.48 105.380   1
   4   0   0 207.910 7.99000   1
  -4   0   0 217.770 7.98000   1
   4   0   0 196.110 15.9900   1
  -4   0   0 209.500 12.5100   1
  -2   2   2 374.890 11.2100   1
   2   2  -2 347.270 10.7300   1
   2  -2  -2 383.320 22.3800   1
  -2   2   2 416.760 21.0000   1
  -2   2   2 398.940 12.2300   1
   2  -2  -2 387.420 13.2900   1
   2  -2  -2 390.170 12.5100   1
  -2   2   2 367.900 11.3400   1
  -2  -2   2 383.840 12.6000   1
   2   2  -2 385.430 12.4900   1
  -2   2   2 398.310 12.3400   1
  -2  -2   2 386.720 11.8500   1
   2   2  -2 396.460 12.0100   1
  -2  -2   2 359.860 11.1300   1
   2  -2   1 8.56000 5.30000   1
  -2  -2  -1 18.5000 4.35000   1
  -2  -2  -1 7.74000 4.09000   1
   2   2   1 6.34000 4.27000   1
   2   2   1 13.0300 3.89000   1
  -2  -2  -1 4.29000 3.36000   1
   2   2   1 12.9400 4.14000   1
  -2  -2  -1 3.62000 4.41000   1
   1  -1  -6 945.110 37.2600   1
   1  -1  -6 941.110 24.7500   1
   1   1  -6 980.910 25.2900   1
  -1  -1   6 1030.42 26.8900   1
  -1   1   6 957.750 23.8800   1
   1   1  -6 1005.36 25.4900   1
  -1  -1   6 1034.97 26.2100   1
  -1   1   6 1123.48 53.0400   1
  -1   1   6 992.460 33.1700   1
  -1  -1   6 943.030 24.7100   1
   1   1  -6 971.840 24.5600   1
  -1   1   6 990.820 25.7400   1
   1  -1  -6 980.410 26.0300   1
  -4   0  -1 -1.2300 10.2000   1
   3   1   3 3115.44 75.1500   1
  -3   1  -3 3288.17 74.3900   1
  -3   1  -3 3473.12 107.900   1
  -3  -1  -3 3482.93 79.0600   1
  -3   1  -3 3448.48 76.7800   1
   3  -1   3 3251.24 73.5000   1
   3   1   3 3246.73 72.3800   1
  -3  -1  -3 3432.53 77.0600   1
   3   1   3 3499.01 77.8300   1
  -2  -2   3 731.230 19.8700   1
  -2   2   3 770.940 21.0300   1
   2  -2  -3 741.370 20.0100   1
   2   2  -3 765.990 19.7700   1
   2   2  -3 766.810 20.1200   1
  -2   2   3 818.010 21.1900   1
  -2  -2   3 772.700 20.0900   1
   2  -2  -3 710.890 19.2700   1
   2   2  -3 762.310 20.3700   1
  -2  -2   3 732.550 19.0800   1
  -2   2   3 716.100 19.1500   1
   2  -2  -3 745.030 19.9900   1
   2  -2  -3 698.640 29.3600   1
  -2   2   3 752.290 26.4700   1
  -3   1   5 353.860 10.7800   1
   3   1  -5 400.350 12.3300   1
  -3  -1   5 351.110 11.1200   1
   3  -1  -5 380.530 11.5800   1
   3   1  -5 357.690 11.4900   1
  -3  -1   5 366.510 11.0800   1
  -3   1   5 378.050 11.8900   1
  -3   1   5 357.100 11.7900   1
   3  -1  -5 354.090 11.5200   1
   3   1  -5 370.700 11.7900   1
  -3  -1   5 341.750 10.6200   1
   0  -2  -4 714.040 19.2800   1
   0   2   4 718.770 20.7000   1
   0   2   4 712.150 19.7300   1
   0  -2  -4 661.820 17.7300   1
   0   2   4 670.470 17.7900   1
   0   2   4 664.930 18.5300   1
   0   2   4 688.420 18.7000   1
   0  -2  -4 728.610 23.6700   1
   0  -2   4 672.960 18.3400   1
   0   2  -4 688.810 18.6500   1
   0  -2   4 636.210 17.3000   1
   0   2  -4 652.100 17.5600   1
   0  -2   4 751.490 20.3700   1
   0   2  -4 681.760 18.6500   1
   0  -2   4 689.070 18.6500   1
  -4   0   4 10742.7 221.050   1
   4   0  -4 10670.5 220.360   1
  -4   0   4 10508.2 224.420   1
  -4   0   4 10667.2 218.600   1
   4   0  -4 9930.95 214.070   1
  -2  -2  -2 2053.05 48.2400   1
   2   2   2 2007.83 47.3000   1
   2  -2   2 1822.17 42.5100   1
  -2  -2  -2 1944.76 45.5200   1
  -2   2  -2 2022.29 48.0700   1
   2   2   2 1944.97 45.4400   1
  -2   2  -2 1932.56 48.2200   1
  -2  -2  -2 1860.11 43.0600   1
   2  -2   2 1877.83 44.6400   1
   2  -2   2 2039.22 58.8000   1
   2   2   2 1890.61 44.9600   1
   2   2   2 1971.38 45.1300   1
  -2   2  -2 1866.87 43.4100   1
   2  -2   2 1934.45 46.2100   1
  -2   2  -2 1968.88 46.4700   1
  -2  -2  -2 1985.15 46.5800   1
  -4   0  -2 4465.11 105.580   1
   4   0   2 3763.71 82.6600   1
   4   0   2 4162.91 91.6800   1
  -1  -1  -6 6.33000 4.06000   1
   2   0  -7 2.07000 4.13000   1
  -2  -2   4 267.980 9.04000   1
   2   2  -4 295.210 10.0300   1
  -2   2   4 281.030 9.46000   1
   2   2  -4 282.550 9.49000   1
   2  -2  -4 267.730 9.49000   1
  -2   2   4 278.190 10.1700   1
  -2  -2   4 277.050 9.66000   1
   2   2  -4 294.880 10.0100   1
  -2   2   4 264.320 8.66000   1
  -2  -2   4 273.390 9.24000   1
   2  -2  -4 305.210 10.8100   1
   2  -2  -4 235.430 19.7000   1
  -2   2   4 258.820 16.6000   1
   2  -2  -4 265.940 9.10000   1
   2  -2   3 1833.07 43.1700   1
   2   2   3 1708.42 39.6100   1
   2   2   3 1796.82 42.3900   1
  -2  -2  -3 1826.60 43.0900   1
  -2   2  -3 1841.22 45.2000   1
   2  -2   3 1881.22 57.1200   1
   2   2   3 1770.01 42.4200   1
   2  -2   3 1877.22 44.4500   1
  -2   2  -3 1793.85 42.9900   1
  -2   2  -3 1899.18 45.0200   1
  -2  -2  -3 1884.90 44.6600   1
   2   2   3 1827.05 44.5300   1
  -2  -2  -3 1806.97 42.2800   1
  -2   2  -3 1855.11 43.4800   1
   3   1   4 402.690 19.0900   1
   3  -1   4 387.680 13.2500   1
   3   1   4 351.480 11.0700   1
  -3  -1  -4 378.090 12.1700   1
  -3  -1  -4 363.510 13.3300   1
  -3   1  -4 454.900 44.0000   1
   3   1   4 388.180 11.9900   1
  -3   1  -4 407.840 12.4600   1
  -2   0  -6 1392.38 34.1500   1
   2   0   6 1407.68 69.7500   1
  -2   0  -6 1367.49 49.8900   1
  -2   0  -6 1327.08 37.0100   1
   2   0   6 1394.29 33.6100   1
   2   0   6 1352.26 33.4600   1
  -2   0  -6 1407.82 34.1400   1
  -3  -1   6 -1.8200 4.10000   1
  -1  -1   7 2648.48 60.1400   1
   1   1  -7 2718.55 61.2100   1
  -1   1   7 2897.79 66.0800   1
   1  -1  -7 2739.84 62.1200   1
  -1  -1   7 2936.05 66.1700   1
   1   1  -7 2764.17 62.6900   1
  -1   1   7 2900.59 65.4200   1
   1   1  -7 2732.68 62.8300   1
   1  -1  -7 2764.14 69.0400   1
   1  -1  -7 2841.70 81.4300   1
  -1   1   7 3001.06 77.6500   1
   1  -1  -7 2551.66 60.7700   1
   0  -2  -5 55.3700 9.44000   1
   0   2   5 52.2900 4.86000   1
   0  -2   5 47.3400 5.48000   1
   0  -2  -5 55.2000 4.70000   1
   0  -2   5 63.7800 5.94000   1
   0  -2  -5 47.7500 4.66000   1
   0   2   5 46.4800 4.82000   1
   0  -2  -5 57.1900 4.83000   1
   0   2  -5 56.3600 6.11000   1
   0   2   5 52.4800 7.05000   1
   0   2   5 59.3300 4.92000   1
   0   2  -5 50.3000 4.57000   1
   0  -2   5 51.4800 4.37000   1
   0  -2   5 57.4800 4.53000   1
   4   0   3 -14.550 21.7300   1
  -2  -2   5 460.000 13.4600   1
   2   2  -5 484.890 14.4200   1
  -2  -2   5 482.090 14.2300   1
   2  -2  -5 489.580 14.8200   1
  -2  -2   5 480.840 13.9500   1
  -2   2   5 518.230 22.3700   1
   2  -2  -5 504.460 27.3800   1
   2   2  -5 444.170 13.1200   1
  -2   2   5 426.850 13.3800   1
  -2   2   5 459.840 14.3800   1
   2  -2  -5 461.810 13.6200   1
   2   2  -5 462.160 13.3400   1
   2  -2  -5 481.510 13.7500   1
   4   0  -6 10304.6 220.920   1
   4   0  -6 9722.00 208.370   1
  -4   0   6 9651.94 206.780   1
  -4   0   6 10405.5 222.410   1
   2   2   4 2485.54 56.6800   1
  -2   2  -4 2202.76 50.6900   1
   2  -2   4 2215.85 50.8000   1
   2   2   4 2429.48 55.0700   1
  -2   2  -4 2403.13 56.0500   1
  -2  -2  -4 2353.49 54.6100   1
   2  -2   4 2452.18 70.4600   1
   2   2   4 2475.23 56.9600   1
  -2  -2  -4 2371.30 54.2300   1
   2  -2   4 2325.65 53.8100   1
  -2   2  -4 2237.55 52.0800   1
  -2  -2  -4 2370.42 54.6600   1
  -2   2  -4 2271.70 53.8500   1
   2   2   4 2247.94 52.8500   1
  -1  -1  -7 8380.53 188.700   1
   1   1   7 8132.40 176.860   1
   1  -1   7 7254.74 157.660   1
  -1   1  -7 7487.08 161.460   1
   1   1   7 6772.53 147.330   1
  -1  -1  -7 6999.68 151.630   1
  -1  -1  -7 7965.85 176.680   1
  -1   1  -7 7071.92 153.710   1
   1  -1   7 7839.38 169.280   1
   1   1   7 8498.41 212.460   1
   2   0  -8 9542.17 206.510   1
   2   0  -8 10489.6 224.920   1
  -2   0   8 9123.58 195.740   1
   2   0  -8 9733.31 209.550   1
   0   0  -8 9163.44 196.300   1
   0   0   8 9490.75 204.020   1
   0   0  -8 8094.15 174.390   1
   0   0  -8 8364.13 222.660   1
   0   0   8 8376.40 191.000   1
   3   1   5 739.350 20.1200   1
   3   1   5 650.170 26.7700   1
  -3   1  -5 710.790 48.5000   1
  -3   1  -5 782.460 20.4300   1
   3  -1   5 735.310 20.0000   1
   3   1   5 729.150 19.0300   1
  -3  -1  -5 703.280 19.4000   1
  -3  -1  -5 744.240 21.9600   1
  -3   1   7 29.4800 20.2500   1
   3  -1  -7 -0.8600 3.95000   1
  -3   1   7 0.09000 3.34000   1
   0  -2   6 28.3700 4.08000   1
   0  -2   6 30.5800 3.79000   1
   0  -2  -6 41.7000 10.2800   1
   0   2   6 26.8000 4.71000   1
   0  -2  -6 33.1800 3.69000   1
   0  -2   6 31.8100 5.15000   1
   0   2  -6 21.4000 4.16000   1
   0  -2   6 26.1500 4.97000   1
   0   2   6 49.6900 6.81000   1
   0  -2  -6 28.1700 4.15000   1
   0   2  -6 24.9500 4.48000   1
   0  -2  -6 35.5100 4.55000   1
   0   2   6 29.5000 4.14000   1
   0   2  -6 28.2000 4.45000   1
  -4   0  -4 2146.70 59.5400   1
   4   0   4 2251.77 75.5200   1
   4   0   4 2228.70 51.5400   1
   4   0   4 2214.34 48.5300   1
   5   1  -2 614.810 16.1700   1
  -5  -1   2 639.570 16.8200   1
  -5  -1   2 624.570 16.1900   1
   5   1  -2 646.510 18.8700   1
  -5   1   2 688.880 26.3800   1
   5  -1  -2 652.210 41.2200   1
  -5  -1   2 633.530 16.9600   1
  -5   1   2 669.720 17.6300   1
   5  -1  -2 578.860 16.6100   1
   5  -1  -1 318.530 10.1600   1
   5  -1  -1 291.020 36.2300   1
  -5   1   1 336.130 18.4300   1
   5   1  -1 324.410 12.0000   1
  -5  -1   1 345.050 10.8900   1
  -5   1   1 322.550 10.4200   1
  -5  -1   1 342.430 10.4400   1
   5   1  -1 344.310 10.5700   1
  -5  -1   1 351.770 11.2800   1
  -4   2   1 643.470 17.8300   1
  -4  -2   1 704.950 18.0900   1
   4   2  -1 646.050 17.8500   1
   4   2  -1 611.510 16.4700   1
  -4  -2   1 608.920 17.0800   1
  -4   2   1 719.150 29.9700   1
  -4   2   1 626.030 17.9000   1
  -4  -2   1 616.820 16.3300   1
  -4   2   1 618.510 17.1000   1
   2   2  -6 1646.69 37.4200   1
  -2   2   6 1634.42 37.5500   1
   2   2  -6 1666.22 38.0300   1
  -2  -2   6 1744.77 39.7900   1
  -2  -2   6 1628.67 36.6300   1
  -2   2   6 1660.47 38.5000   1
  -2   2   6 1635.89 45.0100   1
   2  -2  -6 1635.16 52.3800   1
  -2  -2   6 1478.41 34.1600   1
   2  -2  -6 1728.30 39.0900   1
   2   2  -6 1696.04 38.5400   1
   2  -2  -6 1769.77 40.0500   1
  -2   0  -7 3.96000 23.2500   1
  -2   0  -7 -0.2700 4.05000   1
  -4   2   2 2311.21 52.0900   1
  -4   2   2 2189.13 83.7100   1
   4   2  -2 2276.18 50.3200   1
  -4   2   2 2563.59 73.6000   1
  -4  -2   2 2308.03 50.4800   1
  -4   2   2 2046.01 44.9100   1
   4   2  -2 2153.48 47.9800   1
  -4   2   2 2259.89 49.6100   1
  -4  -2   2 2169.18 48.3200   1
  -4  -2   2 2190.20 48.3400   1
   4   2  -2 2283.33 51.4300   1
  -4   2   2 2329.03 52.1100   1
  -4   2   2 2167.96 47.4200   1
  -1   1   8 2064.90 46.5900   1
   1   1  -8 2158.96 48.1100   1
  -1   1   8 2394.38 62.3700   1
   1  -1  -8 2160.95 54.0700   1
   1  -1  -8 2055.26 46.4900   1
  -1  -1   8 2279.26 50.4700   1
  -1   1   8 2091.79 46.3700   1
   1   1  -8 2220.66 50.9900   1
  -1  -1   8 2005.75 44.9200   1
   1   1  -8 2164.24 47.9700   1
   1  -1  -8 2082.80 46.6800   1
  -1  -3   0 19.5300 3.45000   1
   1   3   0 22.8700 4.04000   1
   1  -3   0 17.9700 7.00000   1
  -1   3   0 14.2200 3.31000   1
  -1  -3   0 20.6800 4.19000   1
   1   3   0 15.0400 3.64000   1
  -1  -3   0 19.1100 4.69000   1
   1  -3   0 14.1100 4.71000   1
  -1   3   0 12.7900 5.05000   1
   1  -3   0 18.2100 4.13000   1
   1  -3   0 14.7200 3.02000   1
  -1   3   0 10.5400 3.59000   1
  -1  -3   0 7.00000 4.01000   1
   1   3   0 15.8500 3.66000   1
   1   3   0 17.5600 4.86000   1
  -1   3   0 16.0000 3.35000   1
   5  -1  -3 160.290 26.2500   1
  -5   1   3 135.480 10.5200   1
   5   1  -3 113.880 6.41000   1
  -5  -1   3 130.910 6.16000   1
  -5  -1   3 117.860 5.89000   1
  -5   1   3 114.570 5.27000   1
   5   1  -3 130.370 6.05000   1
  -5  -1   3 125.960 6.05000   1
   5  -1  -3 119.620 5.81000   1
  -1   3   1 1938.71 43.5500   1
  -1  -3   1 1963.35 44.4200   1
   1  -3  -1 1950.22 44.0400   1
   1   3  -1 1927.63 43.1800   1
  -1   3   1 1805.20 40.4100   1
   1  -3  -1 1986.93 44.2300   1
   1  -3  -1 1927.09 49.7400   1
  -1  -3   1 1921.54 42.8400   1
  -1   3   1 2035.94 46.8300   1
  -1  -3   1 1860.33 42.9100   1
   1  -3  -1 1996.58 44.4600   1
  -1  -3   1 1847.44 41.5900   1
  -1   3   1 1987.90 44.0900   1
   1   3  -1 2021.47 44.5900   1
   1   3  -1 2044.92 45.9300   1
   1   3  -1 1911.49 45.6900   1
  -4  -2   0 160.310 6.76000   1
   4   2   0 166.510 7.55000   1
  -4  -2   0 145.000 6.64000   1
   4   2   0 158.500 6.93000   1
  -4  -2   0 155.980 6.86000   1
  -4   2   0 164.220 16.2600   1
   4   2   0 131.840 6.76000   1
  -4   2   0 159.780 6.49000   1
  -4   2   0 153.370 6.81000   1
  -4   2   0 172.220 7.42000   1
  -5   1   0 61.7000 3.75000   1
   5  -1   0 64.8500 4.47000   1
   5   1   0 66.5900 4.89000   1
   5   1   0 70.7200 7.78000   1
  -5  -1   0 76.8800 4.62000   1
  -5  -1   0 79.9700 5.95000   1
   5  -1   0 70.2200 32.8900   1
  -5   1   0 78.2400 17.3700   1
   1  -3   1 264.370 12.0800   1
   1  -3   1 270.840 9.45000   1
   1  -3   1 261.850 9.17000   1
   1   3   1 245.750 8.70000   1
  -1   3  -1 258.240 8.62000   1
   1  -3   1 247.950 9.26000   1
   1   3   1 263.100 8.68000   1
  -1   3  -1 249.580 9.05000   1
  -1  -3  -1 246.240 9.11000   1
   1   3   1 255.020 9.28000   1
  -1  -3  -1 243.440 8.34000   1
  -1   3  -1 252.250 8.82000   1
  -1  -3  -1 277.090 9.27000   1
   1   3   1 255.050 9.30000   1
  -1   3  -1 289.040 10.1700   1
  -1  -3  -1 267.350 10.2500   1
  -4   2   3 3077.93 67.0900   1
   4   2  -3 2736.10 58.8800   1
  -4   2   3 3062.02 105.770   1
  -4   2   3 2813.14 76.6300   1
  -4  -2   3 2994.75 64.9000   1
  -4   2   3 3222.34 70.2500   1
  -4   2   3 2941.58 63.3300   1
   4   2  -3 3165.17 68.0000   1
  -4  -2   3 3013.26 64.5400   1
   4  -2  -3 2910.01 63.1400   1
   4   2  -3 3146.88 68.4600   1
  -4  -2   3 3137.34 66.7600   1
  -4   2   3 2950.45 64.0500   1
  -2   2  -5 1405.67 33.1100   1
  -2  -2  -5 1410.26 34.4900   1
   2  -2   5 1326.97 31.6700   1
   2  -2   5 1332.18 45.0300   1
  -2  -2  -5 1360.01 31.4800   1
   2   2   5 1328.43 33.4400   1
  -2   2  -5 1305.41 32.0000   1
  -2   2  -5 1383.36 32.8500   1
   2   2   5 1295.42 29.9600   1
  -2   2  -5 1312.96 33.0400   1
  -2  -2  -5 1317.93 31.8100   1
   2  -2   5 1295.94 31.0700   1
   2   2   5 1334.91 31.7500   1
   2   2   5 1390.49 32.7200   1
   4   0  -7 2.44000 3.56000   1
   1  -3  -2 2960.86 70.1100   1
   1  -3  -2 3031.42 65.2900   1
  -1   3   2 3019.98 65.0600   1
  -1   3   2 3139.01 66.9000   1
   1   3  -2 2993.98 65.1400   1
   1  -3  -2 3167.90 68.0800   1
  -1  -3   2 3153.23 67.8500   1
   1   3  -2 3027.93 65.4300   1
  -1   3   2 3039.37 65.6000   1
  -1  -3   2 2972.10 64.2700   1
   1   3  -2 3029.49 64.6900   1
  -1  -3   2 3006.11 66.0100   1
  -1  -3   2 3126.94 67.5400   1
   1  -3  -2 3313.30 71.2400   1
  -1   3   2 3142.73 69.8800   1
  -5   1   4 105.810 5.22000   1
  -5  -1   4 91.0500 5.27000   1
   5   1  -4 93.6900 5.61000   1
   5   1  -4 96.1500 5.36000   1
  -5  -1   4 100.740 5.33000   1
  -5   1   4 110.940 8.66000   1
   5  -1  -4 91.2600 4.87000   1
  -5  -1   4 95.5200 5.23000   1
  -5  -1   4 106.530 6.17000   1
   5  -1  -4 52.6000 26.1200   1
  -4  -2  -1 380.970 11.7900   1
  -4   2  -1 379.970 12.3800   1
  -4   2  -1 366.350 11.0400   1
  -4   2  -1 343.190 10.9600   1
   4  -2   1 403.190 12.7000   1
   4   2   1 363.160 12.4400   1
  -4  -2  -1 367.790 11.5600   1
  -4   2  -1 350.570 19.6300   1
  -4  -2  -1 390.640 11.6600   1
   4   2   1 342.000 10.7400   1
   5  -1   1 5185.26 153.170   1
  -5   1  -1 5424.39 130.300   1
   5   1   1 5076.48 111.750   1
  -5  -1  -1 5402.89 113.420   1
   5  -1   1 4812.06 103.160   1
   5   1   1 5590.71 116.120   1
   5  -1   1 5227.13 109.310   1
  -5  -1  -1 5949.53 123.440   1
   1   3   2 166.390 6.97000   1
   1  -3   2 162.710 7.63000   1
  -1  -3  -2 180.390 6.96000   1
  -1   3  -2 157.500 7.17000   1
  -1  -3  -2 160.260 7.08000   1
   1   3   2 158.510 6.88000   1
   1  -3   2 180.720 7.11000   1
  -1   3  -2 177.350 6.95000   1
   1   3   2 168.030 6.59000   1
  -1  -3  -2 162.930 6.53000   1
   1   3   2 176.770 7.80000   1
  -1   3  -2 194.680 7.92000   1
  -1  -3  -2 162.370 8.28000   1
   1  -3   2 200.380 10.1600   1
   1  -3   2 184.730 8.01000   1
  -1   3  -2 171.110 6.97000   1
  -4   2   4 3737.04 93.5700   1
  -4   2   4 3559.06 75.7000   1
  -4  -2   4 3886.61 82.4000   1
   4   2  -4 3819.03 81.3600   1
  -4   2   4 3617.69 78.2700   1
   4   2  -4 3622.28 77.8100   1
  -4  -2   4 3532.02 75.6900   1
  -4  -2   4 3982.02 83.9800   1
  -4   2   4 4031.43 85.7400   1
  -4   2   4 3817.03 81.9000   1
  -4   2   4 3662.52 110.080   1
   4   2  -4 3678.00 78.5900   1
   4  -2  -4 3638.35 78.2800   1
   4  -2  -4 3646.58 78.9900   1
  -1  -3   3 1766.77 40.0000   1
   1   3  -3 1747.36 39.9300   1
  -1  -3   3 1769.90 40.4400   1
   1  -3  -3 1894.11 42.1600   1
   1  -3  -3 1812.76 49.1700   1
  -1  -3   3 1892.20 43.3900   1
  -1   3   3 1748.08 39.9700   1
  -1  -3   3 1779.29 40.1600   1
   1   3  -3 1789.95 39.9200   1
  -1   3   3 1804.85 43.3100   1
   1   3  -3 1712.55 39.2200   1
  -1   3   3 1823.92 41.1200   1
  -1   3   3 1852.70 41.7600   1
  -1   3   3 1782.72 39.9800   1
   1  -3  -3 1859.00 41.8600   1
  -3  -1  -6 905.730 22.9800   1
   3   1   6 841.230 32.2300   1
  -3   1  -6 862.060 50.6600   1
  -3   1  -6 831.930 21.7700   1
   3  -1   6 835.580 22.3800   1
  -3   1  -6 913.750 23.3700   1
   3   1   6 901.100 22.8400   1
  -3  -1  -6 942.080 23.8300   1
  -3  -1  -6 802.160 23.6200   1
   4   0   5 2.88000 3.70000   1
   3   1  -8 371.530 11.6400   1
  -3   1   8 332.090 10.7100   1
   3  -1  -8 356.170 11.3600   1
  -3  -1   8 316.920 11.1100   1
   3   1  -8 301.770 10.1800   1
  -3  -1   8 365.250 12.0800   1
   3  -1  -8 351.990 10.9200   1
   3   1  -8 316.530 10.0200   1
  -3  -1   8 347.830 10.4100   1
  -3   1   8 304.030 10.2700   1
  -3   1   8 341.140 25.2300   1
  -4  -2  -2 7.06000 4.11000   1
  -4   2  -2 9.40000 4.02000   1
   4   2   2 1.29000 4.82000   1
  -4   2  -2 6.42000 4.05000   1
  -4   2  -2 6.74000 11.9100   1
  -4  -2  -2 4.23000 3.10000   1
   4   2   2 5.47000 3.66000   1
   0   2   7 241.410 11.6800   1
   0  -2  -7 237.730 8.33000   1
   0  -2  -7 243.350 14.8300   1
   0   2   7 217.540 9.93000   1
   0   2   7 231.760 8.68000   1
   0  -2  -7 249.670 8.92000   1
   0  -2  -7 244.010 8.66000   1
   0  -2   7 238.950 8.99000   1
   0   2  -7 238.310 8.77000   1
   0  -2   7 248.850 9.58000   1
   0  -2   7 213.090 7.83000   1
   0  -2   7 249.930 9.33000   1
   0   2  -7 216.270 7.92000   1
   0   2  -7 231.660 9.74000   1
  -5   1   5 1350.54 33.1300   1
   5  -1  -5 1693.67 64.1800   1
  -5  -1   5 1674.66 37.3700   1
  -5  -1   5 1446.66 33.4600   1
  -5   1   5 1685.25 38.2300   1
  -5   1   5 1771.26 41.6500   1
   5  -1  -5 1670.18 38.1500   1
   5   1  -5 1520.18 35.7300   1
   5   1  -5 1581.02 36.8300   1
  -5  -1   5 1600.49 36.5900   1
   5   1  -5 1637.10 36.9800   1
  -1  -1  -8 327.150 16.3700   1
  -1  -1  -8 358.310 15.3000   1
   1   1   8 328.380 31.1200   1
   1  -1   8 335.680 10.9700   1
  -1   1  -8 292.100 10.2000   1
   1   1   8 342.670 10.7800   1
   1   1   8 363.220 12.0700   1
  -1  -1  -8 342.870 10.6900   1
  -1  -1  -8 309.270 10.2300   1
   1   1   8 310.650 10.6800   1
  -1   1  -8 328.080 10.7400   1
   1  -1   8 298.750 9.83000   1
  -2   0   9 -1.4300 2.79000   1
   2  -2  -7 135.880 18.2300   1
  -2   2   7 126.220 13.9300   1
   2  -2  -7 136.040 6.28000   1
   2  -2  -7 115.890 5.52000   1
  -2   2   7 127.760 6.33000   1
  -2  -2   7 129.650 6.33000   1
   2   2  -7 125.600 6.16000   1
  -2  -2   7 138.090 6.18000   1
  -2  -2   7 143.380 7.06000   1
   2   2  -7 121.540 5.96000   1
   2   2  -7 144.730 6.74000   1
   1  -3   3 233.090 10.4700   1
  -1   3  -3 232.740 8.58000   1
  -1   3  -3 218.970 7.77000   1
   1  -3   3 215.000 8.02000   1
   1   3   3 203.720 7.54000   1
   1  -3   3 246.090 9.12000   1
  -1   3  -3 214.800 7.96000   1
  -1  -3  -3 244.060 8.30000   1
  -1  -3  -3 206.250 8.72000   1
  -1   3  -3 202.860 8.01000   1
   1  -3   3 223.620 9.36000   1
   1   3   3 209.330 7.97000   1
  -1  -3  -3 211.280 7.61000   1
   1   3   3 217.040 7.86000   1
   1   3   3 210.390 8.68000   1
  -1  -3  -3 228.560 8.20000   1
  -5  -1  -2 705.800 18.2100   1
  -5  -1  -2 749.330 20.0400   1
   5   1   2 703.960 24.1100   1
  -5   1  -2 773.210 33.8100   1
   5  -1   2 654.100 47.2400   1
  -5   1  -2 787.280 21.8500   1
   5  -1   2 733.010 19.0900   1
   5  -1   2 654.360 18.6600   1
   5  -1   2 606.730 17.1000   1
   5   1   2 670.970 17.1700   1
   0   0  -9 18.7300 29.1800   1
   0   0  -9 1.75000 3.06000   1
   0   0   9 11.9500 8.49000   1
   0   0   9 8.54000 3.55000   1
   4   2  -5 1072.69 26.6800   1
   4   2  -5 1070.22 26.5700   1
  -4  -2   5 1098.40 25.9900   1
  -4   2   5 1115.74 27.6400   1
  -4   2   5 1007.89 24.5100   1
  -4  -2   5 1110.07 26.4000   1
  -4   2   5 995.490 25.1800   1
  -4   2   5 1091.93 51.1000   1
  -4   2   5 1084.08 37.4100   1
  -4  -2   5 989.730 24.7600   1
   4   2  -5 1074.75 26.5400   1
  -4   2   5 1113.01 28.5400   1
   4  -2  -5 1045.52 25.5900   1
   4  -2  -5 967.840 25.9000   1
   1  -3  -4 3343.21 81.8400   1
  -1  -3   4 3336.62 71.6100   1
   1  -3  -4 3422.75 73.2100   1
  -1   3   4 3325.02 71.7400   1
  -1   3   4 3511.72 77.1800   1
  -1  -3   4 3532.21 77.0200   1
  -1   3   4 3480.67 73.5700   1
  -1   3   4 3387.12 72.1700   1
   1   3  -4 3316.28 71.5100   1
   1   3  -4 3106.99 66.6200   1
   1   3  -4 3291.39 70.9000   1
  -1  -3   4 3488.63 74.4100   1
   1  -3  -4 3645.58 77.9600   1
  -1   3   4 3489.73 75.5300   1
  -1  -3   4 3346.17 71.3800   1
   2   2   6 5745.33 125.110   1
   2  -2   6 6419.07 133.820   1
  -2   2  -6 5835.50 122.560   1
  -2   2  -6 5892.16 124.760   1
  -2  -2  -6 6198.20 129.880   1
   2   2   6 6026.85 127.540   1
  -2   2  -6 6000.70 125.430   1
   2   2   6 6399.51 132.410   1
   2  -2   6 5880.79 122.890   1
   2   2   6 6193.14 129.020   1
  -2  -2  -6 5967.61 127.150   1
   2  -2   6 5892.97 148.580   1
  -2  -2  -6 6108.96 127.230   1
  -4   0   8 693.020 18.6800   1
   4   0  -8 704.720 18.6300   1
  -4   0   8 699.700 18.5700   1
   4   0  -8 797.170 20.5400   1
  -2   0  -8 1179.93 28.7300   1
  -2   0  -8 1316.92 48.6100   1
  -2   0  -8 1192.61 37.8300   1
   2   0   8 1266.69 31.7200   1
   2   0   8 1248.91 30.6900   1
  -2   0  -8 1305.18 30.4500   1
   1  -1  -9 535.260 25.6900   1
   1  -1  -9 496.150 14.8200   1
  -1  -1   9 589.580 15.8000   1
   1   1  -9 540.840 15.1800   1
  -1  -1   9 490.980 13.9200   1
  -1   1   9 619.420 23.2000   1
   1   1  -9 567.570 16.6700   1
   1   1  -9 556.480 15.6700   1
  -1   1   9 566.370 16.2400   1
   1  -1  -9 536.330 15.5100   1
   6   0  -2 1449.21 41.8700   1
  -6   0   2 1539.10 36.1200   1
  -6   0   2 1492.47 34.3500   1
   6   0  -2 1465.07 33.5300   1
   4   2   3 0.67000 5.01000   1
   4   2   3 4.26000 3.78000   1
  -4  -2  -3 -0.8600 3.02000   1
  -4  -2  -3 -1.0800 4.24000   1
  -4   2  -3 -2.9900 3.89000   1
  -4   2  -3 -0.4000 4.21000   1
  -4  -2  -3 -0.2900 4.29000   1
   4  -2   3 -0.8900 4.86000   1
  -5  -1   6 637.570 16.7100   1
   5  -1  -6 791.870 19.8400   1
  -5  -1   6 810.120 19.8900   1
   5  -1  -6 844.750 43.7700   1
   5   1  -6 755.400 19.7600   1
  -5  -1   6 769.730 19.8400   1
  -5   1   6 760.700 19.9100   1
   5   1  -6 815.380 20.9100   1
   5  -1  -6 764.050 20.5700   1
   5   1  -6 679.580 18.7500   1
   6   0  -1 8.03000 11.7300   1
  -6   0   3 -0.6700 4.27000   1
  -1   3  -4 1542.65 35.3400   1
   1  -3   4 1788.43 40.8800   1
   1   3   4 1602.67 36.7500   1
   1  -3   4 1666.75 42.4700   1
   1   3   4 1665.70 38.1000   1
   1  -3   4 1514.55 34.8900   1
   1   3   4 1635.42 36.8900   1
  -1   3  -4 1674.39 38.3400   1
   1   3   4 1610.85 37.4100   1
  -1  -3  -4 1562.25 38.2400   1
   1   3   4 1543.78 35.9100   1
  -1  -3  -4 1620.82 36.5900   1
   1  -3   4 1556.43 36.1200   1
  -1  -3  -4 1528.39 34.6700   1
  -1   3  -4 1513.72 34.6200   1
  -3  -3   1 1262.23 29.2000   1
   3   3  -1 1262.08 29.3500   1
  -3  -3   1 1233.62 28.7300   1
  -3  -3   1 1218.77 29.5200   1
   3   3  -1 1243.03 29.8100   1
  -3  -3   1 1319.65 31.1000   1
   3   3  -1 1295.96 31.5400   1
   3   3  -1 1238.36 29.3300   1
  -3   3   1 1355.79 31.3600   1
  -3   3   1 1310.65 35.4000   1
   3  -3  -1 1225.19 41.8800   1
   3  -3  -1 1317.18 31.5800   1
  -3   3   1 1208.73 28.8100   1
   3  -3  -1 1299.05 30.9000   1
  -3   3   1 1295.18 31.2100   1
  -5   1  -3 6756.65 160.020   1
  -5   1  -3 6793.87 142.680   1
   5  -1   3 7260.46 211.560   1
   5   1   3 6887.48 211.380   1
   5   1   3 7244.10 210.880   1
   5  -1   3 6638.10 137.850   1
   5   1   3 7240.66 210.640   1
   5  -1   3 6800.13 140.810   1
  -5  -1  -3 7780.26 228.610   1
  -3  -3   0 1576.77 35.5500   1
   3   3   0 1470.45 33.9700   1
   3   3   0 1556.01 35.2000   1
  -3  -3   0 1529.60 35.0200   1
   3   3   0 1535.88 36.1200   1
  -3  -3   0 1553.02 35.5100   1
  -3  -3   0 1531.79 36.8500   1
   3  -3   0 1511.57 48.3700   1
  -3   3   0 1533.51 36.3200   1
  -3   3   0 1471.50 34.3800   1
   3  -3   0 1559.43 36.5200   1
  -3   3   0 1543.71 36.0600   1
   3  -3   0 1548.20 36.5600   1
  -3   3   0 1589.42 39.8800   1
   3   3  -2 4308.52 90.4500   1
   3   3  -2 4310.03 91.9400   1
   3   3  -2 4035.85 86.4000   1
  -3  -3   2 4353.82 92.1500   1
  -3  -3   2 4249.95 89.7500   1
  -3  -3   2 4153.10 88.0200   1
  -3  -3   2 4363.57 92.8200   1
  -3   3   2 4577.14 96.8500   1
  -3   3   2 4449.83 94.0400   1
   3  -3  -2 4561.18 96.8900   1
  -3   3   2 4182.89 89.3000   1
   3  -3  -2 4317.84 91.6200   1
   3  -3  -2 3916.15 97.1100   1
  -3   3   2 4247.15 89.1000   1
  -3   3   2 4434.76 99.6500   1
   6   0   0 1769.79 40.3000   1
  -6   0   0 1635.58 37.3600   1
  -6   0   0 1711.34 41.1200   1
   6   0   0 1801.03 54.0000   1
  -4  -2   6 2431.45 53.6600   1
  -4  -2   6 2676.88 58.0800   1
   4   2  -6 2730.65 59.3400   1
  -4   2   6 2549.69 71.1800   1
  -4   2   6 2483.61 56.0700   1
   4   2  -6 2431.64 53.2000   1
  -4   2   6 2643.10 57.8600   1
   4  -2  -6 2525.09 56.3100   1
  -4   2   6 2534.87 57.3700   1
  -4  -2   6 2733.39 59.0000   1
   4  -2  -6 2642.85 58.2500   1
   4   2  -6 2588.90 56.6600   1
   6   0  -4 3889.00 89.0300   1
  -6   0   4 4026.70 85.2400   1
   6   0  -4 3916.70 82.8500   1
  -6   0   4 4004.81 84.8400   1
  -1   3   5 1538.33 35.0300   1
  -1   3   5 1757.06 39.2100   1
  -1   3   5 1750.05 40.4800   1
  -1   3   5 1746.36 39.5000   1
  -1   3   5 1648.43 40.8900   1
   1  -3  -5 1749.57 39.6400   1
  -1   3   5 1705.32 38.7700   1
   1  -3  -5 1796.04 40.3300   1
   1  -3  -5 1677.45 47.7700   1
  -1  -3   5 1530.49 35.0600   1
   1   3  -5 1628.13 37.7000   1
  -1  -3   5 1859.62 42.9600   1
  -1  -3   5 1806.43 41.2100   1
   1   3  -5 1587.60 36.6200   1
   1   3  -5 1714.73 38.6800   1
  -4   0  -6 2912.77 63.7100   1
  -4   0  -6 2580.67 67.5600   1
   4   0   6 2386.09 82.9700   1
   4   0   6 2742.16 60.4700   1
  -4   0  -6 2558.92 55.7100   1
  -3  -3  -1 1440.29 34.1700   1
   3   3   1 1462.46 33.8600   1
  -3  -3  -1 1480.28 34.0700   1
   3   3   1 1489.43 33.9800   1
   3   3   1 1477.06 35.1500   1
  -3  -3  -1 1498.71 34.1500   1
  -3  -3  -1 1533.95 35.4200   1
  -3   3  -1 1545.43 38.6100   1
   3  -3   1 1552.99 48.8100   1
  -3   3  -1 1397.25 35.9300   1
   3  -3   1 1428.69 34.2100   1
  -3   3  -1 1452.83 34.0200   1
   3  -3   1 1585.75 37.5900   1
   3  -3   1 1543.94 36.1600   1
  -3   3  -1 1448.18 34.0600   1
  -3  -3   3 725.030 18.8400   1
   3   3  -3 768.680 19.3400   1
  -3   3   3 789.610 24.9800   1
   3  -3  -3 752.590 32.0400   1
   3  -3  -3 735.460 19.6700   1
  -3   3   3 767.450 20.0600   1
  -3  -3   3 742.300 18.6000   1
  -3   3   3 765.250 20.4100   1
  -3   3   3 731.270 19.5000   1
  -3  -3   3 798.100 20.7600   1
   3   3  -3 742.940 19.4900   1
   3   3  -3 674.710 18.2000   1
   3  -3  -3 839.420 21.7200   1
  -3  -3   3 695.820 19.7200   1
  -3   3   3 699.470 19.0400   1
   3  -1   7 180.590 8.42000   1
  -3   1  -7 171.370 7.38000   1
  -3   1  -7 251.470 36.9300   1
   3   1   7 213.310 22.8100   1
  -3  -1  -7 175.960 11.4100   1
  -3  -1  -7 198.580 8.65000   1
   3   1   7 176.250 8.27000   1
  -3  -1  -7 192.660 9.27000   1
  -3   1  -7 201.570 9.03000   1
   2  -2  -8 1570.49 48.2300   1
  -2   2   8 1546.33 48.3900   1
  -2   2   8 1597.48 50.4400   1
  -2   2   8 1591.73 55.6000   1
   2  -2  -8 1454.25 56.8200   1
   2  -2  -8 1538.13 47.4300   1
   2   2  -8 1480.91 45.5000   1
  -2  -2   8 1412.77 44.1600   1
  -2  -2   8 1590.47 48.9500   1
  -2  -2   8 1558.18 48.3300   1
   2   2  -8 1468.76 45.4700   1
   2   2  -8 1511.32 46.6600   1
   0   2   8 1357.23 44.1200   1
   0  -2  -8 1262.99 47.3000   1
   0   2   8 1329.37 48.4600   1
   0  -2  -8 1224.51 38.6100   1
   0  -2  -8 1308.86 40.9200   1
   0   2   8 1280.44 40.7100   1
   0  -2  -8 1260.74 40.1000   1
   0  -2   8 1328.79 41.8000   1
   0   2  -8 1244.08 39.8100   1
   0   2  -8 1271.78 40.4400   1
   0   2  -8 1297.59 40.3700   1
   0  -2   8 1201.66 38.0000   1
  -3  -1   9 50.1100 4.32000   1
  -3   1   9 56.1600 20.0000   1
  -3  -1   9 66.4600 5.14000   1
   3   1  -9 57.5800 4.45000   1
   3  -1  -9 68.1300 5.40000   1
   3   1  -9 62.3900 4.74000   1
   3  -1  -9 61.3400 5.46000   1
   3   1  -9 54.2000 4.98000   1
  -3   1   9 65.7200 4.91000   1
  -6   0  -1 1.42000 7.39000   1
   6   0   1 9.96000 15.8400   1
  -6   0  -1 -0.1700 2.82000   1
   6   0  -5 4.10000 6.94000   1
  -6   0   5 3.51000 3.23000   1
  -4  -2  -4 1466.37 45.2600   1
  -4   2  -4 1554.00 48.0500   1
   4   2   4 1442.66 47.2100   1
   4  -2   4 1518.72 47.7500   1
   4   2   4 1583.01 48.8300   1
  -4   2  -4 1388.34 43.9200   1
  -4   2  -4 1330.85 41.1700   1
  -4   2  -4 1543.09 49.2000   1
  -4  -2  -4 1335.50 41.5900   1
   4   2   4 1464.63 45.1200   1
  -4  -2  -4 1581.08 49.1900   1
  -4   2  -4 1398.26 50.4500   1
   4  -2   4 1357.27 42.7400   1
  -5  -1   7 4705.08 128.320   1
   5  -1  -7 4265.68 150.880   1
   5   1  -7 5010.12 137.460   1
  -5   1   7 4285.10 126.320   1
  -5  -1   7 4545.06 133.690   1
  -5   1   7 4921.21 135.290   1
  -5  -1   7 4779.84 130.800   1
   5  -1  -7 4892.14 134.020   1
   5  -1  -7 4752.94 130.610   1
  -5   1   7 3826.77 112.990   1
   5   1  -7 4561.35 134.450   1
   5   1  -7 4704.93 129.260   1
  -1   1  -9 2943.71 88.1700   1
  -1  -1  -9 3003.51 94.1500   1
   1   1   9 2881.29 113.740   1
  -1  -1  -9 2666.15 80.4200   1
  -1   1  -9 2703.51 81.5400   1
   1   1   9 2858.41 88.1800   1
   1   1   9 2742.42 84.1200   1
  -1  -1  -9 2851.11 85.1100   1
   1  -1   9 2519.13 76.0700   1
   1   1   9 2971.99 89.1900   1
   1  -1   9 3023.31 90.6300   1
  -1  -1  -9 2840.08 93.6400   1
  -3   3  -2 2080.31 63.6000   1
  -3   3  -2 1885.55 57.6000   1
   3  -3   2 1775.25 56.9900   1
  -3  -3  -2 1962.53 59.4500   1
  -3  -3  -2 1949.87 60.4200   1
  -3   3  -2 2062.44 64.3200   1
   3  -3   2 1933.26 69.5800   1
   3   3   2 1946.31 59.4100   1
   3  -3   2 1967.05 60.2100   1
  -3   3  -2 1948.84 59.8500   1
  -3  -3  -2 1957.05 60.4000   1
  -3  -3  -2 2001.71 60.4000   1
   3   3   2 1838.77 56.2800   1
   3  -3   2 2078.18 63.1300   1
   3   3   2 2059.17 61.9300   1
  -2   0  10 2264.63 68.7700   1
  -2   0  10 2758.56 83.1500   1
   2   0 -10 2367.74 73.0200   1
   2   0 -10 2455.71 73.8100   1
   2   0 -10 2678.12 80.9600   1
  -1  -3  -5 674.690 25.0700   1
   1   3   5 682.370 23.4900   1
   1   3   5 729.920 24.4300   1
   1  -3   5 740.020 25.2300   1
  -1   3  -5 705.070 24.1300   1
  -1  -3  -5 762.630 24.6900   1
  -1   3  -5 734.270 24.6300   1
  -1  -3  -5 765.520 25.1900   1
   1  -3   5 683.600 23.0800   1
   1  -3   5 711.510 25.4800   1
   1   3   5 757.120 24.5300   1
   1   3   5 730.890 25.1500   1
   1   3   5 767.080 25.7300   1
   1  -3   5 796.570 26.2500   1
  -3   3   4 1951.86 59.9100   1
  -3  -3   4 1920.18 58.1800   1
   3  -3  -4 1942.19 59.2000   1
  -3  -3   4 1886.38 57.0800   1
  -3   3   4 1857.88 56.4500   1
   3  -3  -4 1889.53 58.5200   1
   3  -3  -4 1909.71 69.1800   1
  -3   3   4 1857.49 60.9700   1
  -3   3   4 1887.96 57.1300   1
  -3  -3   4 1795.70 54.5700   1
   3   3  -4 1822.16 55.3200   1
  -3   3   4 1993.86 60.6700   1
   3   3  -4 1847.21 57.5500   1
   3   3  -4 1927.98 59.0500   1
  -2  -2  -7 107.630 6.41000   1
  -2  -2  -7 125.240 8.33000   1
   2   2   7 116.510 6.77000   1
   2  -2   7 117.840 6.49000   1
  -2  -2  -7 128.500 6.70000   1
  -2   2  -7 121.970 6.85000   1
   2   2   7 128.140 6.98000   1
  -2  -2  -7 130.290 7.49000   1
  -2   2  -7 112.560 7.03000   1
  -2   2  -7 109.790 6.60000   1
   2  -2   7 122.150 7.53000   1
   2   2   7 101.720 11.7600   1
   4   0  -9 -1.4700 3.90000   1
  -5   1  -4 839.980 41.4900   1
  -5   1  -4 783.490 27.0300   1
   5  -1   4 805.900 26.0800   1
   5   1   4 799.470 25.9600   1
   5  -1   4 769.980 25.8400   1
   5   1   4 818.480 26.6200   1
  -5  -1  -4 788.170 26.9800   1
   5   1   4 679.870 31.0800   1
   0   0  10 797.340 26.3200   1
   0   0  10 978.290 37.5600   1
   0   0 -10 890.770 48.1600   1
   0   0  10 958.100 31.9300   1
   0   0 -10 886.520 30.3800   1
   0   0 -10 999.550 32.7200   1
   0   0 -10 889.620 28.7500   1
  -4   2   7 66.7600 4.93000   1
   4   2  -7 61.4600 5.31000   1
  -4  -2   7 59.8900 4.45000   1
  -4   2   7 43.2000 17.9700   1
  -4  -2   7 73.1600 5.17000   1
   4  -2  -7 76.5100 5.35000   1
   4   2  -7 72.0600 4.91000   1
   4   2  -7 84.4000 5.41000   1
   4  -2  -7 63.6200 4.79000   1
  -4  -2   7 61.7600 5.12000   1
  -1   3   6 3383.61 100.130   1
  -1  -3   6 3701.69 110.050   1
   1  -3  -6 3671.23 108.310   1
  -1  -3   6 3298.34 98.2100   1
   1   3  -6 3508.58 103.810   1
  -1   3   6 3668.99 108.720   1
  -1   3   6 3278.98 98.3400   1
  -1  -3   6 3523.29 104.610   1
  -1   3   6 3604.44 106.440   1
   1   3  -6 2933.10 87.5600   1
   1  -3  -6 3188.96 94.5700   1
  -1   3   6 3696.38 111.470   1
   1  -3  -6 3288.96 108.820   1
   1   3  -6 3231.53 96.2500   1
  -1  -3   6 3523.69 103.960   1
   6   0   2 2758.94 97.8500   1
  -6   0  -2 3301.47 101.690   1
   6   0   2 2749.96 82.5600   1
   6   0   2 3024.85 89.8600   1
   2   0   9 -4.9400 3.55000   1
  -2   0  -9 -6.0000 3.24000   1
  -2   0  -9 8.62000 19.3300   1
  -2   0  -9 1.52000 3.76000   1
  -6   0   6 2031.74 61.2500   1
   6   0  -6 2066.10 65.3200   1
  -6   0   6 1696.17 54.0200   1
  -6   0   6 1943.74 59.1900   1
   6   0  -6 1854.65 56.3300   1
  -1   1  10 101.480 6.04000   1
   1  -1 -10 133.910 7.25000   1
  -1  -1  10 120.470 6.78000   1
   1  -1 -10 101.970 10.9300   1
  -1   1  10 138.750 12.6100   1
   1   1 -10 107.380 6.65000   1
   1   1 -10 116.090 6.18000   1
   1  -1 -10 102.900 6.40000   1
  -1  -1  10 106.720 6.09000   1
   1   1 -10 123.370 6.63000   1
   3  -3   3 212.380 18.5300   1
   3   3   3 194.990 8.77000   1
   3  -3   3 198.430 9.38000   1
   3  -3   3 141.780 8.16000   1
   3   3   3 192.650 8.19000   1
  -3  -3  -3 162.950 7.21000   1
  -3  -3  -3 193.470 9.10000   1
  -3   3  -3 208.540 9.80000   1
  -3   3  -3 173.890 8.35000   1
  -3   3  -3 180.190 8.14000   1
  -3  -3  -3 200.650 8.64000   1
  -3   3  -3 174.550 8.46000   1
  -3  -3  -3 199.940 8.97000   1
   3  -3   3 200.960 8.90000   1
   3   3   3 173.250 8.40000   1
  -3   3   5 1217.26 38.9800   1
   3   3  -5 1284.96 40.3600   1
  -3   3   5 1353.69 46.2500   1
   3  -3  -5 1221.46 51.2300   1
   3  -3  -5 1284.33 40.9200   1
  -3  -3   5 1334.72 41.6800   1
  -3   3   5 1156.33 36.7100   1
   3  -3  -5 1367.04 43.1800   1
  -3  -3   5 1287.40 40.2400   1
   3   3  -5 1333.25 41.1900   1
  -3   3   5 1335.26 42.2700   1
  -3  -3   5 1332.19 41.7700   1
  -3   3   5 1306.42 40.7900   1
   4   0   7 -32.480 30.7000   1
  -4   0  -7 -9.8000 12.4300   1
   4   0   7 -0.3600 3.23000   1
  -4   0  -7 -4.6800 3.26000   1
  -4  -2  -5 1183.52 37.8200   1
  -4   2  -5 911.970 34.5400   1
  -4  -2  -5 1154.54 37.1300   1
   4   2   5 974.020 35.8800   1
  -4  -2  -5 1170.05 37.4500   1
  -4   2  -5 1102.82 37.2600   1
  -4   2  -5 1053.71 56.1700   1
  -4   2  -5 988.100 32.9600   1
   4  -2   5 1103.39 35.5100   1
  -4   2  -5 1180.78 37.6400   1
   4   2   5 1159.69 37.3500   1
   4  -2   5 1072.76 34.6100   1
   4   2   5 1158.27 36.0700   1
   5  -1  -8 85.4100 5.64000   1
   5   1  -8 98.6600 6.10000   1
  -5   1   8 93.2500 5.45000   1
  -5  -1   8 80.9700 5.00000   1
   5   1  -8 114.680 6.00000   1
   5  -1  -8 80.0500 16.3200   1
  -5  -1   8 101.220 5.45000   1
  -5   1   8 90.9100 5.86000   1
  -5  -1   8 87.8600 6.84000   1
   5   1  -8 92.9500 5.72000   1
   5  -1  -8 109.030 6.36000   1
   1   3   6 2813.04 85.1500   1
   1   3   6 2985.22 88.4700   1
   1  -3   6 2957.68 90.1600   1
  -1   3  -6 2646.58 80.1700   1
  -1  -3  -6 2924.21 87.0400   1
   1  -3   6 3100.79 92.4800   1
  -1   3  -6 2568.35 77.9900   1
   1   3   6 3034.10 90.9400   1
  -1  -3  -6 2834.70 84.6200   1
  -1  -3  -6 2818.70 89.2200   1
   1  -3   6 2864.87 85.7500   1
  -1   3  -6 2969.92 88.1300   1
   1   3   6 2666.37 80.5100   1
   1   3   6 2899.33 87.0300   1
   1  -3   6 3124.74 94.5000   1
  -2   2   9 2020.11 67.1900   1
  -2   2   9 1465.98 72.6500   1
   2   2  -9 1836.76 55.8800   1
  -2   2   9 1768.60 54.2300   1
  -2  -2   9 2002.78 61.5400   1
  -2  -2   9 1909.09 58.0400   1
   2   2  -9 1801.43 55.7200   1
   2  -2  -9 2002.61 61.0100   1
  -2   2   9 1797.01 55.9200   1
   2   2  -9 1859.89 56.3700   1
  -2  -2   9 1673.21 51.0600   1
   3   1   8 112.180 6.44000   1
  -3  -1  -8 124.030 7.79000   1
  -3  -1  -8 116.520 6.41000   1
  -3   1  -8 98.5600 6.24000   1
  -3  -1  -8 140.560 10.7500   1
   3   1   8 125.330 22.5300   1
  -3   1  -8 87.1800 31.5300   1
  -3   1  -8 113.740 6.35000   1
   3  -1   8 101.020 5.78000   1
   6   0   3 -2.2000 3.20000   1
  -6   0  -3 16.1200 9.36000   1
  -5  -1  -5 1139.33 38.0400   1
   5   1   5 910.140 38.2800   1
  -5   1  -5 978.510 45.2500   1
  -5   1  -5 1065.67 34.2600   1
   5   1   5 1027.62 32.9600   1
   5  -1   5 936.540 30.8800   1
   5   1   5 1040.70 32.9600   1
  -5  -1  -5 1107.79 35.9600   1
   0  -2  -9 279.550 11.2900   1
   0  -2  -9 274.620 10.5700   1
   0   2   9 254.260 11.3700   1
   0   2  -9 276.470 10.8300   1
   0  -2   9 253.740 10.8600   1
   0   2   9 299.870 13.3300   1
   0  -2  -9 268.660 10.7700   1
   0  -2  -9 236.560 16.5300   1
   0  -2   9 294.440 12.0000   1
   0   2   9 275.510 20.2100   1
   0   2  -9 228.510 9.71000   1
   0   2  -9 275.350 11.6100   1
   3   1 -10 8.85000 3.86000   1
  -3   1  10 6.91000 17.2500   1
   3   1 -10 1.04000 2.57000   1
   3  -1 -10 8.31000 3.98000   1
  -3   1  10 3.55000 3.44000   1
   6   0  -7 5.39000 3.38000   1
  -6   0   7 -2.0800 2.97000   1
  -6   0   7 5.74000 3.30000   1
   3   3   4 577.920 19.3800   1
  -3  -3  -4 529.870 19.2400   1
  -3   3  -4 561.830 20.0800   1
   3  -3   4 594.490 29.6900   1
  -3  -3  -4 519.810 17.4300   1
   3   3   4 540.600 19.4800   1
   3  -3   4 599.140 21.0100   1
  -3   3  -4 512.890 18.8600   1
  -3  -3  -4 590.180 20.1900   1
  -3  -3  -4 561.460 19.1900   1
  -3   3  -4 590.810 20.1100   1
   3  -3   4 518.820 18.3000   1
  -4   2   8 1423.99 54.5500   1
   4   2  -8 1312.53 40.8900   1
  -4   2   8 1355.71 43.6500   1
   4  -2  -8 1392.57 43.8900   1
  -4  -2   8 1625.55 50.5100   1
   4   2  -8 1397.60 43.7200   1
   4  -2  -8 1228.30 40.7100   1
  -4  -2   8 1348.30 41.5400   1
   4   2  -8 1347.29 41.9800   1
   3  -3  -6 240.670 10.0900   1
  -3   3   6 247.750 13.8800   1
   3  -3  -6 236.680 9.65000   1
  -3   3   6 219.280 9.94000   1
  -3  -3   6 246.600 9.85000   1
  -3  -3   6 223.850 9.51000   1
  -3  -3   6 202.800 9.09000   1
   3   3  -6 234.300 9.26000   1
   3   3  -6 227.060 9.61000   1
  -3   3   6 226.930 9.85000   1
   3  -3  -6 237.090 9.81000   1
  -3   3   6 190.950 9.29000   1
  -1   3   7 1193.56 37.9700   1
  -1  -3   7 1363.08 42.4600   1
   1  -3  -7 1335.15 41.3800   1
   1  -3  -7 1296.21 40.6700   1
  -1   3   7 1448.44 46.7200   1
  -1  -3   7 1337.80 42.0000   1
  -1  -3   7 1415.08 44.4000   1
   1   3  -7 1215.87 38.8400   1
   1  -3  -7 1361.36 42.4300   1
   1   3  -7 1381.01 42.7200   1
  -1   3   7 1309.47 41.6500   1
  -1   3   7 1253.66 39.7300   1
  -1  -3   7 1202.89 38.6500   1
   2   2   8 14.9800 10.3500   1
  -2  -2  -8 6.79000 4.01000   1
  -2  -2  -8 -1.5400 4.95000   1
   2  -2   8 2.22000 2.58000   1
  -2  -2  -8 -6.1300 3.89000   1
  -2  -2  -8 5.36000 4.68000   1
  -2   2  -8 -0.2900 4.30000   1
   4   0 -10 23.3000 3.50000   1
  -4   0  10 27.9800 3.66000   1
   4   0 -10 29.1800 4.26000   1
  -4   0  10 21.6400 3.27000   1
   6   2  -2 1419.73 44.5700   1
   6   2  -2 1478.36 45.4900   1
  -6  -2   2 1377.17 42.7500   1
  -6   2   2 1423.55 43.6500   1
  -6  -2   2 1546.09 46.9900   1
  -6   2   2 1457.59 57.3000   1
  -6   2   2 1482.06 46.7000   1
  -6  -2   2 1585.12 48.7200   1
  -6   2   2 1358.34 43.0600   1
  -6  -2   2 1492.18 45.9100   1
  -1  -1 -10 116.930 11.0100   1
  -1   1 -10 100.750 5.68000   1
  -1   1 -10 83.6900 5.61000   1
   1   1  10 108.310 5.73000   1
   1  -1  10 116.250 7.23000   1
  -1  -1 -10 100.990 6.24000   1
  -1   1 -10 115.910 6.73000   1
   1  -1  10 95.2000 5.77000   1
   1   1  10 122.640 7.45000   1
  -1  -1 -10 107.070 12.1200   1
  -1  -1 -10 100.920 5.91000   1
  -6   2   1 647.260 22.7500   1
  -6   2   1 650.010 22.7400   1
  -6   2   1 722.500 36.4400   1
  -6  -2   1 707.750 23.2700   1
  -6  -2   1 678.960 22.6700   1
  -6  -2   1 648.490 21.8000   1
   6   2  -1 665.870 22.1600   1
   6   2  -3 690.040 23.8500   1
  -6   2   3 831.190 36.8100   1
  -6   2   3 743.450 25.8300   1
  -6  -2   3 827.480 26.9300   1
  -6   2   3 771.640 27.2700   1
  -6  -2   3 832.380 27.0300   1
  -6  -2   3 700.120 23.6400   1
   6   2  -3 728.690 23.6200   1
   6  -2  -3 735.670 25.3200   1
   2   0 -11 -1.0000 3.47000   1
   2   0 -11 2.34000 3.66000   1
   0  -4   0 135.760 6.62000   1
   0  -4   0 144.720 6.99000   1
   0   4   0 114.170 6.02000   1
   0  -4   0 138.590 7.04000   1
   0  -4   0 107.390 7.83000   1
   0   4   0 147.100 7.67000   1
   0   4   0 131.440 6.63000   1
  -6  -2   0 4304.48 126.530   1
  -6  -2   0 3660.45 108.140   1
   6   2   0 4179.04 123.040   1
  -6  -2   0 4024.32 118.920   1
  -6   2   0 3937.03 117.500   1
  -6   2   0 3701.56 111.620   1
  -6   2   0 4087.71 138.830   1
   0   4  -1 2669.31 79.8200   1
   0  -4   1 2665.80 79.7100   1
   0   4   1 2671.04 79.6700   1
   0  -4   1 2575.68 77.1800   1
   0  -4  -1 2757.15 82.3500   1
   0   4  -1 2760.19 82.6000   1
   0   4   1 2648.52 79.5700   1
   0  -4   1 2537.78 78.2600   1
   0  -4  -1 2562.64 77.1100   1
   0  -4   1 2900.58 86.7100   1
   0  -4  -1 2739.08 81.8800   1
   0   4  -1 2532.55 76.3700   1
   0   4   1 2436.17 73.4700   1
  -6   2   4 2000.91 61.1400   1
   6   2  -4 2022.87 61.6000   1
   6   2  -4 2098.98 64.2200   1
  -6   2   4 2067.97 64.6300   1
  -6  -2   4 2165.93 65.1900   1
  -6   2   4 2267.94 69.7800   1
  -6   2   4 2322.31 80.0000   1
  -6  -2   4 2208.67 66.3300   1
   6  -2  -4 2130.31 65.9100   1
   6   2  -4 2152.71 64.6800   1
  -4  -2  -6 1655.29 51.6100   1
   4   2   6 1741.09 53.1200   1
   4  -2   6 1509.93 47.5900   1
  -4   2  -6 1738.39 53.7100   1
   4   2   6 1528.01 53.8000   1
  -4   2  -6 1430.42 50.4200   1
  -4  -2  -6 1675.71 51.7700   1
  -4   2  -6 1785.71 85.1800   1
   4  -2   6 1501.41 47.0200   1
  -4  -2  -6 1755.38 54.5100   1
  -6   0  -4 380.600 18.6300   1
   6   0   4 405.420 14.5900   1
   6   0   4 385.750 14.4300   1
   0   0 -11 -3.9400 3.44000   1
   0   0 -11 4.98000 3.75000   1
  -5  -1   9 1427.62 45.1400   1
   5   1  -9 1464.30 47.7200   1
  -5   1   9 1564.37 48.5000   1
   5  -1  -9 1730.76 53.0300   1
   5   1  -9 1629.37 50.2600   1
  -5  -1   9 1572.67 48.9500   1
   5   1  -9 1693.81 51.8200   1
   5   1  -9 1374.57 43.8700   1
   5  -1  -9 1911.76 58.1400   1
   0   4   2 246.050 9.98000   1
   0  -4   2 282.140 11.4500   1
   0  -4  -2 295.600 11.5600   1
   0  -4  -2 285.060 10.9300   1
   0   4  -2 290.220 11.7700   1
   0  -4   2 278.070 11.0600   1
   0  -4  -2 257.860 10.0300   1
   0  -4   2 249.770 11.7000   1
   0  -4   2 233.350 9.53000   1
   0   4   2 285.850 11.1200   1
   0   4  -2 296.890 11.5300   1
   0   4   2 290.330 11.8800   1
   0   4  -2 262.510 10.7200   1
  -1  -3  -7 674.420 26.2900   1
  -1  -3  -7 778.510 26.0500   1
   1  -3   7 792.970 26.8400   1
  -1  -3  -7 764.740 25.5300   1
   1  -3   7 768.540 26.1100   1
   1   3   7 729.070 25.7400   1
  -1   3  -7 782.570 25.7800   1
   1  -3   7 716.020 24.4900   1
   1   3   7 788.690 25.5400   1
   1   3   7 777.190 26.1800   1
   1  -3   7 750.520 27.0800   1
  -2   0 -10 20.6000 3.74000   1
  -2   0 -10 9.63000 3.93000   1
  -2   0 -10 32.0900 19.1900   1
   6   0  -8 218.240 9.16000   1
  -6   0   8 194.490 8.54000   1
   6   0  -8 193.120 9.54000   1
  -6   0   8 206.240 8.53000   1
   3  -3   5 309.850 12.5100   1
  -3  -3  -5 313.720 12.1700   1
  -3   3  -5 316.930 12.3300   1
   3  -3   5 283.240 11.7800   1
  -3   3  -5 340.650 13.3500   1
   3   3   5 341.480 12.2200   1
   3  -3   5 335.890 21.8400   1
  -3  -3  -5 310.430 11.5700   1
   3   3   5 251.910 10.8300   1
   1  -1 -11 46.3300 4.99000   1
   1   1 -11 35.4600 4.36000   1
   1   1 -11 42.3600 4.55000   1
   1   1 -11 41.7600 3.88000   1
   1  -1 -11 29.6600 3.34000   1
  -1  -1  11 53.5100 5.04000   1
   1  -1 -11 20.4100 8.49000   1
  -1   1  11 49.6200 10.2000   1
  -6  -2  -1 328.680 12.6200   1
  -6   2  -1 348.670 32.2000   1
  -6   2  -1 299.580 12.6300   1
  -6  -2  -1 288.880 11.6500   1
   6   2   1 297.250 11.2500   1
  -6   2  -1 263.700 11.4800   1
   4   0   8 1657.65 51.8600   1
  -4   0  -8 1420.77 45.0500   1
  -4   0  -8 1680.86 59.7300   1
   4   0   8 1744.44 53.5000   1
  -4   0  -8 1777.11 54.3700   1
   7  -1  -2 435.570 18.1200   1
   7   1  -2 525.540 18.1400   1
  -7  -1   2 492.150 17.3600   1
  -7   1   2 537.540 18.9000   1
   7   1  -2 465.230 19.5100   1
  -7   1   2 547.550 22.1800   1
   7  -1  -2 582.650 38.8000   1
  -7  -1   2 519.060 18.5000   1
  -7  -1   2 523.580 18.3400   1
   3  -3  -7 177.150 8.05000   1
  -3   3   7 146.680 7.32000   1
   3  -3  -7 177.940 8.56000   1
  -3   3   7 186.080 13.0100   1
  -3   3   7 152.420 7.16000   1
   3   3  -7 147.890 7.47000   1
   3   3  -7 164.880 7.78000   1
  -3  -3   7 178.770 8.39000   1
  -3  -3   7 173.260 7.98000   1
   3  -3  -7 162.630 7.62000   1
   5   1   6 9.32000 3.36000   1
  -5  -1  -6 13.4000 3.40000   1
  -5  -1  -6 3.06000 6.18000   1
  -5   1  -6 11.1200 3.18000   1
   5   1   6 14.3900 3.58000   1
   5  -1   6 9.12000 3.40000   1
   7   1  -3 1967.22 59.6700   1
   7  -1  -3 1990.12 60.6800   1
  -7  -1   3 1831.16 56.0700   1
  -7   1   3 1711.41 54.6000   1
  -7  -1   3 1972.96 59.7300   1
   7   1  -3 1727.37 55.8900   1
  -7   1   3 2053.04 65.2400   1
   7  -1  -3 1882.31 80.5000   1
  -7  -1   3 2054.77 62.7700   1
  -6   2   5 212.390 15.1300   1
  -6   2   5 248.410 10.7200   1
  -6  -2   5 285.930 10.8600   1
  -6   2   5 253.680 10.7000   1
   6  -2  -5 260.590 10.7700   1
  -6  -2   5 278.900 10.8000   1
   6   2  -5 246.360 10.7500   1
   6  -2  -5 244.170 10.6900   1
  -6   2   5 244.530 11.6200   1
   6   2  -5 259.820 10.2500   1
   6   2  -5 231.660 9.92000   1
  -7  -1   1 1715.05 52.7200   1
   7  -1  -1 1465.56 69.3800   1
  -7   1   1 1852.72 61.2700   1
  -7  -1   1 1710.29 52.4400   1
  -7   1   1 1580.28 49.5100   1
  -7  -1   1 1646.91 50.8200   1
   7   1  -1 1733.94 53.3100   1
   7  -1  -1 1631.79 49.8400   1
  -5   3   2 0.53000 2.59000   1
  -5  -3   2 10.4800 3.78000   1
  -5   3   2 10.1600 3.33000   1
  -5   3   2 -28.970 11.1300   1
  -5  -3   2 6.70000 3.52000   1
  -5  -3   1 13.6000 3.95000   1
  -5   3   1 8.52000 2.94000   1
   5   3  -1 4.79000 2.86000   1
  -5  -3   1 7.08000 3.85000   1
  -5   3   1 3.43000 3.05000   1
   2  -2 -10 1364.00 40.1500   1
   2  -2 -10 1341.23 39.7000   1
   2   2 -10 1368.62 39.8700   1
  -2  -2  10 1474.18 42.9700   1
   2   2 -10 1282.43 37.8600   1
  -2  -2  10 1500.32 44.1900   1
  -2   2  10 1361.88 45.7300   1
   2   2 -10 1327.75 39.9400   1
  -2   2  10 1313.75 40.3000   1
   0  -4   3 1079.57 34.2700   1
   0  -4   3 1074.78 32.2700   1
   0   4   3 1028.52 31.5800   1
   0  -4  -3 1124.65 34.3700   1
   0   4  -3 1134.35 33.7200   1
   0   4   3 1087.29 32.3500   1
   0  -4  -3 1045.14 31.2300   1
   0   4  -3 1175.73 35.3900   1
   0   4   3 1148.93 34.5400   1
   0  -4   3 1093.34 32.4800   1
   0  -4  -3 1126.56 33.4100   1
   4  -2  -9 475.540 16.1500   1
  -4   2   9 452.460 16.1700   1
  -4   2   9 469.900 26.3900   1
  -4  -2   9 544.890 18.3100   1
   4   2  -9 497.030 17.1400   1
  -4  -2   9 527.590 17.2600   1
   4   2  -9 475.200 15.9900   1
  -7   1   4 488.020 17.9800   1
   7  -1  -4 423.140 31.6100   1
  -7  -1   4 444.760 15.3600   1
   7  -1  -4 467.190 15.8300   1
   7   1  -4 431.670 14.6000   1
   7   1  -4 395.700 15.5700   1
  -7  -1   4 461.230 15.4200   1
  -7  -1   4 415.430 14.2700   1
  -7   1   4 437.220 15.1100   1
   1   3  -8 1006.13 31.2700   1
  -1  -3   8 1203.45 37.2000   1
   1   3  -8 1131.44 33.5700   1
  -1   3   8 1136.26 34.5400   1
   1  -3  -8 1192.20 35.0300   1
  -1  -3   8 1228.88 36.8000   1
   1  -3  -8 1032.52 34.0300   1
  -1  -3   8 1259.01 37.3200   1
  -1   3   8 1037.07 35.7700   1
   1  -3  -8 1181.82 35.4200   1
  -1   3   8 1168.57 36.7200   1
  -1  -3   8 980.610 30.3500   1
  -2   4   1 228.370 10.4200   1
   2  -4  -1 198.420 14.1800   1
   2  -4  -1 211.850 9.45000   1
  -2   4   1 192.780 7.83000   1
   2  -4  -1 212.370 8.62000   1
  -2  -4   1 226.550 9.38000   1
  -2  -4   1 207.060 8.60000   1
  -2   4   1 224.610 9.30000   1
   2  -4  -1 223.480 9.50000   1
  -2  -4   1 195.870 8.58000   1
  -2   4   1 235.330 9.11000   1
   2   4  -1 232.320 9.14000   1
  -3  -1  -9 2483.36 69.4900   1
  -3  -1  -9 2392.57 71.0500   1
  -3   1  -9 2329.12 89.7200   1
   3   1   9 2413.14 94.9400   1
   3  -1   9 2081.37 59.8300   1
  -3   1  -9 2328.29 65.8700   1
  -3  -1  -9 2434.32 73.3300   1
   5   3  -3 316.290 11.4300   1
  -5   3   3 342.080 19.5200   1
  -5  -3   3 386.790 13.9500   1
  -5   3   3 342.120 12.5000   1
  -5   3   3 311.150 11.8900   1
  -5  -3   3 368.480 12.8700   1
   5   3  -3 317.270 12.0200   1
  -5   3   3 329.180 12.9200   1
  -5   3   3 366.570 14.4700   1
  -2  -4   0 118.160 6.50000   1
  -2   4   0 114.560 7.36000   1
   2  -4   0 111.300 11.6900   1
   2  -4   0 121.940 6.83000   1
  -2   4   0 98.0200 5.18000   1
  -2  -4   0 104.600 5.93000   1
   2   4   0 92.5100 5.56000   1
   2  -4   0 110.030 5.54000   1
   2  -4   0 110.700 6.76000   1
  -2  -4   0 97.0100 5.48000   1
   2   4   0 108.540 5.82000   1
  -2   4   0 105.750 5.40000   1
   5  -3   0 1877.02 54.2400   1
  -5   3   0 1798.98 53.3600   1
  -5  -3   0 1909.65 54.2200   1
  -5   3   0 1813.70 52.4600   1
  -5  -3   0 1866.58 53.1200   1
  -5   3   0 1791.04 52.1600   1
   5   3   0 1817.61 51.9600   1
  -5   3   0 1815.78 58.5700   1
   7  -1   0 -22.850 26.8500   1
  -7   1   0 5.56000 10.9300   1
  -7  -1   0 -8.7600 3.97000   1
  -7  -1   0 -0.2100 2.61000   1
   7   1   0 2.44000 3.30000   1
   0  -2  10 1968.05 57.3300   1
   0  -2 -10 1716.05 49.8800   1
   0   2  10 1892.29 75.9000   1
   0  -2 -10 1892.25 54.4900   1
   0  -2 -10 1731.23 60.5100   1
   0   2  10 1985.24 58.6100   1
   0  -2 -10 1899.41 54.0800   1
   0  -2 -10 2092.53 60.0600   1
   0   2 -10 1864.15 53.5100   1
   0   2 -10 1650.94 49.3400   1
   0   2  10 1676.56 49.0200   1
  -2  -4   2 113.000 6.12000   1
   2  -4  -2 125.250 6.60000   1
  -2   4   2 117.760 7.92000   1
  -2  -4   2 97.5700 5.17000   1
  -2   4   2 108.630 5.84000   1
   2   4  -2 113.450 5.94000   1
  -2   4   2 114.400 5.63000   1
  -2   4   2 120.290 6.16000   1
  -2  -4   2 104.020 6.12000   1
   2  -4  -2 121.390 6.60000   1
  -2   4   2 94.9600 5.06000   1
   3   1 -11 2845.34 79.4300   1
   3  -1 -11 2957.13 81.4800   1
   3  -1 -11 3021.47 82.1500   1
  -3  -1  11 3038.98 83.1600   1
   3   1 -11 2539.46 73.5300   1
  -3   1  11 2966.94 82.0200   1
  -3   1  11 3031.18 94.0300   1
   3   1 -11 2871.84 80.0400   1
  -2   4  -1 1447.55 41.8000   1
   2  -4   1 1256.92 39.4200   1
   2   4   1 1463.71 43.0400   1
  -2   4  -1 1524.72 44.6000   1
   2  -4   1 1416.70 48.3000   1
   2  -4   1 1490.08 44.2400   1
  -2   4  -1 1231.19 36.6100   1
  -2  -4  -1 1428.68 41.3100   1
   2   4   1 1395.35 40.9300   1
   2  -4   1 1508.10 44.1900   1
  -2  -4  -1 1470.08 42.7100   1
   2   4   1 1429.35 41.3300   1
   6  -2   2 303.890 11.9100   1
   6   2   2 346.820 12.3800   1
  -6   2  -2 323.180 28.5600   1
  -6  -2  -2 280.830 10.8800   1
  -6  -2  -2 345.120 12.3200   1
   5   3  -4 44.9800 4.51000   1
  -5  -3   4 60.7800 4.67000   1
  -5   3   4 53.0600 4.23000   1
   5  -3  -4 72.5200 5.57000   1
  -5   3   4 60.3900 6.42000   1
  -5  -3   4 55.6600 4.79000   1
  -5   3   4 39.2300 13.9000   1
  -5   3   4 48.6900 3.73000   1
   5   3  -4 52.7100 4.62000   1
  -5   3   4 53.9600 3.88000   1
  -5   3   4 68.7200 4.72000   1
  -2  -2  -9 493.610 16.8100   1
   2  -2   9 493.430 16.8200   1
   2   2   9 438.750 23.5500   1
  -2  -2  -9 442.790 19.3400   1
   2   2   9 492.680 16.7700   1
   2  -2   9 393.650 14.3100   1
  -2   2  -9 464.510 15.7300   1
  -2  -2  -9 434.510 14.5700   1
   7  -1  -5 1703.66 49.2600   1
   7   1  -5 1751.21 50.1300   1
  -7   1   5 1693.41 49.2200   1
   7   1  -5 1649.74 49.9500   1
  -7   1   5 1833.92 53.4900   1
  -7  -1   5 1750.75 49.8500   1
   7  -1  -5 1704.31 68.9100   1
  -7  -1   5 1695.05 49.2000   1
  -7  -1   5 1805.60 51.6000   1
   6   2  -6 6.02000 3.57000   1
   6  -2  -6 1.42000 3.30000   1
  -6  -2   6 0.86000 3.50000   1
  -6   2   6 -43.410 21.1900   1
   6   2  -6 2.85000 3.43000   1
   4   0 -11 -3.4000 3.54000   1
  -5  -3  -1 1198.97 35.4800   1
  -5   3  -1 1133.41 34.2800   1
   5   3   1 1220.74 36.1200   1
  -5   3  -1 1103.27 39.5000   1
   5  -3   1 1157.14 34.7500   1
  -5   3  -1 1032.65 32.0700   1
  -5  -3  -1 1107.17 32.6200   1
  -5   3  -1 1066.24 33.3300   1
  -2   4   3 249.850 10.6200   1
  -2   4   3 274.600 10.8600   1
   2   4  -3 279.110 10.1000   1
  -2   4   3 285.810 10.4800   1
  -2   4   3 295.720 12.5300   1
   2  -4  -3 290.160 10.8700   1
  -2  -4   3 276.930 10.4700   1
   2  -4  -3 285.860 10.8800   1
  -2  -4   3 275.200 10.4800   1
  -2   4   3 245.740 9.83000   1
  -6   0  -5 9.55000 10.6800   1
   6   0   5 1.53000 2.82000   1
   6   0   5 -3.0100 3.00000   1
   0   4   4 13.3100 3.34000   1
   0   4  -4 11.0000 3.37000   1
   0  -4  -4 13.2600 4.11000   1
   0   4   4 18.0700 5.26000   1
   0  -4   4 11.9200 3.09000   1
   0   4   4 8.60000 2.88000   1
   0  -4   4 10.7700 4.28000   1
   0  -4  -4 6.50000 3.16000   1
   0   4   4 9.05000 3.25000   1
   0  -4   4 2.99000 4.30000   1
   0  -4   4 17.7800 4.66000   1
   0   4   4 16.0000 3.48000   1
   2  -4   2 535.950 22.6600   1
  -2   4  -2 609.610 19.9200   1
   2  -4   2 587.890 19.2600   1
   2   4   2 644.940 21.3900   1
   2  -4   2 516.660 17.3600   1
  -2  -4  -2 600.390 18.9300   1
   2   4   2 618.560 19.8700   1
  -2   4  -2 611.290 20.2600   1
  -2  -4  -2 627.170 20.1600   1
   2  -4   2 598.840 19.8700   1
   7  -1   1 -0.3000 2.43000   1
   7   1   1 -3.3600 3.00000   1
  -7  -1  -1 -1.7200 2.66000   1
  -7  -1  -1 5.39000 4.75000   1
  -7   1  -1 -0.0100 11.2800   1
  -6   0   9 1.24000 2.85000   1
   6   0  -9 -3.2800 3.05000   1
  -4   2  -7 1502.78 81.0600   1
  -4  -2  -7 1700.68 49.5700   1
  -4  -2  -7 1687.63 49.5600   1
   4   2   7 1777.79 51.0200   1
   4  -2   7 1440.39 42.5100   1
  -4   2  -7 1792.63 51.6600   1
   4  -2   7 1884.66 55.0400   1
  -3   3  -6 425.990 15.0900   1
   3  -3   6 404.970 24.2500   1
  -3  -3  -6 414.130 14.0600   1
   3   3   6 406.790 16.2300   1
  -3  -3  -6 454.790 15.6800   1
   3  -3   6 439.280 15.3800   1
  -3   3  -6 450.450 15.7100   1
   3  -3   6 353.510 13.2000   1
   3   3   6 436.020 14.2000   1
   3   3   6 441.120 15.6000   1
   3  -3  -8 0.77000 3.14000   1
  -3   3   8 -2.2500 3.57000   1
   3   3  -8 7.52000 3.58000   1
  -3   3   8 -2.3600 9.58000   1
  -3  -3   8 9.02000 4.10000   1
   3   3  -8 2.94000 3.24000   1
   5   1 -10 236.270 9.54000   1
  -5  -1  10 237.500 10.9400   1
   5  -1 -10 239.660 9.65000   1
   5   1 -10 262.780 10.2100   1
  -5   1  10 213.670 9.05000   1
  -5   1  10 212.750 9.28000   1
  -5  -1  10 223.850 8.49000   1
   5   1 -10 231.470 9.95000   1
   5  -1 -10 238.740 9.94000   1
   5   3  -5 153.640 7.35000   1
  -5  -3   5 162.230 7.43000   1
  -5   3   5 171.920 8.14000   1
   5  -3  -5 170.780 8.13000   1
  -5  -3   5 180.020 7.66000   1
  -5   3   5 143.650 15.2700   1
   5   3  -5 167.280 7.46000   1
  -5   3   5 87.7800 29.8500   1
  -5   3   5 164.590 7.85000   1
   5  -3  -5 145.010 7.11000   1
  -5   3   5 167.480 7.72000   1
  -1  -1 -11 1381.90 41.0800   1
  -1   1 -11 1407.93 43.3500   1
  -1   1 -11 1497.39 43.1800   1
   1   1  11 1382.36 40.4600   1
  -1  -1 -11 1551.77 56.7600   1
  -1   1 -11 1346.26 64.9800   1
   1   1  11 1579.91 47.0800   1
  -1   1 -11 1649.46 48.3600   1
  -1  -1 -11 1563.04 44.9700   1
   1  -1  11 1647.09 47.9700   1
   1   3   8 709.050 26.8000   1
  -1  -3  -8 572.060 21.6100   1
  -1  -3  -8 697.720 22.4600   1
   1  -3   8 700.350 23.9300   1
   1  -3   8 755.070 24.0900   1
  -1  -3  -8 687.310 21.1900   1
  -1   3  -8 748.100 23.4900   1
   1  -3   8 555.360 18.6600   1
   1   3   8 692.800 22.1000   1
   1   3   8 704.210 22.9500   1
  -7   1   6 292.320 11.3500   1
  -7  -1   6 329.310 12.0800   1
  -7   1   6 327.010 12.0100   1
   7   1  -6 342.720 12.2500   1
   7  -1  -6 314.280 11.5400   1
  -7  -1   6 376.350 13.3200   1
   7  -1  -6 349.270 26.5400   1
  -7  -1   6 315.160 12.9300   1
   7   1  -6 343.840 13.7900   1
  -2   0  12 1292.76 38.8500   1
   2   0 -12 1038.51 32.3200   1
   2   0 -12 1315.46 38.4900   1
   2   0 -12 1130.18 36.0200   1
  -2   0  12 1380.52 53.6800   1
   2   0 -12 1351.77 41.1000   1
   2  -4  -4 367.160 13.2000   1
  -2   4   4 339.200 12.7200   1
   2   4  -4 373.530 13.1400   1
  -2  -4   4 376.790 13.3400   1
  -2   4   4 335.890 12.5900   1
  -2   4   4 335.870 12.3300   1
  -2   4   4 404.590 15.7800   1
  -2   4   4 312.490 12.1800   1
  -2  -4   4 353.510 12.7700   1
   2  -4  -4 385.700 13.6000   1
  -5   3  -2 945.530 28.6800   1
  -5   3  -2 896.990 33.3700   1
  -5  -3  -2 881.180 26.6300   1
  -5  -3  -2 974.460 29.1900   1
   5   3   2 898.640 27.8200   1
   5  -3   2 919.160 28.6200   1
  -5  -3  -2 963.100 29.1600   1
   6   2   3 31.4700 4.05000   1
  -6   2  -3 22.6300 15.9000   1
   6  -2   3 25.8800 2.80000   1
  -6  -2  -3 20.9900 4.80000   1
  -6   2  -3 -32.160 23.7800   1
  -6  -2  -3 20.7100 4.71000   1
   6  -2   3 34.6400 3.35000   1
  -5   1  -7 1129.44 50.6600   1
  -5  -1  -7 1343.82 42.2200   1
  -5  -1  -7 1229.26 36.8400   1
   5   1   7 1240.66 36.9000   1
   5  -1   7 1106.74 34.6800   1
  -5   1  -7 1280.77 37.5200   1
   2  -4   3 2236.21 70.3400   1
  -2  -4  -3 2358.90 66.3700   1
  -2   4  -3 2291.18 64.9600   1
   2  -4   3 2237.79 63.3200   1
   2   4   3 2290.43 64.1700   1
   2   4   3 2386.47 68.1400   1
  -2   4  -3 2215.72 63.1000   1
   2  -4   3 2332.47 66.5500   1
   2  -4   3 2400.03 67.9400   1
  -2  -4  -3 2321.27 65.2400   1
   6  -2  -7 272.400 10.3600   1
   6   2  -7 263.580 10.5500   1
  -6   2   7 244.670 10.4100   1
   6   2  -7 266.570 10.0200   1
  -6   2   7 281.700 26.7800   1
   6   2  -7 260.140 10.3200   1
  -6   2   7 261.930 11.8100   1
  -6   2   7 268.280 11.2300   1
  -6  -2   7 220.990 8.72000   1
  -6  -2   7 264.640 9.75000   1
   6  -2  -7 273.010 11.2900   1
   7  -1   2 112.720 6.50000   1
   7   1   2 141.620 6.66000   1
   7  -1   2 128.070 6.42000   1
  -7  -1  -2 147.360 7.99000   1
  -7   1  -2 177.510 15.9500   1
  -7  -1  -2 139.390 6.51000   1
   0   4   5 298.100 10.7100   1
   0   4   5 270.730 10.9400   1
   0  -4  -5 298.060 11.3800   1
   0   4  -5 300.540 10.9200   1
   0  -4   5 254.150 9.86000   1
   0   4   5 287.310 11.5000   1
   0  -4   5 302.560 12.7500   1
   0  -4   5 277.870 10.6300   1
   0  -4  -5 313.520 11.1800   1
   0  -4   5 318.910 12.1300   1
   0   4   5 261.780 9.83000   1
  -4   0  -9 -1.1200 3.29000   1
  -4   2  10 125.220 17.9400   1
   4   2 -10 148.470 7.12000   1
  -4   2  10 122.140 6.82000   1
   4   2 -10 133.640 6.59000   1
   4   2 -10 126.170 6.17000   1
   4  -2 -10 143.150 6.95000   1
  -4  -2  10 124.660 6.84000   1
  -4  -2  10 156.780 7.17000   1
   0   0 -12 1744.38 71.8400   1
   0   0  12 1762.36 51.1900   1
   0   0 -12 1341.94 40.2300   1
   0   0 -12 1717.45 49.5500   1
   0   0  12 1565.00 50.3000   1
   1  -3  -9 20.5200 3.64000   1
  -1   3   9 10.0800 5.96000   1
   1  -3  -9 11.4300 2.73000   1
   1   3  -9 3.11000 3.44000   1
  -1  -3   9 8.41000 3.60000   1
  -1  -3   9 9.73000 4.39000   1
  -1  -3   9 15.5500 4.96000   1
  -2   0 -11 -1.0700 16.4600   1
  -2   0 -11 3.91000 3.40000   1
  -2   0 -11 1.88000 3.72000   1
   5   3  -6 640.670 20.4500   1
  -5   3   6 615.920 21.5600   1
  -5   3   6 506.620 38.1900   1
  -5   3   6 670.750 30.1400   1
   5  -3  -6 564.580 18.6100   1
   5   3  -6 544.700 18.5300   1
  -5   3   6 545.420 18.2200   1
  -5  -3   6 572.890 18.3400   1
   5  -3  -6 621.290 20.8100   1
  -5   3   6 514.950 19.0900   1
  -5  -3   6 647.120 20.3200   1
   1   1 -12 144.690 7.81000   1
   1   1 -12 158.020 7.28000   1
   1  -1 -12 140.960 7.59000   1
   1  -1 -12 183.600 8.35000   1
   1   1 -12 191.410 8.30000   1
  -1   1  12 190.510 12.4700   1
   1  -1 -12 185.490 13.9000   1
  -1  -1  12 173.950 8.01000   1
   2   2 -11 275.670 11.7200   1
  -2  -2  11 330.820 12.0300   1
  -2   2  11 328.680 15.8600   1
   2  -2 -11 315.270 12.7100   1
   2   2 -11 373.830 13.0800   1
   2  -2 -11 295.000 11.2200   1
   2   4  -5 1258.12 37.0400   1
  -2   4   5 1302.30 38.4000   1
  -2  -4   5 1252.37 37.9900   1
  -2   4   5 1379.06 41.7000   1
   2  -4  -5 1348.76 39.8400   1
  -2  -4   5 1367.82 40.1700   1
  -2   4   5 1115.12 33.9200   1
  -2  -4   5 1267.25 37.4000   1
   2  -4  -5 1337.40 39.2600   1
  -2   4   5 1189.73 36.3600   1
  -2   4   5 1218.64 36.5200   1
   7  -1  -7 2174.63 80.8500   1
  -7  -1   7 2020.70 57.8900   1
  -7   1   7 2128.91 61.4100   1
  -7   1   7 2124.42 61.6300   1
   7  -1  -7 2329.71 66.1200   1
   7   1  -7 2142.92 60.8700   1
   7   1  -7 2037.21 58.8900   1
  -7  -1   7 1874.03 56.6400   1
  -7   1   7 1804.79 56.2400   1
  -5   3  -3 1322.25 44.3000   1
  -5   3  -3 1237.82 37.2500   1
   5  -3   3 1230.33 37.4100   1
  -5  -3  -3 1251.85 36.6100   1
   5   3   3 1255.98 36.7600   1
  -5  -3  -3 1349.05 39.4200   1
  -6   0  -6 -14.270 11.3900   1
   6   0   6 2.09000 2.73000   1
  -3   1 -10 874.370 27.4600   1
  -3  -1 -10 884.790 27.0900   1
  -3  -1 -10 829.830 29.9100   1
   3   1  10 725.090 23.1000   1
  -3  -1 -10 713.160 23.5100   1
   3   1  10 702.860 49.1300   1
  -3   1 -10 806.350 47.6400   1
  -3  -1 -10 891.710 31.4300   1
  -2   4  -4 811.010 25.3000   1
  -2   4  -4 836.810 25.5200   1
   2  -4   4 779.440 24.4800   1
  -2  -4  -4 813.340 25.2000   1
   2  -4   4 842.660 27.0600   1
   2  -4   4 766.180 29.8300   1
   2  -4   4 839.420 26.5800   1
   2   4   4 744.730 22.9300   1
   2   4   4 810.960 25.4400   1
  -2  -4  -4 752.020 23.4200   1
   6   2   4 21.9900 4.08000   1
  -6   2  -4 55.0300 25.1500   1
  -6  -2  -4 31.7100 4.66000   1
   6  -2   4 19.6400 2.99000   1
   6  -2   4 24.3800 3.00000   1
  -6  -2  -4 17.6300 5.07000   1
   0  -2  11 1089.07 33.2600   1
   0  -2 -11 983.880 29.7200   1
   0  -2 -11 1108.17 33.7100   1
   0   2  11 1061.81 33.3300   1
   0   2 -11 983.210 29.9600   1
   0  -2 -11 833.610 26.9600   1
   0   2  11 919.160 52.3500   1
   0  -2 -11 876.530 29.3300   1
   0  -2 -11 862.050 38.7300   1
  -3   1  12 199.680 9.33000   1
  -3   1  12 259.650 19.7000   1
   3   1 -12 194.420 8.68000   1
   3   1 -12 168.710 7.48000   1
   3  -1 -12 200.950 9.31000   1
   3  -1 -12 233.300 9.49000   1
   3   1 -12 172.770 8.67000   1
  -3  -1  12 202.350 8.69000   1
   3   3   7 64.6200 6.83000   1
  -3  -3  -7 71.0900 5.00000   1
   3   3   7 89.7400 5.93000   1
  -3   3  -7 69.9200 4.65000   1
   3  -3   7 64.4400 4.39000   1
  -3   3  -7 72.1100 5.12000   1
   3   3   7 85.1700 5.23000   1
  -3  -3  -7 64.7400 5.08000   1
   3  -3   7 75.7900 6.27000   1
   6   0 -10 221.950 9.15000   1
  -6   0  10 224.970 8.80000   1
   6   0 -10 196.650 9.03000   1
   7  -1   3 1657.28 48.4700   1
   7   1   3 1597.07 46.2400   1
   7  -1   3 1500.66 45.6800   1
  -7   1  -3 1652.37 57.7000   1
   7   1   3 1616.61 46.4900   1
  -7  -1  -3 1878.73 54.9500   1
   2   2  10 73.2400 16.1300   1
  -2  -2 -10 104.480 6.94000   1
  -2  -2 -10 77.7500 8.72000   1
   2   2  10 111.810 6.46000   1
   2  -2  10 68.7200 5.22000   1
  -2   2 -10 95.6000 5.76000   1
  -2  -2 -10 95.8000 5.86000   1
   2  -2  10 97.0500 6.70000   1
   6   2  -8 228.100 9.41000   1
  -6  -2   8 269.400 10.5700   1
   6  -2  -8 270.320 10.2000   1
  -6  -2   8 281.970 10.1000   1
  -6   2   8 263.630 11.7200   1
   6   2  -8 247.000 9.87000   1
  -6   2   8 297.840 24.8200   1
   6   2  -8 278.590 10.3000   1
  -6   2   8 253.930 11.0500   1
   6  -2  -8 260.200 10.5300   1
   3   3  -9 1124.56 33.3800   1
  -3   3   9 1145.21 39.2600   1
  -3  -3   9 1145.52 34.1000   1
  -3  -3   9 1210.04 36.1200   1
   3  -3  -9 1140.87 34.0300   1
   3   3  -9 951.670 29.5100   1
  -3   3   9 869.250 27.7200   1
   3  -3  -9 1063.29 32.2500   1
  -3   3   9 954.820 30.5400   1
  -8   0   3 -0.2900 4.19000   1
   8   0  -3 1.57000 11.3000   1
  -8   0   2 134.440 7.64000   1
  -8   0   2 147.170 6.85000   1
   8   0  -2 126.210 6.37000   1
   4   0 -12 1074.18 33.2200   1
  -4   0  12 1251.31 37.1000   1
   4   0 -12 1257.22 37.2000   1
   4   2   8 2528.28 70.6400   1
  -4   2  -8 2630.92 74.3400   1
   4  -2   8 2082.85 59.7000   1
   4  -2   8 2654.00 75.2200   1
  -4   2  -8 2372.10 95.6100   1
  -4  -2  -8 2520.41 71.5400   1
  -4  -2  -8 2396.46 68.9800   1
   0  -4  -6 63.6100 5.04000   1
   0   4  -6 51.9000 4.47000   1
   0  -4   6 46.5700 4.05000   1
   0   4   6 56.5600 4.48000   1
   0   4   6 64.8900 5.94000   1
   0  -4   6 63.1900 5.92000   1
   0  -4   6 46.0100 5.20000   1
   0  -4   6 50.1000 5.43000   1
   0  -4  -6 48.7900 3.88000   1
  -8   0   4 39.8900 4.33000   1
   8   0  -4 31.5600 3.90000   1
  -8   0   4 32.4500 3.43000   1
   8   0  -4 19.7600 10.5600   1
  -8   0   1 0.44000 5.33000   1
   8   0  -1 -0.2300 3.05000   1
   5   3  -7 1051.29 30.7500   1
  -5   3   7 1016.62 31.5800   1
   5  -3  -7 996.330 30.2000   1
  -5  -3   7 1057.14 30.9600   1
  -5  -3   7 1118.22 32.5400   1
  -5   3   7 893.350 58.8200   1
  -5   3   7 810.440 25.4200   1
   5   3  -7 953.180 28.8600   1
   5  -3  -7 1076.10 32.2400   1
  -5   3   7 1176.64 42.4300   1
  -5   3   7 864.190 29.2300   1
   5   1 -11 2246.71 62.4000   1
  -5   1  11 1893.79 55.7700   1
  -5  -1  11 1934.51 53.8400   1
   5   1 -11 1847.29 54.5000   1
   5  -1 -11 2285.40 64.0200   1
  -5  -1  11 2144.88 61.6100   1
   5   1 -11 2202.26 62.7300   1
   5  -1 -11 2361.53 65.4400   1
  -1  -3  -9 1716.14 48.6000   1
   1  -3   9 1868.01 52.9800   1
   1   3   9 1587.62 49.3100   1
   1  -3   9 1406.84 42.0000   1
  -1  -3  -9 1655.21 47.0500   1
   1  -3   9 1616.50 49.6000   1
   1   3   9 1778.91 49.9600   1
   1   3   9 1853.50 52.6400   1
  -1   3  -9 1840.56 51.7700   1
  -4   4   1 119.670 5.96000   1
  -4   4   1 126.630 6.34000   1
   4   4  -1 149.120 6.99000   1
  -4   4   1 126.070 8.94000   1
  -4   4   1 106.120 5.83000   1
  -4  -4   1 122.510 5.76000   1
   4  -4  -1 134.030 7.11000   1
   4  -4  -1 139.970 7.54000   1
  -4  -4   1 136.470 6.78000   1
   2  -4  -6 433.120 15.0900   1
  -2   4   6 422.290 16.3300   1
  -2  -4   6 393.540 13.6900   1
  -2  -4   6 387.500 14.2400   1
  -2   4   6 377.000 14.0800   1
  -2   4   6 423.930 14.2000   1
  -2  -4   6 406.990 14.6200   1
  -2   4   6 343.490 12.6600   1
   2   4  -6 393.730 14.0900   1
  -2   4   6 408.880 14.7700   1
   2  -4  -6 413.280 14.3000   1
  -4  -4   2 466.200 14.8800   1
  -4  -4   2 511.000 16.8800   1
  -4   4   2 392.980 14.8000   1
   4  -4  -2 530.210 17.8700   1
  -4   4   2 444.030 15.4200   1
   4  -4  -2 481.680 16.6800   1
  -4   4   2 506.700 17.3300   1
   4   4  -2 490.360 16.0200   1
  -4   4   2 431.280 16.2100   1
  -4   4   2 465.160 18.3100   1
  -5  -3  -4 1290.32 37.2600   1
  -5   3  -4 1267.67 38.0200   1
  -5   3  -4 1275.89 37.9400   1
   5  -3   4 1226.68 36.5400   1
  -5  -3  -4 1237.99 35.9000   1
  -5   3  -4 1238.02 39.8200   1
   5   3   4 1249.33 35.9900   1
  -7   1   8 76.3200 4.63000   1
  -7   1   8 60.7100 4.15000   1
   7   1  -8 68.8900 5.30000   1
   7  -1  -8 62.5500 4.70000   1
   7   1  -8 61.5900 5.18000   1
   7  -1  -8 62.9200 17.3700   1
  -7  -1   8 76.0900 4.88000   1
  -7  -1   8 71.4900 5.17000   1
  -4   4   0 7.27000 5.86000   1
  -4   4   0 3.03000 2.73000   1
  -4  -4   0 -7.5000 3.86000   1
   4  -4   0 10.5300 4.37000   1
  -4  -4   0 6.07000 3.69000   1
   4   4   0 -3.6700 3.46000   1
  -8   0   5 -1.9200 3.26000   1
   8   0  -5 -1.2400 9.32000   1
   8   0  -5 -0.0300 3.18000   1
  -5   1  -8 86.8100 20.8500   1
  -5  -1  -8 70.2600 8.32000   1
  -5  -1  -8 56.7000 4.51000   1
   5   1   8 67.9200 4.78000   1
   5  -1   8 51.7100 4.23000   1
  -5   1  -8 54.5900 4.37000   1
  -8   0   0 910.450 26.9500   1
  -8   0   0 1040.88 32.5000   1
   8   0   0 1060.97 31.4900   1
  -4  -4   3 3834.17 77.1800   1
  -4   4   3 3893.47 78.4600   1
  -4   4   3 4003.29 82.3700   1
  -4   4   3 3897.35 83.1900   1
   4  -4  -3 3804.93 103.240   1
   4   4  -3 3744.81 100.860   1
  -4  -4   3 3876.65 78.8800   1
  -4   4   3 3587.09 98.5100   1
   4  -4  -3 3677.99 99.7100   1
  -4   4   3 3236.30 88.3400   1
  -2   4  -5 2717.06 74.7100   1
   2  -4   5 2267.50 63.0100   1
  -2   4  -5 2501.33 68.9600   1
   2   4   5 2790.44 77.2000   1
   2  -4   5 2434.10 77.4500   1
   2   4   5 2693.45 73.4800   1
   2  -4   5 2585.16 71.6300   1
  -2  -4  -5 2726.76 74.2100   1
   2  -4   5 2679.21 75.3000   1
  -2  -4  -5 2707.13 74.2600   1
   1   1  12 56.6300 5.34000   1
  -1  -1 -12 33.1900 12.0500   1
  -1   1 -12 76.9200 32.1600   1
   1  -1  12 54.4300 5.21000   1
  -1  -1 -12 60.5200 5.18000   1
  -1   1 -12 50.8500 3.71000   1
  -1   1 -12 52.6300 4.95000   1
  -1  -1 -12 37.7000 3.68000   1
   4   4   1 787.350 23.5900   1
  -4   4  -1 808.540 26.2100   1
  -4   4  -1 799.870 25.6400   1
   4  -4   1 666.960 32.3300   1
   4  -4   1 806.730 25.0000   1
  -4  -4  -1 757.630 22.7400   1
   4  -4   1 770.250 24.4900   1
  -4  -4  -1 816.660 24.6900   1
  -4  -2  11 72.2600 5.60000   1
  -4  -2  11 62.2400 4.96000   1
  -4   2  11 60.9900 14.3800   1
   4   2 -11 68.6800 5.00000   1
   4  -2 -11 84.9000 5.45000   1
   4   2 -11 63.7500 4.69000   1
   2   0 -13 3.21000 3.17000   1
   2   0 -13 0.98000 4.08000   1
   2   0 -13 4.89000 3.53000   1
  -1   3  10 50.9300 8.59000   1
  -1  -3  10 73.5800 5.07000   1
  -1   3  10 74.9900 7.39000   1
  -1  -3  10 79.0300 5.39000   1
   1   3 -10 78.9300 5.28000   1
  -1  -3  10 62.3000 5.73000   1
   1  -3 -10 60.7900 4.44000   1
   1  -3 -10 85.7900 5.51000   1
   7   1   4 3.60000 3.45000   1
  -7  -1  -4 -4.8700 5.83000   1
  -7   1  -4 -2.4900 12.5600   1
  -6   2  -5 12.8700 2.76000   1
  -6  -2  -5 15.8200 4.78000   1
  -6   2  -5 57.2400 25.6900   1
  -6  -2  -5 15.7100 4.43000   1
  -6   2  -5 8.71000 11.1800   1
   6   2   5 15.6200 3.77000   1
   6  -2   5 8.71000 2.48000   1
   4  -4  -4 149.380 7.60000   1
  -4   4   4 145.590 7.04000   1
  -4   4   4 142.600 8.10000   1
   4   4  -4 135.580 6.43000   1
  -4   4   4 119.600 7.83000   1
  -4   4   4 139.630 10.9600   1
   4  -4  -4 153.660 7.41000   1
  -4   4   4 140.900 7.09000   1
  -4  -4   4 146.000 6.92000   1
  -4  -4   4 154.340 7.30000   1
   8   0  -6 2145.11 59.3900   1
  -8   0   6 1618.41 49.5800   1
  -8   0   6 1867.74 52.7000   1
  -8   0   6 2097.25 57.8800   1
   8   0  -6 2022.87 63.8700   1
  -4   0 -10 1690.00 57.4300   1
  -4   0 -10 1632.82 46.1100   1
  -6   0  -7 14.6300 11.5800   1
   6   0   7 6.53000 3.32000   1
   6   0   7 2.20000 2.86000   1
  -8   0  -1 2.55000 2.54000   1
  -8   0  -1 -4.3700 5.62000   1
   6  -2  -9 413.510 14.7600   1
   6   2  -9 400.210 14.7000   1
  -6  -2   9 442.480 15.1000   1
   6  -2  -9 427.340 14.4400   1
  -6   2   9 400.710 15.1300   1
   6   2  -9 377.300 13.3700   1
  -6   2   9 478.640 29.5300   1
   6   2  -9 415.150 13.9100   1
  -6   2   9 393.470 14.4400   1
  -6  -2   9 427.020 13.9100   1
   4  -4   2 30.1000 13.7200   1
  -4  -4  -2 21.3800 3.74000   1
   4  -4   2 15.6700 4.70000   1
  -4  -4  -2 16.3600 4.25000   1
  -4   4  -2 14.1400 2.60000   1
   4   4   2 13.5700 3.64000   1
  -4   4  -2 13.0300 4.07000   1
   4  -4   2 12.7500 4.45000   1
  -5  -3   8 2320.74 64.3400   1
   5   3  -8 1975.44 56.2800   1
  -5  -3   8 2309.37 63.5000   1
   5  -3  -8 2257.97 63.0900   1
  -5   3   8 2015.44 57.4300   1
   5   3  -8 2273.56 62.6600   1
  -5   3   8 2208.06 70.6700   1
   5  -3  -8 1903.11 57.0900   1
   0   4   7 229.420 8.86000   1
   0   4   7 184.590 8.10000   1
   0  -4  -7 229.070 8.87000   1
   0  -4  -7 214.370 8.68000   1
   0   4   7 214.990 9.88000   1
   0  -4   7 190.100 9.17000   1
   0   4  -7 223.910 8.99000   1
   0  -4   7 198.680 9.47000   1
   0  -4   7 247.800 10.3200   1
   2   2 -12 1129.84 32.8400   1
  -2   2  12 1092.87 36.4700   1
   2  -2 -12 1137.46 33.5800   1
   2  -2 -12 1098.73 35.0700   1
  -2  -2  12 1232.82 36.6100   1
  -3  -3  -8 453.930 15.3700   1
   3   3   8 477.450 16.0100   1
  -3  -3  -8 448.810 14.7300   1
   3  -3   8 468.470 15.9900   1
   3   3   8 451.630 14.6500   1
  -3   3  -8 513.460 17.7300   1
   2  -4  -7 1601.27 45.4900   1
  -2  -4   7 1680.35 48.2200   1
  -2  -4   7 1857.26 52.6700   1
   2  -4  -7 1707.69 48.1900   1
  -2   4   7 1574.74 44.8200   1
  -2   4   7 1631.76 48.7300   1
  -2   4   7 1830.93 51.6100   1
  -2  -4   7 1658.17 48.9300   1
  -2   4   7 1557.06 45.2000   1
   2   4  -7 1669.05 47.3100   1
   6   0 -11 6.55000 3.52000   1
   0   0 -13 6.04000 20.1000   1
   0   0 -13 -0.5000 2.88000   1
   0   0 -13 13.4300 4.07000   1
  -2   0 -12 420.240 26.0100   1
  -2   0 -12 478.590 15.9900   1
   2   0  12 378.960 14.8200   1
  -5   3  -5 920.080 30.8600   1
   5  -3   5 802.010 27.1800   1
   5   3   5 1081.84 32.2700   1
  -5   3  -5 794.870 27.2200   1
  -5  -3  -5 1061.18 30.9900   1
   5  -3   5 1118.89 34.1900   1
  -5  -3  -5 1039.35 32.3200   1
  -5   3  -5 987.260 30.4500   1
   3  -3 -10 2310.62 65.4700   1
   3  -3 -10 2510.99 69.3500   1
  -3   3  10 2627.53 77.6200   1
  -3  -3  10 2463.33 67.9600   1
   3   3 -10 2533.41 69.5100   1
  -3  -3  10 2714.46 74.9300   1
  -7   1   9 217.080 10.1000   1
   7  -1  -9 243.780 9.47000   1
   7  -1  -9 249.590 24.1100   1
  -7  -1   9 235.100 10.8000   1
   7   1  -9 208.450 8.95000   1
  -7  -1   9 259.360 9.50000   1
  -7   1   9 201.450 10.0400   1
   7   1  -9 254.940 10.0400   1
  -4  -4   5 1321.00 38.0900   1
  -4   4   5 1251.68 38.2200   1
   4   4  -5 1352.10 38.8700   1
  -4   4   5 1196.47 37.3100   1
   4  -4  -5 1299.57 37.9100   1
  -4   4   5 1220.72 36.4600   1
  -4   4   5 1122.72 33.0500   1
  -4   4   5 1270.45 39.8900   1
   4  -4  -5 1327.61 38.7600   1
   1   1 -13 1011.88 30.3500   1
  -1  -1  13 978.190 43.0600   1
  -1   1  13 1026.74 35.0500   1
   1  -1 -13 1008.31 38.6300   1
   1   1 -13 794.070 25.3000   1
   1  -1 -13 924.780 27.7600   1
  -1  -1  13 1000.88 30.5900   1
   1  -1 -13 818.220 26.6100   1
   1   1 -13 788.770 27.3300   1
  -3   1 -11 2760.17 100.990   1
   3   1  11 2593.06 71.7200   1
  -3   1 -11 2775.46 76.2700   1
  -3  -1 -11 2853.70 78.2100   1
  -3  -1 -11 2616.73 80.6100   1
  -3  -1 -11 2955.04 85.4500   1
  -2  -4  -6 157.200 6.87000   1
   2  -4   6 143.700 7.88000   1
   2  -4   6 162.580 11.7300   1
  -2  -4  -6 171.390 7.55000   1
   2  -4   6 164.130 8.26000   1
  -2   4  -6 170.130 7.51000   1
   2  -4   6 135.030 6.49000   1
   2   4   6 171.280 7.59000   1
  -2   4  -6 152.990 7.77000   1
   2   4   6 170.920 8.17000   1
  -8   0   7 0.50000 2.71000   1
   8   0  -7 5.31000 8.38000   1
  -8   0   7 8.57000 3.15000   1
   4   2   9 1279.44 36.7100   1
  -4  -2  -9 1258.77 37.2600   1
  -4   2  -9 1212.06 61.1600   1
   4  -2   9 1403.02 41.2100   1
  -4  -2  -9 1093.09 34.0300   1
  -4   2  -9 1089.46 32.3000   1
   4  -2   9 955.650 29.6600   1
   8   0   2 1196.25 34.8800   1
  -8   0  -2 1307.46 40.4200   1
   8   0   2 1061.40 31.1500   1
   0  -2 -12 1562.90 46.2500   1
   0   2  12 1705.49 83.7200   1
   0  -2 -12 1578.70 57.1900   1
   0   2  12 2062.37 59.0300   1
   0   2 -12 1837.89 52.0500   1
   0  -2 -12 1944.63 54.3300   1
   0  -2 -12 1806.64 53.0100   1
   0  -2 -12 1660.35 49.8800   1
   0  -2  12 1956.25 55.2300   1
   3  -1 -13 2450.17 68.1200   1
   3   1 -13 2492.02 68.6600   1
   3   1 -13 2048.89 59.7400   1
   3  -1 -13 2593.01 71.4900   1
   3   1 -13 2049.74 58.5300   1
  -3  -1  13 2789.69 76.6200   1
  -3   1  13 2454.23 68.6500   1
  -3   1  13 2556.10 80.6800   1
   2   2  11 3.99000 19.0700   1
   2  -2  11 -0.4400 4.83000   1
   2   2  11 8.16000 3.47000   1
  -2   2 -11 3.42000 3.97000   1
  -2  -2 -11 2.78000 2.65000   1
  -4  -4  -3 489.690 15.8900   1
  -4  -4  -3 532.210 17.1900   1
  -4   4  -3 529.340 19.2900   1
   4  -4   3 407.780 16.5300   1
   4   4   3 507.730 16.3400   1
  -4   4  -3 536.800 18.4900   1
   4  -4   3 422.270 24.7900   1
   4  -4   3 527.720 17.8700   1
   5   1 -12 196.470 8.72000   1
   5   1 -12 199.200 8.56000   1
  -5   1  12 234.370 25.6800   1
  -5  -1  12 216.600 8.47000   1
   5   1 -12 151.650 8.70000   1
   5  -1 -12 234.050 9.33000   1
   5  -1 -12 211.120 9.04000   1
  -1  -3 -10 731.010 22.5900   1
  -1  -3 -10 637.760 19.8400   1
   1   3  10 681.670 22.0800   1
  -1  -3 -10 628.460 19.7200   1
   1   3  10 606.780 26.0500   1
  -1   3 -10 692.470 21.7400   1
   1  -3  10 565.620 21.6900   1
   1  -3  10 749.300 23.9800   1
   4   0 -13 -2.4800 3.70000   1
  -7  -1  -5 1182.98 36.2900   1
   7  -1   5 973.990 29.5200   1
   7  -1   5 1102.03 32.0700   1
   7   1   5 1274.60 36.6800   1
   7  -1   5 964.400 29.2300   1
  -7   1  -5 1168.61 43.3600   1
  -6   2  -6 24.4600 3.36000   1
  -6  -2  -6 19.3600 4.65000   1
  -6   2  -6 23.7600 24.1500   1
   6   2   6 19.5800 3.72000   1
   6  -2   6 24.7100 3.26000   1
  -4   4   6 202.470 9.59000   1
  -4   4   6 201.140 9.08000   1
  -4   4   6 177.020 11.8600   1
  -4   4   6 182.280 7.79000   1
  -4   4   6 192.040 9.76000   1
   4   4  -6 211.120 8.49000   1
   4  -4  -6 216.150 9.01000   1
  -4  -4   6 199.340 8.23000   1
   4  -4  -6 224.560 9.36000   1
  -4  -4   6 185.430 8.11000   1
  -5  -1  -9 159.970 11.3100   1
  -5  -1  -9 188.400 11.4200   1
  -5   1  -9 199.140 22.5600   1
   5   1   9 166.780 7.12000   1
  -5   1  -9 172.830 7.77000   1
   5  -1   9 134.520 6.91000   1
  -6  -2  10 955.320 29.0700   1
  -6   2  10 801.530 25.4500   1
   6  -2 -10 900.380 27.3600   1
   6   2 -10 796.890 25.1700   1
  -6  -2  10 907.060 26.8500   1
  -6   2  10 832.500 27.2400   1
  -6   2  10 1099.45 47.3100   1
   6   2 -10 938.790 28.2700   1
   6  -2 -10 979.610 28.5900   1
  -5   3   9 401.590 22.0300   1
  -5   3   9 369.260 14.3700   1
   5  -3  -9 423.220 14.4500   1
   5  -3  -9 426.070 15.7800   1
  -5   3   9 330.150 13.8200   1
  -5  -3   9 439.490 15.4500   1
  -5  -3   9 387.880 13.0900   1
   5   3  -9 445.960 15.4400   1
   5   3  -9 382.610 13.9000   1
   2  -4  -8 597.480 19.3300   1
   2  -4  -8 496.050 19.0500   1
  -2   4   8 501.130 17.0800   1
  -2   4   8 588.920 18.9400   1
  -2   4   8 559.220 20.2400   1
  -2   4   8 490.330 17.2800   1
  -2  -4   8 533.530 18.4900   1
  -2  -4   8 565.210 18.0300   1
  -2  -4   8 527.800 17.4900   1
   2   4  -8 540.680 17.6900   1
   0  -4  -8 9.01000 3.13000   1
   0   4   8 8.84000 3.24000   1
   0   4   8 13.5400 5.09000   1
   0  -4  -8 12.4400 3.63000   1
   0   4   8 2.98000 3.40000   1
   0  -4   8 12.2300 5.03000   1
   0  -4   8 6.88000 4.07000   1
   0  -4   8 12.6500 4.79000   1
   0   4  -8 3.81000 3.57000   1
   8   0  -8 744.690 22.9200   1
   8   0  -8 739.220 27.7800   1
  -8   0   8 633.670 19.8900   1
  -8   0   8 576.660 21.9100   1
  -8   2   3 85.6800 5.63000   1
  -8   2   3 102.800 6.01000   1
   8  -2  -3 98.3600 5.44000   1
  -8  -2   3 118.330 6.10000   1
  -8  -2   3 107.380 11.1600   1
   8   2  -3 109.200 5.85000   1
  -8   2   3 128.620 12.1400   1
   8  -2  -3 121.300 6.15000   1
  -8  -2   2 229.990 9.16000   1
   8   2  -2 207.050 8.65000   1
   8  -2  -2 209.130 8.59000   1
   8  -2  -2 198.490 8.44000   1
  -8   2   2 190.340 9.32000   1
  -8  -2   2 216.710 8.75000   1
  -8   2   2 207.380 15.1600   1
  -4  -2  12 140.130 7.50000   1
  -4  -2  12 112.460 5.92000   1
  -4   2  12 118.190 17.1200   1
   4  -2 -12 106.230 6.29000   1
   4   2 -12 116.650 6.22000   1
   4   2 -12 94.6700 6.03000   1
   1  -3 -11 61.4000 4.44000   1
  -1   3  11 75.3600 11.9600   1
   1  -3 -11 96.1400 5.78000   1
  -1   3  11 105.290 8.19000   1
   1  -3 -11 97.7000 5.68000   1
  -1  -3  11 99.2300 6.35000   1
   1   3 -11 81.0800 5.64000   1
  -1  -3  11 96.3200 6.46000   1
  -7   3   2 566.810 33.6200   1
  -7  -3   2 605.680 19.2700   1
  -7   3   2 460.650 16.5900   1
  -7   3   2 596.090 29.5000   1
  -7   3   2 482.290 17.0300   1
  -7  -3   2 581.290 18.3500   1
   7   3  -2 565.650 18.1300   1
  -8   0  -3 2.51000 7.82000   1
  -5   3  -6 480.090 17.0100   1
  -5   3  -6 332.230 13.6900   1
  -5  -3  -6 446.410 15.0600   1
  -5   3  -6 405.060 13.9200   1
   5  -3   6 431.500 15.7800   1
  -5  -3  -6 467.240 16.3300   1
   5  -3   6 346.800 14.0100   1
   5   3   6 445.800 15.1700   1
  -7  -3   3 694.170 21.2900   1
   7   3  -3 673.410 20.8200   1
  -7  -3   3 675.030 20.6200   1
  -7   3   3 590.020 20.4600   1
  -7   3   3 604.500 22.3700   1
  -7   3   3 682.920 35.6000   1
  -7   3   3 709.250 31.3100   1
  -6   0  -8 636.590 20.7200   1
  -6   0  -8 784.120 31.4400   1
   6   0   8 772.870 23.9400   1
   4   4   4 23.6100 3.89000   1
  -4   4  -4 24.4400 3.99000   1
   4  -4   4 26.5600 13.6100   1
   4  -4   4 34.7000 5.28000   1
  -4  -4  -4 25.6200 3.80000   1
  -4  -4  -4 22.0100 4.00000   1
  -4   4  -4 30.0500 3.58000   1
   4  -4   4 17.2700 2.66000   1
  -8  -2   4 12.3600 4.22000   1
   8  -2  -4 17.8900 2.89000   1
   8  -2  -4 12.7800 3.34000   1
   8   2  -4 16.7400 3.58000   1
  -8   2   4 10.9100 3.99000   1
  -8   2   4 8.70000 3.47000   1
  -8  -2   4 13.0300 3.76000   1
  -7  -1  10 12.3200 3.12000   1
  -7   1  10 12.6400 2.81000   1
   7  -1 -10 19.4900 4.05000   1
   7  -1 -10 9.32000 3.85000   1
   7   1 -10 16.3700 3.80000   1
   7   1 -10 14.2700 3.48000   1
  -7  -1  10 10.9000 2.93000   1
  -7   1  10 8.25000 2.60000   1
  -8  -2   1 323.450 11.8400   1
  -8   2   1 359.620 20.1500   1
  -8  -2   1 353.500 12.4600   1
   8   2  -1 345.960 12.3600   1
   8  -2  -1 247.640 11.4700   1
  -7  -3   1 256.420 9.68000   1
  -7  -3   1 248.910 9.68000   1
  -7   3   1 220.900 26.5000   1
  -7   3   1 249.850 19.0300   1
   7   3  -1 225.550 9.02000   1
  -2  -4  -7 624.430 19.7900   1
  -2  -4  -7 633.290 19.9100   1
   2   4   7 635.360 20.4200   1
   2   4   7 659.090 20.3800   1
   2  -4   7 645.170 21.4400   1
   2  -4   7 541.250 23.4700   1
   2  -4   7 660.420 21.0400   1
   2  -4   7 531.270 17.8000   1
  -2   4  -7 682.610 21.6000   1
  -7  -3   4 937.440 27.6800   1
  -7   3   4 943.230 38.9600   1
  -7   3   4 950.330 42.0200   1
  -7   3   4 788.020 26.1900   1
  -7   3   4 764.650 24.9300   1
  -7  -3   4 854.260 25.2300   1
   7   3  -4 898.160 26.7700   1
   3   3   9 698.460 22.2300   1
   3  -3   9 668.940 22.3300   1
  -3  -3  -9 649.190 20.1600   1
  -3  -3  -9 675.390 21.7700   1
  -3   3  -9 690.260 22.1300   1
   3   3   9 657.260 20.8600   1
  -1   1 -13 253.440 9.85000   1
  -1  -1 -13 254.630 10.2500   1
  -1   1 -13 223.560 9.39000   1
  -1  -1 -13 264.410 15.7700   1
  -1   1 -13 244.670 35.9300   1
   1  -1  13 268.350 11.1000   1
  -1  -1 -13 202.180 10.1400   1
   1   1  13 254.490 10.9100   1
  -1  -5   0 354.750 12.2400   1
   1  -5   0 367.310 12.8700   1
  -1  -5   0 379.140 13.4000   1
  -1   5   0 374.860 13.0800   1
   1   5   0 377.370 13.0300   1
   1  -5   0 323.770 11.9700   1
   1   5   0 360.100 13.3200   1
  -1   5   0 386.420 13.7200   1
   1  -5   0 374.190 13.6300   1
  -1  -5   1 54.3500 4.94000   1
   1  -5  -1 50.7800 4.76000   1
  -1   5   1 49.5500 5.04000   1
   1   5  -1 40.9000 4.82000   1
   1  -5  -1 40.5000 3.49000   1
  -1   5   1 52.5200 4.33000   1
   1   5  -1 48.8100 4.30000   1
   1  -5  -1 53.1700 5.30000   1
  -1  -5   1 45.7400 4.94000   1
   6   0 -12 3148.72 86.3800   1
   6   0 -12 2206.00 63.3900   1
  -6   0  12 2794.43 79.1500   1
   2   0 -14 315.390 12.7100   1
   2   0 -14 194.870 10.2600   1
   2   0 -14 249.600 31.4800   1
  -2   0  14 246.820 17.8900   1
  -2   0  14 299.680 11.6000   1
   2   0 -14 229.320 9.89000   1
   2   0 -14 325.800 11.6000   1
   8  -2  -5 210.420 8.14000   1
  -8  -2   5 227.670 9.01000   1
   8  -2  -5 215.390 7.75000   1
  -8  -2   5 239.130 8.47000   1
  -8   2   5 195.680 8.92000   1
  -8   2   5 155.860 7.19000   1
   8   2  -5 208.620 7.65000   1
  -8   2   5 206.340 12.4700   1
  -8   2   5 193.440 9.60000   1
  -7  -3   0 22.8000 3.96000   1
  -7  -3   0 25.4800 4.28000   1
  -7   3   0 25.1700 20.1800   1
  -7  -3   0 13.1300 3.79000   1
  -7   3   0 46.0600 11.2200   1
   7   3   0 21.3000 3.64000   1
  -8  -2   0 1036.43 24.6800   1
  -8  -2   0 1132.03 26.0900   1
   8   2   0 1118.01 25.7700   1
  -8   2   0 1005.92 35.1100   1
   3  -3 -11 855.360 21.3500   1
  -3   3  11 955.680 29.5400   1
  -3  -3  11 897.080 21.9800   1
   3  -3 -11 835.220 21.3200   1
  -3  -3  11 968.910 24.1100   1
   3   3 -11 907.660 21.5800   1
  -4   0 -11 -4.0300 3.66000   1
  -4   0 -11 -3.7200 13.4500   1
   1  -5   1 34.4500 5.13000   1
   1  -5   1 47.0500 4.81000   1
  -1   5  -1 41.7900 4.82000   1
   1   5   1 40.7500 5.20000   1
   1  -5   1 38.0000 3.64000   1
   1   5   1 35.9900 3.83000   1
  -1   5  -1 38.1600 3.67000   1
  -1  -5  -1 40.2900 4.55000   1
  -1  -5  -1 37.6400 3.83000   1
  -4  -4   7 714.240 18.7700   1
  -4   4   7 710.120 22.0200   1
  -4   4   7 563.780 17.6400   1
  -4   4   7 623.160 18.9700   1
   4   4  -7 734.670 18.3900   1
   4  -4  -7 721.210 19.0200   1
  -4   4   7 741.630 18.4200   1
   4  -4  -7 719.410 18.7900   1
  -4  -4   7 708.960 17.5900   1
  -1  -5   2 1051.42 25.4200   1
  -1  -5   2 1078.38 25.3300   1
   1  -5  -2 1078.61 25.5200   1
   1  -5  -2 1120.02 26.1400   1
  -1   5   2 1051.82 25.6800   1
   1  -5  -2 906.270 22.2900   1
  -1   5   2 1114.40 25.4500   1
   1   5  -2 1087.74 24.7100   1
  -7   3   5 1300.41 59.2500   1
  -7   3   5 1494.21 35.2900   1
  -7   3   5 1302.55 32.2400   1
  -7   3   5 1673.62 49.1000   1
   2  -2 -13 118.930 6.66000   1
   2  -2 -13 115.950 5.50000   1
   2   2 -13 102.730 5.59000   1
  -2   2  13 95.7000 10.2600   1
   2  -2 -13 80.4500 5.72000   1
  -2  -2  13 120.810 6.05000   1
   2   2 -13 82.0700 5.49000   1
   7  -1   6 361.820 11.8900   1
   7   1   6 451.420 12.8300   1
  -7  -1  -6 510.130 16.8000   1
   7  -1   6 469.710 13.0900   1
  -7   1  -6 401.750 20.7100   1
  -1   5  -2 18.7200 3.14000   1
   1   5   2 6.20000 3.47000   1
   1  -5   2 16.9100 3.09000   1
   1   5   2 10.6100 4.39000   1
  -1   5  -2 19.2300 4.26000   1
   1  -5   2 12.4200 4.68000   1
  -1  -5  -2 13.4500 4.32000   1
  -1  -5  -2 16.7800 3.98000   1
  -7   3  -1 -13.410 25.0400   1
  -7  -3  -1 9.12000 3.37000   1
   7   3   1 2.72000 3.66000   1
  -7  -3  -1 -2.5600 4.00000   1
  -8   2   6 164.850 7.90000   1
  -8   2   6 198.120 9.51000   1
  -8  -2   6 205.310 7.52000   1
  -8  -2   6 168.600 6.86000   1
   8   2  -6 201.520 7.45000   1
   8  -2  -6 189.650 7.43000   1
  -8   2   6 187.370 8.58000   1
   8  -2  -6 206.660 7.71000   1
  -8   2   6 133.960 6.80000   1
  -1  -5   3 -0.8100 4.26000   1
  -1   5   3 2.63000 2.77000   1
   1   5  -3 -4.9500 3.21000   1
  -1   5   3 -3.8300 4.57000   1
   1  -5  -3 6.70000 3.22000   1
  -1   5   3 4.13000 2.46000   1
  -1  -5   3 3.16000 4.62000   1
   1  -5  -3 -1.0800 4.18000   1
   8   0  -9 1.03000 6.11000   1
   8   0  -9 -1.0300 3.47000   1
  -4  -2 -10 721.630 19.3300   1
  -4   2 -10 766.350 19.4300   1
   4   2  10 736.710 18.6000   1
  -4  -2 -10 643.300 20.1500   1
  -4   2 -10 708.130 48.3100   1
  -6   2  -7 69.5400 25.3900   1
  -6  -2  -7 37.9200 5.36000   1
   6  -2   7 31.5400 3.10000   1
  -6   2  -7 38.7200 4.03000   1
   6   2   7 41.4800 4.22000   1
  -8  -2  -1 1655.78 37.0600   1
  -8   2  -1 1660.37 48.9200   1
  -8  -2  -1 1650.66 36.0200   1
   8   2   1 1635.88 35.7300   1
  -2   0 -13 -13.750 13.8800   1
   8   0   4 2633.91 54.4300   1
  -8   0  -4 2847.92 64.0300   1
  -4  -4  -5 3374.61 68.6300   1
   4  -4   5 2934.69 64.7200   1
   4  -4   5 3327.53 68.9200   1
   4   4   5 3263.64 66.1500   1
  -4  -4  -5 3207.13 65.5000   1
   0   0 -14 759.710 22.7000   1
   0   0 -14 1094.61 48.2200   1
   0   0  14 938.720 29.9400   1
   0   0 -14 893.490 21.4100   1
  -3   1 -12 371.100 11.8400   1
  -3  -1 -12 332.440 9.93000   1
   3   1  12 290.130 10.1800   1
  -3  -1 -12 361.190 15.0500   1
  -3   1 -12 412.630 34.2400   1
  -3  -1 -12 262.730 15.5300   1
  -5   3  10 1658.87 39.8200   1
   5  -3 -10 1869.02 40.7700   1
  -5   3  10 1881.49 54.2700   1
  -5  -3  10 2021.54 42.7800   1
   5  -3 -10 1928.47 44.5700   1
  -5  -3  10 2058.62 43.9900   1
   5   3 -10 1946.38 41.6300   1
   1  -1 -14 44.4500 5.09000   1
   1   1 -14 59.0100 4.28000   1
   1   1 -14 50.2200 4.62000   1
   1  -1 -14 73.0100 5.29000   1
   1   1 -14 64.0700 5.37000   1
  -1   1  14 54.1200 7.85000   1
  -1  -1  14 58.5500 13.3500   1
   1  -1 -14 71.4600 10.3600   1
  -1  -1  14 81.8900 5.55000   1
   1  -3  11 225.180 8.78000   1
  -1  -3 -11 199.570 7.99000   1
   1   3  11 210.210 8.67000   1
   1   3  11 203.030 15.7000   1
  -1  -3 -11 203.550 7.39000   1
  -1   3 -11 194.710 7.66000   1
   1  -3  11 147.320 9.60000   1
  -1  -3 -11 180.700 6.96000   1
   5   1 -13 564.240 15.3500   1
  -5   1  13 633.660 33.5200   1
   5  -1 -13 556.200 15.5700   1
  -5  -1  13 489.710 13.4100   1
   5   1 -13 407.830 13.2500   1
   7   3  -6 1171.03 27.0300   1
  -7   3   6 1222.14 40.8700   1
  -7   3   6 1174.13 41.1600   1
  -7  -3   6 1165.20 26.1900   1
  -7   3   6 901.330 25.9200   1
  -7   3   6 987.750 27.3600   1
   7  -3  -6 931.130 24.6600   1
  -7  -3   6 1235.74 27.8800   1
  -7   3   6 902.220 24.5700   1
   2   4  -9 3230.55 65.5300   1
  -2   4   9 3336.21 67.7500   1
  -2  -4   9 3220.65 67.7100   1
  -2   4   9 3214.73 69.4400   1
  -2  -4   9 3294.18 67.0800   1
  -2  -4   9 3335.53 68.6500   1
   6  -2 -11 1108.80 26.0900   1
   6   2 -11 1134.29 25.9400   1
  -6   2  11 1232.80 46.2100   1
  -6  -2  11 1047.52 24.0200   1
   6  -2 -11 1125.50 25.3700   1
  -6  -2  11 1112.01 28.8900   1
  -1   5  -3 6.31000 3.93000   1
   1  -5   3 -2.8000 2.67000   1
   1   5   3 -1.9200 3.31000   1
  -1   5  -3 1.24000 3.20000   1
   1   5   3 -2.6500 4.02000   1
  -1  -5  -3 -1.2600 3.79000   1
   1  -5   3 -8.1700 4.71000   1
   1  -5   3 2.32000 4.32000   1
  -1  -5  -3 -1.4000 3.69000   1
   0  -2 -13 998.300 24.3300   1
   0   2 -13 1003.88 24.2800   1
   0   2  13 1022.50 26.6000   1
   0  -2 -13 949.200 23.5100   1
   0  -2 -13 970.380 25.4900   1
   0  -2  13 1002.13 25.0300   1
  -2  -2 -12 291.770 10.0800   1
  -2   2 -12 258.070 9.53000   1
  -2  -2 -12 222.340 15.8400   1
  -2  -2 -12 223.550 8.84000   1
   2   2  12 187.280 26.9600   1
  -2  -2 -12 299.370 11.0900   1
   2  -2  12 283.750 10.1000   1
   2   2  12 275.180 9.75000   1
  -2   2 -12 247.260 8.31000   1
   3   1 -14 268.730 11.1900   1
   3   1 -14 319.580 11.5800   1
  -3  -1  14 410.710 12.4700   1
  -3   1  14 357.730 20.7300   1
   3  -1 -14 346.480 11.1900   1
   3   1 -14 309.060 9.89000   1
   0  -4  -9 1136.21 27.5300   1
   0  -4   9 1234.26 29.5100   1
   0   4   9 990.760 27.4600   1
   0  -4   9 1068.30 27.9900   1
   0   4   9 1139.73 27.8600   1
   0   4   9 1150.89 27.1900   1
   0   4  -9 1082.60 25.0800   1
   0  -4   9 1138.96 27.0600   1
   0  -4  -9 1028.57 24.8900   1
   5  -3   7 476.080 13.9100   1
  -5  -3  -7 464.680 13.2700   1
  -5   3  -7 379.310 14.4500   1
  -5  -3  -7 482.000 13.2900   1
  -5   3  -7 488.570 45.6000   1
  -5   3  -7 444.170 15.9000   1
   5  -3   7 351.430 12.6500   1
   5   3   7 437.370 12.0600   1
   4   0 -14 1838.40 40.9000   1
   1  -5  -4 4326.80 100.360   1
  -1  -5   4 4236.04 98.1000   1
  -1  -5   4 4192.40 97.3600   1
  -1   5   4 4164.12 96.1000   1
   1  -5  -4 4166.13 96.4000   1
  -1   5   4 4109.19 83.3700   1
   1   5  -4 4170.20 96.6000   1
   9  -1  -3 4023.95 81.3000   1
  -9   1   3 4088.42 84.8900   1
  -9  -1   3 4123.21 83.5200   1
   9   1  -3 3992.83 80.6600   1
  -9   1   3 3433.06 71.6200   1
  -9  -1   3 3900.60 79.6200   1
  -7  -1  11 56.0500 4.18000   1
   7   1 -11 49.9800 4.04000   1
   7   1 -11 57.6400 4.46000   1
  -7   1  11 48.4300 4.10000   1
   7  -1 -11 49.5900 4.56000   1
  -7  -1  11 54.2000 4.64000   1
   7  -1 -11 63.2500 4.94000   1
   7   3   2 210.340 7.57000   1
  -7  -3  -2 219.310 8.10000   1
  -7   3  -2 208.460 28.7000   1
  -7  -3  -2 191.310 7.69000   1
  -7   3  -2 246.240 16.2500   1
  -5   1 -10 -1.0600 18.0000   1
  -5  -1 -10 9.90000 3.77000   1
  -5  -1 -10 15.1900 7.96000   1
  -5   1 -10 5.09000 3.60000   1
   9  -1  -2 446.320 14.4000   1
   9   1  -2 419.120 12.2800   1
  -9   1   2 401.090 13.8000   1
  -9  -1   2 420.850 12.5200   1
  -9   1   2 376.680 11.3600   1
  -9  -1   2 438.990 13.1400   1
  -4   4   8 143.320 6.89000   1
  -4   4   8 151.180 7.62000   1
   4   4  -8 175.230 6.94000   1
  -4   4   8 175.840 7.26000   1
  -4   4   8 197.810 12.2700   1
  -4  -4   8 157.310 6.78000   1
   4  -4  -8 174.970 8.24000   1
  -4  -4   8 168.010 7.28000   1
   9   1  -4 176.910 7.03000   1
   9  -1  -4 168.550 6.92000   1
  -9   1   4 200.690 9.10000   1
  -9  -1   4 176.160 7.19000   1
  -9  -1   4 161.290 6.89000   1
  -9   1   4 139.270 6.59000   1
   8   2  -7 587.180 15.3200   1
  -8   2   7 540.310 21.1800   1
  -8  -2   7 546.610 14.3300   1
   8  -2  -7 566.900 15.0500   1
  -8   2   7 458.510 15.9700   1
  -8  -2   7 571.840 14.7700   1
  -8   2   7 454.400 14.4200   1
   8  -2  -7 500.520 14.4300   1
  -8   2   7 532.170 17.6000   1
  -2  -4  -8 130.340 5.69000   1
   2   4   8 157.070 6.59000   1
   2  -4   8 121.500 6.48000   1
  -2   4  -8 150.970 6.47000   1
   2  -4   8 139.850 7.39000   1
  -2  -4  -8 162.500 6.55000   1
   2  -4   8 150.410 11.4600   1
   2   4   8 136.110 6.69000   1
  -8  -2  -2 1893.33 41.6300   1
  -8   2  -2 1942.75 55.7200   1
  -8  -2  -2 1896.68 41.5300   1
  -6  -4   2 559.250 14.6700   1
  -6  -4   2 532.080 13.5300   1
  -6   4   2 542.180 20.5300   1
   6   4  -2 538.270 14.3000   1
  -9   1   1 3433.02 75.9200   1
   9  -1  -1 3015.63 63.2900   1
   9   1  -1 3273.48 66.9400   1
  -9   1   1 2863.42 60.0600   1
  -9  -1   1 3178.21 65.8300   1
  -9  -1   1 3162.81 65.9300   1
  -6  -4   1 2179.00 46.0800   1
  -6  -4   1 2194.81 46.1600   1
  -6   4   1 2219.56 55.7100   1
   6   4  -1 2312.25 48.3600   1
  -6   0  -9 14.5700 12.1800   1
   6   0   9 0.11000 2.86000   1
   4   2 -13 179.650 8.93000   1
  -4  -2  13 232.790 8.28000   1
   4   2 -13 224.470 8.56000   1
   4  -2 -13 208.060 7.82000   1
  -4   2  13 225.180 17.3400   1
  -9  -1   5 1375.95 30.7200   1
   9  -1  -5 1055.72 48.6800   1
  -9  -1   5 1409.77 31.6700   1
   9   1  -5 1333.81 30.0900   1
   9  -1  -5 1281.49 28.9500   1
  -9   1   5 1490.85 34.5900   1
   1   3 -12 667.880 17.4200   1
  -1   3  12 704.150 21.4800   1
  -1  -3  12 698.690 18.2900   1
   1  -3 -12 742.380 18.9100   1
   1  -3 -12 687.200 17.3700   1
  -1   3  12 507.870 34.2400   1
  -6   4   3 2866.38 68.7200   1
  -6  -4   3 2640.54 54.4700   1
   6   4  -3 2697.33 55.0800   1
  -6  -4   3 2761.05 56.7900   1
   1   5   4 374.960 11.0600   1
   1   5   4 438.400 13.3500   1
   1  -5   4 401.870 12.3900   1
   1  -5   4 413.900 12.5900   1
  -1  -5  -4 400.780 11.4800   1
  -1  -5  -4 402.400 11.7800   1
   1  -5   4 349.990 11.6800   1
  -1   5  -4 386.260 11.9300   1
  -1   5  -4 431.690 12.9300   1
   7   3  -7 666.510 17.0200   1
  -7   3   7 542.310 17.4100   1
  -7  -3   7 667.630 16.3800   1
   7  -3  -7 583.470 17.6600   1
  -7   3   7 550.840 18.7700   1
  -7  -3   7 673.010 17.2000   1
  -7   3   7 530.050 17.0200   1
  -7   3   7 668.150 25.9300   1
  -7   3   7 675.490 28.1600   1
  -3   5   1 248.800 8.62000   1
  -3   5   1 290.160 10.4000   1
  -3  -5   1 287.330 9.13000   1
   3  -5  -1 275.640 9.83000   1
   3  -5  -1 295.510 9.91000   1
  -3  -5   1 321.480 10.1800   1
  -3   5   1 304.350 10.8300   1
   3   5  -1 266.690 8.67000   1
   3  -5   0 2394.03 51.1400   1
  -3   5   0 2769.70 58.9100   1
  -3   5   0 2762.14 58.5300   1
  -3  -5   0 2597.91 53.5000   1
   3  -5   0 2756.47 57.7300   1
  -3  -5   0 2817.84 57.5500   1
   3   5   0 2770.44 57.0500   1
   3  -5   0 2808.73 59.0400   1
  -3   5   2 3092.32 65.3700   1
  -3   5   2 2886.63 61.7300   1
   3   5  -2 2919.93 59.5400   1
  -3  -5   2 2961.46 60.3600   1
  -3   5   2 3098.99 63.3700   1
   3  -5  -2 3119.68 64.4800   1
   3  -5  -2 3011.03 62.2000   1
  -3  -5   2 2999.37 61.6200   1
  -6  -4   0 167.950 6.74000   1
  -6   4   0 135.260 6.71000   1
   6  -4   0 195.820 8.40000   1
  -6   4   0 169.290 10.6200   1
   6   4   0 170.140 6.36000   1
  -6  -4   0 193.840 6.90000   1
   3   3  10 1006.62 23.3000   1
  -3  -3 -10 969.860 23.4100   1
  -3  -3 -10 1005.84 24.3600   1
   3   3  10 997.330 24.7300   1
  -3   3 -10 1111.09 26.7400   1
   3  -3  10 991.790 24.3400   1
   8   0 -10 3464.79 70.7900   1
   8   0 -10 2975.49 74.2300   1
  -8   0  10 3390.38 70.2900   1
  -6  -4   4 46.0100 4.32000   1
  -6   4   4 28.7300 3.84000   1
  -6   4   4 17.3100 11.5200   1
  -6  -4   4 40.3900 3.63000   1
  -6   4   4 33.7300 3.78000   1
   6   4  -4 51.0000 4.64000   1
   6   0 -13 9.85000 4.13000   1
   9  -1   0 0.77000 2.15000   1
   9   1   0 1.93000 3.15000   1
  -9  -1   0 7.12000 4.16000   1
  -9   1   0 9.32000 8.59000   1
   9  -1   0 3.85000 2.63000   1
  -1  -5   5 180.610 7.22000   1
  -1   5   5 209.150 8.55000   1
  -1  -5   5 211.500 8.26000   1
   1  -5  -5 212.060 8.10000   1
  -1   5   5 210.340 8.30000   1
   1   5  -5 187.300 7.17000   1
   1  -5  -5 220.650 7.97000   1
   4   4   6 487.210 13.0900   1
  -4   4  -6 475.440 14.8200   1
  -4   4  -6 392.490 14.7900   1
   4  -4   6 456.380 13.9600   1
  -4  -4  -6 453.870 12.7900   1
  -4  -4  -6 468.680 13.4100   1
   7   1   7 3686.05 74.4200   1
  -7  -1  -7 3927.31 84.1100   1
  -7   1  -7 3755.29 88.1700   1
  -7  -1  -7 3367.34 71.0700   1
   7  -1   7 3506.43 71.4300   1
  -8   0  -5 8.92000 8.18000   1
   8   0   5 -2.0800 2.87000   1
  -3  -3  12 1810.43 40.6100   1
  -3   3  12 1717.97 43.0100   1
   3   3 -12 1671.13 36.6100   1
   3  -3 -12 1601.22 35.1900   1
   3  -3 -12 1624.21 38.9600   1
  -3  -3  12 1714.68 36.9600   1
   3  -5   1 28.4000 3.23000   1
   3   5   1 31.7000 3.82000   1
  -3   5  -1 30.7500 4.69000   1
  -3  -5  -1 28.9200 4.80000   1
   3  -5   1 32.1600 5.13000   1
  -3  -5  -1 31.9900 3.99000   1
   3  -5   1 35.3200 4.96000   1
  -3   5  -1 37.2500 4.60000   1
   3  -5  -3 45.7200 5.17000   1
  -3   5   3 49.3200 4.12000   1
  -3   5   3 45.8400 3.75000   1
   3   5  -3 47.5900 4.32000   1
  -3   5   3 40.2900 5.65000   1
   3  -5  -3 38.2800 4.27000   1
  -3  -5   3 41.9800 4.30000   1
  -3   5   3 32.1200 3.13000   1
  -3  -5   3 47.7000 4.06000   1
   9  -1  -6 1.45000 17.8900   1
  -9  -1   6 7.72000 3.15000   1
   9  -1  -6 6.59000 3.10000   1
  -9  -1   6 -2.9200 4.00000   1
  -9  -1   6 7.91000 3.41000   1
  -9   1   6 8.74000 3.56000   1
   9   1  -6 6.26000 3.60000   1
  -7   3  -3 250.700 32.9300   1
  -7  -3  -3 210.330 7.77000   1
   7   3   3 215.380 7.50000   1
  -7  -3  -3 200.590 8.01000   1
  -7   3  -3 197.630 14.9400   1
  -8   2   8 2286.21 49.6000   1
   8  -2  -8 2246.24 47.2500   1
   8   2  -8 2277.44 48.2800   1
  -8   2   8 2004.37 45.6600   1
  -8  -2   8 2004.12 45.2100   1
   8  -2  -8 2187.73 47.1900   1
  -8   2   8 2135.51 48.8600   1
  -8  -2   8 2253.23 46.6800   1
  -6   4  -1 1513.29 34.7000   1
  -6  -4  -1 1738.93 37.0900   1
   6   4   1 1756.55 37.6200   1
  -6  -4  -1 1783.01 38.1800   1
   6  -4   1 1753.45 39.1800   1
  -6   4  -1 1722.66 42.4200   1
  -8   2  -3 1544.99 48.2800   1
  -6  -4   5 985.210 23.3200   1
   6  -4  -5 1015.75 24.3000   1
  -6  -4   5 949.760 21.9500   1
  -6   4   5 992.010 30.8000   1
   6   4  -5 901.620 21.9000   1
  -6   4   5 791.270 22.6800   1
  -6   4   5 809.650 21.8800   1
  -6   2  -8 1566.89 36.1900   1
   6   2   8 1723.04 37.5900   1
  -6  -2  -8 1643.05 36.4500   1
  -6   2  -8 1662.99 61.8300   1
  -4   0 -12 1456.08 32.5300   1
  -4   0 -12 1375.78 40.1700   1
  -4   0 -12 1059.54 40.4700   1
  -5  -3  11 1039.80 25.3300   1
  -5   3  11 949.010 35.0100   1
   5   3 -11 1027.64 23.9900   1
  -5  -3  11 983.350 23.1900   1
   5  -3 -11 954.180 22.5900   1
  -1   1 -14 105.590 5.71000   1
  -1   1 -14 114.570 32.1200   1
  -1  -1 -14 103.520 10.9300   1
   1  -1  14 108.450 7.07000   1
   1   1  14 95.7600 5.91000   1
  -1  -1 -14 98.6700 5.75000   1
  -1   1 -14 85.9600 4.87000   1
  -1  -1 -14 61.1600 4.62000   1
  -3   5  -2 2332.44 49.6400   1
  -3  -5  -2 2158.64 45.7000   1
  -3  -5  -2 2063.27 43.5600   1
   3  -5   2 2123.64 45.7700   1
   3  -5   2 2180.89 47.0800   1
  -3   5  -2 2087.75 44.8000   1
   3   5   2 2215.80 46.3300   1
   2  -4 -10 234.750 8.26000   1
  -2  -4  10 248.070 9.26000   1
   2   4 -10 218.980 8.00000   1
  -2   4  10 206.880 7.80000   1
  -2  -4  10 234.790 8.44000   1
  -2  -4  10 189.070 9.20000   1
  -2   4  10 156.040 11.2300   1
  -2   4  10 232.010 10.6100   1
  -1  -5  -5 166.900 6.57000   1
  -1  -5  -5 163.660 6.79000   1
  -1   5  -5 150.040 6.51000   1
   1  -5   5 120.360 6.19000   1
   1   5   5 142.270 6.22000   1
   1   5   5 109.670 6.77000   1
   1  -5   5 191.590 8.25000   1
   1  -5   5 137.280 6.87000   1
   3   5  -4 547.830 14.6100   1
  -3   5   4 567.650 17.4800   1
   3  -5  -4 577.510 16.6000   1
  -3  -5   4 563.350 14.7100   1
   3  -5  -4 620.450 16.7900   1
  -3  -5   4 544.410 14.9500   1
  -3   5   4 589.050 15.3000   1
  -3   5   4 527.620 14.9100   1
  -9  -1  -1 1151.00 27.1000   1
   9   1   1 1158.06 26.1100   1
   9  -1   1 1143.52 26.8300   1
  -9   1  -1 1250.91 35.5500   1
   2   0 -15 1.81000 3.51000   1
  -2   0  15 7.48000 11.8400   1
   2   0 -15 2.78000 3.70000   1
   2   0 -15 -15.500 25.1900   1
  -4  -4   9 251.970 8.59000   1
  -4   4   9 284.410 13.6800   1
  -4   4   9 209.220 9.24000   1
   4  -4  -9 237.670 9.88000   1
  -4  -4   9 278.330 9.55000   1
  -4   4   9 201.170 8.60000   1
   4   4  -9 245.270 8.28000   1
  -4   4   9 214.720 10.7000   1
   4  -4  -9 264.970 9.23000   1
  -7   3   8 1641.24 39.5100   1
   7  -3  -8 1542.55 34.9100   1
   7   3  -8 1776.86 38.4200   1
  -7   3   8 1945.76 57.4600   1
  -7   3   8 1519.52 37.6400   1
  -7  -3   8 1828.31 38.5300   1
  -7   3   8 1546.81 38.3600   1
  -6  -2  12 2041.94 44.9400   1
  -6  -2  12 2027.49 42.9600   1
   6   2 -12 1849.91 39.7100   1
  -6   2  12 1999.61 62.0200   1
   6  -2 -12 1853.21 40.3300   1
  -2   2  14 40.0300 8.17000   1
   2  -2 -14 48.2300 5.01000   1
   2   2 -14 52.0600 4.94000   1
  -2  -2  14 55.7700 4.91000   1
   2  -2 -14 59.1900 5.20000   1
  -9  -1   7 42.5400 4.02000   1
   9  -1  -7 46.6100 20.5600   1
   9  -1  -7 40.8800 4.06000   1
   9   1  -7 45.4300 4.36000   1
  -9   1   7 35.3200 3.34000   1
  -9   1   7 46.5200 4.04000   1
  -9  -1   7 46.2700 4.81000   1
   5  -3   8 99.9700 6.93000   1
  -5  -3  -8 111.990 5.95000   1
   5   3   8 126.060 5.86000   1
   5  -3   8 82.7900 5.20000   1
  -5   3  -8 119.310 6.21000   1
  -5   3  -8 63.8700 44.7200   1
  -5  -3  -8 121.430 6.46000   1
   0   4 -10 33.7100 3.91000   1
   0   4  10 47.8000 4.17000   1
   0   4  10 40.5300 5.66000   1
   0  -4  10 29.4500 4.07000   1
   0   4  10 27.5300 5.33000   1
   0  -4  10 51.2200 5.55000   1
   0  -4  10 48.4400 5.80000   1
   0  -4 -10 33.3300 3.97000   1
   0  -4 -10 37.3400 4.03000   1
  -4   2 -11 496.200 15.2700   1
   4   2  11 460.010 12.6900   1
  -4  -2 -11 371.560 15.5600   1
  -4  -2 -11 457.020 13.8700   1
  -4   2 -11 401.580 38.6500   1
   1   5  -6 1255.32 28.6700   1
  -1   5   6 1324.72 29.8200   1
  -1   5   6 1290.91 30.4200   1
  -1  -5   6 1185.51 27.1400   1
   1  -5  -6 1323.20 34.0400   1
  -1  -5   6 1231.02 28.8900   1
   1  -5  -6 1263.82 32.6000   1
   6   4   2 418.670 12.6300   1
  -6  -4  -2 511.980 14.9200   1
  -6   4  -2 483.330 16.3800   1
  -6  -4  -2 536.020 15.4000   1
   6  -4   2 511.400 16.2400   1
  -6   4  -2 564.600 20.2400   1
  -7  -1  12 42.7400 3.74000   1
  -7   1  12 32.7400 3.78000   1
   7  -1 -12 51.0500 3.90000   1
  -7  -1  12 35.3600 3.97000   1
   7   1 -12 40.1100 4.03000   1
   7   1 -12 46.1200 4.35000   1
   7  -1 -12 45.7500 4.40000   1
   1   3  12 118.480 6.89000   1
  -1   3 -12 127.460 6.30000   1
  -1  -3 -12 155.330 7.00000   1
  -1  -3 -12 129.260 6.67000   1
   1  -3  12 125.320 6.85000   1
   1   3  12 93.3700 13.9500   1
  -1  -3 -12 110.730 8.02000   1
  -2  -4  -9 222.930 8.32000   1
   2   4   9 236.690 8.39000   1
   2   4   9 230.530 9.05000   1
   2  -4   9 203.480 13.1800   1
   2  -4   9 230.710 9.83000   1
  -2   4  -9 219.500 8.54000   1
  -2  -4  -9 248.370 9.14000   1
  -6   4   6 42.2100 3.93000   1
  -6   4   6 30.7400 3.52000   1
  -6   4   6 59.3400 27.9700   1
  -6   4   6 35.6000 10.9300   1
   6   4  -6 43.7900 7.47000   1
  -6   4   6 39.0100 3.62000   1
  -6  -4   6 32.5500 4.41000   1
  -6  -4   6 45.9900 4.49000   1
   6  -4  -6 37.2700 4.47000   1
   5   1 -14 1.17000 4.14000   1
  -5   1  14 11.8300 18.1600   1
   5  -1 -14 4.14000 4.18000   1
   5  -1 -14 1.60000 3.81000   1
   5   1 -14 -0.6000 2.59000   1
  -3  -5  -3 2.47000 3.25000   1
   3  -5   3 2.45000 4.86000   1
   3   5   3 2.96000 3.64000   1
  -3   5  -3 6.64000 3.11000   1
  -3   5  -3 0.61000 3.68000   1
   3  -5   3 11.9300 4.85000   1
  -3  -5  -3 8.16000 3.69000   1
  -7  -3  -4 353.070 11.6800   1
  -7   3  -4 335.670 34.6700   1
  -7  -3  -4 419.550 13.5800   1
  -7   3  -4 345.390 19.7000   1
   7   3   4 349.100 10.9900   1
  -3   5   5 11.7000 3.06000   1
   3   5  -5 21.4000 3.73000   1
  -3   5   5 17.6000 3.31000   1
   3  -5  -5 13.0800 3.70000   1
  -3  -5   5 13.9300 3.24000   1
  -3   5   5 20.1900 6.03000   1
  -3  -5   5 16.5700 4.56000   1
  -3   5   5 8.50000 2.61000   1
   3  -5  -5 12.4100 4.37000   1
  -3  -1 -13 2225.64 54.0100   1
  -3   1 -13 2253.43 55.4700   1
  -3  -1 -13 1680.27 57.0400   1
  -3  -1 -13 2300.67 60.1400   1
  -3   1 -13 2145.16 73.7600   1
  -2   0 -14 3127.33 79.3800   1
   2   0  14 2561.69 65.2800   1
  -2   0 -14 3053.25 61.8400   1
  -8   2   9 931.290 28.0100   1
   8   2  -9 1127.67 28.7700   1
   8  -2  -9 1121.01 30.3100   1
   8  -2  -9 1240.46 31.8600   1
  -8  -2   9 1227.28 31.5100   1
  -8  -2   9 1160.99 29.6100   1
  -8   2   9 1084.91 29.5000   1
   8   0 -11 -6.1300 5.13000   1
   8   0 -11 -4.5100 3.20000   1
   9  -1   2 12.8100 2.65000   1
   9  -1   2 14.0900 3.13000   1
   9   1   2 30.0400 3.75000   1
  -9  -1  -2 19.9100 5.07000   1
  -9   1  -2 25.1900 10.1900   1
  -4   4  -7 1312.12 35.9700   1
  -4   4  -7 1236.86 32.6600   1
   4  -4   7 1346.34 35.3400   1
   4  -4   7 1076.37 29.7400   1
   4   4   7 1346.82 34.2400   1
  -4  -4  -7 1306.81 33.2100   1
  -4  -4  -7 1328.90 33.6900   1
   0   0 -15 20.4600 20.2200   1
  -2   2 -13 94.5300 5.75000   1
  -2  -2 -13 115.020 6.09000   1
  -2   2 -13 101.690 5.33000   1
   2  -2  13 118.170 7.18000   1
  -2  -2 -13 113.650 6.92000   1
   2   2  13 98.1000 5.99000   1
   8   2   4 1371.58 34.1700   1
  -8  -2  -4 1400.22 37.1100   1
  -8   2  -4 1372.67 50.0400   1
  -8  -2  -4 1461.27 37.7300   1
   1   1 -15 2658.45 64.1100   1
   1   1 -15 2481.15 60.2400   1
  -1  -1  15 2626.84 63.3600   1
  -1   1  15 2616.61 69.3000   1
   1  -1 -15 2564.97 73.4400   1
   1  -1 -15 2567.08 62.1300   1
  -1  -1  15 2353.09 72.5400   1
   0  -2 -14 2564.96 64.0100   1
   0  -2  14 2421.89 58.4700   1
   0  -2 -14 2551.43 63.8900   1
   0  -2 -14 2401.32 57.3900   1
   0  -2  14 2015.53 73.0700   1
   0   2  14 2582.59 64.5200   1
   0   2 -14 2622.94 63.7500   1
  -5   1 -11 1202.64 45.2000   1
  -5  -1 -11 982.620 29.9600   1
  -5  -1 -11 1285.53 37.0100   1
  -5   1 -11 1260.52 32.4000   1
  -5  -1 -11 1240.39 31.7800   1
   8   0   6 2237.94 54.3400   1
  -8   0  -6 2278.69 61.7500   1
   3  -1 -15 1175.91 49.1900   1
  -3  -1  15 1505.69 38.0600   1
   3  -1 -15 1482.98 37.6800   1
   3   1 -15 1460.47 36.7600   1
  -3   1  15 1483.40 47.2100   1
   4   0 -15 -5.3800 4.31000   1
   4   0 -15 -7.3400 3.56000   1
  -4   0  15 4.31000 3.47000   1
   4   0 -15 0.50000 2.30000   1
  -4   0  15 32.5500 15.9200   1
   9  -1  -8 24.3200 3.40000   1
  -9  -1   8 23.0300 3.44000   1
  -9   1   8 25.1900 3.36000   1
  -9  -1   8 26.7700 4.19000   1
  -9   1   8 24.9800 3.03000   1
   9   1  -8 33.0100 4.24000   1
  -1  -5  -6 2709.31 64.4800   1
   1  -5   6 2624.89 62.6600   1
   1  -5   6 2702.36 64.2700   1
   1   5   6 2832.24 58.1300   1
   1   5   6 2746.71 55.2000   1
  -1   5  -6 2738.58 65.0200   1
  -1  -5  -6 2971.65 59.3900   1
  -6   0 -10 3357.62 66.8400   1
  -6   0 -10 3390.42 77.5100   1
  -6   4  -3 866.310 27.3100   1
   6   4   3 797.870 22.1800   1
  -6   4  -3 733.340 21.2500   1
  -6  -4  -3 811.560 22.1900   1
  -6  -4  -3 810.230 21.3200   1
   6  -4   3 874.180 24.6900   1
   7   1   8 7.62000 3.44000   1
  -7   1  -8 49.6000 14.7300   1
   7  -1   8 7.27000 3.18000   1
  -7  -1  -8 27.8700 7.28000   1
  -7  -1  -8 10.8100 2.92000   1
   7   3  -9 491.220 14.4600   1
   7  -3  -9 457.890 15.6300   1
  -7  -3   9 503.030 14.3000   1
  -7  -3   9 467.070 14.1600   1
  -7   3   9 544.580 28.0800   1
  -7   3   9 385.740 15.1600   1
  -7   3   9 461.520 16.6900   1
  -4  -2  14 1277.26 32.9200   1
  -4   2  14 1248.81 42.7300   1
   4  -2 -14 1262.98 33.0000   1
   4   2 -14 1344.75 34.2200   1
   1  -3 -13 209.110 7.98000   1
   1   3 -13 220.490 8.89000   1
  -1   3  13 239.370 10.8200   1
  -1   3  13 216.090 27.6300   1
   1  -3 -13 149.180 8.92000   1
  -1  -3  13 235.170 9.28000   1
   1  -3 -13 218.060 9.56000   1
  -6   4   7 15.1000 10.8600   1
  -6   4   7 7.09000 2.50000   1
  -6  -4   7 12.3300 3.98000   1
  -6  -4   7 10.9300 3.91000   1
   6  -4  -7 9.18000 3.86000   1
  -6   4   7 10.2600 2.54000   1
  -6   4   7 9.99000 2.79000   1
  -6   4   7 7.68000 2.67000   1
   6   4  -7 14.2300 3.85000   1
  -3   5  -4 576.990 16.9700   1
   3  -5   4 613.600 18.2700   1
  -3   5  -4 609.540 18.0200   1
   3   5   4 577.700 16.2700   1
   3  -5   4 570.030 17.4300   1
  -3  -5  -4 582.480 16.5600   1
  -3  -5  -4 573.030 16.6700   1
   3  -3  11 943.070 26.1500   1
  -3  -3 -11 1011.31 27.6600   1
  -3  -3 -11 1012.35 27.8900   1
  -3   3 -11 1022.53 28.2200   1
   3   3  11 1057.49 27.5500   1
   3   3  11 982.170 26.4600   1
   3  -5  -6 118.060 6.29000   1
  -3   5   6 100.390 5.69000   1
   3   5  -6 110.430 5.95000   1
  -3   5   6 117.350 5.73000   1
  -3   5   6 138.570 8.20000   1
   3  -5  -6 109.180 5.86000   1
  -3  -5   6 124.580 6.28000   1
  -3   5   6 91.6200 5.44000   1
  -3  -5   6 131.010 6.88000   1
  -1   5   7 122.730 5.81000   1
  -1   5   7 128.950 7.26000   1
   1  -5  -7 111.230 5.94000   1
  -1   5   7 90.6200 4.93000   1
  -1  -5   7 123.180 6.77000   1
  -1  -5   7 120.170 6.99000   1
   1  -5  -7 118.650 5.94000   1
   1   5  -7 107.810 5.80000   1
  -6   0  14 4337.06 85.7500   1
   4   4 -10 57.3500 4.55000   1
   4  -4 -10 52.2100 4.42000   1
  -4   4  10 41.5900 4.29000   1
  -4  -4  10 53.5600 5.63000   1
  -4  -4  10 46.2500 4.94000   1
   4  -4 -10 48.4500 4.11000   1
  -4   4  10 76.3700 9.67000   1
   3  -3 -13 1900.74 48.4900   1
  -3   3  13 1958.59 53.0300   1
   3   3 -13 1952.71 47.4800   1
   3  -3 -13 1941.23 47.8700   1
  -3  -3  13 1936.30 47.0400   1
   5   3 -12 2510.18 59.7800   1
  -5   3  12 2484.45 69.4200   1
  -5  -3  12 2456.80 58.3600   1
   5  -3 -12 2416.10 59.0300   1
  -5  -3  12 2540.95 61.3700   1
  -6   2  -9 740.180 41.8200   1
  -6  -2  -9 708.320 20.7200   1
  -6   2  -9 744.750 21.7400   1
   6   2   9 739.200 20.3000   1
  -2  -4  11 960.710 28.0300   1
   2   4 -11 1026.47 27.0500   1
  -2  -4  11 1137.10 29.7900   1
  -2  -4  11 1184.58 31.5900   1
   2  -4 -11 1064.61 28.8500   1
   2  -4 -11 1033.41 27.5500   1
  -2   4  11 1103.76 31.2800   1
  -9  -1  -3 61.7700 6.33000   1
  -9   1  -3 55.9700 10.1300   1
   9   1   3 62.0100 4.41000   1
   9  -1   3 48.3600 3.86000   1
   9  -1   3 36.7100 3.59000   1
  -7  -3  -5 760.170 20.6300   1
  -7   3  -5 761.640 43.4000   1
  -7  -3  -5 819.480 22.6700   1
   7   3   5 795.380 21.4300   1
  -7   3  -5 722.310 27.0700   1
  -8   2  10 1248.86 36.1000   1
  -8  -2  10 1446.78 35.8400   1
   8   2 -10 1411.82 35.0000   1
   8  -2 -10 1367.25 35.8100   1
  -8   2  10 1219.69 33.4900   1
  -8  -2  10 1480.04 37.7200   1
   8  -2 -10 1376.10 34.3800   1
   9  -1  -9 505.790 15.2300   1
   9   1  -9 447.380 13.8200   1
  -9   1   9 424.140 13.4500   1
   9  -1  -9 366.930 31.7300   1
  -9  -1   9 496.350 14.7400   1
  -9  -1   9 456.710 15.2300   1
  -6  -2  13 407.470 16.4900   1
   6  -2 -13 462.080 14.7100   1
   6   2 -13 450.530 14.3600   1
  -6   2  13 484.370 26.6700   1
  -6  -2  13 415.190 13.8000   1
  -5  -3  -9 90.5500 6.00000   1
   5   3   9 67.2500 5.08000   1
   5  -3   9 86.0200 6.51000   1
  -5   3  -9 68.4000 5.32000   1
  -5  -3  -9 62.9000 4.90000   1
  -5   3  -9 149.920 40.7800   1
  10   0  -3 7.04000 3.51000   1
 -10   0   3 2.36000 2.31000   1
 -10   0   3 8.85000 4.13000   1
   6  -4   4 70.7000 6.24000   1
  -6  -4  -4 66.7400 5.25000   1
  -6   4  -4 54.1600 4.66000   1
  -6  -4  -4 52.6700 4.94000   1
  -6   4  -4 59.7100 6.15000   1
   6   4   4 52.1700 4.46000   1
   0  -4 -11 1434.70 39.1300   1
   0  -4 -11 1792.17 44.0400   1
   0   4  11 1718.12 44.0300   1
   0   4  11 1729.79 42.3400   1
   0   4 -11 1748.99 43.9500   1
   0  -4  11 1947.42 48.0600   1
   0  -4  11 1517.53 40.4100   1
   8  -2   5 1023.06 28.7300   1
  -8  -2  -5 1195.67 32.1300   1
  -8   2  -5 1116.32 41.7100   1
  -8  -2  -5 1185.01 32.7300   1
   8   2   5 1159.06 30.0000   1
 -10   0   4 1460.12 37.2000   1
  10   0  -4 1515.97 38.1500   1
 -10   0   2 930.480 25.7800   1
  10   0  -2 885.810 24.3700   1
 -10   0   2 728.920 21.6800   1
  -7  -1  13 66.0800 4.62000   1
  -7   1  13 44.6400 3.60000   1
   7   1 -13 52.6700 4.22000   1
   7  -1 -13 52.9600 5.08000   1
   7   1 -13 79.3200 5.09000   1
   7  -1 -13 66.1500 5.37000   1
   1   5   7 6.64000 4.24000   1
   1  -5   7 7.86000 5.43000   1
   1  -5   7 -1.1600 4.98000   1
   1  -5   7 6.47000 4.97000   1
  -1   5  -7 15.7400 3.47000   1
  -1  -5  -7 18.1900 3.63000   1
  -1  -5  -7 15.6300 3.86000   1
   1   5   7 5.68000 3.52000   1
  -2  -4 -10 33.0200 4.68000   1
  -2  -4 -10 46.0500 4.46000   1
  -2   4 -10 44.9700 4.53000   1
   2  -4  10 45.0800 5.78000   1
   2  -4  10 33.0800 7.67000   1
   2   4  10 59.3900 5.68000   1
   2   4  10 45.1100 3.74000   1
  -6   4   8 3.49000 11.9700   1
   6   4  -8 6.62000 3.82000   1
  -6   4   8 8.39000 2.58000   1
   6  -4  -8 11.3100 3.43000   1
  -6   4   8 11.2700 2.84000   1
  -6  -4   8 3.63000 3.55000   1
  -6  -4   8 2.34000 3.66000   1
  -3   5  -5 -0.4000 2.65000   1
   3  -5   5 -0.7900 2.45000   1
   3   5   5 0.96000 3.47000   1
  -3   5  -5 -2.3000 3.31000   1
   3  -5   5 0.97000 5.04000   1
   3  -5   5 0.26000 4.83000   1
  -3  -5  -5 -8.5100 3.31000   1
  -3  -5  -5 3.56000 3.73000   1
  -4   0 -13 8.71000 3.93000   1
  -4   0 -13 -41.810 13.7500   1
 -10   0   5 -3.3500 3.51000   1
   8   0 -12 2833.97 57.7900   1
  -8   0  12 2406.48 60.3200   1
   8   0 -12 2328.37 62.3400   1
   4  -4   8 122.220 7.66000   1
  -4   4  -8 180.860 8.48000   1
   4   4   8 187.020 7.60000   1
  -4   4  -8 145.070 7.25000   1
   4  -4   8 157.160 8.32000   1
  -4  -4  -8 211.000 8.43000   1
  -4  -4  -8 174.830 7.47000   1
  -4  -4  -8 172.490 7.08000   1
  -3  -5   7 3.68000 3.85000   1
  -3   5   7 2.81000 2.60000   1
   3  -5  -7 10.4500 3.79000   1
  -3  -5   7 -0.1600 4.70000   1
   3   5  -7 6.80000 3.39000   1
  -3   5   7 6.37000 3.22000   1
  -3   5   7 7.30000 5.40000   1
  10   0  -1 3.48000 3.06000   1
 -10   0   1 -0.7100 4.78000   1
 -10   0   1 3.54000 2.61000   1
  -7  -3  10 39.1000 4.27000   1
  -7   3  10 4.98000 15.7300   1
   7   3 -10 47.1300 4.89000   1
   7  -3 -10 23.4600 3.67000   1
  -7   3  10 29.1300 3.38000   1
  -7  -3  10 39.4000 4.17000   1
  -4  -2 -12 1.16000 4.64000   1
  -4   2 -12 18.6800 3.99000   1
  -4  -2 -12 11.4100 3.92000   1
  -8   0  -7 2.20000 8.68000   1
   8   0   7 0.03000 2.87000   1
   1   1  15 351.820 12.9600   1
  -1   1 -15 315.400 10.8200   1
  -1  -1 -15 365.160 12.5500   1
   1  -1  15 370.010 13.1200   1
  -1   1 -15 342.190 33.8800   1
  -1  -1 -15 386.680 20.1700   1
  -5  -5   2 248.630 8.75000   1
   5  -5  -2 293.130 11.1600   1
  -5  -5   2 259.170 9.58000   1
   5   5  -2 253.690 8.80000   1
  -5   5   2 223.300 11.2000   1
  -5   5   2 230.440 11.1400   1
  -5   5   2 252.910 11.1200   1
   5  -5  -2 263.630 10.5600   1
   5  -5  -1 2.13000 4.70000   1
  -5  -5   1 -0.1900 3.49000   1
  -5   5   1 4.24000 5.33000   1
   5   5  -1 5.60000 3.82000   1
  -5  -5   1 -1.0500 4.30000   1
   5  -5  -1 0.17000 4.65000   1
  -2  -2  15 -0.4900 3.76000   1
   2  -2 -15 2.20000 4.12000   1
   2   2 -15 11.7200 4.29000   1
  -2   2  15 -11.430 7.96000   1
   2  -2 -15 8.62000 3.88000   1
  -2   0  16 462.420 21.7900   1
   2   0 -16 342.650 15.3800   1
  -2   0  16 455.420 15.2900   1
   2   0 -16 447.410 32.8600   1
  -1  -5   8 934.740 25.3300   1
   1  -5  -8 765.440 20.8500   1
  -1   5   8 924.160 25.8500   1
   1   5  -8 956.040 25.2100   1
  -1   5   8 884.980 23.4000   1
  -1  -5   8 920.560 24.9300   1
   1  -5  -8 913.540 24.1000   1
  -1  -3 -13 18.8200 3.96000   1
   1   3  13 0.41000 4.14000   1
  -1  -3 -13 8.23000 3.94000   1
  -1   3 -13 6.42000 3.84000   1
  -1  -3 -13 3.18000 2.85000   1
   1   3  13 4.33000 19.3500   1
   1  -3  13 -5.4900 4.76000   1
  -1  -3 -13 6.00000 3.49000   1
  -5   5   3 48.6300 4.79000   1
   5  -5  -3 71.6500 5.58000   1
   5  -5  -3 66.0300 5.34000   1
  -5  -5   3 58.1500 5.16000   1
  -5   5   3 57.7300 6.83000   1
   5   5  -3 71.6900 5.03000   1
  -5   5   3 63.4100 5.58000   1
  -5  -5   3 76.2800 5.03000   1
  10   0  -6 1274.82 32.8300   1
 -10   0   6 1316.28 33.4600   1
 -10   0   6 1251.29 33.0000   1
   5  -1 -15 91.0500 5.89000   1
   5  -1 -15 91.8600 5.90000   1
   5   1 -15 49.8000 4.45000   1
  -5  -1  15 77.0400 6.50000   1
  -5   1  15 78.4100 5.48000   1
  -5   1  15 78.6900 17.2100   1
   5   1 -15 89.1700 5.70000   1
  -5  -5   0 400.510 13.1000   1
  -5  -5   0 405.600 12.3800   1
   5  -5   0 444.810 14.9600   1
  -5   5   0 406.330 14.1100   1
   5   5   0 431.680 13.2400   1
   5  -5   0 394.480 13.1600   1
   9  -1   4 20.0100 2.86000   1
   9  -1   4 18.5100 2.58000   1
  -9   1  -4 46.3500 11.8700   1
  -9  -1  -4 17.8200 5.35000   1
   9  -1   4 33.1000 3.35000   1
   9   1   4 28.8500 3.84000   1
 -10   0   0 14.1900 5.13000   1
  10   0   0 -0.3700 3.64000   1
  -5   5   4 401.460 15.2100   1
   5   5  -4 454.530 13.6300   1
  -5   5   4 409.390 15.9600   1
  -5  -5   4 468.560 14.1100   1
   5  -5  -4 485.520 14.9500   1
  -5  -5   4 444.860 13.3400   1
   5  -5  -4 508.280 15.9000   1
  -5   5   4 498.030 16.5700   1
   7   1   9 2112.29 51.1200   1
   7  -1   9 2026.64 49.6500   1
  -7  -1  -9 1671.40 43.6400   1
  -7  -1  -9 2070.60 52.8800   1
  -7   1  -9 1919.77 59.9100   1
   4  -4 -11 80.2000 5.01000   1
   4   4 -11 94.9000 5.92000   1
   4  -4 -11 83.8900 5.36000   1
  -4  -4  11 103.160 6.62000   1
  -4   4  11 96.8300 10.0100   1
  -4  -4  11 92.7900 5.69000   1
  -5  -5  -1 21.9900 3.73000   1
  -5  -5  -1 6.65000 4.32000   1
  -5   5  -1 15.5000 2.97000   1
   5   5   1 17.0600 3.88000   1
  -5   5  -1 17.3900 4.82000   1
   5  -5   1 7.95000 4.36000   1
   5  -5   1 28.8700 5.12000   1
  -7  -3  -6 1032.51 26.9600   1
  -7   3  -6 1000.66 55.1700   1
   7   3   6 1110.56 28.4800   1
  -7   3  -6 933.310 36.4400   1
  -9   1  10 327.990 10.9900   1
  -9  -1  10 367.880 11.8400   1
   9  -1 -10 285.040 23.8200   1
   9   1 -10 387.550 12.4300   1
  -9  -1  10 341.920 13.9200   1
   9  -1 -10 352.630 11.6000   1
  -5   1 -12 118.600 6.54000   1
  -5  -1 -12 117.890 5.93000   1
  -5  -1 -12 72.5600 6.76000   1
  -5  -1 -12 109.700 9.51000   1
  -5   1 -12 205.170 21.7000   1
   5   1  12 78.2200 4.90000   1
  -6  -4  -5 0.74000 3.91000   1
   6   4   5 3.22000 3.32000   1
  -6   4  -5 -0.0100 4.08000   1
  -6  -4  -5 -3.1700 4.16000   1
  -6  -4  -5 -2.5800 3.30000   1
   6  -4   5 -10.500 5.03000   1
  -3   1 -14 34.0800 26.3600   1
  -3  -1 -14 17.7300 10.4700   1
  -3   1 -14 9.05000 4.23000   1
  -3  -1 -14 16.2300 4.25000   1
  -3  -1 -14 23.0100 8.11000   1
  -6   0 -11 -4.1800 3.76000   1
  -6   0 -11 13.4700 12.7000   1
 -10   0   7 -2.8000 3.17000   1
  10   0  -7 -0.4000 3.15000   1
 -10   0   7 10.5800 3.47000   1
  -2  -2 -14 2432.19 59.2500   1
   2   2  14 2539.97 62.9200   1
  -2   2 -14 2267.50 55.5500   1
   2  -2  14 2574.22 62.8100   1
  -2  -2 -14 2495.73 63.4600   1
  -2   2 -14 2271.72 87.2700   1
  -2   2 -14 2510.02 60.6800   1
   8  -2 -11 120.140 6.06000   1
  -8   2  11 134.540 22.7200   1
   8   2 -11 82.3900 6.04000   1
  -8  -2  11 97.3400 6.90000   1
   8   2 -11 97.4800 5.89000   1
   8  -2 -11 93.9000 5.93000   1
  -8   2  11 65.3500 4.77000   1
  -8  -2  11 99.0300 5.50000   1
  -8   2  11 87.9800 5.67000   1
  -2   0 -15 4.67000 14.2000   1
  -2   0 -15 -0.4500 3.87000   1
   6  -4  -9 429.140 14.0200   1
  -6   4   9 397.690 14.8600   1
   6   4  -9 454.550 13.6100   1
  -6   4   9 539.540 22.9200   1
  -6  -4   9 468.690 13.5800   1
  -6   4   9 433.670 43.1200   1
  -6   4   9 354.390 13.9100   1
  -6  -4   9 492.570 15.0200   1
   6  -4  -9 366.230 13.5700   1
   0  -2 -15 757.560 24.8800   1
   0  -2  15 782.510 22.9400   1
   0  -2 -15 818.730 24.3300   1
   0   2 -15 880.770 24.7700   1
   0  -2 -15 743.290 21.0100   1
   0   2  15 821.130 25.8500   1
   0  -2  15 654.760 34.2300   1
   3   5   6 319.700 11.7700   1
   3   5   6 330.300 11.1500   1
  -3   5  -6 323.950 11.4400   1
  -3  -5  -6 308.690 10.1000   1
   3  -5   6 301.620 12.0500   1
  -3  -5  -6 324.130 10.4600   1
   3  -5   6 312.730 11.2400   1
   3  -5   6 272.850 17.4200   1
  -3   5  -6 267.610 9.88000   1
   4   0 -16 1112.63 35.1100   1
  -4   0  16 1594.55 42.4000   1
   4   0 -16 1618.81 67.8800   1
  -3  -1  16 235.370 9.33000   1
  -3   1  16 201.160 14.5400   1
   3   1 -16 234.770 9.50000   1
   3  -1 -16 246.460 9.34000   1
   8  -2   6 438.410 14.7600   1
   8  -2   6 359.080 12.8000   1
   8   2   6 499.840 14.7500   1
  -8   2  -6 516.790 28.3200   1
  -8  -2  -6 513.320 16.7000   1
   1  -1 -16 433.240 14.1900   1
   1   1 -16 444.270 13.7800   1
   1   1 -16 432.050 40.2000   1
   1  -1 -16 460.420 24.1600   1
  -1  -1  16 376.850 20.4200   1
  -1   1  16 434.020 17.6600   1
   1   1 -16 462.540 14.3500   1
  -1  -1  16 479.140 15.4800   1
  -3   5   8 155.100 8.64000   1
  -3   5   8 171.880 7.32000   1
   3   5  -8 168.760 7.04000   1
  -3  -5   8 158.140 7.74000   1
   3  -5  -8 143.630 6.94000   1
  -3   5   8 111.180 6.04000   1
  -3  -5   8 154.760 7.24000   1
   3  -5  -8 151.020 7.16000   1
  -3   3 -12 1888.53 47.0300   1
  -3  -3 -12 1969.56 49.0500   1
   3  -3  12 1977.27 50.0800   1
  -3  -3 -12 1941.56 48.4400   1
   3   3  12 2015.23 50.2600   1
   3   3  12 1865.52 45.4900   1
   0   0 -16 419.380 26.7800   1
   0   0  16 423.300 16.7600   1
   0   0 -16 435.450 13.8600   1
  -5   5   5 2.38000 7.56000   1
   5  -5  -5 3.31000 3.69000   1
  -5  -5   5 2.59000 4.07000   1
   5  -5  -5 6.30000 4.02000   1
  -5  -5   5 2.86000 3.80000   1
   5   5  -5 10.7900 3.49000   1
  -1   3  14 1976.26 44.5100   1
   1  -3 -14 2016.34 42.7000   1
   1   3 -14 1959.56 40.8300   1
   1  -3 -14 2156.92 46.0500   1
  -1  -3  14 2048.19 44.3500   1
  -4   2  15 12.8800 12.7200   1
   4  -2 -15 9.68000 4.27000   1
   4   2 -15 22.8400 4.79000   1
  -4  -2  15 7.88000 4.24000   1
   4   2 -15 13.1300 2.95000   1
  10   0   1 1.91000 2.96000   1
 -10   0  -1 2.56000 7.08000   1
   5   3 -13 392.060 11.5300   1
  -5   3  13 381.470 18.7400   1
  -5  -3  13 396.560 12.2800   1
   5  -3 -13 389.450 11.9300   1
  -5  -3  13 390.160 11.7000   1
   1   5   8 2535.56 52.5100   1
   1   5   8 2580.97 52.1900   1
  -1  -5  -8 2500.01 50.5500   1
  -1  -5  -8 2344.33 48.1400   1
   1  -5   8 2316.94 48.5100   1
   1  -5   8 2441.26 50.7600   1
  -1   5  -8 2512.48 51.3400   1
   2  -4 -12 36.2500 4.24000   1
  -2  -4  12 28.8200 4.90000   1
  -2  -4  12 18.5900 4.71000   1
  -2   4  12 25.8100 8.28000   1
  -2  -4  12 22.7300 3.67000   1
   2   4 -12 27.6500 4.27000   1
   2  -4 -12 26.1200 3.68000   1
   6   0 -15 6.39000 4.03000   1
  -5  -5  -2 2540.95 51.3200   1
  -5   5  -2 2521.34 53.7300   1
  -5  -5  -2 2560.78 51.6600   1
  -5   5  -2 2821.43 61.1700   1
   5  -5   2 2570.71 53.4100   1
   5   5   2 2623.89 52.5800   1
  -6   2 -10 954.980 24.0200   1
  -6  -2 -10 1074.83 26.1300   1
   6   2  10 1079.40 24.5900   1
  -6   2 -10 1019.67 44.8700   1
   3   3 -14 259.740 9.61000   1
  -3   3  14 217.510 11.9800   1
  -3  -3  14 268.740 9.35000   1
   3  -3 -14 230.370 8.33000   1
   3  -3 -14 183.770 9.08000   1
  -9  -3   3 785.530 19.4100   1
  -9   3   3 744.930 27.5200   1
  -9  -3   3 772.100 18.5400   1
   9   3  -3 742.840 18.1500   1
  -9   3   3 820.450 37.6900   1
  -7  -3  11 137.900 6.77000   1
  -7  -3  11 123.980 5.80000   1
  -7   3  11 99.5400 7.36000   1
   7   3 -11 132.490 6.05000   1
  -7   3  11 165.990 21.3600   1
   7  -3 -11 122.010 6.87000   1
  -5  -3 -10 -9.7000 3.88000   1
   5  -3  10 0.57000 5.81000   1
  -5   3 -10 -20.760 38.3000   1
   5   3  10 10.2800 3.66000   1
  -5   3 -10 -1.5400 3.67000   1
  -5  -3 -10 5.59000 5.20000   1
  -9   3   2 1818.78 53.7500   1
  -9   3   2 2087.62 61.4100   1
   9   3  -2 1799.04 37.2300   1
  -9  -3   2 1883.55 39.9600   1
  -9  -3   2 2039.19 43.1300   1
  -9  -3   4 219.930 8.15000   1
  -9  -3   4 197.870 7.53000   1
   9   3  -4 213.320 7.71000   1
  -9   3   4 251.270 15.8000   1
  -9   3   4 223.650 23.1400   1
   6  -2 -14 419.200 12.6600   1
  -6  -2  14 434.730 12.5300   1
  -6  -2  14 332.390 15.2000   1
  -6   2  14 386.130 24.1800   1
   6   2 -14 448.870 12.8700   1
 -10   0   8 1002.29 23.5700   1
  10   0  -8 1208.78 27.9600   1
 -10   0   8 956.970 25.0200   1
  -8   0  13 7.48000 3.17000   1
   8   0 -13 -0.9000 3.68000   1
  -4   4  -9 3487.18 225.770   1
  -4  -4  -9 3532.23 228.050   1
  -4  -4  -9 3409.42 220.790   1
  -4  -4  -9 3497.62 225.460   1
   4   4   9 3499.31 225.680   1
   0  -4 -12 239.820 8.42000   1
   0  -4 -12 204.890 9.38000   1
   0   4 -12 251.410 8.93000   1
   0   4  12 237.650 9.44000   1
   0  -4  12 194.770 8.82000   1
   0   4  12 204.540 16.2600   1
   0  -4  12 233.950 8.75000   1
   0   4  12 284.180 9.76000   1
   1   5  -9 64.5300 4.90000   1
  -1   5   9 75.0000 4.86000   1
   1  -5  -9 77.0300 5.47000   1
  -1  -5   9 64.2900 6.22000   1
   1  -5  -9 72.1200 4.86000   1
  -1  -5   9 77.5600 4.96000   1
  -1   5   9 39.4400 4.24000   1
  -1   5   9 67.8900 6.47000   1
   9   1   5 231.820 7.95000   1
   9  -1   5 210.020 8.48000   1
   9  -1   5 162.640 7.61000   1
  -9  -1  -5 231.810 9.70000   1
  -9   1  -5 270.680 15.9800   1
   9  -1   5 178.490 7.42000   1
  -7  -1  14 40.9000 4.19000   1
   7  -1 -14 46.7100 4.93000   1
   7  -1 -14 36.5000 4.33000   1
  -7   1  14 37.0400 3.65000   1
   7   1 -14 37.7600 3.88000   1
   7   1 -14 45.5200 4.65000   1
   2   4  11 272.620 9.01000   1
  -2   4 -11 294.070 10.3800   1
  -2  -4 -11 253.700 8.68000   1
  -2  -4 -11 276.460 9.45000   1
   2  -4  11 201.820 17.3800   1
   2   4  11 273.080 9.75000   1
   9   3  -1 588.240 14.8800   1
  -9   3   1 595.520 30.7300   1
  -9  -3   1 620.480 15.5500   1
  -9   3   1 552.090 25.6500   1
  -9  -3   1 650.980 16.9500   1
  -9  -3   1 572.660 14.8300   1
   5  -5  -6 705.440 19.9000   1
  -5  -5   6 691.040 17.5100   1
   5  -5  -6 755.780 19.3800   1
  -5  -5   6 709.100 17.5400   1
  -5   5   6 645.030 21.3700   1
   5   5  -6 747.190 18.1300   1
  -5   5   6 610.270 20.7900   1
  -5   5   6 719.050 21.6200   1
   8   0   8 1.59000 3.35000   1
  -8   0  -8 3.66000 2.92000   1
  -8   0  -8 22.6600 8.85000   1
  -9   3   5 46.6900 21.5600   1
  -9   3   5 53.0500 12.1200   1
  -9  -3   5 33.9100 4.28000   1
   9   3  -5 36.2000 3.92000   1
  -9   3   5 20.4800 3.73000   1
  -9  -3   5 60.5600 4.82000   1
   5  -5   3 31.8100 5.56000   1
  -5  -5  -3 42.7800 4.12000   1
  -5  -5  -3 31.2900 4.36000   1
  -5   5  -3 44.5600 3.94000   1
   5   5   3 61.6500 4.82000   1
  -5   5  -3 35.7600 4.81000   1
  10   0   2 285.160 10.0900   1
 -10   0  -2 299.840 11.8600   1
   0  -6   0 694.630 17.6200   1
   0   6   0 742.030 18.2500   1
   0   6   0 750.780 19.1400   1
   0  -6   0 753.380 18.4700   1
  -6  -4  -6 69.7800 4.78000   1
   6  -4   6 53.3400 6.16000   1
  -6  -4  -6 74.5900 5.25000   1
  -6  -4  -6 54.9800 5.20000   1
  -6   4  -6 54.6600 3.78000   1
  -6   4  -6 58.3900 4.67000   1
   6   4   6 61.6000 4.70000   1
  -6   4  -6 48.1400 4.62000   1
   9   1 -11 2040.99 42.7400   1
   9  -1 -11 2079.55 43.8700   1
  -9  -1  11 1911.09 43.6200   1
   9  -1 -11 1687.87 67.0000   1
  -9  -1  11 2052.03 42.3500   1
  -9   1  11 1745.88 43.2100   1
   9  -1 -11 2034.67 42.8200   1
   0  -6  -1 2213.19 46.3400   1
   0  -6   1 2212.85 45.9300   1
   0  -6   1 2241.61 46.2600   1
   0   6  -1 2229.13 45.6500   1
   0  -6  -1 2246.13 46.8600   1
   0   6   1 2235.47 47.2400   1
   0   6  -1 2256.29 47.1000   1
   0   6   1 2218.67 45.2900   1
   9   3   0 1772.04 37.5200   1
  -9   3   0 1873.19 56.5300   1
  -9  -3   0 1734.84 36.2900   1
  -9   3   0 1740.21 53.4600   1
  -9  -3   0 1674.54 35.6900   1
  10   2  -3 803.360 19.1600   1
 -10  -2   3 690.570 17.5100   1
  10  -2  -3 643.580 18.3600   1
 -10  -2   3 732.300 17.7100   1
 -10   2   3 823.160 27.2300   1
  10  -2  -3 720.230 17.9800   1
  -7   3  -7 541.790 25.1100   1
  -7  -3  -7 736.120 18.3100   1
  -7   3  -7 746.040 44.0200   1
  -7  -3  -7 661.020 17.8700   1
  -7   3  -7 609.300 19.6300   1
  10  -2  -4 1343.09 32.1400   1
  10   2  -4 1755.44 37.2100   1
 -10  -2   4 1706.08 36.1700   1
 -10  -2   4 1746.17 36.7500   1
  10  -2  -4 1767.64 37.8000   1
 -10  -2   4 1753.41 37.7600   1
 -10   2   4 1666.02 42.3100   1
   3   5   7 72.5400 6.09000   1
  -3   5  -7 64.9900 4.91000   1
   3  -5   7 41.9900 3.65000   1
   3  -5   7 38.7600 10.1800   1
   3  -5   7 62.3800 5.79000   1
  -3  -5  -7 55.5400 4.38000   1
  -3  -5  -7 59.9800 5.25000   1
   3   5   7 73.5700 4.84000   1
  -6   4  10 299.910 18.2600   1
   6  -4 -10 259.840 10.0000   1
   6   4 -10 249.540 8.42000   1
  -6  -4  10 270.870 8.77000   1
  -6  -4  10 222.920 8.23000   1
  -6   4  10 178.600 10.4500   1
   6  -4 -10 242.890 8.78000   1
  -9  -3   6 144.750 6.55000   1
  -9   3   6 108.130 6.43000   1
  -9  -3   6 152.580 6.57000   1
  -9   3   6 130.650 10.0000   1
  -9   3   6 160.880 21.5200   1
   9   3  -6 143.750 6.57000   1
 -10  -2   2 15.7700 3.88000   1
  10  -2  -2 7.68000 1.95000   1
  10  -2  -2 12.9900 2.44000   1
  10   2  -2 16.7700 3.56000   1
 -10  -2   2 12.0200 4.31000   1
 -10   2   2 23.9800 8.75000   1
  10  -2  -2 23.5800 3.66000   1
   0  -6  -2 52.7500 5.56000   1
   0   6  -2 62.4600 4.65000   1
   0   6   2 64.7100 4.79000   1
   0   6  -2 68.3600 5.71000   1
   0   6   2 60.7000 5.38000   1
   0  -6   2 61.5400 5.08000   1
   0  -6   2 44.2000 5.20000   1
   0  -6  -2 49.7900 5.90000   1
   3   5  -9 7.73000 3.68000   1
  -3  -5   9 20.4800 4.90000   1
   3  -5  -9 9.46000 4.04000   1
   3  -5  -9 7.49000 3.17000   1
  -3   5   9 20.3600 3.71000   1
  -3   5   9 22.3500 5.95000   1
  -3   5   9 11.1100 2.90000   1
  -3  -5   9 22.8100 4.54000   1
  -8  -4   3 57.2300 4.62000   1
  -8  -4   3 29.5600 4.46000   1
  -8   4   3 41.8900 22.9400   1
  -8   4   3 39.6500 13.5100   1
   8   4  -3 44.1300 4.27000   1
   8   4  -2 349.970 10.2600   1
  -8   4   2 322.430 18.3200   1
  -8  -4   2 345.410 10.8300   1
  -8  -4   2 348.700 10.9700   1
  -8   4   2 422.260 35.2400   1
   4   4 -12 67.0800 5.13000   1
  -4  -4  12 65.4200 6.00000   1
  -4  -4  12 74.0300 5.39000   1
   4  -4 -12 55.3500 4.70000   1
   4  -4 -12 67.0800 4.43000   1
  -4   4  12 73.9100 7.83000   1
  -4   0 -14 400.840 20.4000   1
  -4   0 -14 394.010 11.7600   1
  -4   2 -13 184.710 8.41000   1
  -4   2 -13 102.580 33.6900   1
  -4  -2 -13 180.830 8.54000   1
  -4  -2 -13 173.980 12.4100   1
 -10  -2   5 260.770 8.97000   1
 -10   2   5 189.920 9.52000   1
  10  -2  -5 260.360 8.86000   1
 -10  -2   5 279.700 9.41000   1
 -10   2   5 256.330 10.8900   1
  10   2  -5 288.380 9.16000   1
  10  -2  -5 274.560 11.2500   1
   8  -2 -12 1206.17 28.8000   1
   8   2 -12 1141.22 26.0700   1
  -8   2  12 1302.03 47.6900   1
   8  -2 -12 1182.96 27.4200   1
  -8  -2  12 1227.62 31.6300   1
  -8  -2  12 1156.64 25.3400   1
  -8   2  12 936.530 24.1300   1
 -10   0   9 -3.1900 3.72000   1
  10   0  -9 -0.1800 3.04000   1
  10  -2  -1 29.3200 3.65000   1
 -10   2   1 32.8200 8.64000   1
 -10  -2   1 31.6300 5.67000   1
  10   2  -1 40.6300 4.58000   1
 -10  -2   1 27.5600 4.67000   1
  -8   4   4 22.1500 24.8200   1
   8   4  -4 32.7100 4.13000   1
  -8   4   4 -9.2300 13.9400   1
  -8  -4   4 31.2900 3.98000   1
  -8  -4   4 35.1100 4.53000   1
   8   4  -1 1945.30 40.3400   1
  -8   4   1 1983.45 50.9800   1
  -8   4   1 1958.41 69.7500   1
  -8  -4   1 1910.70 40.4700   1
  -8  -4   1 1948.60 40.6300   1
  -8  -2  -7 81.4600 6.54000   1
   8  -2   7 79.5900 5.27000   1
   8  -2   7 55.4400 4.28000   1
  -8   2  -7 42.5100 16.4500   1
  -8   2  -7 44.6400 13.8500   1
   8   2   7 90.0200 5.27000   1
  -5   5   7 49.7000 4.88000   1
   5   5  -7 46.4800 4.74000   1
  -5   5   7 57.4600 4.47000   1
   5  -5  -7 46.5100 4.38000   1
  -5   5   7 11.3900 7.56000   1
  -5   5   7 38.1600 3.48000   1
  -5  -5   7 46.3900 4.95000   1
   5  -5  -7 54.2600 5.33000   1
  -5  -5   7 63.7200 5.09000   1
  -1  -3 -14 20.3900 3.43000   1
   1  -3  14 31.4400 5.29000   1
  -1  -3 -14 11.1700 4.49000   1
  -1  -3 -14 23.9200 3.58000   1
   1   3  14 25.9900 4.63000   1
  -1   3 -14 28.0200 4.58000   1
  -1  -3 -14 14.8800 4.35000   1
   1   3  14 7.70000 21.8700   1
  -7  -1 -10 -4.1600 6.36000   1
  -7   1 -10 2.82000 2.70000   1
  -7   1 -10 -20.840 12.9600   1
   7   1  10 1.14000 3.33000   1
  -7   1 -10 -8.5800 3.59000   1
  -1  -5  -9 61.8400 4.73000   1
   1  -5   9 54.4400 6.09000   1
  -1  -5  -9 38.7700 4.67000   1
   1   5   9 59.8400 4.80000   1
  -1   5  -9 53.9100 4.73000   1
   1   5   9 36.7500 5.07000   1
   1  -5   9 45.1500 6.64000   1
   1  -5   9 47.6000 5.61000   1
  -5   1  16 34.5000 15.3200   1
  -5   1  16 34.6600 4.11000   1
   5   1 -16 35.8000 4.70000   1
   5  -1 -16 22.9900 4.49000   1
  -5  -1  16 37.8600 4.75000   1
   5  -1 -16 46.8400 4.60000   1
   5   1 -16 17.5400 3.13000   1
  -9   3  -1 325.570 20.9700   1
  -9  -3  -1 360.140 10.3600   1
   9   3   1 353.690 10.2200   1
  -9   3  -1 333.450 21.4900   1
  -9  -3  -1 358.290 11.1900   1
   0  -6   3 985.140 23.0200   1
   0  -6  -3 896.360 21.4500   1
   0   6  -3 940.200 22.1500   1
   0   6   3 1056.61 24.3300   1
   0   6   3 938.930 22.9000   1
   0  -6  -3 1016.21 23.6000   1
   0  -6   3 918.200 22.5000   1
  -2   2  16 112.240 9.60000   1
  -2  -2  16 97.6500 6.28000   1
   2  -2 -16 80.9800 7.33000   1
   2   2 -16 108.530 6.27000   1
   2  -2 -16 88.2400 5.63000   1
  -5   5  -4 1667.37 39.2400   1
  -5  -5  -4 1691.99 37.4100   1
  -5  -5  -4 1714.77 36.1200   1
   5  -5   4 1706.69 37.8600   1
  -5   5  -4 1626.14 36.8700   1
   5   5   4 1650.37 35.2600   1
   2   6  -1 860.260 20.3900   1
  -2  -6   1 852.700 20.8800   1
   2  -6  -1 855.350 20.9000   1
  -2  -6   1 890.140 20.8500   1
  -2   6   1 866.400 20.5900   1
  -2   6   1 902.910 21.9200   1
   2  -6  -1 909.640 22.5500   1
  -2  -6   0 146.370 6.75000   1
  -2  -6   0 151.090 6.99000   1
   2  -6   0 147.280 7.61000   1
  -2   6   0 160.150 6.70000   1
   2  -6   0 140.980 6.95000   1
  -2   6   0 141.370 6.92000   1
   2   6   0 163.970 6.75000   1
  -1  -1 -16 7.65000 7.17000   1
  -1   1 -16 -43.960 25.0000   1
   1  -1  16 3.24000 5.08000   1
   1   1  16 17.5200 4.11000   1
  -1  -1 -16 8.87000 4.16000   1
  -1   1 -16 7.17000 4.01000   1
 -10  -2   6 1982.32 41.4200   1
  10   2  -6 2168.41 44.3700   1
 -10   2   6 2163.63 48.2900   1
 -10  -2   6 2135.68 44.4300   1
  10  -2  -6 2081.31 44.0700   1
  10  -2  -6 2142.70 45.1800   1
  -9  -3   7 10.1200 3.50000   1
  -9   3   7 9.71000 3.14000   1
  -9   3   7 -0.0900 7.12000   1
   9   3  -7 9.74000 4.16000   1
  -9   3   7 37.4200 18.9600   1
  -9   3   7 12.3500 3.37000   1
  -9  -3   7 7.99000 3.85000   1
 -10   0  -3 -5.3500 7.13000   1
  10   0   3 4.11000 3.43000   1
  -8  -4   5 580.030 14.9400   1
  -8   4   5 511.480 22.1000   1
   8   4  -5 532.600 13.8100   1
  -8  -4   5 500.320 13.2700   1
  -8   4   5 425.950 28.7300   1
   2   0 -17 5.24000 3.67000   1
  -2   0  17 -14.280 10.4200   1
   2   0 -17 4.16000 3.91000   1
   2   0 -17 -0.6000 2.77000   1
   2   0 -17 2.03000 2.79000   1
  -2   0  17 5.00000 3.86000   1
   2   0 -17 -18.450 18.8800   1
   2  -6  -2 13.3900 5.10000   1
   2   6  -2 16.1600 3.80000   1
  -2   6   2 23.7700 3.49000   1
  -2   6   2 21.8500 4.57000   1
   2  -6  -2 20.9700 4.19000   1
  -2  -6   2 20.4400 4.01000   1
  -2  -6   2 10.2900 4.16000   1
  -8  -4   0 9.82000 4.03000   1
  -8  -4   0 8.32000 4.23000   1
  -8   4   0 7.68000 9.31000   1
   8   4   0 8.87000 4.18000   1
   2  -6   1 2046.88 43.6600   1
  -2   6  -1 1985.49 41.7600   1
   2   6   1 2101.40 43.6500   1
  -2   6  -1 2053.05 43.3700   1
  -2  -6  -1 1955.66 40.9900   1
   2  -6   1 1999.45 42.8400   1
  -2  -6  -1 1988.81 41.2100   1
 -10  -2   0 173.570 7.41000   1
  10   2   0 193.870 7.38000   1
 -10   2   0 197.410 13.9200   1
 -10  -2   0 195.440 8.00000   1
  -7   3  12 30.5500 17.2600   1
   7   3 -12 11.0900 4.39000   1
  -7  -3  12 7.29000 3.81000   1
  -7  -3  12 2.96000 3.61000   1
   7  -3 -12 1.89000 3.68000   1
   9  -1   6 20.6900 3.13000   1
   9   1   6 47.2300 4.49000   1
   9  -1   6 33.6600 3.53000   1
  -9  -1  -6 16.3100 6.38000   1
  -9   1  -6 41.6000 12.1500   1
  -6   0 -12 1176.07 35.1400   1
  -5  -1 -13 183.460 11.1000   1
  -5  -1 -13 311.330 13.4800   1
  -5   1 -13 249.770 20.2900   1
  -5   1 -13 313.720 10.9000   1
   5   1  13 206.400 8.26000   1
  -5  -3  14 23.4700 4.38000   1
  -5  -3  14 23.6400 4.30000   1
  -5   3  14 40.5100 12.0100   1
   5   3 -14 31.3300 4.21000   1
   5  -3 -14 40.6200 4.28000   1
   2  -4 -13 175.000 7.10000   1
   2  -4 -13 181.560 7.20000   1
  -2   4  13 201.710 9.99000   1
  -2   4  13 164.180 15.6500   1
  -2  -4  13 241.480 9.11000   1
   2   4 -13 222.600 8.25000   1
  -2  -4  13 232.140 9.09000   1
  -2  -4  13 193.010 9.01000   1
  -1   5  10 50.5700 4.87000   1
  -1  -5  10 57.9700 5.33000   1
   1  -5 -10 67.0900 5.18000   1
  -1  -5  10 55.5800 5.81000   1
   1  -5 -10 63.3600 4.50000   1
   1   5 -10 63.4100 5.48000   1
  -1   5  10 74.0200 5.10000   1
  -1   5  10 71.0800 6.28000   1
   2  -6  -3 142.200 7.34000   1
  -2  -6   3 121.110 6.39000   1
  -2   6   3 123.080 6.12000   1
   2   6  -3 130.560 5.79000   1
   2  -6  -3 137.890 6.80000   1
  -2   6   3 107.470 6.35000   1
  -2  -6   3 136.100 6.90000   1
   0   6  -4 9.53000 3.74000   1
   0   6   4 9.89000 3.28000   1
   0  -6   4 10.2100 5.42000   1
   0  -6  -4 2.87000 3.60000   1
   0  -6   4 -1.7400 4.26000   1
   0   6   4 -3.8700 4.63000   1
   0  -6  -4 -3.2800 4.39000   1
  -6   2 -11 828.240 40.2900   1
  -6  -2 -11 897.590 23.0600   1
   6   2  11 964.640 22.6500   1
  -6   2 -11 923.750 22.8700   1
   2  -6   2 2.12000 4.48000   1
  -2  -6  -2 4.20000 4.56000   1
  -2  -6  -2 3.71000 3.45000   1
  -2   6  -2 5.45000 3.38000   1
   2   6   2 -3.9000 3.57000   1
  -2   6  -2 5.38000 3.79000   1
   2  -6   2 -11.930 4.02000   1
  -3  -3 -13 404.360 12.6500   1
  -3   3 -13 401.650 12.8900   1
   3   3  13 411.680 12.7500   1
   3  -3  13 418.640 13.5900   1
  -3  -3 -13 421.050 12.5600   1
   3   3  13 438.670 13.6800   1
 -10   2   7 1177.66 29.1300   1
 -10  -2   7 1187.98 26.3200   1
  10  -2  -7 1209.79 27.8000   1
 -10  -2   7 1078.03 25.6500   1
  10  -2  -7 1136.59 28.0000   1
  10   2  -7 1212.78 27.1800   1
 -10   2   7 909.550 23.9700   1
  -8  -4   6 262.670 8.83000   1
  -8   4   6 171.630 8.84000   1
  -8   4   6 170.290 8.98000   1
  -8  -4   6 240.740 8.08000   1
   8   4  -6 245.520 8.29000   1
  -8   4   6 305.050 18.4900   1
  -8   4   6 149.080 21.2700   1
  -3  -1 -15 1027.41 24.5400   1
  -3   1 -15 1113.31 25.6600   1
  -3  -1 -15 1128.18 32.6200   1
  -3   1 -15 1007.28 42.2000   1
   4   4  10 373.840 11.1000   1
  -4  -4 -10 398.390 12.2100   1
   4  -4  10 318.080 11.0100   1
  -4  -4 -10 392.240 11.7700   1
  -4   4 -10 345.620 11.9100   1
  -9  -3  -2 119.130 6.67000   1
   9   3   2 120.120 6.23000   1
  -9   3  -2 177.520 21.9200   1
  -9   3  -2 112.850 16.9400   1
  -9  -3  -2 119.930 6.11000   1
  -2  -2 -15 1346.76 34.8200   1
  -2   2 -15 1305.83 60.7000   1
  -2   2 -15 1008.43 25.9000   1
   2  -2  15 1251.28 29.1200   1
   2   2  15 1198.54 29.0100   1
  -2   2 -15 1186.52 28.0200   1
  -2  -2 -15 1132.64 26.3000   1
   6  -4   7 557.660 16.3400   1
  -6   4  -7 433.490 16.6500   1
  -6  -4  -7 571.960 14.6800   1
  -6   4  -7 533.860 50.4500   1
  -6  -4  -7 581.820 15.4100   1
  -6   4  -7 538.880 19.0900   1
   8   4   1 785.270 19.1400   1
  -8   4  -1 623.640 24.5200   1
  -8   4  -1 756.980 46.9900   1
  -8  -4  -1 771.970 18.5700   1
  -8  -4  -1 807.220 19.7500   1
  -8   0  14 44.3200 3.66000   1
   8   0 -14 39.9100 6.31000   1
   8   0 -14 59.0100 5.13000   1
   9  -1 -12 187.650 13.5600   1
  -9   1  12 150.800 11.6500   1
  -9  -1  12 170.060 12.5700   1
   9  -1 -12 182.830 13.3000   1
   9  -1 -12 164.420 24.9900   1
   9   1 -12 191.320 13.7800   1
   6   0 -16 232.650 15.1800   1
   6   0 -16 241.670 10.3500   1
  -6   0  16 240.440 10.6800   1
   6   0 -16 139.710 12.2500   1
   1  -3 -15 282.980 11.9600   1
   1  -3 -15 352.340 13.9400   1
  -1  -3  15 388.700 15.1100   1
   1  -3 -15 259.880 11.5600   1
  -1   3  15 333.370 15.2800   1
   1   3 -15 323.370 13.1700   1
   4  -2 -16 614.160 22.1400   1
  -4  -2  16 638.570 22.8200   1
  -4   2  16 706.490 32.0600   1
   4   2 -16 647.340 23.4900   1
  -5  -3 -11 33.9400 5.30000   1
   5   3  11 45.6600 5.16000   1
  -5   3 -11 26.8100 4.79000   1
  -5  -3 -11 42.6100 5.83000   1
  -5   3 -11 39.2300 36.3400   1
  10   0 -10 913.200 30.5300   1
 -10   0  10 813.220 27.2700   1
   3  -3 -15 334.690 13.3500   1
   3   3 -15 367.550 14.1800   1
  -3   3  15 360.660 17.5000   1
  -3  -3  15 380.980 14.3700   1
   3  -3 -15 286.710 13.7300   1
   4   0 -17 9.29000 3.61000   1
   4   0 -17 -0.6800 2.58000   1
  -4   0  17 4.77000 3.47000   1
   4   0 -17 22.8600 25.3200   1
   4   0 -17 3.79000 4.09000   1
  -5  -5   8 1628.52 51.4700   1
   5  -5  -8 1592.19 51.0800   1
  -5  -5   8 1678.95 52.4800   1
  -5   5   8 1648.48 55.7600   1
  -5   5   8 1202.85 39.4400   1
   5   5  -8 1625.45 51.1300   1
  -5   5   8 1249.88 43.7200   1
   0  -2 -16 9.96000 2.70000   1
   0  -2 -16 31.4300 5.72000   1
   0  -2  16 39.2400 5.99000   1
   0  -2 -16 31.4800 5.07000   1
   0   2  16 34.5900 5.97000   1
   0   2 -16 20.4900 4.37000   1
   0  -2 -16 17.3500 4.20000   1
  10  -2   1 24.7900 3.39000   1
 -10  -2  -1 57.3100 6.38000   1
 -10   2  -1 69.7700 12.8200   1
 -10  -2  -1 29.7300 4.89000   1
  10   2   1 26.6100 4.27000   1
  10  -2   1 37.1600 4.22000   1
  -9   3   8 -53.700 17.6700   1
  -9  -3   8 -0.7800 3.77000   1
  -9  -3   8 0.52000 3.23000   1
   9   3  -8 0.48000 3.50000   1
  -8   0  -9 -9.8800 9.97000   1
   8   0   9 6.77000 3.84000   1
  -8   0  -9 -2.7800 2.62000   1
   3  -1 -17 413.990 16.1300   1
  -3  -1  17 431.040 16.9400   1
   3   1 -17 450.760 16.9900   1
  -3  -1  17 358.620 24.5800   1
  -3   1  17 441.990 23.8300   1
   3   1 -17 421.570 17.6200   1
  -2   0 -16 1392.51 53.8300   1
  -2   0 -16 1444.13 46.7100   1
  -3  -5  -8 880.280 29.2100   1
  -3   5  -8 944.860 32.0900   1
  -3  -5  -8 934.790 30.5600   1
   3  -5   8 916.350 31.6200   1
   3   5   8 921.290 31.0100   1
   3   5   8 931.120 30.9800   1
   6  -2 -15 1167.60 38.3300   1
   6   2 -15 1165.33 37.7700   1
  -6   2  15 1231.09 50.5500   1
  -6  -2  15 1156.42 37.6700   1
   6  -4 -11 1150.27 37.8500   1
  -6   4  11 1301.70 49.7800   1
  -6  -4  11 1246.60 39.7900   1
  -6  -4  11 1331.23 42.9600   1
   6   4 -11 1304.89 41.8200   1
   6  -4 -11 917.910 32.9400   1
  -2  -6   4 7.11000 4.56000   1
   2  -6  -4 16.3200 4.31000   1
   2  -6  -4 0.99000 4.64000   1
  -2   6   4 4.22000 3.37000   1
   2   6  -4 21.9900 4.01000   1
  -2   6   4 1.19000 4.28000   1
  -2  -6   4 8.69000 4.41000   1
   0   4  13 1107.44 48.5300   1
   0   4  13 1705.84 54.6500   1
   0   4  13 1547.80 49.2800   1
   0  -4 -13 1385.95 48.4600   1
   0  -4 -13 1611.38 50.9600   1
   0  -4  13 1566.67 50.7300   1
   0   4 -13 1657.41 52.5300   1
   7  -1 -15 1406.79 45.5500   1
  -7  -1  15 1317.60 42.9300   1
  -7   1  15 1063.34 36.5500   1
   7   1 -15 1286.66 41.8100   1
   7  -1 -15 1348.98 43.6600   1
  -2   4 -12 174.770 13.1100   1
  -2  -4 -12 174.420 13.0500   1
   2   4  12 160.970 11.9700   1
   2   4  12 189.830 14.0400   1
   2  -4  12 196.140 13.4000   1
  -2  -4 -12 176.700 13.0900   1
  -5  -5  -5 25.2800 4.11000   1
  -5  -5  -5 10.9700 4.47000   1
   5  -5   5 28.9800 5.57000   1
  -5   5  -5 19.8800 3.67000   1
   5   5   5 29.7000 4.30000   1
  -5   5  -5 26.4500 4.06000   1
   1   1 -17 1533.50 49.7400   1
   1  -1 -17 1347.03 58.6000   1
  -1  -1  17 1190.41 49.4200   1
   1   1 -17 1463.16 48.1500   1
   1  -1 -17 1608.20 51.0700   1
  -1   1  17 1414.97 49.9000   1
   1   1 -17 1474.19 71.9900   1
  -1  -1  17 1452.65 47.1900   1
  -3  -5  10 1088.82 35.5800   1
  -3  -5  10 1085.61 35.2200   1
  -3   5  10 783.300 27.9500   1
  -3   5  10 1009.28 34.1900   1
  -3   5  10 1085.10 35.2000   1
   3   5 -10 1128.42 36.5900   1
   3  -5 -10 1150.34 37.4200   1
  -7   3  -8 970.590 38.9700   1
  -7   3  -8 1322.35 45.9300   1
  -7  -3  -8 1560.66 51.8400   1
  -7   3  -8 1482.12 68.9000   1
  -2  -6  -3 2235.73 69.2200   1
   2  -6   3 2101.11 65.9900   1
  -2  -6  -3 2130.97 66.2000   1
   2  -6   3 2237.55 70.1200   1
  -2   6  -3 2195.67 69.3300   1
   2   6   3 2182.02 68.4100   1
   2   6   3 2303.78 70.7600   1
  -2   6  -3 2054.89 65.6900   1
   0   0 -17 -1.9000 3.89000   1
   0   0  17 -2.3500 3.78000   1
   0   0 -17 -7.6700 14.2200   1
 -10   0  -4 2284.87 73.3900   1
  10   0   4 2285.41 70.7200   1
  -8  -4   7 1364.70 42.8600   1
  -8  -4   7 1408.74 45.0500   1
  -8   4   7 1288.29 54.1000   1
  -8   4   7 1425.26 55.8600   1
   8   4  -7 1343.01 42.7600   1
   0  -6   5 66.6100 7.46000   1
   0  -6  -5 76.5900 7.31000   1
   0  -6  -5 101.340 8.32000   1
   0  -6   5 76.6500 7.39000   1
   0   6   5 87.5000 8.19000   1
   0   6   5 88.2300 7.35000   1
   0   6  -5 96.2100 7.86000   1
 -10   2   8 752.040 27.1500   1
 -10  -2   8 742.260 24.5900   1
  10  -2  -8 689.920 23.6900   1
 -10  -2   8 786.730 26.6700   1
  10   2  -8 719.430 24.1900   1
  10  -2  -8 692.920 26.0100   1
 -10   2   8 546.700 22.0500   1
   8   2 -13 8.64000 4.04000   1
   8  -2 -13 11.1500 3.82000   1
   8   2 -13 7.63000 3.51000   1
   8  -2 -13 2.55000 4.62000   1
  -8  -2  13 9.57000 3.60000   1
  -8   2  13 50.2600 22.1100   1
  -8  -4  -2 643.850 22.0400   1
  -8  -4  -2 632.140 21.7300   1
  -8   4  -2 596.290 45.0600   1
  -8   4  -2 720.400 31.7200   1
   8   4   2 692.280 23.5300   1
  -1  -5 -10 1817.23 57.3500   1
  -1   5 -10 1731.35 55.1500   1
   1   5  10 1653.47 52.4100   1
   1   5  10 1664.24 53.2900   1
   1  -5  10 1359.54 43.7600   1
   1  -5  10 1661.05 52.9500   1
  -1  -5 -10 1691.14 53.0000   1
   8  -2   8 161.860 12.7400   1
   8   2   8 206.530 13.4300   1
   8  -2   8 121.110 9.96000   1
  -8   2  -8 158.670 21.9400   1
  -8  -2  -8 207.290 13.8800   1
  -8   2  -8 237.600 25.3600   1
   4  -4 -13 22.5700 3.89000   1
   4  -4 -13 15.9500 3.71000   1
  -4   4  13 13.4600 8.19000   1
   4   4 -13 22.4900 4.07000   1
  -4  -4  13 25.5700 4.74000   1
  -4  -4  13 13.8000 5.14000   1
  -9  -3  -3 120.270 9.83000   1
  -9   3  -3 216.690 25.7200   1
  -9  -3  -3 172.890 12.8600   1
   9   3   3 159.440 11.8600   1
  -9   3  -3 174.490 19.1400   1
   2  -6  -5 1628.02 51.5500   1
  -2  -6   5 1815.02 57.0400   1
  -2  -6   5 1708.38 53.7600   1
   2  -6  -5 1796.25 56.6300   1
  -2   6   5 1789.22 56.7500   1
  -2   6   5 1810.03 56.9600   1
   2   6  -5 1791.41 56.0200   1
 -10  -2  -2 312.920 13.1900   1
 -10   2  -2 305.350 18.6500   1
 -10  -2  -2 318.600 12.6500   1
  10   2   2 323.980 12.6800   1
  10  -2   2 222.960 15.0300   1
  10  -2   2 184.660 14.6900   1
 -11  -1   4 -11.940 4.43000   1
 -11   1   4 1.48000 4.35000   1
 -11  -1   4 -4.4100 3.45000   1
  11   1  -4 2.53000 3.82000   1
 -11   1   3 480.190 18.7300   1
 -11  -1   3 449.260 16.5200   1
 -11   1   3 363.590 15.1900   1
 -11  -1   3 499.900 17.7700   1
  11  -1  -3 458.300 17.4900   1
  11   1  -3 502.110 18.1200   1
  -2   6  -4 254.110 10.7600   1
   2   6   4 253.250 10.1800   1
   2   6   4 266.180 11.4500   1
   2  -6   4 253.660 11.2400   1
   2  -6   4 233.820 15.4600   1
  -2  -6  -4 259.760 11.0200   1
  -2   6  -4 259.310 11.0200   1
  -2  -6  -4 239.360 9.96000   1
  -9   3   9 28.8100 18.8500   1
  -9   3   9 15.3400 3.98000   1
  -9   3   9 19.6800 3.69000   1
  -9  -3   9 19.3500 4.00000   1
   9  -3  -9 14.9200 3.26000   1
   9   3  -9 23.3800 4.19000   1
  -9  -3   9 33.1300 4.52000   1
  -9   3   9 16.3100 3.19000   1
  -9   1  -7 671.080 29.8600   1
  -9  -1  -7 731.330 27.2600   1
   9  -1   7 522.700 19.4600   1
   9   1   7 592.680 20.7900   1
 -11   1   5 423.550 16.9300   1
 -11  -1   5 402.600 15.5000   1
  11  -1  -5 422.360 15.7600   1
  11   1  -5 461.090 16.7500   1
 -11  -1   5 435.710 16.0800   1
 -11  -1   2 37.8800 5.73000   1
  11   1  -2 50.4300 5.35000   1
 -11  -1   2 46.4700 5.83000   1
  11  -1  -2 41.6300 4.90000   1
 -11   1   2 68.4600 8.56000   1
 -11   1   2 32.4400 3.72000   1
  -5  -5   9 137.380 10.7300   1
  -5  -5   9 159.080 12.2100   1
   5  -5  -9 145.270 11.3000   1
  -5   5   9 135.050 13.5000   1
  -5   5   9 142.810 11.2300   1
   5   5  -9 137.830 10.4900   1
   7  -3 -13 135.100 10.4200   1
   7   3 -13 117.600 9.26000   1
  -7   3  13 131.520 20.5700   1
  -7  -3  13 128.190 10.0000   1
  -7  -3  13 119.640 9.79000   1
  -7   1 -11 169.200 12.7700   1
   7   1  11 175.720 13.1300   1
  -7  -1 -11 171.440 14.5700   1
  -7   1 -11 152.670 19.8000   1
 -10   0  11 1.48000 3.45000   1
  10   0 -11 -2.0000 3.33000   1
  -8   4   8 80.6900 12.6700   1
  -8   4   8 64.6400 14.0400   1
  -8  -4   8 85.2200 7.49000   1
  -8  -4   8 90.8700 7.76000   1
  -8   4   8 65.0500 6.82000   1
  -8   4   8 64.1400 6.97000   1
   8   4  -8 72.6800 6.61000   1
  -4   2 -14 -12.190 26.1800   1
  -4  -2 -14 16.7700 3.89000   1
  -4   2 -14 3.39000 3.90000   1
  -4  -2 -14 -7.0300 4.94000   1
   1  -5 -11 0.03000 3.58000   1
  -1   5  11 5.08000 3.80000   1
  -1   5  11 -11.030 4.94000   1
  -1  -5  11 9.00000 5.16000   1
  -1  -5  11 13.8800 4.76000   1
   1   5 -11 8.28000 3.62000   1
   7   5  -2 2526.61 77.1800   1
  -7  -5   2 2475.58 76.0000   1
  -7  -5   2 2654.49 150.220   1
  -7   5   2 2704.25 155.500   1
   8   4   3 1999.34 62.2200   1
  -8   4  -3 2010.29 71.3900   1
  -8  -4  -3 1948.48 60.3500   1
  -8  -4  -3 1981.40 61.7400   1
  -8   4  -3 1828.73 83.5200   1
  -8  -4  -3 1931.94 60.9800   1
 -10  -2   9 387.670 14.9000   1
  10  -2  -9 479.160 17.8500   1
 -10   2   9 426.680 18.5200   1
 -10  -2   9 481.000 16.9000   1
  10   2  -9 495.990 17.5800   1
  10  -2  -9 429.460 17.1600   1
   0  -6   6 21.6400 5.10000   1
   0  -6   6 8.58000 5.20000   1
   0   6   6 26.1700 4.02000   1
   0  -6  -6 19.7800 4.23000   1
   0  -6  -6 31.2200 5.34000   1
   0   6  -6 18.7600 3.65000   1
   0   6   6 26.4300 5.30000   1
   5   5   6 1182.59 37.7700   1
  -5  -5  -6 1068.25 35.3400   1
  -5  -5  -6 1109.18 35.4600   1
   5  -5   6 1246.72 41.9700   1
  -5   5  -6 1054.68 35.0300   1
  -5   5  -6 1051.75 37.5400   1
  -7  -5   3 2.87000 4.04000   1
  -7  -5   3 -2.0500 4.33000   1
   7   5  -3 -2.3200 3.90000   1
  -7   5   3 -9.7500 8.53000   1
  11   1  -6 -2.3000 3.53000   1
 -11  -1   6 0.13000 3.49000   1
 -11  -1   6 5.15000 3.83000   1
  11  -1  -6 2.21000 3.14000   1
   6  -4   8 204.900 14.3000   1
  -6   4  -8 165.190 50.6200   1
  -6  -4  -8 209.610 13.5600   1
  -6   4  -8 144.010 11.5900   1
   6   4   8 193.770 12.7200   1
   6  -4   8 116.650 10.7100   1
  -6   4  -8 171.060 13.3200   1
  -6  -4  -8 220.640 14.3000   1
 -11  -1   1 635.680 22.7300   1
  11   1  -1 701.240 23.7900   1
 -11  -1   1 663.670 24.1700   1
 -11   1   1 691.310 26.0300   1
  11  -1  -1 651.200 24.7600   1
  -4   0 -15 8.26000 3.95000   1
  -4   0 -15 -18.410 13.9600   1
  -7  -5   1 -14.530 3.56000   1
   7   5  -1 -2.3800 3.72000   1
  -7  -5   1 -1.3100 3.68000   1
  -7   5   1 -0.2300 7.84000   1
   9  -1 -13 1323.83 42.6200   1
   9  -1 -13 1296.20 42.4000   1
  -9   1  13 1258.81 41.5700   1
  -9  -1  13 1368.82 43.5000   1
   9   1 -13 1324.59 42.7300   1
  -1   3 -15 36.1000 5.27000   1
   1  -3  15 22.0600 4.91000   1
  -1  -3 -15 30.6300 4.94000   1
  -1  -3 -15 16.5600 3.34000   1
  -1  -3 -15 30.1500 5.35000   1
  -1  -3 -15 27.7300 4.08000   1
   1   3  15 35.7900 5.19000   1
  -4   6   1 302.360 13.6300   1
  -4  -6   1 322.310 12.5400   1
   4  -6  -1 336.110 13.6500   1
  -4  -6   1 313.820 11.7500   1
   4  -6  -1 319.890 12.8700   1
  -4   6   1 339.850 14.0400   1
   4   6  -1 339.860 12.7100   1
   5  -1 -17 144.430 10.8900   1
   5  -1 -17 126.810 10.0800   1
  -5  -1  17 120.800 9.74000   1
  -5   1  17 118.090 10.2300   1
  -5   1  17 111.540 19.0300   1
   5   1 -17 123.970 10.2200   1
   5   1 -17 65.7400 7.53000   1
  -2   6   6 57.9500 6.91000   1
  -2   6   6 67.3900 6.07000   1
   2  -6  -6 54.9500 5.90000   1
  -2  -6   6 61.5600 6.51000   1
  -2  -6   6 52.7000 6.16000   1
   2  -6  -6 53.6800 5.96000   1
   2   6  -6 65.0600 6.31000   1
   4   6  -2 76.7500 6.76000   1
  -4   6   2 63.0600 5.82000   1
  -4  -6   2 54.6600 6.09000   1
   4  -6  -2 56.1200 7.06000   1
  -4  -6   2 74.0200 6.60000   1
   4  -6  -2 80.9400 7.37000   1
  -4   6   2 85.1400 8.57000   1
   7   5  -4 909.470 30.0400   1
  -7  -5   4 918.810 30.1400   1
  -7  -5   4 888.990 29.2600   1
  -7   5   4 852.390 62.3500   1
  -7   5   4 896.780 34.6000   1
  -3   5  -9 33.2500 4.88000   1
   3   5   9 49.0200 6.27000   1
  -3  -5  -9 58.5500 6.26000   1
  -3  -5  -9 62.9400 6.08000   1
   3  -5   9 42.4300 6.08000   1
   3  -5   9 26.9900 10.4500   1
   3   5   9 67.9200 6.66000   1
  10   0   5 3.34000 3.30000   1
 -10   0  -5 11.0400 7.28000   1
  -5   3  15 -2.2300 12.2300   1
   5   3 -15 26.0700 4.65000   1
   5  -3 -15 39.3000 5.34000   1
  -5  -3  15 32.9200 4.54000   1
  -4   6   0 5.48000 2.88000   1
   4   6   0 13.6500 3.63000   1
  -4   6   0 15.5600 4.55000   1
   4  -6   0 -3.8100 4.49000   1
  -4  -6   0 7.75000 3.70000   1
   4  -6   0 4.38000 4.57000   1
  -4  -6   0 -9.3300 4.77000   1
  -6  -4  12 313.120 13.1200   1
   6  -4 -12 236.880 17.2600   1
  -6  -4  12 300.500 11.7600   1
  -6   4  12 270.450 18.7100   1
   6   4 -12 288.480 11.4000   1
   6  -4 -12 261.230 11.1000   1
  -2   4  14 5.53000 6.22000   1
   2  -4 -14 2.75000 4.09000   1
   2  -4 -14 2.12000 3.68000   1
  -2  -4  14 -7.6800 4.17000   1
   2   4 -14 8.13000 4.53000   1
  10   2   3 371.790 13.9900   1
 -10  -2  -3 391.560 15.0000   1
 -10   2  -3 382.480 22.0900   1
 -10  -2  -3 397.810 15.8800   1
  -7  -5   0 11.1900 3.70000   1
  -7  -5   0 8.58000 3.94000   1
   7   5   0 8.76000 3.60000   1
  -7   5   0 12.7300 7.47000   1
   2  -2 -17 199.240 14.0400   1
  -2  -2  17 237.700 15.3300   1
   2  -2 -17 268.540 11.7000   1
   2   2 -17 254.050 10.6500   1
  -2   2  17 258.720 13.9700   1
  -9   3  -4 383.700 27.1300   1
  -9  -3  -4 469.650 17.3900   1
  -9   3  -4 441.790 27.9500   1
  -9  -3  -4 453.550 17.6200   1
   9   3   4 422.480 15.2600   1
   3  -5 -11 -2.4600 3.84000   1
  -3   5  11 5.83000 3.67000   1
  -3   5  11 3.25000 5.79000   1
  -3  -5  11 2.63000 3.97000   1
  -3  -5  11 -5.9500 5.02000   1
   3   5 -11 12.7000 4.21000   1
  -4   4 -11 817.210 29.5000   1
   4   4  11 863.760 28.9100   1
  -4  -4 -11 831.280 27.8100   1
   4  -4  11 872.620 30.3800   1
  -4  -4 -11 874.630 29.5800   1
  -4  -6   3 1336.26 42.2400   1
   4  -6  -3 1378.41 44.4200   1
  -4  -6   3 1379.53 44.2600   1
   4  -6  -3 1341.69 43.5100   1
  -4   6   3 1506.20 49.2900   1
  -4   6   3 1443.36 46.3600   1
   4   6  -3 1408.95 44.5900   1
  -2  -6  -5 1745.83 54.4100   1
   2  -6   5 1681.26 53.5300   1
  -2   6  -5 1657.25 53.1700   1
  -2  -6  -5 1629.88 51.3500   1
   2   6   5 1638.00 52.4000   1
   2  -6   5 1793.86 57.3100   1
   2   6   5 1694.52 52.9400   1
  -2   6  -5 1825.31 57.6400   1
   8   0 -15 -3.3600 4.47000   1
  -6   0 -13 -4.0800 11.6400   1
  -6   0 -13 -4.1800 3.54000   1
 -11  -1   7 898.080 29.5100   1
  11  -1  -7 928.480 31.0500   1
  11   1  -7 978.540 32.3300   1
 -11  -1   7 1039.83 33.9000   1
 -11  -1   7 892.020 30.1200   1
 -11   1   7 811.320 30.0000   1
 -11   1   7 922.470 31.6500   1
 -11  -1   0 231.310 15.5600   1
  11  -1   0 176.950 13.8400   1
  11   1   0 254.260 10.6700   1
 -11  -1   0 255.180 11.3500   1
 -11   1   0 241.640 12.0300   1
  11  -1   0 150.270 11.4400   1
  -6   2 -12 1439.35 63.2500   1
  -6   2 -12 1634.20 52.9000   1
   6   2  12 1568.29 50.2800   1
  -6  -2 -12 1533.39 49.8000   1
  -7  -5   5 71.8000 7.13000   1
   7   5  -5 56.0100 5.62000   1
  -7  -5   5 48.3100 5.48000   1
  -7   5   5 87.7900 32.7400   1
  -7   5   5 47.9700 10.5100   1
  -4  -6  -1 51.8200 5.95000   1
  -4   6  -1 48.5100 5.01000   1
   4   6   1 39.9500 5.35000   1
  -4   6  -1 59.6300 6.35000   1
  -4  -6  -1 38.3600 5.07000   1
   4  -6   1 34.0000 5.25000   1
   4  -6   1 60.2700 6.63000   1
  -7  -3  -9 229.410 15.5900   1
   7   3   9 208.100 13.4500   1
  -7   3  -9 217.300 15.2900   1
  -7  -3  -9 224.290 14.6000   1
  -7   3  -9 549.260 79.0000   1
  -1   1 -17 719.250 45.2500   1
  -1  -1 -17 658.340 30.7900   1
  -1   1 -17 625.260 21.6300   1
  -1  -1 -17 724.070 25.4200   1
   1   1  17 617.160 23.8600   1
  -5  -1 -14 41.3500 5.03000   1
  -5   1 -14 28.8600 4.90000   1
  -5  -1 -14 61.9400 9.96000   1
  -5   1 -14 35.4400 16.9100   1
   8   0  10 100.770 8.29000   1
  -8   0 -10 76.7000 11.5300   1
   9  -3 -10 219.380 15.4700   1
  -9   3  10 233.240 28.5800   1
  -9   3  10 206.300 14.5400   1
   9   3 -10 271.470 11.0000   1
  -9  -3  10 272.190 10.6800   1
  -9  -3  10 318.460 13.3500   1
   2   0 -18 1117.95 57.7900   1
  -2   0  18 1057.62 46.7800   1
  -2   0  18 1126.67 38.0200   1
   2   0 -18 1025.14 35.4400   1
  -5  -3 -12 358.060 14.4600   1
   5   3  12 370.570 14.7400   1
  -5   3 -12 349.310 15.1300   1
  -5   3 -12 413.810 44.8400   1
  -5  -3 -12 358.270 14.4500   1
  -3  -3 -14 284.840 12.7900   1
  -3   3 -14 203.970 13.5300   1
  -3  -3 -14 261.890 11.4000   1
   3  -3  14 236.160 15.5000   1
  -3   3 -14 252.930 10.8300   1
   3   3  14 277.490 12.7500   1
   3   3  14 269.170 11.7100   1
   4  -6  -4 269.500 11.7600   1
  -4   6   4 266.280 12.1600   1
  -4   6   4 290.460 12.7800   1
   4   6  -4 252.570 10.2700   1
  -4  -6   4 255.560 10.5100   1
   4  -6  -4 294.160 12.2300   1
  -4  -6   4 270.100 10.9500   1
   7   5   1 251.600 10.2000   1
  -7  -5  -1 238.110 15.0200   1
  -7  -5  -1 231.190 14.6900   1
  -7   5  -1 236.450 16.2600   1
   8  -4  -9 1860.67 61.1300   1
  -8  -4   9 2523.51 77.3700   1
  -8   4   9 1666.75 70.9200   1
  -8   4   9 2766.18 163.530   1
   8   4  -9 2553.40 78.1200   1
  -8  -4   9 2592.38 146.830   1
   8  -2 -14 135.170 10.9800   1
   8   2 -14 140.140 10.6300   1
  -8  -2  14 132.370 10.8100   1
   8  -2 -14 143.020 10.9400   1
  -8  -2  14 128.650 9.77000   1
  -8   2  14 127.580 23.6300   1
   6   0 -17 17.5500 4.53000   1
   6   0 -17 1.19000 3.69000   1
  -2  -4 -13 1936.36 60.7700   1
   2   4  13 1961.80 61.2200   1
   2   4  13 2057.37 64.9800   1
  -2  -4 -13 2070.24 64.8200   1
  -2  -4 -13 1660.03 55.0600   1
   2  -4  13 2027.82 64.1000   1
  -2   4 -13 2131.78 67.0000   1
   7  -1 -16 143.470 11.5600   1
   7   1 -16 132.880 10.3200   1
  -7   1  16 199.270 26.0500   1
  -7  -1  16 122.520 9.87000   1
   7  -1 -16 168.960 12.5600   1
   6   2 -16 1280.98 41.3600   1
  -6   2  16 1400.77 56.4700   1
   6  -2 -16 1238.34 40.3600   1
  -6  -2  16 1175.42 38.7300   1
  -8  -4  -4 121.160 9.62000   1
   8   4   4 148.630 11.0900   1
  -8   4  -4 126.380 12.1200   1
  -8  -4  -4 129.300 10.1100   1
  -8   4  -4 183.480 37.7800   1
  -8  -4  -4 147.370 11.4600   1
   0  -4 -14 734.620 25.4700   1
   0  -4 -14 546.030 22.4200   1
   0   4  14 581.580 21.8500   1
   0   4 -14 608.870 21.5000   1
   0  -4  14 683.620 24.3900   1
   3   3 -16 543.980 20.1900   1
   3  -3 -16 482.100 18.3900   1
  -3  -3  16 566.390 20.5400   1
   3  -3 -16 547.760 17.6200   1
  -3   3  16 564.290 22.0600   1
 -10  -2  10 703.660 20.7900   1
 -10   2  10 618.150 22.5800   1
  10   2 -10 703.880 21.4500   1
  10  -2 -10 599.510 20.2700   1
 -10  -2  10 733.310 23.0000   1
  10  -2 -10 622.370 19.4400   1
  -1  -3  16 902.630 27.4100   1
   1  -3 -16 759.150 25.0600   1
   1  -3 -16 691.460 25.2100   1
   1  -3 -16 851.090 26.0000   1
   1   3 -16 855.350 26.6700   1
  -1   3  16 879.280 28.3800   1
   4  -2 -17 685.620 21.8400   1
   4   2 -17 656.710 21.0100   1
  -4  -2  17 617.560 20.0900   1
  -4   2  17 624.480 28.2200   1
   4  -6   2 174.760 12.2500   1
   4  -6   2 179.780 12.2900   1
  -4  -6  -2 183.960 12.3400   1
  -4   6  -2 201.070 13.2400   1
   4   6   2 184.980 12.0300   1
  -4  -6  -2 158.970 10.5900   1
  -4   6  -2 160.190 11.2400   1
   0  -6   7 283.620 18.0500   1
   0   6   7 241.700 15.7900   1
   0   6   7 273.250 16.9600   1
   0  -6  -7 283.570 17.8800   1
   0   6  -7 281.590 17.5100   1
   0  -6  -7 279.530 17.4000   1
   0  -6   7 286.830 23.2300   1
  -5   5  10 2361.91 71.3200   1
   5  -5 -10 2430.76 66.2100   1
  -5  -5  10 2305.66 61.6500   1
  -5   5  10 2228.37 62.1200   1
   5   5 -10 2165.36 58.0000   1
  -5  -5  10 2393.70 64.4500   1
   1   5  11 37.2500 5.50000   1
  -1  -5 -11 26.1500 3.66000   1
  -1  -5 -11 34.3000 5.19000   1
   1   5  11 32.2500 4.79000   1
   1  -5  11 32.7700 5.82000   1
  -1   5 -11 26.6900 4.11000   1
   8  -2   9 117.350 8.88000   1
   8   2   9 137.010 9.51000   1
  -8   2  -9 114.520 13.9400   1
  -8  -2  -9 137.290 10.6100   1
  -8   2  -9 180.980 21.8600   1
  -2   2 -16 895.090 51.8400   1
  -2  -2 -16 976.030 31.1500   1
   2   2  16 858.490 27.5700   1
   2  -2  16 982.420 30.0900   1
  -2  -2 -16 908.460 27.3100   1
  -2   2 -16 974.760 29.3000   1
  -7  -5   6 2522.20 67.8600   1
   7   5  -6 2545.85 193.270   1
  -7  -5   6 2532.94 67.3000   1
  -7   5   6 2620.48 201.650   1
  -7   5   6 2456.45 112.290   1
  -2   6   7 1618.38 45.9100   1
  -2  -6   7 1543.80 43.4000   1
  -2   6   7 1323.84 37.0200   1
   2  -6  -7 1554.57 43.6500   1
  -2  -6   7 1525.27 42.8300   1
   2   6  -7 1522.06 41.8100   1
   2  -6  -7 1544.88 42.8400   1
  10   0 -12 8.55000 4.37000   1
 -10   0  12 -1.1700 3.61000   1
  -3  -1 -16 146.410 10.2000   1
  -3   1 -16 155.260 10.8300   1
  -3  -1 -16 172.720 15.2800   1
  -3   1 -16 93.5800 24.2900   1
  11   1  -8 20.8500 3.84000   1
 -11   1   8 4.98000 3.37000   1
 -11  -1   8 10.1800 3.57000   1
 -11   1   8 4.99000 3.22000   1
 -11  -1   8 7.00000 4.27000   1
  11  -1   1 1060.79 30.9900   1
  11   1   1 1238.60 35.2000   1
 -11  -1  -1 1178.69 35.4300   1
 -11   1  -1 1180.04 38.7000   1
   4   0 -18 1786.61 49.6000   1
   4   0 -18 1963.10 54.8300   1
  -4   0  18 1823.36 67.9200   1
   4   0 -18 1627.46 80.0900   1
  -4   0  18 1743.38 49.9000   1
  -4   6   5 2350.03 64.6400   1
  -4   6   5 2356.99 65.3100   1
   4  -6  -5 2299.16 62.4700   1
   4  -6  -5 2405.83 64.9100   1
  -4  -6   5 2219.48 59.9400   1
  -4  -6   5 2263.18 60.6500   1
   4   6  -5 2349.99 62.7200   1
  -5   5  -7 7.60000 2.53000   1
  -5  -5  -7 3.68000 3.81000   1
  -5  -5  -7 9.80000 4.29000   1
   5  -5   7 24.2900 5.99000   1
  -5   5  -7 12.9200 3.82000   1
   5   5   7 7.88000 3.53000   1
  -4   4  14 11.8700 8.60000   1
   4  -4 -14 9.48000 3.43000   1
   4  -4 -14 0.11000 3.36000   1
  -4  -4  14 2.26000 3.91000   1
  -4  -4  14 2.63000 4.97000   1
   4   4 -14 9.64000 4.10000   1
   0  -2  17 21.6200 4.88000   1
   0   2  17 12.5200 5.43000   1
   0   2 -17 13.1800 4.49000   1
   0  -2 -17 15.0800 4.56000   1
   0  -2 -17 18.2100 4.42000   1
   0   2 -17 6.43000 3.18000   1
   0  -2 -17 21.3300 5.25000   1
   9   1   8 175.450 11.5100   1
   9  -1   8 154.390 11.0800   1
  -9   1  -8 150.140 17.3400   1
  -9  -1  -8 182.610 13.7900   1
   3   1 -18 7.91000 3.76000   1
  -3   1  18 -6.3900 10.8600   1
   3  -1 -18 4.76000 4.34000   1
   3   1 -18 4.53000 3.97000   1
  -3  -1  18 -0.6200 15.2200   1
  -3  -1  18 3.93000 4.16000   1
  -7  -5  -2 730.600 22.0200   1
  -7  -5  -2 728.480 21.7400   1
   7   5   2 735.640 21.9200   1
  -7   5  -2 648.060 22.4600   1
  -2   6  -6 158.080 10.9400   1
   2   6   6 144.980 9.81000   1
   2   6   6 146.910 10.5200   1
   2  -6   6 158.280 11.4400   1
  -2  -6  -6 137.040 9.58000   1
   2  -6   6 152.060 11.2900   1
  -2  -6  -6 150.870 10.5200   1
  10   2   4 1054.97 30.2900   1
 -10  -2  -4 1002.31 29.6700   1
 -10   2  -4 1086.80 42.7200   1
 -10  -2  -4 1059.41 31.3300   1
  -2   0 -17 -12.370 12.5700   1
  -2   0 -17 -1.1600 4.33000   1
  -9   3  -5 -17.240 11.6700   1
  -9  -3  -5 -5.7100 4.04000   1
  -9   3  -5 0.08000 20.2800   1
  -9  -3  -5 -2.8900 4.34000   1
   9   3   5 0.61000 4.00000   1
  -7  -3  14 551.360 19.9800   1
  -7  -3  14 578.390 18.0800   1
  -7   3  14 582.740 28.6500   1
   7   3 -14 528.670 16.6500   1
   7  -3 -14 514.210 17.8600   1
   1   1 -18 92.2000 7.77000   1
  -1  -1  18 97.1100 8.06000   1
  -1   1  18 66.5000 7.45000   1
   1  -1 -18 53.4500 8.25000   1
   1   1 -18 -0.1000 31.2600   1
   1   1 -18 87.8800 6.80000   1
   1  -1 -18 85.1000 7.13000   1
  -1  -1  18 77.1100 11.1900   1
   4   6   3 71.6900 6.43000   1
  -4   6  -3 68.9500 6.55000   1
   4  -6   3 88.6600 7.70000   1
  -4  -6  -3 81.5500 6.61000   1
   4  -6   3 84.3800 7.48000   1
  -4   6  -3 72.3100 6.34000   1
  -4  -6  -3 78.1700 7.01000   1
 -10   0  -6 2252.85 63.5600   1
  10   0   6 2105.57 57.8900   1
  -6  -4  -9 831.950 25.8900   1
   6  -4   9 928.340 29.1500   1
  -6  -4  -9 903.380 26.7000   1
  -6   4  -9 844.510 59.9700   1
   6   4   9 941.310 27.9500   1
  -6   4  -9 858.890 28.6900   1
  -1   5  12 1263.32 37.5700   1
  -1   5  12 1237.36 35.3500   1
   1  -5 -12 1181.35 34.5100   1
   1   5 -12 1244.92 35.2600   1
  -1  -5  12 1152.83 33.3000   1
  -1  -5  12 1128.30 33.6500   1
   0   0  18 0.11000 4.18000   1
   0   0 -18 -6.3500 15.0300   1
   0   0 -18 24.7600 4.90000   1
  -7  -5   7 84.1000 7.10000   1
  -7  -5   7 115.930 8.35000   1
   7   5  -7 106.820 8.20000   1
  -7   5   7 105.990 13.1800   1
  -7   5   7 161.430 33.2300   1
   9  -1 -14 277.660 17.5100   1
  -9   1  14 269.750 17.5000   1
   9   1 -14 299.270 24.1200   1
  -9  -1  14 240.900 15.0300   1
   9  -1 -14 302.530 24.5600   1
   9  -3 -11 278.800 18.3100   1
   9   3 -11 338.910 12.1000   1
  -9   3  11 305.530 31.5100   1
  -9  -3  11 357.340 12.0400   1
  -9  -3  11 358.820 13.3700   1
   3   5  10 1697.27 47.0400   1
   3   5  10 1683.95 46.9000   1
  -3   5 -10 1716.02 49.1700   1
   3  -5  10 1612.34 46.8000   1
  -3  -5 -10 1505.75 41.4800   1
  -3  -5 -10 1614.53 44.8700   1
  11   1  -9 1205.01 33.9700   1
 -11   1   9 1291.46 37.3700   1
 -11  -1   9 1272.34 35.9100   1
 -11  -1   9 1148.89 34.4600   1
  11  -1  -9 1190.78 34.2600   1
   8  -4 -10 462.810 17.8000   1
   8   4 -10 527.980 16.8600   1
  -8   4  10 585.850 27.0400   1
  -8   4  10 399.300 20.3200   1
  -8  -4  10 546.980 16.8500   1
  -8  -4  10 596.820 18.9900   1
 -11   1  -2 -7.2300 8.33000   1
  11  -1   2 4.22000 3.02000   1
  11   1   2 3.67000 3.80000   1
 -11  -1  -2 11.0200 4.76000   1
   4  -6  -6 345.910 12.6300   1
  -4  -6   6 341.330 11.9100   1
  -4  -6   6 347.300 12.1300   1
   4  -6  -6 313.210 25.5900   1
  -4   6   6 277.800 17.5000   1
  -4   6   6 306.220 25.3100   1
   4   6  -6 352.900 12.2700   1
  -7   1 -12 395.600 14.2900   1
  -7  -1 -12 345.800 15.1800   1
  -7   1 -12 391.650 23.4000   1
   7   1  12 370.100 13.0600   1
   6  -4 -13 1123.13 33.0800   1
   6  -4 -13 985.740 34.4500   1
  -6   4  13 1376.00 47.4500   1
  -6  -4  13 1299.13 36.1100   1
   6   4 -13 1291.28 36.2800   1
  -6  -4  13 1365.01 39.3600   1
   8   4   5 1472.19 40.3700   1
  -8  -4  -5 1472.16 40.8500   1
  -8  -4  -5 1613.08 44.7200   1
  -8   4  -5 1660.84 73.9500   1
   3  -5 -12 2188.54 61.8700   1
  -3   5  12 2411.26 68.8800   1
  -3   5  12 2406.39 64.9600   1
   3   5 -12 2425.59 65.4500   1
  -3  -5  12 2476.04 66.7400   1
  -3  -5  12 2407.54 65.2800   1
  -7  -5  -3 12.0500 4.44000   1
   7   5   3 11.4900 3.98000   1
  -7  -5  -3 10.1200 3.79000   1
  -7   5  -3 13.3100 4.09000   1
  10   2 -11 46.6300 5.35000   1
 -10  -2  11 46.9500 5.19000   1
  10  -2 -11 47.4700 5.26000   1
 -10   2  11 42.8900 5.89000   1
 -10  -2  11 45.2200 4.71000   1
  10  -2 -11 31.0400 4.49000   1
   2   6  -8 57.2500 5.44000   1
   2  -6  -8 52.5300 6.00000   1
  -2  -6   8 55.1700 6.16000   1
  -2  -6   8 67.2300 6.77000   1
   2  -6  -8 59.8900 5.76000   1
  -2   6   8 62.3900 7.01000   1
  -2   6   8 55.2600 5.23000   1
   0  -6   8 416.220 14.3400   1
   0  -6  -8 446.340 15.3500   1
   0  -6   8 386.350 13.6600   1
   0   6  -8 432.380 14.8200   1
   0   6   8 392.550 13.0800   1
   0   6   8 364.840 13.6500   1
   0  -6  -8 400.310 13.9300   1
  -4   6  -4 -1.9200 2.94000   1
   4   6   4 -1.3000 3.35000   1
   4  -6   4 -13.580 5.03000   1
  -4  -6  -4 -8.4000 3.77000   1
   4  -6   4 0.00000 4.86000   1
  -4  -6  -4 -8.6300 4.14000   1
  -4   6  -4 6.90000 3.44000   1
  -4   2 -15 151.700 29.4800   1
  -4  -2 -15 130.690 10.2400   1
  -4   2 -15 135.160 10.0100   1
  -4   4 -12 212.300 14.5900   1
  -4  -4 -12 192.890 12.5100   1
   4   4  12 188.430 12.4600   1
   4  -4  12 222.170 14.7800   1
  -4  -4 -12 201.790 13.6400   1
  -5   5  11 -8.8700 7.69000   1
   5  -5 -11 0.98000 3.44000   1
  -5   5  11 8.96000 3.57000   1
  -5  -5  11 10.2600 4.97000   1
   5   5 -11 8.33000 4.10000   1
  -5  -5  11 16.9300 4.74000   1
  -7   3 -10 331.800 28.2200   1
  -7  -3 -10 424.300 14.9200   1
  -7   3 -10 470.480 37.7200   1
  -7  -3 -10 412.250 14.5300   1
   7   3  10 433.540 14.4500   1
  -8   0  16 161.630 11.1400   1
   8   0 -16 159.160 11.9300   1
   5   3 -16 163.320 11.4400   1
  -5   3  16 188.690 17.6100   1
  -5  -3  16 173.480 11.8400   1
   5  -3 -16 155.600 10.6800   1
   2  -6   7 422.470 14.3700   1
  -2  -6  -7 468.390 15.4000   1
   2  -6   7 455.460 16.5800   1
  -2  -6  -7 442.920 14.6200   1
  -2   6  -7 448.140 15.5800   1
   2   6   7 451.430 15.4400   1
   2   6   7 441.680 15.9000   1
   2  -4 -15 186.330 13.2100   1
  -2   4  15 203.510 14.5500   1
   2  -4 -15 178.180 12.1300   1
  -2  -4  15 162.840 11.3100   1
   2   4 -15 201.140 13.6600   1
 -10   0  13 2.80000 2.97000   1
  10   0 -13 -7.9100 3.59000   1
  -7  -5   8 1150.89 32.3500   1
  -7  -5   8 1109.61 31.5700   1
   7   5  -8 1155.35 32.6000   1
  -7   5   8 1157.82 38.7100   1
  -7   5   8 884.520 30.3400   1
  -7   5   8 919.980 70.4800   1
  -1  -3 -16 2.92000 4.29000   1
  -1   3 -16 6.39000 4.26000   1
   1   3  16 2.46000 4.48000   1
  -1  -3 -16 7.06000 3.46000   1
 -10   2  -5 675.290 31.4400   1
 -10  -2  -5 619.520 20.8300   1
  10   2   5 564.750 17.6000   1
  10  -2   5 484.940 17.5700   1
 -10  -2  -5 615.510 20.4400   1
   5  -1 -18 116.470 8.79000   1
  -5   1  18 130.030 19.5900   1
  -5  -1  18 133.460 10.0500   1
   5   1 -18 120.830 9.04000   1
   5  -1 -18 119.970 8.92000   1
  -8   0 -11 10.4800 9.69000   1
   8   0  11 -6.2600 3.22000   1
   5  -5   8 402.810 14.2700   1
  -5  -5  -8 365.620 12.9600   1
  -5  -5  -8 352.110 12.4100   1
  -5   5  -8 278.910 18.0400   1
   5   5   8 389.310 13.1500   1
  -5   5  -8 339.590 14.2800   1
  -4   0 -16 109.670 15.1700   1
  -4   0 -16 116.980 8.66000   1
  -4  -6   7 1485.00 41.1600   1
  -4   6   7 1747.83 49.6300   1
   4   6  -7 1632.02 44.8400   1
  -4   6   7 1590.94 45.9100   1
   4  -6  -7 1519.95 43.2000   1
  -4  -6   7 1651.94 45.0900   1
   4  -6  -7 1649.47 45.9900   1
  -8  -2  15 104.140 7.64000   1
  -8   2  15 106.740 20.1700   1
   8   2 -15 100.780 7.69000   1
   8  -2 -15 117.700 8.67000   1
   8  -2 -15 118.720 14.3300   1
  -8  -2  15 96.4200 7.92000   1
  -6   2 -13 282.230 18.6900   1
   6   2  13 305.870 24.5000   1
  -6  -2 -13 258.650 17.4800   1
  -6   2 -13 294.880 36.2900   1
 -11   1  10 169.770 12.2600   1
 -11  -1  10 183.450 12.0400   1
 -11   1  10 145.820 11.0400   1
  11   1 -10 177.460 11.7400   1
  11  -1 -10 180.120 12.5100   1
 -11  -1  10 156.230 11.3300   1
   9   3   6 526.750 16.5900   1
  -9   3  -6 448.280 26.0200   1
  -9  -3  -6 584.930 18.3100   1
  -9   3  -6 516.760 31.9500   1
  -9  -3  -6 542.840 17.3200   1
  11  -1   3 1711.08 47.9300   1
  11   1   3 2270.04 61.3800   1
  11  -1   3 1583.14 44.6900   1
 -11  -1  -3 2098.34 57.7400   1
 -11   1  -3 2254.94 67.2900   1
   1   5  12 950.570 28.0400   1
   1   5  12 932.050 28.0500   1
  -1  -5 -12 885.370 27.7600   1
  -1  -5 -12 884.820 26.7400   1
  -1   5 -12 864.870 26.7700   1
   1  -5  12 898.610 28.2600   1
  -6   0 -14 1407.58 47.1900   1
  -6   0 -14 1442.72 41.2900   1
   5   3  13 744.410 23.0200   1
  -5   3 -13 770.510 25.4300   1
  -5   3 -13 758.790 52.8200   1
  -5  -3 -13 729.590 22.8300   1
  -5  -3 -13 735.680 22.8700   1
  -8  -2 -10 315.420 25.6700   1
   8  -2  10 248.890 16.3100   1
   8   2  10 297.950 24.0600   1
  -8   2 -10 226.930 25.0000   1
   2   2 -18 1417.89 40.1100   1
   2  -2 -18 1423.84 41.3100   1
  -2   2  18 1360.19 44.7000   1
  -2  -2  18 1253.70 54.8400   1
  -2  -2  18 1412.50 41.3600   1
   2  -2 -18 1243.89 42.9300   1
  -7  -5  -4 873.760 25.5700   1
   7   5   4 905.160 26.8900   1
  -7  -5  -4 827.860 24.8600   1
  -7   5  -4 800.120 30.5400   1
  -9   1  -9 844.410 34.2200   1
  -9  -1  -9 806.970 27.3600   1
   9  -1   9 827.520 25.8200   1
   9   1   9 827.930 25.4100   1
   2   4  14 96.1000 7.71000   1
   2   4  14 112.280 8.20000   1
  -2  -4 -14 118.980 9.15000   1
  -2  -4 -14 75.1600 7.37000   1
  -2  -4 -14 92.4100 7.28000   1
  -2   4 -14 89.6200 7.75000   1
   2  -4  14 116.360 9.14000   1
  -8   4  11 1044.11 41.2900   1
   8   4 -11 921.080 26.7900   1
   8  -4 -11 769.110 25.1400   1
  -8  -4  11 925.790 26.9400   1
  -8  -4  11 995.360 29.7900   1
   7  -1 -17 1541.29 44.9600   1
  -7  -1  17 1457.50 41.6900   1
  -7   1  17 1424.71 58.2500   1
   7   1 -17 1491.54 41.8200   1
   7  -1 -17 1500.94 42.2000   1
  -5   1 -15 2177.89 59.0700   1
  -5  -1 -15 2217.52 60.0100   1
  -5   1 -15 2336.24 77.0500   1
  -5  -1 -15 2344.71 69.1000   1
  10   0   7 -4.6600 3.62000   1
 -10   0  -7 3.87000 6.87000   1
  -3   3 -15 386.750 52.6500   1
  -3  -3 -15 371.170 15.2300   1
   3   3  15 446.710 15.5800   1
  -3  -3 -15 432.540 15.4100   1
  -3   3 -15 337.530 14.0500   1
  -3   3 -15 427.000 15.3100   1
   3  -3  15 414.680 15.4400   1
  -6  -2  17 56.8300 5.63000   1
  -6   2  17 76.1500 15.9400   1
   6   2 -17 51.8600 5.99000   1
   6  -2 -17 54.9800 5.85000   1
   9   3 -12 285.840 22.8000   1
  -9  -3  12 262.330 17.9000   1
  -9   3  12 274.060 25.6500   1
   9  -3 -12 256.710 17.0100   1
  -9  -3  12 297.500 23.6400   1
   0  -4 -15 1981.69 53.5800   1
   0   4  15 1978.99 55.4400   1
   0  -4 -15 2138.66 58.4700   1
   0   4 -15 2001.82 55.9300   1
   0  -4  15 2092.12 57.7300   1
   4   6   5 762.680 22.7400   1
  -4  -6  -5 745.500 23.0100   1
   4  -6   5 785.820 24.0400   1
  -4  -6  -5 811.170 24.0300   1
   4  -6   5 764.450 23.9500   1
  -4   6  -5 708.080 22.0700   1
  -4   6  -5 825.500 26.3500   1
 -12   0   4 2238.92 62.5100   1
 -12   0   4 2309.99 62.6400   1
  12   0  -4 2243.16 60.5300   1
  -8  -4  -6 66.2200 6.87000   1
  -8   4  -6 37.1900 34.0600   1
  -8  -4  -6 41.6500 5.05000   1
   8   4   6 51.5900 5.46000   1
  -8   4  -6 44.5000 6.30000   1
 -12   0   3 10.3600 4.68000   1
  12   0  -3 -2.8800 3.38000   1
  -6   0  18 595.120 33.3800   1
  -6   0  18 544.990 18.8100   1
   6   0 -18 549.780 17.7600   1
   6   0 -18 586.870 19.6800   1
  -4   4  15 1190.47 39.1500   1
   4  -4 -15 1158.00 33.3400   1
   4  -4 -15 1088.25 33.7600   1
   4   4 -15 1211.38 34.7100   1
  -4  -4  15 1230.66 35.8400   1
  -4  -4  15 1261.07 37.3900   1
  12   0  -5 -1.4700 3.47000   1
 -12   0   5 1.06000 4.24000   1
 -12   0   5 -0.6800 3.79000   1
   1   1  18 98.9400 8.24000   1
  -1   1 -18 115.300 9.05000   1
  -1  -1 -18 103.520 8.22000   1
  -1  -1 -18 84.4400 10.1000   1
  -1   1 -18 37.7400 22.8200   1
  -3  -3  17 70.9600 6.58000   1
   3  -3 -17 69.2000 7.19000   1
   3  -3 -17 80.0400 7.00000   1
   3   3 -17 87.7600 7.51000   1
  -3   3  17 58.7300 9.25000   1
  -2   6   9 2186.57 58.9000   1
   2  -6  -9 2078.67 57.2700   1
   2  -6  -9 2025.78 57.1700   1
   2   6  -9 2189.44 59.3800   1
  -2  -6   9 2140.00 58.2500   1
  -2  -6   9 2112.93 58.1700   1
  10   2 -12 53.9200 5.58000   1
 -10  -2  12 47.8900 5.23000   1
  10  -2 -12 55.6500 5.64000   1
 -10   2  12 45.2800 5.98000   1
  10  -2 -12 66.0500 5.98000   1
 -10  -2  12 57.4900 5.67000   1
  -6  -4 -10 592.210 19.5100   1
  -6  -4 -10 610.900 19.4100   1
  -6   4 -10 693.400 58.5800   1
  -6   4 -10 548.690 19.5000   1
   6   4  10 637.910 20.2400   1
   7  -3 -15 690.110 22.7000   1
   7   3 -15 716.650 21.8600   1
  -7   3  15 751.080 34.8100   1
  -7  -3  15 674.120 21.1600   1
  -7  -3  15 577.180 20.3500   1
   2   0 -19 9.34000 14.6200   1
   2   0 -19 -6.1300 3.77000   1
  -2   0  19 -4.8500 8.33000   1
   0  -6  -9 750.210 23.5600   1
   0  -6  -9 738.380 22.1700   1
   0   6   9 669.320 20.8900   1
   0   6   9 812.870 24.0100   1
   0  -6   9 701.990 22.1900   1
   0  -6   9 695.420 22.1800   1
   0   6  -9 670.800 21.0700   1
 -12   0   2 752.340 24.0300   1
  12   0  -2 773.900 23.6600   1
  -1   3  17 576.910 20.6300   1
   1   3 -17 519.200 18.4300   1
   1  -3 -17 483.350 19.1500   1
  -1  -3  17 481.300 16.6600   1
   1  -3 -17 522.360 19.2000   1
   1  -3 -17 515.470 17.1500   1
   4   2 -18 1278.52 37.5800   1
  -4   2  18 1388.34 51.2800   1
  -4  -2  18 1336.49 38.6600   1
   4  -2 -18 1374.24 39.2700   1
   7   5  -9 5.12000 4.18000   1
  -7  -5   9 -14.260 3.61000   1
   7  -5  -9 4.73000 4.10000   1
  -7   5   9 0.47000 19.3400   1
  -7   5   9 -8.5000 9.22000   1
  -7   5   9 7.91000 3.01000   1
   9   1 -15 1496.82 42.3500   1
   9  -1 -15 1419.22 41.0900   1
  -9   1  15 1145.19 38.0800   1
  -9  -1  15 1403.63 39.3700   1
   9  -1 -15 1467.07 41.0300   1
   1  -5 -13 318.070 25.6000   1
   1  -5 -13 191.910 13.2300   1
  -1   5  13 288.060 23.6500   1
  -1   5  13 255.590 16.2000   1
  -1  -5  13 272.440 17.2900   1
   1   5 -13 283.040 17.8400   1
 -12   0   6 30.1700 4.39000   1
  12   0  -6 27.3300 4.35000   1
 -12   0   6 37.5800 5.04000   1
  -3  -5 -11 24.1400 4.91000   1
   3   5  11 18.0700 5.04000   1
   3   5  11 26.7700 4.46000   1
   3  -5  11 16.7800 5.01000   1
  -3   5 -11 19.2200 5.12000   1
  -4   6   8 25.8400 6.20000   1
  -4   6   8 25.5300 3.67000   1
   4   6  -8 18.7100 4.10000   1
  -4  -6   8 19.7200 4.95000   1
   4  -6  -8 24.5800 4.97000   1
  -4  -6   8 25.6400 4.77000   1
   4  -6  -8 12.4100 3.55000   1
  -2  -2 -17 302.770 24.9200   1
  -2   2 -17 355.870 13.2800   1
   2   2  17 340.060 13.7300   1
  -2  -2 -17 352.350 13.1400   1
   2  -2  17 386.640 15.2300   1
  -2   2 -17 359.760 42.9900   1
  -2  -6  -8 10.1000 4.05000   1
  -2   6  -8 -3.6900 3.73000   1
   2  -6   8 -9.5500 4.75000   1
  -2  -6  -8 4.87000 3.91000   1
   2  -6   8 -4.3300 5.29000   1
   2   6   8 16.3300 5.37000   1
   2   6   8 4.89000 3.81000   1
  -6   4  14 145.520 15.7300   1
   6  -4 -14 148.550 10.2500   1
  -6  -4  14 152.480 10.6800   1
  -6  -4  14 165.860 11.6100   1
   6   4 -14 149.260 10.2400   1
  -3   5  13 46.9500 7.08000   1
  -3   5  13 60.7800 5.95000   1
   3  -5 -13 66.9400 6.50000   1
  -3  -5  13 53.8500 6.35000   1
  -3  -5  13 76.9500 6.98000   1
   3   5 -13 53.6100 5.39000   1
  -3   1 -17 10.8500 21.6400   1
  -3   1 -17 5.71000 4.18000   1
  -3  -1 -17 19.8700 7.80000   1
  -3  -1 -17 9.58000 3.95000   1
 -12   0   1 4.91000 4.84000   1
   6   6  -2 86.5200 8.23000   1
  -6  -6   2 86.3900 8.06000   1
  -6  -6   2 78.8600 8.13000   1
   6  -6  -2 76.1300 8.47000   1
   6  -6  -2 81.6000 8.20000   1
  -6   6   2 90.8800 9.56000   1
  -4   0  19 -4.1100 3.75000   1
   4   0 -19 3.04000 3.96000   1
  -4   0  19 -12.060 14.8100   1
   4   0 -19 6.74000 4.33000   1
   4   0 -19 13.6300 19.7800   1
  11  -1 -11 1885.89 55.7400   1
  11  -1 -11 2001.39 58.9300   1
  11   1 -11 1999.84 59.0200   1
 -11  -1  11 1970.96 57.6000   1
 -11   1  11 1827.83 54.5500   1
 -11  -1  11 1712.80 53.5100   1
  11  -1   4 155.660 13.3800   1
  11   1   4 170.050 14.3200   1
 -11  -1  -4 128.220 11.8300   1
 -11   1  -4 124.580 14.3000   1
  11  -1   4 114.480 10.1900   1
  10   2   6 618.180 20.0800   1
 -10   2  -6 559.870 26.7000   1
 -10  -2  -6 595.630 20.5600   1
 -10  -2  -6 608.980 21.2000   1
  -5   5  12 727.230 24.4600   1
   5  -5 -12 544.990 20.7000   1
  -5   5  12 648.140 26.7100   1
  -5  -5  12 674.210 22.0500   1
   5   5 -12 693.450 22.9100   1
  -5  -5  12 679.990 22.5300   1
  -6  -6   1 1857.95 54.5800   1
   6   6  -1 1742.51 50.9300   1
  -6  -6   1 1789.84 52.6700   1
   6  -6  -1 1814.61 55.2000   1
  -6   6   1 1842.09 56.9100   1
   6  -6  -1 1833.67 54.8200   1
  -6  -6   3 1414.40 42.2100   1
   6   6  -3 1344.66 39.7900   1
  -6  -6   3 1435.52 43.3700   1
  -6   6   3 1462.09 46.7200   1
   6  -6  -3 1405.17 43.0700   1
   6  -6  -3 1281.25 40.6900   1
   0   2 -18 70.2000 35.5000   1
   0   2 -18 29.9500 5.47000   1
   0  -2 -18 10.5100 4.57000   1
   0  -2  18 20.5400 4.92000   1
   0  -2 -18 22.6900 4.90000   1
   0   2  18 5.20000 4.37000   1
   0  -2 -18 18.5400 4.68000   1
   0   2 -18 17.4000 3.73000   1
  12   0  -7 3.27000 3.53000   1
 -12   0   7 4.98000 4.14000   1
  -7  -5  -5 30.5700 5.13000   1
   7   5   5 22.7300 4.64000   1
  -7  -5  -5 30.3600 5.26000   1
  -7   5  -5 -31.270 43.7000   1
  -7   5  -5 18.0800 4.22000   1
  -3  -1  19 8.36000 3.86000   1
   3   1 -19 -1.3200 3.16000   1
   3   1 -19 29.5200 29.7600   1
   3  -1 -19 16.0500 4.93000   1
  -3   1  19 10.4200 9.41000   1
  -3  -1  19 11.8200 13.8300   1
  10   0 -14 1055.15 33.3700   1
 -10   0  14 934.060 30.1300   1
 -11  -3   4 3.31000 4.08000   1
 -11  -3   4 10.5000 4.07000   1
 -11   3   4 5.51000 7.46000   1
 -11   3   4 -16.700 20.4200   1
  11   3  -4 4.68000 3.92000   1
 -11  -3   3 11.9100 4.41000   1
  11   3  -3 14.7000 3.91000   1
 -11   3   3 -27.330 21.2300   1
 -11   3   3 6.50000 8.15000   1
  -6  -6   0 507.360 17.0400   1
  -6  -6   0 456.300 15.6500   1
   6   6   0 445.290 15.3100   1
   6  -6   0 466.510 17.8000   1
  -6   6   0 448.160 17.1800   1
  -6  -6   4 71.9600 7.78000   1
  -6  -6   4 66.2100 6.88000   1
   6   6  -4 60.0200 6.48000   1
   6  -6  -4 66.3500 7.57000   1
  -6   6   4 45.7300 7.39000   1
   6  -6  -4 61.5000 7.04000   1
  -7   1 -13 76.2300 17.7200   1
  -7  -1 -13 57.7500 8.60000   1
   7   1  13 55.6300 6.36000   1
  -7   1 -13 41.7400 5.22000   1
  -5  -5  -9 34.7800 5.86000   1
  -5  -5  -9 34.5800 6.48000   1
   5  -5   9 15.2100 6.17000   1
   5   5   9 37.8300 5.46000   1
  -5   5  -9 39.5300 5.41000   1
  -2   0 -18 1572.76 47.1900   1
  -2   0 -18 1713.71 64.2300   1
  10   4  -3 680.540 21.8800   1
 -10  -4   3 667.830 21.5000   1
 -10  -4   3 627.880 20.3200   1
 -10   4   3 625.820 29.7100   1
 -10   4   3 670.480 31.0300   1
   4   6   6 7.51000 3.98000   1
  -4  -6  -6 18.3100 3.95000   1
  -4  -6  -6 21.1800 4.52000   1
  -4   6  -6 10.8600 3.74000   1
  -4   6  -6 5.67000 3.61000   1
   4  -6   6 9.06000 5.48000   1
  -9   3  -7 295.520 26.9900   1
  -9  -3  -7 330.910 13.0400   1
   9   3   7 354.770 13.4000   1
  -9   3  -7 284.600 19.1500   1
  -9  -3  -7 322.150 12.3500   1
  11   3  -5 100.580 9.17000   1
 -11   3   5 94.6800 24.4400   1
 -11   3   5 87.6400 10.5000   1
 -11  -3   5 116.930 10.4300   1
 -11  -3   5 106.860 9.53000   1
 -10  -4   4 81.3600 8.06000   1
 -10  -4   4 98.1000 8.97000   1
 -10   4   4 61.0300 14.2300   1
 -10   4   4 87.1100 17.3600   1
  10   4  -4 82.6300 8.02000   1
  11   3  -2 160.500 13.5700   1
 -11  -3   2 143.360 12.2500   1
 -11  -3   2 156.500 13.5200   1
 -11  -3   2 156.140 13.6400   1
 -11   3   2 199.990 26.0500   1
 -11   3   2 178.960 18.5100   1
  10   4  -2 255.500 10.0400   1
 -10  -4   2 282.620 14.2500   1
 -10  -4   2 275.600 11.2600   1
 -10   4   2 262.140 19.8700   1
 -10   4   2 323.520 21.2000   1
  12   0   0 3166.06 271.000   1
 -12   0   0 2935.38 85.3900   1
  -7  -3 -11 159.050 14.1900   1
   7   3  11 156.620 13.2200   1
  -7   3 -11 154.110 32.2900   1
  -7  -3 -11 155.120 13.5300   1
  -7   3 -11 140.370 13.1100   1
   1  -1 -19 1077.59 33.7400   1
  -1   1  19 1147.04 39.7600   1
  -1  -1  19 1137.19 36.7200   1
   1   1 -19 1128.63 63.9100   1
  -1  -1  19 932.080 39.6200   1
   1  -1 -19 1101.44 45.9400   1
   1   1 -19 1167.05 36.2700   1
   1   1 -19 1080.20 34.8300   1
   4   4  13 32.0200 4.90000   1
  -4  -4 -13 28.0500 4.86000   1
  -4  -4 -13 22.9500 4.96000   1
  -4   4 -13 32.1700 5.29000   1
   4  -4  13 20.3800 5.37000   1
 -10  -4   5 1223.83 36.8400   1
 -10  -4   5 1263.96 38.2000   1
  10   4  -5 1289.04 38.4000   1
 -10   4   5 1119.88 48.2900   1
 -10   4   5 1246.50 49.0300   1
   8  -4 -12 18.4400 3.35000   1
  -8  -4  12 43.9300 6.23000   1
   8   4 -12 24.0800 4.71000   1
  -8  -4  12 35.9300 5.36000   1
  -8   4  12 31.3200 13.8100   1
   6   6   1 614.720 19.8800   1
  -6  -6  -1 589.770 19.4300   1
  -6  -6  -1 547.270 18.1200   1
  -6   6  -1 588.330 21.9700   1
   6  -6   1 567.510 20.1600   1
   0   0 -19 -9.7700 14.9400   1
   0   0  19 -2.5400 3.83000   1
  12   0  -8 -0.1300 3.29000   1
 -12   0   8 -1.2900 3.78000   1
   8   0 -17 -3.4400 3.85000   1
   8   0 -17 -5.9800 4.26000   1
  -8   0  17 0.84000 2.77000   1
   6   6  -5 312.950 11.5100   1
  -6  -6   5 300.370 11.3700   1
  -6   6   5 253.390 12.0100   1
   6  -6  -5 331.600 13.5300   1
   6  -6  -5 289.310 11.6900   1
  -6  -6   5 295.260 10.8500   1
  11   3  -6 151.590 13.0600   1
 -11   3   6 117.450 12.5100   1
 -11  -3   6 157.720 13.3300   1
 -11  -3   6 137.010 11.7500   1
 -11   3   6 195.730 27.5500   1
  11   3  -1 876.320 27.8200   1
 -11  -3   1 941.000 29.4700   1
 -11  -3   1 845.450 26.9300   1
 -11  -3   1 852.090 27.4000   1
 -11   3   1 972.030 44.9900   1
 -11   3   1 875.470 38.8200   1
 -10  -4   1 41.0400 5.79000   1
  10   4  -1 61.3200 6.79000   1
 -10  -4   1 55.0700 6.22000   1
 -10   4   1 43.3300 15.7300   1
 -10   4   1 50.6400 13.9400   1
   7  -5 -10 18.8100 4.61000   1
  -7  -5  10 25.9200 4.87000   1
   7   5 -10 32.5900 4.85000   1
  -7   5  10 30.0400 4.36000   1
  -7   5  10 27.8300 11.3800   1
  -7  -5  10 33.3400 4.94000   1
  -8  -4  -7 -2.2200 4.35000   1
   8   4   7 -7.7500 3.53000   1
  -8   4  -7 -129.31 34.9600   1
  -8  -4  -7 -2.9800 4.09000   1
   9   3 -13 589.530 19.7100   1
   9  -3 -13 539.880 20.4100   1
  -9  -3  13 603.320 21.1800   1
  -9  -3  13 614.560 20.0100   1
  -9   3  13 486.960 31.7400   1
  -8   2  16 90.7500 19.0300   1
   8  -2 -16 95.6900 8.98000   1
   8   2 -16 117.320 10.8800   1
  -8  -2  16 112.940 9.98000   1
  -2   6  10 34.8800 6.49000   1
  -2   6  10 79.2500 8.16000   1
   2  -6 -10 56.9200 6.54000   1
   2  -6 -10 56.7200 6.73000   1
   2   6 -10 63.5500 6.83000   1
  -2  -6  10 55.0400 7.12000   1
  -2  -6  10 66.2400 7.52000   1
  -5  -3  17 272.990 10.6500   1
   5   3 -17 254.810 11.9600   1
   5  -3 -17 265.200 10.8800   1
  -5   3  17 292.840 17.7900   1
   2  -4 -16 96.7200 8.95000   1
  -2   4  16 87.9400 9.95000   1
   2  -4 -16 71.4300 7.45000   1
   2   4 -16 72.5700 7.39000   1
  -2  -4  16 80.4900 8.59000   1
 -10   0  -8 1355.63 46.2700   1
  10   0   8 1247.56 38.8700   1
   4  -6  -9 837.110 27.0200   1
  -4   6   9 898.690 29.9600   1
  -4   6   9 766.560 26.5600   1
   4  -6  -9 712.700 25.4200   1
  -4  -6   9 826.850 26.0100   1
   4   6  -9 824.960 26.0200   1
  -4  -6   9 835.440 26.5700   1
   8   0  12 1199.19 37.4400   1
  -8   0 -12 1476.68 49.0800   1
  10  -2 -13 -2.1100 3.85000   1
  10   2 -13 -1.4800 4.19000   1
 -10   2  13 33.7500 22.2400   1
 -10  -2  13 -3.0000 3.63000   1
  10  -2 -13 -1.4000 4.19000   1
 -10  -2  13 5.24000 3.61000   1
 -10   2  13 0.57000 2.84000   1
  -1  -5 -13 -3.8100 3.93000   1
  -1  -5 -13 2.16000 3.32000   1
   1   5  13 7.93000 5.02000   1
   1  -5  13 12.0900 5.59000   1
  -1   5 -13 7.37000 4.42000   1
   1   7   0 506.530 17.1700   1
  -1   7   0 512.710 18.2900   1
  -1   7   0 531.780 18.2100   1
   1  -7   0 501.570 17.9100   1
  -1  -7   0 518.400 17.9500   1
   1  -7   0 488.720 17.2500   1
  -1  -7   0 470.590 16.3100   1
 -10  -4   6 254.770 10.1600   1
 -10   4   6 189.390 25.0500   1
 -10   4   6 193.770 20.7700   1
 -10  -4   6 226.940 9.01000   1
  10   4  -6 252.400 10.0000   1
   1   7  -1 314.030 11.5300   1
  -1  -7   1 285.030 11.8700   1
   1  -7  -1 280.920 12.0900   1
  -1  -7   1 306.740 11.6800   1
   1  -7  -1 281.080 11.2400   1
  -1   7   1 327.230 13.3300   1
  -1   7   1 307.440 11.7300   1
   8   2  11 367.860 14.0900   1
  -8   2 -11 346.700 25.5200   1
   8  -2  11 309.510 13.8000   1
  -8  -2 -11 371.610 14.7200   1
   0   6  10 0.32000 3.54000   1
   0  -6 -10 13.1900 4.10000   1
   0   6  10 4.13000 4.64000   1
   0  -6 -10 -3.9900 2.96000   1
   0  -6  10 17.0200 5.32000   1
   0   6 -10 0.31000 3.48000   1
   0  -6  10 1.38000 5.16000   1
  -4   2 -16 418.660 36.0000   1
  -4  -2 -16 510.000 20.6500   1
  -4   2 -16 540.790 19.5000   1
  -4  -2 -16 539.050 18.5100   1
   1  -7   1 117.500 10.7300   1
   1  -7   1 102.450 10.0700   1
  -1  -7  -1 142.000 12.4200   1
  -1   7  -1 136.260 12.0600   1
  -1  -7  -1 141.410 12.4500   1
   1   7   1 132.640 11.4700   1
  -1   7  -1 131.300 11.8100   1
  -9   1 -10 99.5700 17.0400   1
  -9  -1 -10 141.170 13.5200   1
   9  -1  10 121.570 11.0100   1
   9   1  10 139.090 11.9500   1
 -12   0  -1 0.73000 5.95000   1
  12   0   1 -4.8300 2.96000   1
  10   4   0 42.4000 5.67000   1
 -10  -4   0 32.6900 5.16000   1
 -10  -4   0 27.2200 5.24000   1
 -10   4   0 7.50000 15.6900   1
 -10   4   0 22.9000 10.9600   1
   6   6   2 7.34000 3.53000   1
  -6  -6  -2 -2.1000 4.13000   1
  -6  -6  -2 0.45000 3.50000   1
  -6   6  -2 8.86000 4.46000   1
   6  -6   2 -1.1200 5.33000   1
  -1  -7   2 893.820 28.3500   1
  -1   7   2 1047.54 32.7200   1
  -1   7   2 960.590 31.3500   1
   1  -7  -2 1006.41 31.8700   1
  -1  -7   2 923.970 29.0300   1
   1   7  -2 958.740 29.6100   1
   1  -7  -2 988.420 31.2200   1
 -11   3   7 207.530 29.6300   1
 -11   3   7 193.890 17.6900   1
 -11  -3   7 211.070 19.1300   1
 -11  -3   7 206.420 16.9200   1
  11   3  -7 226.180 9.37000   1
 -11  -3   0 484.750 17.0300   1
 -11  -3   0 460.650 15.8100   1
  11   3   0 492.750 16.4700   1
 -11   3   0 489.810 26.1700   1
 -11   3   0 507.560 31.6700   1
  11   1 -12 145.430 12.4000   1
  11  -1 -12 154.790 13.4900   1
 -11   1  12 125.640 11.2000   1
 -11  -1  12 137.790 11.7800   1
  11  -1 -12 142.760 12.7100   1
  -2  -6  -9 31.8100 4.57000   1
  -2  -6  -9 13.5900 4.35000   1
   2   6   9 31.1800 4.58000   1
   2   6   9 35.1900 5.83000   1
   2  -6   9 39.1000 6.33000   1
   2  -6   9 20.6900 5.93000   1
  -2   6  -9 33.2500 5.08000   1
 -11   1  -5 456.770 20.0300   1
 -11  -1  -5 489.950 17.6000   1
  11   1   5 476.940 17.0700   1
  11  -1   5 446.220 17.1400   1
  -6   6   6 80.2200 9.67000   1
   6   6  -6 72.7600 7.38000   1
   6  -6  -6 78.9300 8.16000   1
  -6  -6   6 93.5900 9.08000   1
   6  -6  -6 85.0200 9.01000   1
  -6  -6   6 63.3700 6.63000   1
  -6  -2 -14 405.470 15.4900   1
   6   2  14 469.970 17.3600   1
  -6   2 -14 445.870 17.1400   1
  -6   2 -14 388.740 30.0000   1
  -1  -3 -17 359.590 17.2100   1
  -1   3 -17 315.020 12.9600   1
   1  -3  17 327.100 13.5600   1
  -1  -3 -17 284.010 12.2400   1
   1   3  17 310.230 12.8800   1
  -1  -3 -17 267.420 13.2800   1
  -5   3 -14 504.580 46.0100   1
  -5  -3 -14 555.100 21.1600   1
  -5   3 -14 595.290 22.9100   1
   5   3  14 560.390 18.9700   1
  -5  -3 -14 524.020 18.5200   1
  -7  -5  -6 2171.38 63.9700   1
   7   5   6 2238.56 65.2100   1
  -7  -5  -6 2033.67 59.2300   1
  -7   5  -6 1767.09 54.1900   1
  -7   5  -6 2021.74 101.370   1
   1   7   2 171.280 14.3600   1
   1   7   2 147.630 13.2200   1
  -1   7  -2 122.820 11.1900   1
   1  -7   2 127.510 11.6000   1
  -1  -7  -2 149.020 12.8700   1
   1  -7   2 161.080 14.0000   1
  -1  -7  -2 148.780 13.0200   1
  -1   7  -2 140.980 12.1400   1
  -5  -1  19 875.270 29.4400   1
   5   1 -19 1001.19 31.8800   1
   5  -1 -19 990.040 32.7400   1
  -5   1  19 1072.95 44.2300   1
   5   1 -19 993.090 32.0200   1
 -12   0   9 2.01000 3.05000   1
 -12   0   9 0.87000 4.10000   1
 -12   0   9 4.98000 3.27000   1
  12   0  -9 -1.3300 3.60000   1
  -6   4 -11 1504.12 76.2700   1
  -6   4 -11 1505.72 49.8700   1
   6   4  11 1523.99 46.2100   1
  -6  -4 -11 1560.70 46.7800   1
  -6  -4 -11 1539.53 46.3600   1
  10   4  -7 948.140 29.3500   1
 -10   4   7 912.840 39.0000   1
 -10  -4   7 936.610 28.8600   1
 -10  -4   7 960.390 29.6100   1
 -10   4   7 935.210 39.3200   1
   1  -7  -3 126.960 11.6500   1
   1   7  -3 120.180 10.6900   1
  -1   7   3 125.780 11.0800   1
  -1  -7   3 136.580 12.2400   1
   1  -7  -3 140.770 12.3200   1
  -1   7   3 143.050 12.6600   1
  -1  -7   3 127.200 11.2500   1
  -6   0 -15 -0.4100 11.2400   1
 -10  -2  -7 109.410 10.6900   1
  10  -2   7 65.9900 6.76000   1
  10   2   7 103.270 11.5100   1
 -10   2  -7 86.7200 16.7600   1
 -10  -2  -7 111.510 11.1300   1
  -4   0 -17 -41.900 11.8500   1
  -4   0 -17 -1.2700 3.86000   1
  -2  -4 -15 813.090 26.6900   1
   2   4  15 869.400 28.8400   1
   2   4  15 937.480 29.7300   1
  -2  -4 -15 918.870 29.9700   1
  -2   4 -15 952.410 30.9900   1
   2  -4  15 916.890 30.6300   1
   4  -6   7 1151.66 36.1300   1
  -4   6  -7 1220.34 39.5300   1
   4   6   7 1218.14 36.5100   1
  -4   6  -7 1095.90 35.3500   1
  -4  -6  -7 1228.30 37.1600   1
  -4  -6  -7 1257.99 38.0800   1
   7  -1 -18 46.1200 5.96000   1
   7  -1 -18 72.8500 7.39000   1
  -7   1  18 52.6600 20.9100   1
   7   1 -18 87.5600 8.63000   1
  -7  -1  18 68.3900 7.21000   1
  -7  -3  16 1441.47 43.2400   1
   7   3 -16 1397.44 42.2700   1
   7  -3 -16 1385.13 43.3600   1
  -7   3  16 1390.87 52.5200   1
  -7  -3  16 1421.31 45.6600   1
  -9  -1  16 10.8000 3.74000   1
   9  -1 -16 4.76000 4.41000   1
   9  -1 -16 4.90000 3.98000   1
   9   1 -16 -0.8900 4.39000   1
  -4   4  16 460.810 21.1600   1
   4  -4 -16 393.860 16.1700   1
   4  -4 -16 393.540 14.5400   1
  -4  -4  16 440.460 16.5300   1
   4   4 -16 451.640 16.3400   1
 -12  -2   4 379.080 14.2900   1
  12  -2  -4 346.860 13.6500   1
 -12   2   4 448.390 18.5600   1
 -12  -2   4 428.870 15.1800   1
  12   2  -4 413.440 14.6900   1
 -12  -2   3 595.410 20.6300   1
  12  -2  -3 547.710 19.4600   1
 -12   2   3 564.480 22.2500   1
 -12  -2   3 573.390 19.9300   1
  12   2  -3 583.240 19.3200   1
  -3  -5 -12 1085.96 33.6200   1
   3   5  12 1056.10 33.2300   1
   3   5  12 1037.14 32.2700   1
  -3  -5 -12 946.680 29.6200   1
   3  -5  12 1074.16 35.2900   1
  -3   5 -12 1103.92 35.7600   1
   0  -4 -16 188.280 15.9700   1
   0  -4 -16 171.130 15.2800   1
   0   4  16 185.320 16.1300   1
   0   4 -16 196.570 16.9600   1
   0  -4  16 183.910 16.0300   1
   6  -2 -18 299.760 12.6100   1
  -6   2  18 206.580 38.0600   1
  -6  -2  18 273.600 11.4600   1
   6   2 -18 310.090 12.1200   1
  -1   5  14 499.560 18.7300   1
  -1   5  14 527.390 18.9100   1
   1  -5 -14 542.890 19.2200   1
   1   5 -14 544.840 19.1400   1
  -1  -5  14 550.810 19.6500   1
 -10  -4  -1 98.1900 9.44000   1
  10   4   1 96.0100 8.93000   1
 -10   4  -1 110.390 15.9400   1
 -10   4  -1 108.570 21.8600   1
  -5   5  13 48.2300 5.88000   1
   5  -5 -13 55.9700 6.33000   1
  -5   5  13 49.6700 8.73000   1
   5   5 -13 67.8800 7.45000   1
  -5  -5  13 65.4600 8.46000   1
  -5  -5  13 28.0900 5.28000   1
  12   2  -5 472.030 16.5200   1
 -12   2   5 476.110 18.6600   1
 -12  -2   5 485.370 16.9500   1
  12  -2  -5 406.670 14.9200   1
 -12  -2   5 426.970 15.2800   1
 -12  -2   5 413.360 14.6500   1
  -6   4  15 928.260 35.8600   1
   6  -4 -15 832.380 28.0200   1
  -6  -4  15 1052.30 34.8100   1
  -6  -4  15 893.150 28.8500   1
   6   4 -15 919.040 29.0800   1
  -3   3 -16 211.940 19.6400   1
   3   3  16 213.770 20.0000   1
  -3  -3 -16 196.080 16.7700   1
  -3   3 -16 334.610 43.7700   1
  -3  -3 -16 200.360 16.8000   1
   3  -3  16 184.640 15.8900   1
  -3  -3 -16 240.750 10.7000   1
  11   3  -8 806.070 25.7600   1
 -11   3   8 764.760 48.2200   1
 -11   3   8 711.910 26.9200   1
 -11  -3   8 877.710 27.8300   1
 -11  -3   8 855.540 27.0400   1
  -1  -7  -3 -3.2900 3.96000   1
  -1   7  -3 -1.6600 3.64000   1
  -1  -7  -3 -2.7600 4.98000   1
   1  -7   3 1.19000 5.49000   1
   1  -7   3 3.30000 4.58000   1
   1   7   3 3.86000 4.54000   1
   1   7   3 -1.5300 3.90000   1
 -11  -3  -1 663.300 22.9100   1
 -11  -3  -1 682.570 22.3800   1
  11   3   1 700.380 22.7000   1
 -11   3  -1 645.670 30.0100   1
 -11   3  -1 612.390 34.9300   1
  -6  -6  -3 696.700 22.6900   1
  -6  -6  -3 701.240 22.7500   1
   6   6   3 738.950 23.3700   1
   6  -6   3 689.690 24.1700   1
  -6   6  -3 632.450 22.5100   1
   2  -2 -19 455.350 16.3100   1
   2   2 -19 521.630 18.1800   1
  -2  -2  19 395.820 28.6800   1
  -2   2  19 500.170 21.6800   1
  -2  -2  19 524.430 19.2000   1
   2   2 -19 426.610 15.5900   1
   2  -2 -19 357.410 19.2900   1
  -3   5  14 1598.75 48.7200   1
   3  -5 -14 1371.06 46.1100   1
  -3   5  14 1548.19 48.8600   1
  -3  -5  14 1586.91 47.5000   1
  -3  -5  14 1585.65 49.3500   1
   3   5 -14 1496.69 45.0000   1
  -5   1 -16 -2.6900 18.5100   1
  -5  -1 -16 -3.9600 3.76000   1
  -5   1 -16 17.9900 5.01000   1
  -5  -1 -16 12.3300 8.40000   1
  12   2  -2 816.550 25.8700   1
 -12   2   2 762.840 28.7200   1
  12  -2  -2 693.920 23.3100   1
 -12  -2   2 838.100 27.0500   1
 -12  -2   2 740.130 24.6600   1
  12   0   2 616.200 21.7700   1
 -12   0  -2 624.970 22.1800   1
   6   0 -19 16.2700 4.80000   1
   6   0 -19 7.21000 3.94000   1
  -6   0  19 -7.9300 3.06000   1
  -6   0  19 3.13000 19.0900   1
  -6   6   7 70.5000 9.79000   1
  -6  -6   7 66.2800 7.42000   1
   6   6  -7 84.8900 8.89000   1
   6  -6  -7 64.4400 7.93000   1
  -6  -6   7 69.0000 7.78000   1
 -12  -2   6 349.390 16.2800   1
  12   2  -6 379.080 16.4800   1
 -12   2   6 367.800 17.5700   1
 -12  -2   6 395.910 16.8500   1
  12  -2  -6 357.040 16.3800   1
  -9  -3  -8 615.080 25.1300   1
   9   3   8 554.600 22.4700   1
  -9   3  -8 629.880 40.1800   1
  -9  -3  -8 632.640 26.6300   1
  -1  -7   4 688.350 28.0300   1
   1  -7  -4 669.480 27.2100   1
  -1   7   4 717.150 29.5400   1
   1   7  -4 773.210 30.8600   1
  -1   7   4 741.240 29.4300   1
  -1  -7   4 694.790 27.9900   1
   1  -7  -4 731.010 29.6100   1
  -9  -5   3 28.9300 5.34000   1
  -9  -5   3 36.9500 5.68000   1
  -9   5   3 1.70000 22.7900   1
   9   5  -3 35.0100 5.40000   1
  -9   5   3 18.3200 11.4000   1
 -10   0  15 -1.0200 3.41000   1
  10   0 -15 5.77000 4.29000   1
   3  -3 -18 -3.7000 3.52000   1
   3   3 -18 2.00000 4.67000   1
  -3   3  18 0.06000 6.48000   1
  -3  -3  18 5.10000 5.68000   1
   3  -3 -18 -0.4300 3.98000   1
   7   5 -11 11.0400 4.43000   1
  -7   5  11 23.8200 4.28000   1
  -7   5  11 34.3500 10.2000   1
   7  -5 -11 23.9700 4.75000   1
  -7  -5  11 29.4200 5.72000   1
  -7  -5  11 27.9200 4.93000   1
   5  -5  10 178.630 14.3000   1
  -5  -5 -10 144.880 13.8200   1
   5   5  10 172.850 13.2600   1
  -5   5 -10 156.430 13.0700   1
  -5  -5 -10 154.830 12.1300   1
  -9   5   2 1739.68 122.590   1
   9   5  -2 1594.54 59.8500   1
  -9   5   2 1736.84 132.000   1
  -9  -5   2 1574.37 59.4900   1
  -9  -5   2 1621.91 61.2700   1
  -9  -5   4 840.870 32.7100   1
  -9  -5   4 884.570 34.7900   1
   9   5  -4 825.540 32.1700   1
  -9   5   4 724.390 46.5800   1
  -9   5   4 900.050 43.5000   1
 -10  -4   8 112.980 11.1300   1
 -10   4   8 138.550 21.0800   1
 -10  -4   8 102.900 10.0600   1
  10   4  -8 119.970 11.9200   1
   8   4 -13 372.060 16.1300   1
   8  -4 -13 300.920 14.5400   1
  -8   4  13 439.640 25.9900   1
  -8  -4  13 425.740 17.9600   1
  -8  -4  13 451.070 20.3400   1
   4  -6 -10 49.4900 6.66000   1
  -4  -6  10 49.9700 6.40000   1
   4   6 -10 54.9800 6.45000   1
  -4   6  10 49.4500 6.07000   1
  -4   6  10 55.7700 8.67000   1
  -4  -6  10 59.7900 7.80000   1
 -12  -2   1 452.890 19.4700   1
 -12   2   1 414.820 20.5800   1
 -12  -2   1 503.200 21.2500   1
  12   2  -1 478.290 19.7500   1
  -1  -3  18 562.940 23.7400   1
  -1   3  18 602.070 26.6500   1
   1   3 -18 654.050 27.2100   1
   1  -3 -18 616.000 29.4000   1
   1  -3 -18 634.530 26.7300   1
  -9  -5   1 14.0900 4.30000   1
   9   5  -1 3.59000 3.76000   1
  -9   5   1 7.82000 8.79000   1
  -9   5   1 1.35000 25.0600   1
  -9  -5   1 12.3300 4.02000   1
  12   0 -10 87.8400 8.96000   1
 -12   0  10 117.570 11.7300   1
  -4  -2  19 348.540 16.3400   1
   4   2 -19 355.180 16.7900   1
  -4   2  19 260.440 17.2800   1
   4  -2 -19 348.490 16.0400   1
  -8  -4  -8 16.0200 4.49000   1
  -8   4  -8 68.3300 37.4700   1
  -8  -4  -8 7.56000 4.43000   1
  -9  -5   5 15.3300 4.10000   1
  -9   5   5 49.5000 24.1000   1
  -9   5   5 46.2200 12.3900   1
   9   5  -5 18.9900 4.22000   1
  -9  -5   5 14.4200 4.22000   1
  -1  -1 -19 988.060 46.4100   1
  -1   1 -19 989.780 62.0200   1
   1   1  19 873.570 36.3000   1
  -1   1 -19 1083.07 42.7500   1
  -1  -1 -19 971.050 38.3600   1
   2   6 -11 388.620 17.1700   1
  -2   6  11 415.330 17.9700   1
  -2   6  11 364.320 16.8700   1
  -2  -6  11 403.180 17.7300   1
  -2  -6  11 358.730 16.4700   1
   2  -6 -11 362.160 16.2300   1
  -1   7  -4 508.560 21.5800   1
   1  -7   4 489.630 20.7200   1
  -1  -7  -4 542.210 22.5400   1
   1  -7   4 514.960 21.5500   1
   1   7   4 492.350 20.4300   1
   1   7   4 529.540 22.6200   1
  -1  -7  -4 484.140 20.5100   1
  12   2  -7 1.96000 4.02000   1
  12  -2  -7 1.81000 3.63000   1
 -12   2   7 -0.8300 3.54000   1
 -12  -2   7 2.11000 3.84000   1
 -12  -2   7 8.93000 3.97000   1
  -3   7   1 487.950 20.6100   1
   3  -7  -1 543.640 22.6600   1
  -3   7   1 483.700 20.8600   1
  -3  -7   1 493.700 20.7200   1
   3   7  -1 546.180 22.8400   1
   3  -7  -1 571.180 23.9100   1
  -3  -7   1 550.550 22.5700   1
   9  -3 -14 655.980 27.2700   1
   9   3 -14 760.110 30.3000   1
  -9   3  14 776.400 39.8300   1
  -9  -3  14 763.410 30.1300   1
  -9  -3  14 743.820 32.8900   1
 -10  -4  -2 67.8500 8.06000   1
  10   4   2 48.0000 6.23000   1
 -10  -4  -2 65.6500 7.51000   1
 -10   4  -2 32.1200 18.9000   1
 -10   4  -2 72.7500 13.8600   1
  -2   0  20 1177.18 51.5600   1
   2   0 -20 1392.45 76.0200   1
   2   0 -20 1313.03 49.9600   1
  -3  -7   0 718.230 28.7400   1
   3  -7   0 702.830 28.4100   1
  -3   7   0 694.660 30.1100   1
   3   7   0 751.560 29.9600   1
   3  -7   0 709.300 29.3300   1
  -3  -7   0 760.420 30.1600   1
  -3   7   0 672.830 27.1900   1
  -3   7   2 747.790 31.1600   1
  -3  -7   2 816.990 32.4400   1
  -3   7   2 827.330 34.1100   1
   3  -7  -2 861.180 34.7300   1
  -3  -7   2 786.940 31.1400   1
   3  -7  -2 814.450 32.8100   1
   3   7  -2 850.760 33.1000   1
  10  -2 -14 349.890 15.5300   1
 -10  -2  14 329.480 14.2900   1
 -10   2  14 345.830 30.0000   1
  10   2 -14 360.530 16.1700   1
  10  -2 -14 321.250 15.5500   1
  11   3  -9 727.630 29.1000   1
 -11   3   9 610.570 27.1000   1
 -11  -3   9 706.700 28.0800   1
 -11  -3   9 645.580 26.4200   1
 -11   3   9 762.720 47.6200   1
  11   3   2 696.350 27.9200   1
 -11   3  -2 635.090 37.6200   1
 -11   3  -2 655.060 34.2400   1
 -11  -3  -2 672.170 27.0600   1
 -11  -3  -2 669.150 26.9600   1
  -7   3 -12 274.390 14.6900   1
  -7  -3 -12 260.390 12.6900   1
   7   3  12 272.180 13.3100   1
  -7   3 -12 250.330 34.1800   1
  -7  -3 -12 285.860 13.9900   1
  11  -1 -13 356.550 15.5700   1
  11  -1 -13 349.460 16.3200   1
 -11  -1  13 371.770 16.1200   1
 -11   1  13 324.750 16.0500   1
  11   1 -13 358.450 15.5000   1
  -9   5   0 1072.79 45.8200   1
  -9  -5   0 1139.13 44.1100   1
  -9  -5   0 1059.43 40.4600   1
  -9   5   0 1083.24 60.4400   1
   9   5   0 1083.07 41.8500   1
   2   2  18 404.390 19.3200   1
  -2  -2 -18 463.140 22.9200   1
  -2   2 -18 470.480 20.7200   1
  -2   2 -18 507.430 40.0100   1
  -2  -2 -18 479.640 20.6200   1
   1   7  -5 128.340 12.3600   1
  -1   7   5 140.230 13.2700   1
  -1   7   5 103.480 10.9200   1
   1  -7  -5 120.710 11.9900   1
  -1  -7   5 114.840 11.4800   1
   1  -7  -5 111.460 11.1800   1
  -1  -7   5 112.200 11.8600   1
 -11   1  -6 213.270 18.9400   1
  11   1   6 131.900 12.5100   1
 -11  -1  -6 173.450 14.4200   1
  11  -1   6 128.000 13.1400   1
   7   5   7 3.89000 3.80000   1
  -7   5  -7 13.6900 3.38000   1
  -7   5  -7 -13.650 50.8000   1
  -7  -5  -7 7.12000 4.11000   1
  -7  -5  -7 -0.9000 4.67000   1
   6  -6   4 16.2200 5.16000   1
   6   6   4 2.94000 4.21000   1
  -6   6  -4 10.2700 4.07000   1
  -6  -6  -4 0.70000 3.55000   1
  -6  -6  -4 3.59000 4.06000   1
   0   6  11 1281.90 49.5300   1
   0  -6  11 1222.62 47.7100   1
   0   6 -11 1269.54 49.3400   1
   0  -6 -11 1354.28 51.6300   1
   0   6  11 1176.70 45.8000   1
   0  -6  11 1273.11 49.2500   1
   0  -6 -11 1295.77 50.4900   1
 -10   0  -9 -5.0400 9.45000   1
  10   0   9 0.96000 3.76000   1
   3  -7   1 125.120 12.7900   1
   3   7   1 145.460 13.7000   1
  -3  -7  -1 146.430 13.9900   1
  -3   7  -1 114.910 12.6000   1
  -3   7  -1 125.990 12.3700   1
   3  -7   1 127.360 12.7600   1
  -3  -7  -1 135.580 12.9200   1
  -3  -7   3 146.590 13.8900   1
   3  -7  -3 130.990 12.9000   1
  -3   7   3 138.970 13.4800   1
  -3   7   3 128.400 12.4300   1
  -3  -7   3 119.610 11.8700   1
   3   7  -3 140.160 14.3400   1
   3  -7  -3 127.860 12.6700   1
  -7  -1 -14 52.7000 9.44000   1
  -7   1 -14 71.1400 17.4800   1
   7   1  14 51.4500 6.55000   1
   9   5  -6 438.320 18.5500   1
  -9  -5   6 382.650 23.0200   1
  -9  -5   6 402.190 16.8700   1
  -9   5   6 467.670 29.2200   1
  -9   5   6 391.520 30.9300   1
 -12  -2   0 819.210 32.6200   1
 -12   2   0 893.370 38.8700   1
 -12  -2   0 952.040 37.4400   1
  12   2   0 913.550 35.6400   1
  -3   1 -18 1.28000 4.59000   1
  -3  -1 -18 7.62000 4.62000   1
  -3  -1 -18 26.7700 9.60000   1
  -3   1 -18 12.7400 17.3300   1
   4   0 -20 241.500 18.6800   1
  -4   0  20 234.990 18.4200   1
   4   0 -20 199.930 28.7200   1
  -4   0  20 266.140 21.4300   1
   4   0 -20 278.740 13.4300   1
  -2  -6 -10 8.02000 3.78000   1
   2   6  10 2.37000 4.30000   1
   2   6  10 8.99000 3.76000   1
  -2   6 -10 -15.600 3.88000   1
  -2  -6 -10 5.13000 4.34000   1
   2  -6  10 1.44000 5.51000   1
  -6  -6   8 51.5300 7.03000   1
   6   6  -8 79.6000 8.79000   1
  -6   6   8 60.6500 7.04000   1
  -6  -6   8 73.3000 10.8300   1
  -6   6   8 84.8900 11.2800   1
   6  -6  -8 91.3400 9.85000   1
  -4  -4 -14 -2.3900 4.09000   1
   4   4  14 4.47000 4.01000   1
  -4   4 -14 3.35000 4.29000   1
   4  -4  14 2.73000 5.55000   1
  -4  -4 -14 11.7200 4.71000   1
   4  -6   8 13.6400 5.35000   1
  -4   6  -8 9.43000 4.10000   1
   4   6   8 15.6300 4.49000   1
  -4  -6  -8 -2.6200 4.50000   1
  -4  -6  -8 13.3900 3.75000   1
  12   0   3 5.17000 3.23000   1
   0   2 -19 -1.7800 2.75000   1
   0  -2 -19 10.5600 4.57000   1
   0  -2 -19 -2.4000 3.87000   1
   0   2 -19 3.10000 4.16000   1
   0   2  19 -4.0400 4.29000   1
   0   2 -19 -8.3800 37.4800   1
   0  -2  19 -3.1000 4.33000   1
   0  -2 -19 4.65000 4.22000   1
 -12  -2   8 -0.5200 3.28000   1
  12   2  -8 10.4700 3.81000   1
 -12   2   8 7.54000 3.93000   1
 -12  -2   8 4.97000 4.35000   1
  12  -2  -8 1.86000 3.57000   1
  12  -2  -8 1.18000 3.01000   1
 -10  -4   9 1317.07 49.8700   1
 -10   4   9 1369.72 63.0100   1
  10   4  -9 1367.14 51.8300   1
 -10  -4   9 1386.31 52.8900   1
  -8  -2  17 342.560 15.6500   1
  -8   2  17 347.040 24.9500   1
   8   2 -17 314.220 14.0100   1
   8  -2 -17 298.420 14.0700   1
   8   0 -18 864.960 35.0400   1
  -8   0  18 580.760 24.9000   1
   8   0 -18 868.930 35.0800   1
  -3  -1  20 18.4300 4.47000   1
   3   1 -20 60.9100 34.1900   1
   3   1 -20 16.5200 4.01000   1
   3  -1 -20 20.9600 4.93000   1
   3   1 -20 14.0500 4.89000   1
  -3   1  20 21.7600 9.08000   1
  -1  -5 -14 88.2800 9.36000   1
  -1  -5 -14 81.2200 8.82000   1
   1   5  14 70.6100 8.22000   1
  -1   5 -14 96.2200 10.0400   1
   1  -5  14 75.5800 9.11000   1
   1   5  14 93.3000 9.41000   1
   3   7   2 1205.36 45.8400   1
  -3   7  -2 1301.29 51.1400   1
  -3  -7  -2 1304.51 49.8700   1
   3  -7   2 1224.49 47.5600   1
  -3  -7  -2 1215.22 46.5700   1
  -3   7  -2 1178.48 45.6000   1
   3  -7   2 1217.80 47.5500   1
  -1   7  -5 93.6200 9.58000   1
   1   7   5 106.890 10.8200   1
   1   7   5 95.0000 10.0400   1
   1  -7   5 67.1600 8.38000   1
   1  -7   5 79.7800 9.04000   1
  -1  -7  -5 89.9600 9.54000   1
  -1  -7  -5 63.6900 7.65000   1
  -3  -7   4 598.150 24.2900   1
   3  -7  -4 581.010 24.3500   1
  -3  -7   4 560.610 23.3700   1
   3  -7  -4 565.530 23.8600   1
  -3   7   4 608.210 25.5000   1
  -3   7   4 634.720 26.0100   1
   3   7  -4 578.320 23.7900   1
  -9   5  -1 -39.120 28.9100   1
  -9  -5  -1 10.3100 4.64000   1
  -9   5  -1 -1.8600 6.14000   1
   9   5   1 24.2200 4.47000   1
  -9  -5  -1 5.68000 4.02000   1
  -9   1 -11 1304.50 57.1000   1
   9   1  11 1297.72 49.8100   1
   9  -1  11 1240.43 49.1400   1
  -9  -1 -11 1242.17 49.3100   1
 -10  -2  -8 959.470 38.1600   1
  10  -2   8 801.530 33.3300   1
 -10   2  -8 940.160 46.4200   1
  10   2   8 921.470 36.2200   1
  -8   2 -12 319.400 15.7700   1
  -8   2 -12 356.430 27.3200   1
   8   2  12 402.980 17.5100   1
  -8  -2 -12 346.770 15.6900   1
  -8   0 -13 -10.250 9.69000   1
   8   0  13 9.40000 4.20000   1
  -2   0 -19 11.4200 13.8000   1
  -2   0 -19 2.57000 4.92000   1
  -9   5   7 17.2900 15.8500   1
  -9   5   7 27.4900 12.3100   1
   9   5  -7 26.0900 5.06000   1
  -9  -5   7 12.5300 3.92000   1
 -12   0  11 -2.1000 3.85000   1
  12   0 -11 -0.7600 3.68000   1
 -10  -4  -3 463.180 19.8000   1
 -10   4  -3 415.810 30.9500   1
 -10  -4  -3 383.440 24.4100   1
 -10  -4  -3 424.720 18.1300   1
 -10   4  -3 416.480 25.7200   1
  10   4   3 447.110 18.6400   1
  -5  -3  18 1115.17 43.6800   1
   5   3 -18 1058.75 41.5800   1
  -5   3  18 1206.12 53.8900   1
   5  -3 -18 1135.33 45.0300   1
   2  -4 -17 1165.68 45.3000   1
   2   4 -17 1096.85 43.3200   1
  -2   4  17 1073.95 44.1500   1
  -2  -4  17 1088.90 43.6000   1
   2  -4 -17 1169.10 47.2800   1
 -12  -2  -1 391.540 17.2000   1
  12   2   1 429.260 18.2000   1
 -12  -2  -1 367.670 16.3400   1
 -12   2  -1 357.100 18.7100   1
  -1   7   6 1098.61 42.8200   1
   1  -7  -6 1093.73 42.2900   1
  -1  -7   6 1085.01 42.3400   1
   1  -7  -6 1127.40 44.3600   1
  -1  -7   6 1136.38 44.4300   1
  -1   7   6 1167.60 45.1800   1
   1   7  -6 1101.50 42.5000   1
  -1  -1  20 29.1000 5.20000   1
   1   1 -20 10.4000 22.8500   1
   1  -1 -20 13.0700 7.19000   1
  -1   1  20 16.2000 5.72000   1
   1   1 -20 12.0200 4.22000   1
   1  -1 -20 7.94000 4.87000   1
  -7   5  12 9.18000 11.0700   1
   7   5 -12 3.92000 4.01000   1
  -7  -5  12 6.86000 4.92000   1
   7  -5 -12 5.16000 3.64000   1
  -7  -5  12 0.46000 3.99000   1
  11   3 -10 689.390 27.4400   1
 -11   3  10 597.320 38.7300   1
 -11  -3  10 719.470 29.6800   1
 -11  -3  10 694.290 27.7900   1
 -11  -3  -3 621.570 25.5800   1
  11   3   3 665.750 26.5000   1
 -11   3  -3 587.150 39.3100   1
 -11  -3  -3 594.880 24.6700   1
 -11   3  -3 574.200 33.9900   1
  -6  -4 -12 170.830 13.8400   1
   6   4  12 155.820 12.2800   1
  -6   4 -12 72.6800 45.5800   1
  -6  -4 -12 190.780 14.7100   1
  -6   4 -12 165.810 15.4400   1
  -5  -5  14 232.540 17.7300   1
  -5  -5  14 263.900 13.5200   1
   5  -5 -14 246.700 13.0100   1
  -5   5  14 235.530 18.0500   1
  -5   5  14 287.160 15.7500   1
   5   5 -14 270.670 12.3800   1
   4  -6 -11 16.6200 4.73000   1
  -4  -6  11 29.9500 6.00000   1
  -4  -6  11 10.0900 4.87000   1
  -4   6  11 37.6200 7.61000   1
  -4   6  11 13.5300 4.02000   1
   4   6 -11 7.77000 4.47000   1
  -3   7  -3 374.790 18.1100   1
  -3   7  -3 425.260 18.7800   1
   3   7   3 433.990 18.0700   1
   3  -7   3 406.070 18.4400   1
  -3  -7  -3 412.110 17.6100   1
  -3  -7  -3 416.480 17.6400   1
   3  -7   3 416.520 18.4400   1
  -6  -6  -5 14.6200 4.41000   1
  -6  -6  -5 -1.7100 3.97000   1
   6  -6   5 -5.7000 5.45000   1
  -6   6  -5 6.76000 3.68000   1
   6   6   5 -0.5400 3.76000   1
   0   0 -20 137.090 13.2100   1
   0   0 -20 143.360 21.1900   1
  -3  -7   5 118.450 12.0100   1
   3  -7  -5 125.750 12.4600   1
   3   7  -5 109.490 10.8300   1
  -3  -7   5 121.750 11.9200   1
   3  -7  -5 120.420 11.9800   1
  -3   7   5 129.580 12.9300   1
  -3   7   5 132.570 12.7700   1
 -12   2   9 65.8400 7.54000   1
 -12  -2   9 66.9100 7.48000   1
  12  -2  -9 50.3400 6.47000   1
 -12  -2   9 72.8900 7.83000   1
  12  -2  -9 56.6200 6.44000   1
  12   2  -9 64.3300 7.48000   1
   9  -1 -17 477.680 21.6700   1
  -9  -1  17 473.770 20.5800   1
   9   1 -17 458.710 19.9100   1
   9  -1 -17 523.570 22.3000   1
  -9   3  -9 649.630 40.6400   1
  -9  -3  -9 865.730 34.8400   1
  -9  -3  -9 784.190 31.8000   1
   9  -3   9 546.110 25.4000   1
   9   3   9 880.260 34.7700   1
  -3   5 -13 6.53000 4.76000   1
   3   5  13 6.76000 3.93000   1
   3  -5  13 3.16000 4.98000   1
  -3  -5 -13 11.4100 3.98000   1
   3   5  13 11.9900 5.29000   1
  -3  -5 -13 2.62000 4.13000   1
  -6   2 -15 437.440 20.2400   1
  -6  -2 -15 434.360 19.7200   1
  -6   2 -15 436.690 32.7900   1
   6   2  15 440.070 19.3100   1
  -7  -3  17 634.700 25.8000   1
  -7   3  17 534.610 33.3400   1
   7   3 -17 638.240 26.1800   1
   7  -3 -17 636.700 27.6800   1
  -5  -3 -15 533.010 22.8200   1
  -5   3 -15 601.820 45.9600   1
   5   3  15 577.730 24.2700   1
  -5   3 -15 616.380 26.8000   1
  -5  -3 -15 583.430 24.6100   1
  -4   2 -17 803.010 32.9000   1
  -4  -2 -17 751.510 29.9600   1
  -4  -2 -17 789.410 33.7500   1
  -4   2 -17 597.270 46.9300   1
   9   5   2 573.640 23.0900   1
  -9  -5  -2 570.120 23.6600   1
  -9   5  -2 564.250 29.2100   1
  -9   5  -2 625.160 45.1700   1
  -9  -5  -2 542.090 22.1600   1
   8  -4 -14 33.9800 4.90000   1
   8   4 -14 27.3600 5.26000   1
  -8   4  14 42.6800 15.7300   1
  -8  -4  14 50.7800 6.56000   1
  -8  -4  14 40.7600 6.17000   1
  -6  -6   9 620.350 25.3700   1
   6  -6  -9 672.900 27.8300   1
  -6  -6   9 619.950 25.1400   1
   6   6  -9 699.470 28.0400   1
  -6   6   9 578.560 25.8600   1
  -6   6   9 612.640 27.1800   1
   6  -4 -16 50.2600 6.08000   1
  -6  -4  16 68.9800 8.44000   1
   6   4 -16 68.2300 7.51000   1
  -6   4  16 45.3900 10.9500   1
  -6  -4  16 65.8100 7.39000   1
   1  -5 -15 2.74000 4.35000   1
  -1   5  15 -1.8600 4.25000   1
   1   5 -15 -1.1400 4.37000   1
  -1  -5  15 13.4800 5.60000   1
  -1   5  15 10.7600 5.59000   1
  10   0 -16 519.200 22.5800   1
 -10   0  16 521.090 22.4000   1
   5  -5  11 21.3200 5.67000   1
  -5  -5 -11 18.8100 4.70000   1
  -5  -5 -11 18.4800 4.84000   1
  -5   5 -11 14.3100 3.86000   1
   5   5  11 22.3600 5.19000   1
 -10   4  10 33.0100 18.5800   1
 -10  -4  10 11.7400 4.59000   1
  10   4 -10 10.5900 4.01000   1
   3  -5 -15 43.6900 5.70000   1
  -3  -5  15 51.1900 7.06000   1
  -3  -5  15 45.7100 6.91000   1
  -3   5  15 47.9500 5.99000   1
   3   5 -15 47.2000 6.34000   1
  -4  -4  17 1513.96 57.9800   1
  -4   4  17 1451.58 57.9500   1
   4   4 -17 1420.03 53.9200   1
   4  -4 -17 1391.33 53.9200   1
  -9   5   8 -6.3300 10.5700   1
  -9  -5   8 5.60000 4.34000   1
  -9  -5   8 0.68000 3.86000   1
  -9   5   8 14.2700 12.0200   1
   9   5  -8 14.9000 4.61000   1
  -8  -4  -9 40.8200 6.63000   1
  -8   4  -9 4.89000 36.0600   1
  -8  -4  -9 19.9000 4.81000   1
   8   4   9 34.5900 5.40000   1
  -1  -3 -18 547.590 23.0000   1
  -1   3 -18 546.310 23.8500   1
   1  -3  18 508.510 22.4000   1
  -1   3 -18 452.930 20.4600   1
  -1  -3 -18 587.600 25.6100   1
  -1  -3 -18 430.470 21.7900   1
   1   3  18 558.270 24.4300   1
  -1   7  -6 594.680 24.6500   1
  -1  -7  -6 683.440 28.0100   1
  -1  -7  -6 658.560 26.3500   1
   1  -7   6 578.340 24.3600   1
   1   7   6 620.470 25.8400   1
   1   7   6 678.790 27.3400   1
   1  -7   6 676.340 28.5300   1
   2   4  16 338.520 15.5300   1
  -2  -4 -16 295.490 14.8000   1
  -2   4 -16 315.040 15.6000   1
  -2  -4 -16 376.890 17.1300   1
   2   4  16 303.700 14.7900   1
   2  -4  16 298.300 14.6000   1
  -2   6  12 135.470 13.4300   1
  -2   6  12 102.310 10.9100   1
  -2  -6  12 123.330 12.3000   1
  -2  -6  12 107.250 11.1700   1
   2  -6 -12 123.800 12.2200   1
   2   6 -12 149.440 16.1200   1
  12   0   4 38.6500 5.39000   1
   7   1 -19 1335.12 51.6900   1
   7  -1 -19 1381.06 54.4700   1
  -7   1  19 1182.67 59.6800   1
  -7  -1  19 1420.28 55.2900   1
   7  -1 -19 1440.40 55.9900   1
   5   1 -20 112.150 11.0700   1
  -5  -1  20 113.910 21.6100   1
  -5  -1  20 118.380 11.6900   1
   5  -1 -20 110.070 10.9200   1
   5   1 -20 107.000 11.1300   1
  -5   1  20 115.340 16.5000   1
  11  -1 -14 8.59000 4.21000   1
 -11   1  14 -1.7600 3.20000   1
  11  -1 -14 5.70000 4.03000   1
 -11  -1  14 10.2700 3.83000   1
  11   1 -14 14.3100 4.53000   1
  -7  -5  -8 675.960 27.3600   1
  -7  -5  -8 602.760 24.6300   1
  -7   5  -8 700.580 58.5000   1
   7   5   8 621.540 24.7700   1
 -11   1  -7 112.960 14.4800   1
 -11  -1  -7 153.380 12.9100   1
  11   1   7 140.680 13.5300   1
  11  -1   7 97.1700 10.2500   1
  -6   0 -16 15.7900 4.70000   1
  -6   0 -16 27.8800 11.0400   1
   9   3 -15 597.550 24.5700   1
  -9   3  15 539.760 31.7500   1
  -9  -3  15 451.810 20.4700   1
   9  -3 -15 526.650 24.0300   1
  -9  -3  15 625.510 25.8500   1
   0  -4 -17 22.0100 4.89000   1
   0  -4  17 15.5000 4.75000   1
   0   4  17 19.4000 5.67000   1
   0   4 -17 23.8100 5.23000   1
  12   2   2 432.560 18.2800   1
 -12  -2  -2 436.010 18.8100   1
 -12   2  -2 385.390 21.6800   1
 -12  -2  -2 401.880 17.6400   1
  -6   2  19 20.9200 14.3100   1
   6   2 -19 4.09000 5.00000   1
   6  -2 -19 16.1500 4.88000   1
  -6  -2  19 8.27000 4.68000   1
  10   2 -15 598.910 24.8000   1
  10  -2 -15 597.160 25.0600   1
 -10  -2  15 506.030 20.6600   1
 -10   2  15 540.420 34.5700   1
  10  -2 -15 571.180 25.0400   1
   3  -7   4 31.7300 6.18000   1
  -3   7  -4 34.3100 4.86000   1
  -3  -7  -4 37.3600 5.55000   1
   3  -7   4 24.4400 5.54000   1
  -3  -7  -4 31.9200 5.10000   1
  -3   7  -4 19.6200 4.23000   1
   3   7   4 18.8100 4.01000   1
  10   4   4 280.260 12.4700   1
 -10  -4  -4 299.030 13.1700   1
 -10   4  -4 269.050 17.0200   1
 -10  -4  -4 315.510 14.0000   1
 -10   4  -4 198.820 26.7300   1
  -3  -7   6 33.9200 5.48000   1
   3  -7  -6 25.8900 4.83000   1
  -3   7   6 28.8100 5.61000   1
  -3   7   6 28.9400 4.28000   1
   3   7  -6 34.6100 5.06000   1
  -3  -7   6 36.0500 5.55000   1
   3  -7  -6 39.8200 5.60000   1
  -1  -7   7 223.500 11.0900   1
   1   7  -7 220.610 10.5400   1
  -1   7   7 231.350 10.8300   1
  -1   7   7 228.600 11.5500   1
  -1  -7   7 243.980 11.6600   1
   1  -7  -7 221.270 11.3700   1
   1  -7  -7 192.810 15.0000   1
  -4   0 -18 1492.46 65.6700   1
  -4   0 -18 1420.51 55.1500   1
  -4   6  -9 1066.89 43.2100   1
  -4  -6  -9 1042.07 39.9200   1
  -4  -6  -9 1120.52 42.8400   1
   4  -6   9 1062.23 41.8400   1
   4   6   9 1066.52 40.7800   1
   0   6 -12 22.7300 4.48000   1
   0   6  12 29.4100 4.75000   1
   0   6  12 28.3100 5.87000   1
   0  -6  12 30.8100 5.53000   1
   0  -6 -12 20.1600 4.45000   1
   0  -6  12 26.9100 5.71000   1
  -3  -3 -17 97.5200 8.79000   1
  -3   3 -17 43.2400 40.0700   1
   3  -3  17 94.9000 8.88000   1
   3   3  17 90.1300 8.68000   1
  -3  -3 -17 78.6200 8.04000   1
  -3   3 -17 110.030 9.60000   1
  -3  -3 -17 83.4300 7.50000   1
  12   0 -12 941.470 36.8800   1
 -12   0  12 991.220 38.6000   1
 -13  -1   4 3.32000 4.70000   1
 -13   1   4 14.8400 4.89000   1
 -13  -1   4 -3.5800 4.42000   1
  13   1  -4 -0.9900 3.84000   1
  13  -1  -4 2.91000 3.08000   1
  -2  -6 -11 40.7000 5.33000   1
  -2   6 -11 47.0600 5.48000   1
   2  -6  11 48.9300 6.93000   1
  -2  -6 -11 36.3800 5.67000   1
   2   6  11 41.5900 5.27000   1
   2   6  11 54.5300 6.49000   1
  12  -2 -10 9.53000 3.50000   1
 -12  -2  10 11.9700 3.79000   1
  12  -2 -10 2.81000 4.30000   1
 -12  -2  10 5.47000 3.82000   1
  12   2 -10 23.0100 4.37000   1
 -12   2  10 12.7400 3.66000   1
  11   3 -11 368.930 16.0900   1
 -11  -3  11 380.020 17.6200   1
 -11  -3  11 364.690 15.7300   1
 -11   3  11 416.980 29.8100   1
 -13  -1   5 1231.66 48.2300   1
  13  -1  -5 1130.51 46.5300   1
  13   1  -5 1470.10 55.4500   1
 -13   1   5 1383.90 53.6700   1
 -13  -1   5 1376.24 52.0000   1
 -11  -3  -4 907.500 35.7800   1
  11   3   4 921.030 36.0400   1
 -11   3  -4 750.710 43.7700   1
 -11  -3  -4 815.470 32.3400   1
 -11   3  -4 881.120 44.3400   1
  13  -1  -3 277.290 15.2900   1
  13   1  -3 435.710 18.2600   1
 -13  -1   3 358.670 15.5600   1
 -13  -1   3 329.080 15.5200   1
  13  -1  -3 300.780 14.1000   1
 -13   1   3 360.190 16.8400   1
   9   5   3 1.80000 3.77000   1
  -9  -5  -3 11.1500 4.77000   1
  -9   5  -3 4.39000 5.30000   1
  -9   5  -3 4.17000 34.5000   1
  -9  -5  -3 4.11000 3.94000   1
 -10   0 -10 218.520 13.5900   1
  10   0  10 234.950 11.7500   1
  -5   1 -17 734.840 37.1000   1
  -5  -1 -17 897.190 40.0400   1
  -5   1 -17 800.750 32.2100   1
  -5  -1 -17 847.920 33.8800   1
   6   0 -20 188.770 15.0900   1
   6   0 -20 161.340 12.9500   1
   3   3 -19 26.0700 5.18000   1
   3  -3 -19 47.8800 5.71000   1
  -3   3  19 31.1200 7.13000   1
  -3  -3  19 42.0200 5.87000   1
   2  -2 -20 1052.26 40.9500   1
   2   2 -20 1142.27 45.5000   1
  -2   2  20 1073.76 45.4200   1
  -2  -2  20 1125.98 43.9700   1
   2   2 -20 1018.76 40.7000   1
   2  -2 -20 1064.63 46.5200   1
 -13   1   6 127.350 11.6900   1
 -13  -1   6 163.970 13.5000   1
  13   1  -6 171.080 13.2400   1
 -13  -1   6 187.290 14.1000   1
 -13   1   6 172.050 14.0200   1
  13  -1  -6 169.370 13.2200   1
  -6  -6  -6 77.8700 7.76000   1
  -6  -6  -6 60.1500 6.38000   1
  -6   6  -6 56.6000 5.59000   1
   6   6   6 61.8000 6.61000   1
   6  -6   6 57.3300 7.59000   1
  13   1  -2 303.660 13.6100   1
  13  -1  -2 263.010 12.6800   1
 -13  -1   2 301.150 14.8000   1
 -13  -1   2 306.310 14.4500   1
 -13   1   2 307.190 15.2300   1
  -7  -3 -13 -9.3500 4.18000   1
  -7   3 -13 3.06000 3.42000   1
  -7   3 -13 88.1700 25.8500   1
  -7  -3 -13 -15.040 5.09000   1
   9   5  -9 10.1500 4.41000   1
  -9   5   9 -16.780 13.1000   1
  -9  -5   9 3.82000 4.50000   1
  -9  -5   9 1.29000 3.63000   1
  10  -2   9 225.810 14.2000   1
 -10  -2  -9 366.030 16.9400   1
 -10   2  -9 378.340 23.9200   1
  10   2   9 385.970 17.1800   1
  -6   6  10 6.64000 2.97000   1
  -6  -6  10 5.96000 3.97000   1
   6   6 -10 0.28000 3.81000   1
  -6   6  10 -12.780 6.55000   1
  -6  -6  10 0.38000 4.27000   1
  -7   5  13 84.5500 7.82000   1
  -7  -5  13 102.520 9.51000   1
  -7  -5  13 109.360 9.30000   1
  -7   5  13 83.9100 13.1100   1
   7   5 -13 81.2600 7.69000   1
   1  -3 -19 268.690 14.1400   1
  -1   3  19 290.460 14.7700   1
   1   3 -19 333.820 15.2600   1
   1  -3 -19 281.960 13.1400   1
  -1  -3  19 283.380 13.9900   1
  10   4 -11 48.9100 5.47000   1
 -10   4  11 81.6000 18.5400   1
 -10  -4  11 40.7200 5.10000   1
 -10  -4  11 42.2500 5.74000   1
   1   7   7 976.270 37.6800   1
   1   7   7 993.160 40.0600   1
   1  -7   7 875.180 34.8400   1
   1  -7   7 905.840 36.6300   1
  -1  -7  -7 880.090 34.2100   1
  -1   7  -7 1022.67 40.4700   1
  -1  -7  -7 981.030 38.1600   1
  -4   2  20 535.400 28.9200   1
  -4  -2  20 524.290 22.9100   1
   4  -2 -20 581.800 25.0300   1
   4   2 -20 570.360 24.5800   1
 -13  -1   7 1229.07 48.2200   1
 -13  -1   7 1288.72 48.9200   1
 -13   1   7 1300.31 50.9600   1
 -13  -1   7 1288.00 49.1700   1
  13   1  -7 1467.01 55.7400   1
  13  -1  -7 1228.21 47.7300   1
  13  -1  -7 1128.96 44.6900   1
  -8  -6   3 67.5200 6.51000   1
  -8  -6   3 69.2400 7.25000   1
   8   6  -3 90.1000 8.04000   1
  -8   6   3 71.0700 10.0900   1
  -8   6   3 63.1700 38.2500   1
  -3  -7  -5 -4.3000 3.71000   1
   3   7   5 17.8700 3.97000   1
  -3   7  -5 11.0800 4.19000   1
   3  -7   5 -3.4200 4.83000   1
  -3  -7  -5 5.69000 4.59000   1
   3  -7   5 1.55000 5.03000   1
  -3   7  -5 3.94000 3.51000   1
   8   6  -2 4.11000 3.61000   1
  -8   6   2 9.17000 6.34000   1
  -8   6   2 35.0600 37.1300   1
  -8  -6   2 19.3400 4.65000   1
  -8  -6   2 13.3000 4.13000   1
  -4  -6  12 72.6900 7.82000   1
   4  -6 -12 76.4800 8.39000   1
  -4   6  12 69.9500 8.94000   1
  -4   6  12 95.5600 8.37000   1
   4   6 -12 82.8600 7.64000   1
  -4  -6  12 60.6800 6.82000   1
 -12  -2  -3 6.87000 5.61000   1
 -12   2  -3 -3.4700 8.42000   1
  12   2   3 11.0700 4.21000   1
 -12  -2  -3 3.01000 4.58000   1
   3   7  -7 21.2400 4.11000   1
  -3  -7   7 2.81000 4.44000   1
   3  -7  -7 -14.650 5.02000   1
  -3   7   7 10.6100 4.02000   1
  -3   7   7 18.9700 5.73000   1
   3  -7  -7 5.70000 3.45000   1
  -3  -7   7 0.03000 3.96000   1
  13   1  -1 22.0700 4.42000   1
 -13   1   1 23.8700 5.64000   1
 -13  -1   1 33.8800 5.43000   1
  13  -1  -1 21.1100 4.05000   1
 -13  -1   1 22.4700 5.05000   1
  -8   6   4 22.7900 7.22000   1
  -8  -6   4 15.9900 4.10000   1
  -8  -6   4 31.6900 4.92000   1
  -8   6   4 -22.940 33.6100   1
   8   6  -4 10.2600 3.68000   1
   8  -2 -18 307.650 14.4500   1
  -8   2  18 277.810 23.2200   1
  -8  -2  18 271.130 12.8500   1
   8   2 -18 314.750 14.6400   1
  -8  -6   1 235.200 11.1900   1
  -8  -6   1 242.850 10.8900   1
  -8   6   1 200.390 44.8700   1
  -8   6   1 243.860 14.0500   1
   8   6  -1 238.670 11.1800   1
  -7   1 -15 729.410 30.2000   1
   7   1  15 700.980 28.3000   1
  -7  -1 -15 672.160 30.5200   1
  -7   1 -15 810.780 41.3700   1
  -4  -4 -15 312.270 14.4800   1
   4  -4  15 285.980 13.7100   1
  -4   4 -15 257.230 45.9000   1
   4   4  15 311.710 14.1600   1
  -4   4 -15 288.160 14.5500   1
  -4  -4 -15 322.070 14.7200   1
  12   0   5 5.03000 3.09000   1
 -12   0  -5 7.62000 6.40000   1
  -1   5 -15 -10.290 4.38000   1
   1   5  15 3.32000 3.93000   1
  -1  -5 -15 2.85000 4.04000   1
   1  -5  15 1.85000 4.71000   1
   1   5  15 -5.4300 5.11000   1
   9  -1  12 172.440 13.9000   1
  -9   1 -12 214.800 34.8500   1
  -9  -1 -12 205.940 12.2500   1
   9   1  12 198.100 15.0500   1
  -5   7   2 6.61000 4.62000   1
   5  -7  -2 5.19000 4.07000   1
  -5  -7   2 10.2700 4.88000   1
   5  -7  -2 27.6400 5.47000   1
  -5  -7   2 -2.9500 3.95000   1
   5   7  -2 0.08000 4.01000   1
  -5  -7   1 8.59000 4.68000   1
   5  -7  -1 18.5200 5.91000   1
  -5  -7   1 4.50000 3.78000   1
   5  -7  -1 10.1800 4.42000   1
  -5   7   1 -3.0500 4.97000   1
   5   7  -1 15.2900 4.03000   1
  -1  -1 -20 154.290 12.7100   1
  -1   1 -20 158.950 13.0300   1
  -1  -1 -20 151.520 15.0100   1
  -1   1 -20 180.170 26.0000   1
   8   0 -19 11.4600 4.18000   1
   8   0 -19 4.81000 4.44000   1
  -1   7   8 346.600 15.8200   1
  -1  -7   8 363.290 15.7600   1
  -1   7   8 383.260 17.0300   1
  -1  -7   8 332.340 15.3700   1
   1   7  -8 387.150 17.4100   1
   1  -7  -8 401.450 17.1000   1
   1  -7  -8 365.690 16.7800   1
  -5  -7   3 4.68000 4.37000   1
   5  -7  -3 0.47000 3.99000   1
  -5   7   3 9.41000 5.42000   1
   5   7  -3 2.79000 3.89000   1
  -5  -7   3 -4.4500 4.29000   1
   5  -7  -3 1.97000 4.67000   1
 -10  -4  -5 1246.70 48.6000   1
 -10   4  -5 1104.92 57.0800   1
  10   4   5 1361.73 51.4000   1
 -10   4  -5 1111.14 50.7100   1
 -10  -4  -5 1300.65 49.2200   1
   2   0 -21 13.9000 13.9700   1
  -2   0  21 2.40000 7.35000   1
   2   0 -21 10.7500 4.65000   1
   5   5 -15 89.5900 7.87000   1
  -5   5  15 57.2500 9.88000   1
  -5  -5  15 62.3400 6.81000   1
  -5  -5  15 55.5800 6.90000   1
   5  -5 -15 46.2200 5.56000   1
  -8   2 -13 547.320 32.3000   1
  -8  -2 -13 523.700 22.7600   1
  -8   2 -13 475.430 21.9000   1
   8   2  13 525.550 22.0300   1
  -5   7   0 601.390 25.0200   1
   5  -7   0 580.020 25.1800   1
  -5  -7   0 593.590 23.7900   1
   5  -7   0 618.040 25.5800   1
  -5  -7   0 564.350 22.7100   1
   5   7   0 577.130 23.0700   1
  -2   2 -19 455.530 39.6100   1
  -2  -2 -19 318.370 16.7900   1
   2   2  19 338.670 17.2500   1
  -2   2 -19 335.370 15.5100   1
  -2  -2 -19 364.690 16.3100   1
 -12  -2  11 234.040 11.0400   1
  12   2 -11 225.720 10.9100   1
  12  -2 -11 190.800 14.6600   1
 -12   2  11 199.130 16.3200   1
  12  -2 -11 166.980 14.6900   1
   8   6  -5 76.8700 7.18000   1
  -8  -6   5 53.0000 6.66000   1
  -8   6   5 -23.300 31.4600   1
  -8   6   5 65.2200 9.38000   1
  -8  -6   5 50.3100 5.91000   1
  -9   5  -4 54.9300 7.24000   1
  -9  -5  -4 48.2400 6.19000   1
  -9  -5  -4 54.9400 6.34000   1
   9   5   4 60.5600 6.55000   1
  -9   5  -4 99.7300 33.8900   1
  -8  -6   0 25.9800 5.20000   1
  -8  -6   0 21.3800 4.11000   1
   8   6   0 7.00000 4.29000   1
  -8   6   0 28.7500 7.19000   1
  -8   6   0 43.2900 38.3000   1
  -9  -3 -10 427.040 18.9300   1
  -9  -3 -10 503.340 21.4500   1
  -9   3 -10 464.680 30.5300   1
   9   3  10 490.580 20.1700   1
 -13  -1   8 319.080 17.3200   1
 -13   1   8 286.600 13.8000   1
  13   1  -8 300.590 13.4600   1
  13  -1  -8 256.490 12.4000   1
 -13  -1   8 240.350 11.8700   1
  13  -1  -8 273.380 12.5500   1
   8   4 -15 2.94000 4.30000   1
  -8  -4  15 -11.140 3.69000   1
  -8   4  15 -14.020 14.2500   1
  -8  -4  15 8.71000 4.94000   1
   8  -4 -15 -2.7900 3.12000   1
  -6  -4 -13 921.130 36.2100   1
  -6   4 -13 797.870 60.9600   1
  -6  -4 -13 815.160 32.8900   1
   6   4  13 781.820 31.3900   1
  -6   4 -13 804.130 35.6600   1
  -8   0 -14 2257.76 89.7400   1
   8   0  14 2259.87 152.440   1
  -3   1 -19 264.830 12.9100   1
  -3  -1 -19 263.330 12.1600   1
  -3  -1 -19 263.140 17.5000   1
  -3   1 -19 201.830 23.7200   1
   4   0 -21 -8.1800 4.18000   1
  -4   0  21 -19.740 11.9000   1
   4   0 -21 -14.600 4.82000   1
  11   3 -12 794.380 31.0500   1
 -11   3  12 690.320 42.8400   1
 -11  -3  12 823.080 32.1100   1
 -11  -3  12 674.230 29.2800   1
  -5   7   4 81.6300 9.04000   1
  -5  -7   4 91.8600 8.72000   1
   5  -7  -4 78.4900 7.52000   1
   5   7  -4 96.1700 8.23000   1
  -5  -7   4 99.8200 8.63000   1
   5  -7  -4 95.8000 9.24000   1
 -11  -3  -5 367.620 16.5300   1
 -11   3  -5 270.570 20.4300   1
 -11  -3  -5 337.470 14.8200   1
 -11   3  -5 276.170 22.1400   1
  11   3   5 341.810 15.3400   1
 -12   0  13 5.00000 4.01000   1
  12   0 -13 -0.4500 4.26000   1
  -7  -5  -9 -15.620 5.02000   1
   7   5   9 -14.470 4.34000   1
  -7   5  -9 -104.86 50.5600   1
  -7  -5  -9 6.22000 4.69000   1
  13   1   0 3.68000 3.40000   1
 -13  -1   0 3.16000 4.55000   1
 -13   1   0 6.92000 5.90000   1
 -13  -1   0 -1.5700 4.56000   1
  13  -1   0 4.38000 3.34000   1
  11  -1 -15 242.350 11.6200   1
  11   1 -15 255.680 11.8800   1
  11  -1 -15 253.500 13.4900   1
 -11  -1  15 209.860 11.5000   1
  -2  -6  13 151.710 12.6000   1
  -2  -6  13 116.890 10.4800   1
   2   6 -13 105.840 14.5900   1
  -2   6  13 120.400 10.2500   1
   2  -6 -13 117.730 10.1900   1
  -2   6  13 78.9100 8.42000   1
  -8   4 -10 99.4600 32.5800   1
   8   4  10 19.9500 4.27000   1
  -8  -4 -10 19.8900 5.08000   1
  -8  -4 -10 4.80000 4.52000   1
  -5  -7  -1 518.870 21.6800   1
   5  -7   1 556.740 23.0600   1
  -5  -7  -1 556.770 22.6700   1
   5  -7   1 537.130 22.6500   1
  -5   7  -1 533.980 23.2400   1
   5   7   1 559.060 22.5100   1
  11   1   8 23.0300 4.20000   1
 -11  -1  -8 46.1400 6.84000   1
  11  -1   8 26.2500 4.18000   1
 -11   1  -8 8.49000 10.3700   1
   9   5 -10 533.730 22.4100   1
  -9   5  10 609.090 35.1600   1
  -9  -5  10 638.230 25.3200   1
  -9  -5  10 581.200 23.7200   1
   5  -3 -19 300.170 14.5900   1
  -5  -3  19 347.290 16.0500   1
  -5   3  19 342.600 20.4300   1
   5   3 -19 298.440 14.0300   1
   2  -4 -18 -5.4300 3.63000   1
   2   4 -18 2.57000 3.94000   1
  -2   4  18 4.43000 5.31000   1
   2  -4 -18 0.67000 4.24000   1
  -2  -4  18 -4.4400 4.41000   1
   5  -5  12 536.950 23.9000   1
  -5  -5 -12 554.830 23.4600   1
  -5  -5 -12 622.890 26.4500   1
   5   5  12 615.940 25.1400   1
  -5   5 -12 491.360 22.1200   1
   0  -2 -20 96.1300 9.59000   1
   0  -2  20 113.920 9.87000   1
   0   2 -20 105.650 38.9100   1
   0  -2 -20 94.4000 9.61000   1
   0   2 -20 84.4800 8.03000   1
   0   2  20 103.410 9.26000   1
   0   2 -20 105.550 9.85000   1
   0  -2 -20 98.6400 9.37000   1
  -9   1  18 44.1200 19.6900   1
   9  -1 -18 54.3600 6.20000   1
  -9  -1  18 42.1600 5.31000   1
   9   1 -18 54.1000 6.36000   1
   9  -1 -18 43.2200 5.66000   1
  -3  -5 -14 576.110 23.7400   1
  -3  -5 -14 465.310 22.3800   1
   3  -5  14 486.230 21.1100   1
   3   5  14 564.520 24.1900   1
   3   5  14 529.250 21.7300   1
  -3   5 -14 586.690 27.3200   1
  -3  -1  21 547.970 34.6200   1
  -3   1  21 510.230 31.0300   1
  -3  -1  21 648.020 27.8300   1
   3   1 -21 581.300 25.2600   1
   3   1 -21 649.090 26.9100   1
   3  -1 -21 601.400 26.1400   1
   3   1 -21 588.690 49.4100   1
  -8  -6   6 2.18000 4.49000   1
  -8  -6   6 -1.1700 4.12000   1
  -8   6   6 10.2900 7.71000   1
   8   6  -6 5.79000 3.74000   1
  -8   6   6 70.5700 36.7400   1
   4   6  10 5.64000 3.81000   1
   4  -6  10 -8.0700 5.63000   1
  -4  -6 -10 -4.3800 3.82000   1
  -4  -6 -10 -11.610 4.65000   1
  -4   6 -10 -3.6600 3.83000   1
  -6  -6  -7 237.050 10.9500   1
  -6  -6  -7 231.700 11.1300   1
   6   6   7 213.450 10.1900   1
  -6   6  -7 169.920 13.4100   1
   6  -6   7 229.790 12.1800   1
  -8   6  -1 999.460 41.2500   1
   8   6   1 1120.56 42.9000   1
  -8  -6  -1 1002.60 38.4500   1
  -8  -6  -1 1044.44 39.8100   1
   6  -4 -17 125.890 10.6300   1
  -6   4  17 112.370 13.5600   1
   6   4 -17 141.460 11.5900   1
  -6  -4  17 119.400 9.86000   1
   3  -7   6 -1.1600 4.88000   1
   3  -7   6 -5.4600 4.96000   1
   3   7   6 5.88000 3.76000   1
  -3  -7  -6 1.33000 4.55000   1
  -3   7  -6 4.54000 3.14000   1
  -7  -3  18 617.770 25.0100   1
   7  -3 -18 591.830 26.1300   1
   7   3 -18 634.200 25.8600   1
  -7   3  18 637.030 33.8600   1
   9  -3 -16 1236.74 48.2500   1
   9   3 -16 1434.89 54.5700   1
  -9   3  16 1327.70 66.3200   1
  -9  -3  16 1351.17 51.3100   1
 -10  -2  16 467.750 19.2600   1
 -10   2  16 389.850 34.8400   1
  10  -2 -16 444.770 20.7000   1
  10  -2 -16 487.320 20.8700   1
  10   2 -16 483.330 20.7900   1
   3  -5 -16 380.040 18.3100   1
  -3   5  16 447.290 21.7500   1
   3   5 -16 436.020 18.4800   1
  -3   5  16 396.730 18.2100   1
  -3  -5  16 440.810 18.7900   1
  -1  -5  16 1726.69 66.0200   1
  -1   5  16 1717.68 65.9600   1
  -1   5  16 1838.66 68.9500   1
   1   5 -16 1724.92 65.9800   1
   1  -5 -16 1999.15 75.1000   1
   3   7  -8 158.780 12.3700   1
  -3  -7   8 143.070 11.6900   1
   3  -7  -8 174.450 13.6800   1
  -3  -7   8 148.800 12.2200   1
  -3   7   8 123.770 10.9900   1
  -3   7   8 172.750 13.4200   1
   5   7  -5 451.940 18.8300   1
  -5  -7   5 416.810 17.7400   1
   5  -7  -5 354.510 16.8500   1
  -5   7   5 454.800 19.9700   1
  -5  -7   5 467.140 19.3800   1
   5  -7  -5 415.730 18.8300   1
   1  -7   8 1247.74 47.7500   1
   1   7   8 1389.77 53.8100   1
  -1  -7  -8 1408.00 53.0700   1
   1   7   8 1347.16 50.8100   1
   1  -7   8 1364.10 53.3400   1
  -1   7  -8 1407.93 54.5400   1
  -1  -7  -8 1390.40 53.0200   1
  13  -1  -9 1044.77 40.6200   1
 -13   1   9 1130.99 44.2800   1
  13   1  -9 1085.71 42.3700   1
  13  -1  -9 963.590 38.1300   1
 -13  -1   9 1136.78 43.8400   1
 -12  -2  -4 1.47000 4.90000   1
 -12   2  -4 -13.450 8.74000   1
  12   2   4 3.30000 3.55000   1
  -6   6  11 1181.39 48.0500   1
  -6  -6  11 1076.50 41.8800   1
  -6   6  11 1107.71 44.9700   1
   6   6 -11 1217.73 46.3700   1
   6  -6 -11 1017.13 41.2100   1
  -6  -6  11 1060.25 40.5300   1
  10   4 -12 24.8700 4.42000   1
 -10  -4  12 19.7500 4.40000   1
 -10  -4  12 25.3500 4.74000   1
 -10   4  12 -1.0400 17.6300   1
   5   7   2 1446.20 55.6100   1
  -5   7  -2 1435.65 56.4100   1
  -5  -7  -2 1445.96 55.9100   1
  -5  -7  -2 1362.62 52.5900   1
   5  -7   2 1321.14 52.3100   1
   5  -7   2 1430.29 57.2200   1
   0   6 -13 1523.02 59.0800   1
   0   6  13 1469.25 57.5300   1
   0  -6  13 1500.21 58.6900   1
   0   6  13 1548.40 60.5800   1
   0  -6 -13 1698.00 65.7800   1
  -2  -6 -12 5.17000 4.19000   1
  -2  -6 -12 12.7500 3.59000   1
   2   6  12 7.00000 4.41000   1
  -2   6 -12 18.3200 4.15000   1
   2  -6  12 40.2700 6.14000   1
   2   6  12 22.8400 6.09000   1
  -2   0 -20 562.100 35.2400   1
  -2   0 -20 584.940 25.6200   1
  -5  -3 -16 1573.14 61.6600   1
  -5   3 -16 1493.31 84.5900   1
  -5  -3 -16 1443.20 57.5900   1
   5   3  16 1515.80 59.0200   1
  -5   3 -16 1486.49 58.8500   1
   4  -4 -18 258.360 12.7600   1
   4   4 -18 250.510 12.3800   1
  -4  -4  18 247.970 12.0800   1
  -4   4  18 249.130 13.9500   1
  -6   2 -16 107.460 10.1200   1
  -6   2 -16 91.2400 22.2200   1
   6   2  16 104.600 8.93000   1
  -6  -2 -16 110.990 10.3100   1
 -13  -1  -1 12.7600 4.93000   1
  13   1   1 28.1100 4.24000   1
 -13  -1  -1 33.0000 5.73000   1
 -13   1  -1 30.1600 7.84000   1
   1  -1 -21 267.910 13.0900   1
  -1   1  21 210.560 14.5500   1
   1   1 -21 257.340 29.6800   1
   1   1 -21 238.260 12.3400   1
  -8  -6   7 457.930 19.5700   1
  -8   6   7 309.650 43.8100   1
  -8   6   7 473.940 27.7200   1
   8   6  -7 448.100 19.0100   1
  -8  -6   7 455.480 19.9300   1
  -2  -4 -17 1339.67 53.1200   1
   2  -4  17 1325.53 53.6400   1
  -2  -4 -17 1525.13 59.6700   1
  -2   4 -17 1428.72 57.8400   1
   2   4  17 1417.03 55.5500   1
   2   4  17 1455.72 57.8100   1
  -4   2 -18 530.030 37.9800   1
  -4  -2 -18 513.090 24.0800   1
  -4  -2 -18 497.190 20.9000   1
  -4   2 -18 553.810 25.0100   1
  -8   6  -2 46.7400 6.59000   1
  -8  -6  -2 46.2600 5.63000   1
  -8  -6  -2 41.1500 5.30000   1
   8   6   2 29.5400 5.04000   1
  -8   6  -2 -69.960 38.9800   1
  -1   7   9 68.8900 7.24000   1
  -1  -7   9 67.5400 7.23000   1
   1  -7  -9 65.6400 6.59000   1
   1  -7  -9 82.6600 8.08000   1
   1   7  -9 69.6100 6.90000   1
  -1  -7   9 72.9600 8.17000   1
  -1   7   9 71.9400 6.66000   1
   7  -1 -20 71.3600 7.21000   1
  -7  -1  20 74.7600 7.13000   1
  -7   1  20 77.9000 18.9500   1
   7   1 -20 96.2000 8.63000   1
   7  -1 -20 78.8000 8.10000   1
  10   0  11 4.41000 4.02000   1
 -10   0 -11 4.27000 7.85000   1
  -9   5  -5 -78.170 32.8300   1
  -9  -5  -5 4.44000 4.24000   1
  -9   5  -5 11.8900 4.44000   1
   9   5   5 30.3600 4.61000   1
  -9  -5  -5 11.0000 5.04000   1
 -12  -2  12 535.500 23.0700   1
  12  -2 -12 529.920 24.3900   1
  12   2 -12 611.480 25.3800   1
  12  -2 -12 555.700 24.2200   1
  -7  -5  14 586.370 24.5600   1
  -7  -5  14 617.940 26.3400   1
   7  -5 -14 483.870 22.4600   1
   7   5 -14 597.320 25.4800   1
  -7   5  14 565.430 31.0000   1
 -12   0  -6 25.2500 7.60000   1
  12   0   6 35.8100 6.24000   1
   0   0 -21 6.45000 4.23000   1
   0   0 -21 -1.1300 11.2500   1
  -5  -7   6 487.530 20.3500   1
   5   7  -6 537.640 22.6300   1
  -5   7   6 530.790 23.5800   1
   5  -7  -6 467.270 21.1500   1
  -5  -7   6 494.630 20.8600   1
   5  -7  -6 507.280 21.7600   1
 -10  -4  -6 310.210 14.1300   1
 -10   4  -6 335.980 28.5300   1
  10   4   6 321.210 14.4700   1
 -10  -4  -6 304.800 14.6300   1
   4   6 -13 544.190 22.9000   1
  -4  -6  13 507.030 21.9700   1
   4  -6 -13 482.880 21.6000   1
  -4  -6  13 572.940 24.8600   1
  -4   6  13 548.200 25.1900   1
  -4   6  13 506.660 22.7000   1
  -1  -3 -19 622.730 29.6200   1
  -1  -3 -19 695.400 28.9800   1
  -1   3 -19 722.080 31.1800   1
   1   3  19 658.950 28.9500   1
  -1   3 -19 835.820 60.7700   1
   1  -3  19 681.700 28.9200   1
  -1  -3 -19 670.740 28.7000   1
 -10  -2 -10 442.710 20.0000   1
  10   2  10 441.920 19.4600   1
 -10   2 -10 385.660 24.8200   1
  10  -2  10 323.820 15.6100   1
   0  -4  18 18.1500 4.85000   1
   0  -4 -18 -0.1000 3.68000   1
   0   4  18 6.94000 4.54000   1
   0   4 -18 29.5800 5.69000   1
   0  -4 -18 15.9000 5.02000   1
  -6  -2  20 24.8700 4.88000   1
   6  -2 -20 26.3500 5.33000   1
   6   2 -20 23.3400 4.74000   1
  -6   2  20 31.5400 12.2200   1
  -5  -7  -3 737.570 29.7100   1
  -5  -7  -3 786.580 31.5400   1
   5  -7   3 773.490 33.4100   1
  -5   7  -3 667.890 28.2300   1
   5   7   3 771.930 30.9600   1
   5   1 -21 1098.99 44.6600   1
  -5  -1  21 1170.53 47.3100   1
  -5  -1  21 1046.39 56.1400   1
  -5   1  21 1050.97 54.0000   1
   5   1 -21 1193.55 47.8800   1
   5  -1 -21 1093.12 44.2800   1
  -6   0 -17 -5.9800 11.0500   1
  -6   0 -17 0.80000 4.48000   1
   9   5 -11 69.9700 6.56000   1
  -9   5  11 69.8000 13.8200   1
  -9  -5  11 70.2000 7.01000   1
  13  -1 -10 5.70000 3.74000   1
 -13  -1  10 -3.5700 4.91000   1
 -13   1  10 4.62000 3.67000   1
  13   1 -10 5.61000 4.30000   1
 -13   1  10 9.98000 4.79000   1
  11   3 -13 122.930 9.95000   1
 -11  -3  13 142.650 11.0400   1
 -11  -3  13 137.540 11.8600   1
 -11   3  13 178.030 25.4600   1
  11   3   6 242.890 11.8800   1
 -11  -3  -6 234.330 11.5500   1
 -11  -3  -6 239.290 12.4300   1
 -11   3  -6 214.990 19.9600   1
   3  -7   7 60.2200 10.5200   1
  -3  -7  -7 49.2900 5.89000   1
   3  -7   7 63.0000 7.27000   1
   3   7   7 54.1800 5.72000   1
  -3  -7  -7 58.2700 6.66000   1
  -7  -3 -14 139.880 12.1300   1
  -7   3 -14 148.440 12.2700   1
   7   3  14 149.170 11.9600   1
  -7  -3 -14 149.770 12.4400   1
  -7   3 -14 126.620 29.5500   1
  12   0 -14 587.380 25.5900   1
 -12   0  14 558.110 24.5200   1
  -3  -3 -18 8.99000 3.87000   1
  -3   3 -18 37.9100 34.9300   1
   3   3  18 -0.8700 4.31000   1
  -3   3 -18 4.76000 4.88000   1
  -3  -3 -18 5.45000 4.88000   1
  -3  -3 -18 10.8900 5.55000   1
   3  -3  18 -3.3400 4.85000   1
  -3   7   9 90.6700 7.90000   1
  -3  -7   9 103.440 8.94000   1
  -3  -7   9 80.1200 7.86000   1
   3  -7  -9 92.8100 8.66000   1
  -3   7   9 68.7300 7.45000   1
   3   7  -9 79.8800 7.52000   1
  -8   6   8 48.2700 10.3000   1
  -8  -6   8 57.8900 6.20000   1
  -8  -6   8 53.5300 6.10000   1
   8   6  -8 47.9900 5.77000   1
 -13  -1  -2 21.0200 5.82000   1
 -13   1  -2 0.06000 6.06000   1
 -13  -1  -2 39.5300 5.80000   1
  13   1   2 35.7600 5.39000   1
  -4   0 -19 -1.8700 11.1900   1
  -4   0 -19 -0.1700 4.42000   1
  -8  -6  -3 1198.45 46.5600   1
  -8  -6  -3 1126.66 43.8600   1
  -8   6  -3 1125.91 79.9600   1
   8   6   3 1238.59 48.0100   1
  -8   6  -3 1025.54 42.7500   1
   6   0 -21 -2.3200 5.20000   1
  -6   0  21 -12.030 17.0600   1
   6   0 -21 4.94000 4.58000   1
  -6  -6  -8 223.250 10.7100   1
   6   6   8 228.050 11.0300   1
   6  -6   8 201.880 11.1500   1
  -6  -6  -8 238.980 11.6100   1
  -3  -3  20 44.9100 5.88000   1
  -3   3  20 31.5600 6.87000   1
   3  -3 -20 46.7100 5.71000   1
   3   3 -20 53.4000 6.21000   1
  -5   1 -18 117.020 9.77000   1
  -5  -1 -18 84.5900 10.9800   1
  -5   1 -18 95.2000 19.8100   1
  -5  -1 -18 116.060 10.0600   1
   5  -7  -7 130.910 10.7600   1
   5   7  -7 188.790 11.0100   1
  -5  -7   7 151.980 12.0000   1
  -5   7   7 172.970 10.1900   1
  -5  -7   7 149.260 11.8600   1
 -12  -2  -5 102.730 9.43000   1
 -12  -2  -5 116.210 10.1600   1
  12   2   5 112.600 9.40000   1
 -12   2  -5 129.930 14.3600   1
   7   5  10 633.990 26.3800   1
  -7   5 -10 486.140 60.1000   1
  -7  -5 -10 626.210 27.2100   1
  -7  -5 -10 606.810 25.1900   1
  -1  -7  -9 599.220 24.8100   1
  -1   7  -9 613.150 26.1100   1
   1   7   9 560.430 23.5400   1
   1   7   9 576.840 24.3000   1
   1  -7   9 570.650 24.2600   1
  -1  -7  -9 542.140 23.1500   1
   1  -7   9 518.980 22.1900   1
   8   4 -16 7.07000 3.84000   1
   8  -4 -16 -3.5400 3.67000   1
  -8  -4  16 -0.5900 3.77000   1
  -8   4  16 -24.820 12.1100   1
   5   5 -16 116.070 9.70000   1
  -5  -5  16 117.710 9.96000   1
   5  -5 -16 97.8400 8.69000   1
  -5  -5  16 106.680 9.79000   1
  -5   5  16 105.440 10.9800   1
   9   3  11 375.840 16.5500   1
  -9  -3 -11 353.120 16.6300   1
  -9   3 -11 295.900 24.4800   1
  -9  -3 -11 387.910 17.7900   1
  11  -1 -16 85.9400 8.14000   1
  11   1 -16 82.2200 7.97000   1
 -11  -1  16 75.3300 7.14000   1
  11  -1 -16 76.1200 7.18000   1
   9   1  13 558.410 23.9700   1
  -9  -1 -13 553.430 25.5300   1
   9  -1  13 469.740 21.0400   1
  -9   1 -13 596.800 31.1700   1
 -11   1  -9 12.0900 10.4800   1
  11   1   9 13.8000 3.75000   1
  11  -1   9 13.7400 3.72000   1
 -11  -1  -9 6.73000 5.82000   1
  -8  -2  19 17.5200 4.36000   1
  -8   2  19 53.8400 19.6600   1
   8   2 -19 24.4900 4.82000   1
   8  -2 -19 27.3500 5.01000   1
  -5  -7  -4 1442.21 55.6500   1
   5  -7   4 1452.03 57.5100   1
  -5   7  -4 1362.07 53.8600   1
   5   7   4 1500.94 57.4100   1
  -5  -7  -4 1418.62 54.7100   1
 -10   4  13 261.420 21.2500   1
  10   4 -13 277.980 12.7500   1
 -10  -4  13 318.500 14.8500   1
 -10  -4  13 231.920 10.8300   1
  -1   5 -16 292.430 13.9000   1
  -1  -5 -16 296.970 14.5100   1
   1  -5  16 290.130 14.4100   1
   1   5  16 281.390 14.0900   1
   1   5  16 288.490 14.4600   1
   2   2 -21 479.390 21.2600   1
  -2   2  21 429.020 22.9600   1
   2   2 -21 544.040 23.9200   1
   2  -2 -21 454.350 20.0000   1
  -2  -2  21 496.100 21.9700   1
   2   2 -21 564.980 47.9900   1
   6  -6 -12 132.250 10.7700   1
  -6  -6  12 165.540 17.7200   1
  -6   6  12 154.710 13.0400   1
   6   6 -12 159.390 16.7800   1
  -6  -6  12 168.560 17.7600   1
  -6   6  12 148.130 14.1800   1
  -2   6  14 103.800 8.73000   1
   2   6 -14 106.290 9.62000   1
   2  -6 -14 113.930 9.79000   1
  -2  -6  14 118.840 10.6000   1
  -2  -6  14 111.870 9.93000   1
  -2   6  14 120.660 10.8200   1
  -8  -4 -11 501.310 22.0300   1
  -8   4 -11 378.390 36.1600   1
  -8  -4 -11 511.470 22.2000   1
   8   4  11 555.560 23.8000   1
  -4   4 -16 234.350 13.1500   1
  -4  -4 -16 225.850 11.8800   1
   4  -4  16 194.540 11.9400   1
  -4   4 -16 65.1900 40.7000   1
  -4  -4 -16 216.650 11.4900   1
   4   4  16 232.940 11.8500   1
  -4   6 -11 682.190 29.7700   1
   4  -6  11 649.790 27.5000   1
  -4  -6 -11 755.440 31.4400   1
  -4  -6 -11 698.920 28.3300   1
   4   6  11 752.040 30.4500   1
   1  -3 -20 64.1900 6.42000   1
  -1  -3  20 61.7300 8.39000   1
   1  -3 -20 56.6200 7.87000   1
   1   3 -20 81.8700 8.05000   1
  -1   3  20 70.9300 8.50000   1
  -8  -2 -14 513.140 24.6000   1
  -8   2 -14 525.590 32.4200   1
  -8   2 -14 537.680 24.4300   1
   8   2  14 556.850 23.4000   1
   7   1  16 17.5100 5.28000   1
  -7   1 -16 32.6900 4.88000   1
  -7  -1 -16 16.2800 6.86000   1
  -7   1 -16 -11.530 15.2400   1
  -4  -2  21 139.090 11.9300   1
   4  -2 -21 103.840 9.38000   1
   4   2 -21 129.580 10.6100   1
  -4   2  21 112.190 12.3700   1
  -4  -2  21 81.7600 16.7500   1
  -9  -5  -6 116.020 9.99000   1
  -9  -5  -6 111.420 9.59000   1
  -9   5  -6 147.410 38.1200   1
   9   5   6 134.270 10.6200   1
   8   0 -20 1127.12 45.4500   1
  -8   0  20 1015.84 62.0700   1
   8   0 -20 1174.40 47.6500   1
  -6   4 -14 13.8200 4.84000   1
   6   4  14 15.8800 6.38000   1
  -6  -4 -14 28.8700 5.45000   1
  -6  -4 -14 5.18000 4.65000   1
  -6   4 -14 67.3400 34.9700   1
   5  -5  13 2.75000 5.05000   1
  -5   5 -13 10.2100 4.88000   1
   5   5  13 0.98000 3.92000   1
  -5  -5 -13 20.4500 5.36000   1
  -5  -5 -13 17.3300 4.78000   1
  12  -2 -13 450.030 19.8800   1
 -12  -2  13 505.770 20.9800   1
  12  -2 -13 397.340 19.7100   1
  12   2 -13 459.780 19.6700   1
 -13  -1  11 205.190 10.4100   1
  13  -1 -11 199.690 11.0200   1
  13   1 -11 216.940 10.7400   1
  13  -1 -11 207.580 10.9500   1
 -13   1  11 186.860 12.2300   1
  10   0 -18 2323.38 88.9600   1
  10   0 -18 2393.73 234.570   1
   1   7 -10 29.4900 4.85000   1
  -1   7  10 51.6700 5.95000   1
  -1   7  10 52.7400 8.29000   1
  -1  -7  10 64.5700 7.13000   1
   1  -7 -10 51.5200 6.57000   1
  -1  -7  10 41.2400 6.16000   1
 -10   2  17 314.020 31.6400   1
  10   2 -17 345.600 15.4100   1
  10  -2 -17 317.280 16.4200   1
 -10  -2  17 400.560 18.0500   1
  10  -2 -17 311.150 20.9300   1
   9  -3 -17 372.340 17.7400   1
   9   3 -17 394.110 17.2200   1
  -9   3  17 377.090 31.2700   1
  -9  -3  17 416.100 17.9600   1
  -8  -6   9 1276.97 49.3300   1
  -8   6   9 1497.69 63.2300   1
  -8  -6   9 1365.10 52.9200   1
   8   6  -9 1292.32 49.9000   1
 -10  -4  -7 1382.39 54.1200   1
 -10   4  -7 1429.10 74.0700   1
 -10  -4  -7 1483.46 58.1500   1
  10   4   7 1501.15 58.2300   1
  -8   0 -15 1.23000 10.5500   1
   8   0  15 4.95000 3.62000   1
   3   5  15 9.02000 4.63000   1
   3   5  15 26.3800 5.71000   1
   3  -5  15 -0.2800 6.01000   1
  -3  -5 -15 5.74000 4.18000   1
  -3  -5 -15 21.6100 5.60000   1
   9  -1 -19 5.10000 4.75000   1
  -9  -1  19 5.60000 3.87000   1
   9  -1 -19 15.2400 4.48000   1
   9   1 -19 7.63000 4.26000   1
  -9   1  19 -24.450 19.0100   1
 -12   0  -7 -6.1400 7.01000   1
  12   0   7 -0.5100 3.66000   1
   9   5 -12 594.850 24.4900   1
  -9  -5  12 588.360 26.0300   1
  -9  -5  12 594.410 24.4800   1
  -9   5  12 572.260 31.3500   1
   2   6  13 682.700 28.4400   1
  -2  -6 -13 753.660 30.6400   1
   2   6  13 767.340 31.6200   1
  -2   6 -13 765.400 33.5700   1
   2  -6  13 661.670 28.0000   1
  -8  -6  -4 0.23000 4.64000   1
  -8  -6  -4 -1.9200 3.56000   1
  -8   6  -4 102.810 51.6000   1
   8   6   4 -3.6700 3.49000   1
  -8   6  -4 0.30000 3.35000   1
 -13   1  -3 824.400 35.6400   1
  13   1   3 804.720 32.3500   1
 -13  -1  -3 805.380 32.8900   1
 -12  -4   4 282.090 13.0600   1
  12   4  -4 282.400 12.7200   1
 -12   4   4 271.750 25.1100   1
 -12  -4   4 298.750 13.5000   1
 -12   4   4 230.980 16.0800   1
   0  -6 -14 163.570 17.3500   1
   0  -6  14 153.340 12.2100   1
   0   6  14 151.200 12.0900   1
   0   6 -14 130.270 10.6800   1
   0   6  14 176.220 9.68000   1
 -12  -4   3 1005.29 39.6600   1
  12   4  -3 984.040 38.9300   1
 -12  -4   3 944.360 37.9700   1
 -12   4   3 1075.34 57.2800   1
 -12   4   3 1014.10 49.8500   1
  -5   7   8 762.170 32.1300   1
   5   7  -8 754.440 30.1900   1
  -5  -7   8 809.110 32.3900   1
  -5  -7   8 815.140 33.2900   1
   5  -7  -8 826.060 33.7800   1
   6  -4 -18 14.4400 3.98000   1
  -6  -4  18 4.23000 4.65000   1
  -6   4  18 -9.9000 9.10000   1
   6   4 -18 20.6700 5.06000   1
 -12   4   5 837.530 43.1900   1
 -12  -4   5 810.810 32.6700   1
 -12   4   5 665.370 32.7500   1
 -12  -4   5 744.700 29.9600   1
  12   4  -5 837.900 33.8500   1
   3   5 -17 16.4900 4.77000   1
  -3  -5  17 20.5300 5.34000   1
  -3   5  17 -5.7800 6.62000   1
   3   7   8 282.410 13.0300   1
   3  -7   8 281.650 13.7800   1
  -3  -7  -8 293.300 13.9700   1
  -3  -7  -8 282.090 12.8800   1
  -1   1 -21 1304.60 76.7700   1
  -1  -1 -21 1165.33 55.1500   1
  -1   1 -21 1257.70 50.1300   1
  -1  -1 -21 1235.62 48.9400   1
  -7  -3  19 352.700 15.8200   1
   7  -3 -19 326.520 16.0700   1
   7   3 -19 342.620 15.6900   1
  -7   3  19 310.470 21.0900   1
  -7  -5  15 -0.6800 4.48000   1
  -7  -5  15 8.60000 5.36000   1
  -7   5  15 16.0000 9.70000   1
   7   5 -15 -0.6100 4.10000   1
   7  -5 -15 -2.6000 2.92000   1
   5  -3 -20 732.970 32.3900   1
  -5  -3  20 929.600 38.0900   1
   5   3 -20 814.670 33.9300   1
  -5   3  20 835.940 40.4600   1
   2  -4 -19 810.120 34.0900   1
  -2   4  19 743.480 32.5700   1
   2  -4 -19 762.270 32.8200   1
   2   4 -19 825.130 33.8200   1
  -2  -4  19 759.730 32.0800   1
  -2  -2 -20 108.380 9.61000   1
  -2   2 -20 128.430 10.9600   1
  -2  -2 -20 109.790 10.5200   1
  -2   2 -20 51.7700 30.6000   1
  -5   7  -5 139.830 11.4600   1
   5   7   5 165.090 17.1800   1
   5  -7   5 147.200 12.0600   1
  -5  -7  -5 155.000 16.2000   1
  -5  -7  -5 137.950 10.9200   1
  12   4  -2 308.710 13.6500   1
 -12  -4   2 293.180 14.2100   1
 -12   4   2 282.180 23.7500   1
 -12   4   2 286.080 19.7400   1
 -12  -4   2 297.310 13.5300   1
   1   5 -17 21.0400 4.48000   1
  -1   5  17 26.5100 5.06000   1
  -1   5  17 35.0700 6.33000   1
  -1  -5  17 30.5800 6.05000   1
   1  -5 -17 38.1300 5.82000   1
   3  -7 -10 775.640 32.1700   1
  -3  -7  10 704.080 29.7900   1
  -3  -7  10 733.190 30.4000   1
  -3   7  10 681.000 29.2500   1
   3   7 -10 763.280 30.7700   1
  -3   7  10 795.560 32.2100   1
  11   3 -14 314.880 14.4600   1
 -11   3  14 234.160 25.0500   1
 -11  -3  14 319.920 14.5600   1
 -11  -3  -7 23.0700 5.20000   1
 -11  -3  -7 21.6800 5.50000   1
 -11   3  -7 29.9600 16.2100   1
   2   0 -22 854.850 38.6100   1
  -4  -6  14 94.4100 8.54000   1
  -4   6  14 92.8000 10.1000   1
  -4   6  14 88.0000 7.99000   1
  -4  -6  14 89.8500 8.59000   1
   4   6 -14 79.9300 7.34000   1
   4  -6 -14 82.6300 7.53000   1
 -12   4   6 174.560 12.3300   1
 -12   4   6 244.110 23.2500   1
 -12  -4   6 165.180 17.2800   1
 -12  -4   6 153.600 11.8600   1
  12   4  -6 178.240 9.38000   1
   4   0 -22 109.520 9.25000   1
  -4   0  22 107.710 14.3000   1
  -3  -1 -20 18.0300 9.44000   1
  -3   1 -20 10.8000 4.77000   1
  -3  -1 -20 13.4800 4.19000   1
  -3   1 -20 -13.050 15.8400   1
 -14   0   4 -0.7800 4.29000   1
  14   0  -4 5.09000 3.05000   1
 -14   0   5 4.34000 4.57000   1
 -14   0   5 -1.5300 4.64000   1
  12   0 -15 0.99000 4.29000   1
 -12   0  15 -4.5000 3.16000   1
  10   0  12 2.11000 3.77000   1
 -10   0 -12 -10.570 8.09000   1
 -10  -2 -11 5.31000 5.13000   1
  10  -2  11 15.7600 4.17000   1
 -10   2 -11 44.0900 14.6600   1
  10   2  11 11.6300 4.40000   1
 -12  -2  -6 345.300 16.5400   1
 -12   2  -6 391.620 23.2600   1
 -12  -2  -6 403.470 17.9600   1
  12   2   6 436.190 18.7900   1
 -13  -3   4 578.840 24.1400   1
 -13  -3   4 667.960 27.4700   1
 -13   3   4 514.080 25.3000   1
  13   3  -4 648.650 27.6900   1
 -13   3   4 551.190 39.7600   1
 -12  -4   1 1206.99 47.6900   1
 -12   4   1 1290.35 58.1700   1
  12   4  -1 1352.68 52.5500   1
 -12   4   1 1290.18 65.8800   1
 -12  -4   1 1289.98 51.2800   1
 -14   0   3 3.85000 4.82000   1
  14   0  -3 -7.5900 3.43000   1
 -14   0   3 7.16000 5.21000   1
 -14   0   6 55.7800 6.02000   1
 -14   0   6 77.1500 7.60000   1
  14   0  -6 71.0800 6.85000   1
   0   2  21 157.030 17.3700   1
   0   2 -21 159.430 16.8800   1
   0  -2 -21 152.880 12.3000   1
   0  -2 -21 133.680 11.6400   1
   0  -2  21 164.450 17.9400   1
   0   2 -21 142.550 35.6400   1
   4  -4 -19 1060.86 42.5400   1
   4   4 -19 1056.42 41.9600   1
  -4   4  19 1042.42 44.8700   1
  -4  -4  19 1163.11 46.7000   1
 -13  -3   5 410.240 17.8900   1
 -13  -3   5 436.150 18.4000   1
 -13   3   5 389.320 20.0300   1
 -13   3   5 507.720 42.3900   1
  13   3  -5 486.770 20.8600   1
   1  -7  10 1460.10 57.2400   1
  -1  -7 -10 1569.64 61.0100   1
  -1   7 -10 1537.75 59.7600   1
   1   7  10 1594.05 62.1100   1
   1   7  10 1613.05 62.7900   1
   1  -7  10 1489.45 58.6400   1
  -6  -6  -9 1236.57 48.6100   1
  -6  -6  -9 1287.75 50.1300   1
   6  -6   9 1273.45 51.1500   1
   6   6   9 1258.95 48.9000   1
 -13  -3   3 190.080 9.81000   1
  13   3  -3 176.950 9.22000   1
 -13  -3   3 178.980 10.1200   1
 -13   3   3 124.900 22.8700   1
 -13   3   3 179.040 13.1400   1
   3   1 -22 12.5700 4.97000   1
   3  -1 -22 9.01000 4.26000   1
   3   1 -22 1.35000 3.39000   1
  -3  -1  22 7.18000 4.48000   1
  -3   1  22 -1.5900 6.66000   1
   5   3  17 471.860 20.4500   1
  -5  -3 -17 529.760 23.0000   1
  -5   3 -17 359.160 36.9400   1
  -5  -3 -17 450.790 21.7100   1
  -5   3 -17 520.130 23.9700   1
 -12  -4   7 370.860 18.7600   1
  12   4  -7 368.590 18.8500   1
 -12  -4   7 369.070 16.4200   1
 -12   4   7 356.880 27.9300   1
  13  -1 -12 45.2800 6.35000   1
  13   1 -12 32.6500 5.70000   1
 -13   1  12 52.0100 6.96000   1
 -13  -1  12 41.1400 6.22000   1
  13  -1 -12 33.1900 5.97000   1
   0  -8   0 967.730 46.3100   1
   0   8   0 906.610 43.1600   1
   0  -8   0 920.570 43.8000   1
  -6   2 -17 -1.5500 4.07000   1
  -6  -2 -17 -13.830 5.73000   1
   6   2  17 -8.7400 3.70000   1
  -6   2 -17 46.0500 20.0500   1
 -13  -3   6 1465.72 68.4600   1
 -13  -3   6 1442.94 67.9700   1
 -13   3   6 1388.29 76.4500   1
  13   3  -6 1609.53 74.8800   1
 -13   3   6 1439.21 69.9000   1
 -10  -4  14 43.2500 6.49000   1
 -10  -4  14 48.4600 6.39000   1
 -10   4  14 22.2900 16.6400   1
  11   5  -4 8.31000 4.53000   1
 -11   5   4 19.4200 11.6500   1
 -11   5   4 11.2100 14.7800   1
 -11  -5   4 12.5900 4.49000   1
 -11  -5   4 -2.6500 3.89000   1
 -11   5   3 5.78000 17.1200   1
 -11  -5   3 11.4700 4.59000   1
 -11   5   3 -28.080 11.1700   1
 -11  -5   3 10.2300 3.87000   1
  11   5  -3 -9.0400 3.60000   1
 -14   0   2 386.140 20.6900   1
  14   0  -2 374.420 19.5600   1
 -14   0   2 388.620 20.8700   1
   0  -8   1 827.760 40.1000   1
   0  -8  -1 876.550 42.1100   1
   0   8   1 896.400 42.6200   1
   0  -8  -1 731.950 35.3200   1
   0  -8   1 768.400 37.3200   1
   0   8  -1 883.930 42.4400   1
 -14   0   7 -0.3100 3.69000   1
  14   0  -7 2.92000 3.63000   1
  -8  -6  10 98.7500 11.1500   1
  -8  -6  10 89.7000 10.1900   1
  -8   6  10 108.950 14.5700   1
   8   6 -10 96.9700 10.8400   1
  13   3  -2 312.430 16.0900   1
 -13  -3   2 370.670 19.5000   1
 -13   3   2 251.060 27.6300   1
 -13  -3   2 287.780 15.0900   1
 -13   3   2 218.310 15.5900   1
 -13  -3   2 303.840 16.4200   1
  -6  -6  13 1262.54 59.7700   1
  -6  -6  13 1326.19 64.0000   1
  -6   6  13 1350.96 66.8200   1
  -6   6  13 1132.04 54.9300   1
   6   6 -13 1254.78 59.0000   1
  -2  -4 -18 24.4700 5.30000   1
   2   4  18 42.6200 6.51000   1
   2   4  18 27.6000 5.32000   1
  -2   4 -18 26.4900 5.65000   1
   2  -4  18 13.2200 5.21000   1
  -2  -4 -18 26.8300 4.93000   1
  -9  -5  -7 21.3200 5.62000   1
  -9  -5  -7 25.8000 5.72000   1
  -9   5  -7 75.6700 38.2100   1
  11   5  -5 24.5900 5.11000   1
 -11   5   5 41.3800 13.2400   1
 -11   5   5 25.6400 13.5400   1
 -11  -5   5 23.5700 5.14000   1
 -11  -5   5 32.9000 5.73000   1
  -8  -6  -5 1064.36 50.0600   1
  -8  -6  -5 1049.08 49.9500   1
  -8   6  -5 983.970 75.3800   1
   8   6   5 1099.69 51.7000   1
  11   5  -2 425.140 21.0100   1
 -11   5   2 441.890 32.8600   1
 -11   5   2 418.620 26.2200   1
 -11  -5   2 411.220 20.7900   1
 -11  -5   2 405.510 20.4000   1
   7   1 -21 507.080 26.5100   1
  -7   1  21 479.540 35.3200   1
   7   1 -21 488.020 24.8200   1
   7  -1 -21 418.680 22.1500   1
 -12   4   0 12.9100 14.7000   1
 -12   4   0 21.4500 12.5800   1
  12   4   0 17.2900 4.36000   1
 -12  -4   0 5.97000 4.12000   1
   5  -7  -9 143.320 15.6000   1
  -5   7   9 116.460 13.7600   1
  -5  -7   9 148.480 15.5100   1
   5   7  -9 120.480 13.2600   1
  -5  -7   9 128.070 14.2100   1
 -12   2  14 1329.16 79.7000   1
 -12  -2  14 1511.13 70.0700   1
  12  -2 -14 1391.04 65.4000   1
  12   2 -14 1493.82 70.2000   1
  12  -2 -14 1285.39 62.3800   1
  -7  -5 -11 2.41000 5.72000   1
  -7  -5 -11 11.5400 4.51000   1
  -7   5 -11 72.4400 42.5400   1
   7   5  11 9.96000 4.42000   1
   0  -8  -2 619.030 30.9700   1
   0  -8  -2 568.700 27.9100   1
   0  -8   2 553.410 27.4600   1
   0   8   2 527.660 26.2600   1
   0   8   2 571.190 27.8600   1
   0   8  -2 560.670 27.5400   1
   0  -8   2 589.040 29.1600   1
 -13  -1  -4 78.8000 9.83000   1
 -13   1  -4 70.2800 10.6700   1
  13   1   4 58.5700 7.58000   1
  -2   0 -21 2.76000 3.71000   1
  -2   0 -21 -19.580 11.5200   1
 -13   3   7 557.290 40.1300   1
 -13   3   7 427.890 23.6400   1
 -13  -3   7 566.550 27.6600   1
 -13  -3   7 540.520 27.2700   1
  13   3  -7 499.040 24.9000   1
  11  -1 -17 37.1200 5.94000   1
 -11  -1  17 45.9100 6.54000   1
  11  -1 -17 43.0000 6.84000   1
  11   1 -17 41.2400 7.58000   1
  -1  -7  11 1.63000 5.52000   1
  -1   7  11 1.99000 5.58000   1
  -1   7  11 21.1100 5.30000   1
   1   7 -11 3.48000 3.57000   1
   1  -7 -11 13.3200 4.57000   1
  -1  -7  11 -2.0000 4.94000   1
 -11  -1 -10 -0.7000 7.17000   1
 -11   1 -10 10.9600 10.7600   1
  11  -1  10 7.24000 3.68000   1
  11   1  10 -1.7900 3.92000   1
  -4  -2 -19 327.860 22.3100   1
  -4   2 -19 370.090 20.8800   1
  -4  -2 -19 357.540 18.8500   1
  -4   2 -19 354.170 34.2600   1
  -7  -7   2 321.070 16.7300   1
   7   7  -2 351.660 17.7700   1
  -7   7   2 305.800 17.5000   1
   7  -7  -2 313.670 21.1100   1
  -7  -7   2 313.530 16.1600   1
   0   4  19 168.690 11.6200   1
   0  -4 -19 160.540 10.9600   1
   0  -4  19 171.430 11.0400   1
   0   4 -19 175.070 11.2500   1
   0  -4 -19 175.860 10.2400   1
 -12  -4   8 -13.880 4.34000   1
  12   4  -8 4.93000 3.91000   1
 -12   4   8 5.85000 17.6300   1
 -12  -4   8 6.99000 4.30000   1
   5   7   6 730.310 34.8400   1
  -5   7  -6 564.570 28.2400   1
   5  -7   6 710.820 35.1800   1
  -5  -7  -6 741.020 35.6400   1
  -5  -7  -6 763.970 36.6500   1
   7  -7  -3 157.170 16.7900   1
  -7  -7   3 159.790 9.55000   1
  -7  -7   3 160.400 9.84000   1
  -7   7   3 145.610 16.3700   1
   7   7  -3 182.810 10.6300   1
  -6  -2  21 94.2600 10.7300   1
  -6   2  21 142.060 19.2600   1
   6   2 -21 104.070 12.0200   1
   6  -2 -21 129.640 14.1300   1
  -8  -4  17 74.9600 9.59000   1
   8  -4 -17 69.5000 8.25000   1
   8   4 -17 65.4400 8.23000   1
  -8   4  17 63.5800 17.5900   1
  -8  -4  17 65.7900 8.22000   1
   1   1 -22 -14.080 21.0000   1
   1   1 -22 -2.9700 3.90000   1
   1  -1 -22 6.94000 4.99000   1
 -11  -5   6 543.250 26.7300   1
  11   5  -6 586.730 28.3400   1
 -11   5   6 489.930 31.4400   1
 -11  -5   6 507.080 24.8200   1
 -13  -3   1 28.7600 5.69000   1
 -13  -3   1 51.9600 7.35000   1
 -13   3   1 44.1800 9.39000   1
 -13  -3   1 58.4200 7.66000   1
 -13   3   1 19.1200 20.7600   1
  13   3  -1 44.8200 6.23000   1
  14   0  -1 -4.4400 3.03000   1
 -14   0   1 4.33000 5.35000   1
  11   5  -1 -0.4500 3.70000   1
 -11   5   1 20.5600 12.9900   1
 -11  -5   1 -7.7200 4.36000   1
 -11  -5   1 15.3700 4.85000   1
 -14   0   8 1570.59 73.8200   1
  14   0  -8 1401.31 65.6700   1
   7   3  15 268.200 14.6100   1
  -7   3 -15 273.330 18.3600   1
  -7  -3 -15 240.630 13.6300   1
  -7   3 -15 239.610 31.8600   1
  -7  -3 -15 315.050 17.6300   1
  -4  -6 -12 23.1000 5.12000   1
  -4  -6 -12 42.7800 6.31000   1
   4  -6  12 28.9500 6.36000   1
   4   6  12 21.6800 4.95000   1
  -7  -7   1 170.750 10.1800   1
  -7  -7   1 175.100 9.92000   1
   7  -7  -1 161.480 10.5100   1
  -7   7   1 149.430 15.7700   1
   7   7  -1 161.940 9.29000   1
  -9   5  13 1.04000 11.6900   1
  -9  -5  13 5.04000 5.08000   1
   9   5 -13 -6.4600 3.77000   1
  -9  -5  13 3.95000 4.64000   1
  -9  -3 -12 1604.52 74.8900   1
  -9  -3 -12 1593.63 75.0400   1
  -9   3 -12 1441.80 83.9600   1
   9   3  12 1689.92 78.6500   1
  -1  -3 -20 558.260 27.7400   1
  -1   3 -20 560.820 29.1600   1
   1   3  20 644.690 33.2900   1
  -1   3 -20 674.220 55.9600   1
   1  -3  20 648.350 33.0100   1
  -1  -3 -20 645.660 33.5100   1
   5   5 -17 7.43000 3.97000   1
  -5  -5  17 -5.9500 4.21000   1
  -5   5  17 26.2400 7.51000   1
  -2  -6  15 31.4400 6.06000   1
  -2   6  15 25.2400 4.91000   1
  -2   6  15 52.2200 7.72000   1
   2  -6 -15 34.0800 6.83000   1
   2   6 -15 28.3100 5.02000   1
   0  -8   3 320.310 16.9800   1
   0  -8  -3 373.360 20.2300   1
   0  -8  -3 379.780 19.6400   1
   0  -8   3 368.720 19.3000   1
   0   8   3 345.740 17.9800   1
   0   8   3 350.720 19.3500   1
   0   8  -3 372.350 19.4500   1
  10   4   8 147.470 15.5100   1
 -10  -4  -8 148.330 15.3100   1
 -10   4  -8 137.590 29.0500   1
 -10  -4  -8 156.480 16.3700   1
  -7  -7   4 1482.57 68.5200   1
   7   7  -4 1660.48 77.5000   1
  -7  -7   4 1621.53 75.3100   1
  -7   7   4 1501.81 71.1800   1
  -6   0 -18 85.9100 13.6400   1
  -6   0 -18 72.2600 8.87000   1
  -2   8   1 56.3700 7.80000   1
   2  -8  -1 40.1100 6.30000   1
   2  -8  -1 31.7500 6.73000   1
  -2  -8   1 28.8700 5.40000   1
  -2   8   1 41.9600 5.75000   1
  -2  -8   1 17.5300 5.87000   1
   2   8  -1 32.4100 5.15000   1
  -8  -4 -12 173.530 10.5100   1
  -8   4 -12 108.780 30.8200   1
  -8  -4 -12 202.160 11.7500   1
   8   4  12 203.810 11.3600   1
   3   7   9 148.550 15.4600   1
   3  -7   9 143.010 15.5400   1
  -3  -7  -9 125.970 13.6000   1
  -3  -7  -9 140.790 14.9900   1
  -2  -8   0 334.370 17.6400   1
   2  -8   0 337.390 18.3100   1
  -2   8   0 387.070 20.2200   1
   2   8   0 376.690 19.0500   1
  -2   8   0 356.200 18.5900   1
  -2  -8   0 339.100 17.5600   1
   2  -8   0 396.350 20.9200   1
   5  -1 -22 229.500 13.5600   1
   5   1 -22 232.040 14.4900   1
  -5   1  22 226.560 19.8900   1
   5   1 -22 197.480 11.7100   1
  -5  -1  22 206.560 22.5500   1
 -12   0  -8 1718.82 81.6600   1
  12   0   8 1739.30 81.6700   1
   0   0 -22 742.260 37.3100   1
   0   0 -22 702.090 46.9500   1
  -7  -7   0 70.1000 8.51000   1
   7  -7   0 48.0400 7.43000   1
  -7   7   0 79.8100 9.69000   1
   7   7   0 79.6800 9.12000   1
  -7  -7   0 67.6400 8.62000   1
  -2   8   2 5.79000 4.32000   1
  -2  -8   2 22.7600 5.40000   1
  -2  -8   2 7.67000 6.35000   1
   2  -8  -2 26.8100 5.45000   1
  -2   8   2 25.4100 4.42000   1
   2   8  -2 23.4500 5.41000   1
   2  -8  -2 8.94000 4.80000   1
   3  -7 -11 204.990 11.9500   1
  -3  -7  11 163.730 10.5000   1
  -3  -7  11 218.530 12.4000   1
  -3   7  11 185.620 11.6700   1
  -3   7  11 214.550 12.2300   1
   3   7 -11 168.880 9.82000   1
 -13  -3   8 330.700 16.9300   1
  13   3  -8 351.540 18.3500   1
 -13  -3   8 313.090 16.7100   1
 -13   3   8 608.650 42.4100   1
   2  -8   1 447.520 23.0700   1
   2  -8   1 499.220 25.3800   1
  -2   8  -1 456.910 23.8500   1
  -2  -8  -1 466.910 23.5800   1
   2   8   1 464.150 23.0100   1
  -2  -8  -1 457.630 22.7200   1
 -12   4  -1 448.570 31.7200   1
 -12  -4  -1 500.700 25.2000   1
 -12  -4  -1 495.500 24.6400   1
 -12   4  -1 471.370 32.4000   1
  12   4   1 483.090 23.7900   1
  -9  -1 -14 96.1100 12.6800   1
   9   1  14 71.6500 8.68000   1
  -9   1 -14 77.2600 14.4300   1
   9  -1  14 76.6800 9.06000   1
 -11  -5   7 28.2300 4.94000   1
 -11  -5   7 15.7400 4.35000   1
 -11   5   7 20.7500 12.6600   1
  11   5  -7 16.3900 5.13000   1
 -11   5   0 1157.49 66.1300   1
 -11   5   0 1149.61 61.3700   1
  11   5   0 1319.75 61.6700   1
 -11  -5   0 1178.22 55.5700   1
 -11  -5   0 1202.56 56.5000   1
  -3  -3 -19 13.5300 4.38000   1
   3   3  19 10.0800 5.19000   1
  -3  -3 -19 27.6600 4.98000   1
  -3  -3 -19 17.9900 5.39000   1
  -3   3 -19 21.1300 5.44000   1
  -3   3 -19 56.6600 30.9900   1
  -8   2  20 772.140 46.5400   1
   8  -2 -20 726.950 36.5500   1
  -8  -2  20 785.390 38.4900   1
   8   2 -20 817.370 39.6800   1
  -7  -7   5 489.750 24.1900   1
   7  -7  -5 488.090 25.3800   1
  -7  -7   5 506.300 24.8800   1
   7   7  -5 517.020 25.1700   1
  -7   7   5 494.990 26.6000   1
   1  -5  17 8.27000 5.04000   1
   1   5  17 1.56000 5.41000   1
   1   5  17 6.88000 3.91000   1
  -1   5 -17 -3.2200 4.80000   1
  -1  -5 -17 1.74000 4.16000   1
  13   3   0 19.0900 4.87000   1
 -13   3   0 55.6600 23.6700   1
 -13   3   0 -18.990 9.12000   1
 -13  -3   0 21.8800 4.82000   1
 -13  -3   0 11.3500 4.89000   1
  11   3 -15 17.6100 4.25000   1
 -11   3  15 15.1000 20.5900   1
 -11  -3  15 10.0100 4.24000   1
 -10   2  18 778.460 53.1800   1
 -10  -2  18 793.010 38.9800   1
  10  -2 -18 699.490 35.8300   1
  10   2 -18 758.740 37.5200   1
   5  -5  14 1206.63 57.8600   1
  -5  -5 -14 1345.52 63.1100   1
  -5  -5 -14 1314.95 63.2000   1
  -5   5 -14 1191.61 59.3300   1
   5   5  14 1351.55 63.1900   1
  -5   5 -14 1405.77 97.7000   1
 -11  -3  -8 52.4100 8.08000   1
  11   3   8 36.6200 5.58000   1
 -11  -3  -8 43.7100 6.63000   1
 -11   3  -8 -0.7100 16.7100   1
 -14   0   0 1914.88 181.040   1
  14   0   0 1847.90 86.1000   1
  -2   8   3 9.19000 6.01000   1
   2  -8  -3 15.5600 5.46000   1
   2   8  -3 25.7700 4.79000   1
  -2  -8   3 23.8300 5.59000   1
   2  -8  -3 16.9000 5.71000   1
  -2  -8   3 17.2100 5.13000   1
  -2   8   3 12.9600 3.89000   1
 -14   0   9 5.79000 3.50000   1
 -14   0   9 -5.5900 4.53000   1
  14   0  -9 -3.9700 3.27000   1
  10   0 -19 2.97000 4.13000   1
  10   0 -19 8.61000 4.31000   1
 -12  -4   9 77.5100 9.25000   1
 -12   4   9 125.630 24.9000   1
  12   4  -9 63.2100 7.80000   1
 -12  -4   9 78.7100 9.03000   1
  -9   3  18 153.010 22.6700   1
  -9  -3  18 195.980 11.0700   1
   9  -3 -18 159.470 11.9700   1
   9   3 -18 194.210 11.5700   1
   0   8  -4 120.710 13.0700   1
   0  -8   4 128.710 14.6000   1
   0  -8   4 89.5400 11.1100   1
   0  -8  -4 131.950 14.4300   1
   0   8   4 115.750 13.0300   1
   0   8   4 115.200 14.3000   1
   0  -8  -4 107.540 12.0700   1
  13   1 -13 76.6600 10.0100   1
  13  -1 -13 70.9400 8.42000   1
 -13  -1  13 75.9800 8.83000   1
  13  -1 -13 68.4100 8.40000   1
   6   0 -22 844.230 41.6100   1
  -6   0  22 856.650 52.8300   1
   6   0 -22 897.850 43.5300   1
   2   8   2 926.410 44.0800   1
  -2  -8  -2 864.510 41.2000   1
   2  -8   2 873.500 42.0500   1
  -2  -8  -2 965.010 46.2300   1
   2  -8   2 896.460 43.7600   1
  -2   8  -2 799.060 39.3100   1
   7  -7   1 58.4200 8.36000   1
  -7   7  -1 16.4000 5.20000   1
  -7  -7  -1 36.0900 6.12000   1
   7   7   1 36.5900 5.42000   1
  -7  -7  -1 31.0200 5.43000   1
   3  -3 -21 91.0200 10.4000   1
   3   3 -21 93.9300 10.9800   1
  -3  -3  21 98.2800 11.9600   1
  -3   3  21 98.5100 12.3500   1
   2   6  14 82.5600 10.1100   1
   2   6  14 84.2400 10.0400   1
   2  -6  14 73.6000 9.19000   1
  -2  -6 -14 74.5800 9.42000   1
  -2   6 -14 81.2400 10.0400   1
  -8  -6  11 1266.52 59.6400   1
   8   6 -11 1229.33 57.1900   1
  -8   6  11 1280.61 66.5600   1
  -8  -6  11 1290.63 60.6400   1
  -6   4 -15 94.0100 40.8300   1
  -6  -4 -15 145.180 15.6600   1
  -6  -4 -15 154.910 15.9200   1
   6   4  15 141.140 15.5100   1
  -6   4 -15 121.440 14.1500   1
   8   2  15 91.4300 10.3300   1
  -8  -2 -15 99.2400 12.0000   1
  -8   2 -15 98.1800 21.3000   1
  -8   2 -15 93.6100 11.4000   1
  -4  -4 -17 617.240 31.1700   1
  -4  -4 -17 534.810 27.2100   1
   4   4  17 549.150 27.3400   1
  -4   4 -17 553.510 29.7000   1
  -4   4 -17 660.690 56.5200   1
   4  -4  17 516.230 27.0200   1
  12   2   7 283.790 15.7900   1
 -12  -2  -7 302.750 17.3600   1
 -12   2  -7 269.940 19.3300   1
 -12  -2  -7 235.630 13.4300   1
  -4   0 -20 1267.50 61.0500   1
  -4   0 -20 1391.26 77.2600   1
   0   6  15 636.820 31.4800   1
   0  -6 -15 654.670 32.1700   1
   0  -6  15 674.540 33.7100   1
   0   6  15 612.550 30.6500   1
   0   6 -15 639.810 32.0300   1
  -5  -1 -19 172.960 14.1900   1
  -5   1 -19 220.220 22.0100   1
  -5  -1 -19 203.730 11.9100   1
  -5   1 -19 256.560 15.2300   1
   7  -5 -16 1169.71 56.0100   1
  -7  -5  16 1406.90 65.6100   1
  -7  -5  16 1408.27 67.3100   1
   7   5 -16 1365.23 63.6400   1
  -7   5  16 1539.57 76.8300   1
  12   0 -16 783.710 38.4100   1
   8   6   6 102.670 11.4700   1
  -8  -6  -6 96.2800 10.9400   1
  -8  -6  -6 95.4200 11.0000   1
   5   7 -10 394.190 19.8300   1
  -5   7  10 425.630 22.4800   1
  -5  -7  10 427.580 21.4300   1
   5  -7 -10 401.010 21.0300   1
  -5  -7  10 420.250 21.3400   1
  -4   6  15 814.610 41.2800   1
   4   6 -15 815.030 39.0500   1
  -4   6  15 893.880 45.1000   1
  -4  -6  15 789.000 39.0100   1
  -4  -6  15 870.900 42.4700   1
   1  -7  11 106.340 12.3100   1
  -1  -7 -11 90.2600 10.4300   1
   1  -7  11 81.9600 10.4800   1
  -1   7 -11 100.400 11.5600   1
   1   7  11 105.940 11.8900   1
   1   7  11 87.1400 10.4600   1
   8   0 -21 -9.7300 4.17000   1
  -8   0  21 67.9600 23.7300   1
   8   0 -21 -11.420 4.90000   1
   7  -7  -6 873.020 42.7200   1
  -7  -7   6 901.030 42.9500   1
   7   7  -6 897.490 42.5100   1
  -7   7   6 853.540 42.3800   1
  -7  -7   6 936.700 44.6100   1
 -13   3   9 463.290 38.2900   1
  13   3  -9 439.850 22.0900   1
 -13  -3   9 411.690 21.1800   1
 -13  -3   9 416.210 20.9600   1
   3   5  16 425.250 21.9000   1
   3  -5  16 392.920 21.0400   1
   3   5  16 398.950 21.6400   1
  -3   5 -16 425.710 22.9400   1
  -3  -5 -16 442.380 22.5900   1
  11   5  -8 1057.05 49.5600   1
 -11   5   8 1016.33 57.5200   1
 -11  -5   8 965.270 45.7400   1
 -11  -5   8 1050.14 49.8300   1
  -2   8   4 142.770 15.4300   1
  -2   8   4 146.560 15.5800   1
   2   8  -4 168.870 9.95000   1
   2  -8  -4 170.470 10.7300   1
  -2  -8   4 154.820 15.9800   1
  -2  -8   4 142.240 15.1600   1
   2  -8  -4 152.890 16.4100   1
   6  -6  10 115.590 13.1400   1
  -6  -6 -10 109.900 12.0900   1
   6   6  10 122.630 13.3400   1
  -6  -6 -10 117.790 12.8300   1
 -11   5  -1 26.5500 9.49000   1
  11   5   1 -0.1100 4.84000   1
 -11  -5  -1 4.33000 4.77000   1
 -11  -5  -1 9.62000 4.66000   1
 -11   5  -1 24.7100 17.7700   1
   9  -1 -20 -1.8300 4.39000   1
   9   1 -20 11.5200 5.26000   1
  -9   1  20 -45.100 21.3300   1
   9  -1 -20 21.4100 4.80000   1
  -7  -1 -17 1090.10 54.3200   1
  -7   1 -17 1171.15 63.0300   1
  -7   1 -17 1222.89 59.1400   1
   7   1  17 1159.45 55.1400   1
  13   1   5 862.270 41.5500   1
 -13  -1  -5 837.350 40.8500   1
 -13   1  -5 799.440 42.1000   1
  -2   2  22 742.010 38.2100   1
   2  -2 -22 967.820 47.0500   1
   2   2 -22 767.570 67.3100   1
  -2  -2  22 932.070 45.3700   1
   2   2 -22 866.910 42.0800   1
   2   2 -22 819.030 40.8400   1
   5   7   7 174.130 10.1800   1
  -5  -7  -7 165.910 9.79000   1
  -5  -7  -7 141.480 14.9000   1
   5  -7   7 153.910 16.1100   1
  -2  -8  -3 476.610 23.7500   1
   2   8   3 481.690 24.2100   1
   2  -8   3 399.940 20.8900   1
  -2  -8  -3 469.180 23.5400   1
   2  -8   3 459.690 23.2300   1
 -12  -4  -2 14.2900 5.06000   1
 -12   4  -2 40.8600 15.9500   1
 -12  -4  -2 14.8100 4.68000   1
 -12   4  -2 20.6600 13.0100   1
  12   4   2 16.3000 4.38000   1
 -12  -4  -2 27.3500 5.99000   1
   6  -4 -19 15.0000 4.82000   1
   6   4 -19 20.4500 4.82000   1
  -6   4  19 33.9700 9.71000   1
  -6  -4  19 22.4100 5.05000   1
  -9  -5  -8 601.340 30.1200   1
  -9   5  -8 652.480 55.7900   1
   9   5   8 645.560 31.1900   1
  -9  -5  -8 516.750 25.5000   1
 -13  -3  -1 53.7000 7.78000   1
 -13   3  -1 61.0800 12.7200   1
 -13   3  -1 32.9300 20.2900   1
 -13  -3  -1 63.2300 8.22000   1
  13   3   1 55.8600 7.24000   1
 -10   4  15 660.380 43.4300   1
  10   4 -15 599.750 28.9700   1
 -10  -4  15 617.020 30.0800   1
   1  -3 -21 50.0600 6.98000   1
   1   3 -21 66.1500 8.36000   1
  -1   3  21 51.9300 8.50000   1
  -1  -3  21 41.7300 7.01000   1
   1  -3 -21 31.8400 6.04000   1
   1   3 -21 51.3000 6.48000   1
  -3  -5  18 37.0100 6.34000   1
   3   5 -18 49.7000 7.67000   1
   3  -5 -18 32.6700 5.12000   1
  -3   5  18 38.5500 7.17000   1
  -8   0 -16 977.860 50.5100   1
   8   0  16 875.640 42.4300   1
  -7   7  -2 59.5500 7.83000   1
   7   7   2 60.6700 7.40000   1
  -7  -7  -2 64.4600 8.28000   1
  -7  -7  -2 71.8900 8.48000   1
   7  -7   2 62.2300 8.32000   1
  -4   2  22 7.71000 8.37000   1
   4   2 -22 -3.0800 3.53000   1
   4   2 -22 -8.5500 4.35000   1
   4  -2 -22 -0.4700 4.79000   1
  -4  -2  22 9.35000 4.50000   1
 -14  -2   4 72.2700 9.28000   1
 -14  -2   4 67.6700 8.25000   1
  14  -2  -4 67.9100 8.48000   1
 -14  -2   4 59.9500 7.46000   1
  14   2  -4 71.1500 8.41000   1
 -14   2   4 43.1100 7.18000   1
 -14  -2   5 36.2700 5.68000   1
  14   2  -5 25.3500 5.36000   1
 -14   2   5 25.2800 5.96000   1
 -14  -2   5 49.3300 6.50000   1
 -14  -2   5 50.2200 7.03000   1
  14  -2  -5 23.5800 4.49000   1
 -14   0  -1 13.0500 6.41000   1
   0  -8  -5 9.92000 5.19000   1
   0  -8   5 -0.2900 5.51000   1
   0   8   5 12.2100 4.38000   1
   0  -8   5 8.63000 4.93000   1
   0   8   5 17.1500 5.09000   1
   0   8  -5 10.7400 3.84000   1
   6   6 -14 92.9400 10.3300   1
  -6   6  14 93.7000 11.2500   1
  -6   6  14 131.100 15.7200   1
  -6  -6  14 109.410 11.8300   1
  -6  -6  14 122.380 13.5100   1
  12   2 -15 516.180 24.4300   1
 -12  -2  15 484.750 22.8400   1
 -12   2  15 448.870 39.7000   1
  12  -2 -15 402.200 22.2500   1
  12  -2 -15 468.030 23.9300   1
 -14   0  10 1082.01 49.1600   1
  14   0 -10 1069.10 48.6700   1
 -10   2 -12 -14.880 13.4200   1
 -10  -2 -12 -6.1100 5.17000   1
  10   2  12 11.1800 4.10000   1
   7   3 -20 547.280 26.1700   1
   7  -3 -20 574.160 28.8000   1
  -7  -3  20 661.630 32.0100   1
  -7   3  20 619.090 35.0000   1
  14   2  -3 2.75000 5.53000   1
 -14   2   3 24.2800 5.75000   1
  14  -2  -3 15.4700 3.57000   1
 -14  -2   3 13.1600 4.28000   1
 -14  -2   3 30.6700 6.21000   1
   1  -5 -18 819.740 39.9600   1
  -1  -5  18 785.420 37.3100   1
  -1   5  18 709.730 33.4900   1
   1   5 -18 676.040 31.9400   1
  -1   5  18 760.670 37.4900   1
 -14   2   6 158.660 16.7600   1
 -14  -2   6 208.630 12.1100   1
  14  -2  -6 165.810 17.4600   1
 -14  -2   6 172.850 10.0900   1
  14   2  -6 192.540 10.7800   1
  12   4 -10 81.3800 9.45000   1
 -12   4  10 96.6800 22.8700   1
 -12  -4  10 58.0800 7.25000   1
 -12  -4  10 63.7500 7.67000   1
  10   0  13 -15.970 3.76000   1
 -10   0 -13 -17.950 9.66000   1
   1   7 -12 97.6100 11.0000   1
  -1   7  12 84.6900 9.70000   1
   1  -7 -12 85.3600 9.94000   1
  -1  -7  12 74.1400 9.58000   1
  -1  -7  12 75.4600 9.19000   1
  -1   7  12 78.7100 9.60000   1
  -2  -8   5 153.000 15.6900   1
   2  -8  -5 127.360 14.0500   1
  -2   8   5 114.280 12.2500   1
  -2   8   5 99.3900 11.0500   1
   2   8  -5 117.510 12.4200   1
   2  -8  -5 122.430 13.1600   1
  -2  -8   5 96.3800 11.1600   1
   7   7  -7 246.200 12.6800   1
  -7  -7   7 233.300 12.3700   1
   7  -7  -7 209.870 12.8200   1
  -7  -7   7 218.190 11.6800   1
  -7   7   7 247.700 14.7100   1
  -9   5  14 1181.08 59.6400   1
   9   5 -14 1141.43 51.3600   1
  -9  -5  14 1257.01 57.2100   1
  -9  -5  14 1158.74 51.6200   1
  -2   4  20 157.510 16.9800   1
  -2  -4  20 138.940 14.6400   1
   2  -4 -20 148.690 16.5600   1
   2   4 -20 161.590 17.0400   1
   5  -3 -21 531.030 26.5400   1
   5   3 -21 501.930 24.7800   1
  -5   3  21 525.410 29.8100   1
  -5  -3  21 555.670 26.9800   1
  14   2  -2 306.300 15.3700   1
 -14  -2   2 307.260 16.5500   1
 -14   2   2 263.990 15.7100   1
 -14  -2   2 243.720 13.9200   1
   3   7  10 1178.80 52.9800   1
   3  -7  10 1033.35 47.2700   1
  -3  -7 -10 1175.16 53.3600   1
  -3  -7 -10 1161.58 51.9800   1
 -11  -5   9 47.0000 6.45000   1
 -11  -5   9 47.7100 6.53000   1
 -11   5   9 46.0200 14.0600   1
  11   5  -9 59.7800 7.79000   1
  14   2  -7 182.440 10.0500   1
  14  -2  -7 154.920 16.2700   1
 -14  -2   7 154.210 15.9500   1
 -14  -2   7 183.310 10.8500   1
 -14   2   7 170.330 10.7200   1
 -11  -5  -2 820.170 37.6700   1
 -11   5  -2 792.840 48.3000   1
 -11  -5  -2 843.320 38.3000   1
  11   5   2 844.510 38.2500   1
 -11   5  -2 675.370 36.8000   1
   2   8   4 399.110 19.6900   1
  -2  -8  -4 334.460 16.8300   1
   2  -8   4 351.490 18.1600   1
   2  -8   4 325.430 17.0700   1
  -2  -8  -4 410.800 21.3000   1
 -13  -3  10 42.4400 6.28000   1
  13   3 -10 52.1300 7.02000   1
 -13   3  10 31.6500 26.3600   1
  -7  -5 -12 76.0500 8.73000   1
  -7   5 -12 172.780 44.2900   1
  -7  -5 -12 83.8900 9.60000   1
   7   5  12 73.9200 8.72000   1
  -7  -5 -12 70.6900 8.52000   1
 -10  -6   3 582.070 26.7000   1
  10   6  -3 555.930 25.8600   1
 -10   6   3 604.170 50.3900   1
 -10   6   3 538.320 29.2000   1
 -10  -6   3 611.530 28.5900   1
 -10  -6   4 38.2800 5.72000   1
 -10   6   4 27.9100 8.82000   1
 -10   6   4 7.91000 22.1800   1
 -10  -6   4 37.1800 5.45000   1
  10   6  -4 24.2900 4.79000   1
 -10   4  -9 302.110 30.2800   1
 -10  -4  -9 373.430 18.8800   1
  10   4   9 414.490 20.4900   1
 -10  -4  -9 377.060 18.7700   1
  -3  -7  12 884.280 40.1800   1
   3  -7 -12 986.670 45.1500   1
   3   7 -12 922.510 42.5600   1
  -3  -7  12 950.200 44.3200   1
  -3   7  12 903.330 42.6000   1
  -3   7  12 924.100 42.7500   1
 -10  -6   2 48.2000 6.83000   1
 -10  -6   2 59.6300 7.70000   1
 -10   6   2 48.9900 9.41000   1
 -10   6   2 24.8300 32.8300   1
  10   6  -2 44.2600 6.32000   1
  11  -1 -18 76.3000 9.01000   1
  11  -1 -18 70.8200 8.50000   1
  11   1 -18 75.5000 8.79000   1
  -7  -7  -3 148.290 15.2000   1
  -7  -7  -3 167.160 34.2400   1
   7  -7   3 133.030 14.2200   1
  -7   7  -3 119.340 12.8900   1
   7   7   3 154.530 15.7900   1
  11  -1  11 711.990 34.4500   1
  11   1  11 757.930 35.8100   1
 -11  -1 -11 867.660 41.1700   1
 -11   1 -11 778.160 42.5000   1
  -4   4  20 87.2600 11.7900   1
  -4  -4  20 92.2300 10.6600   1
   4  -4 -20 94.6400 10.5400   1
   4   4 -20 69.3700 8.43000   1
  -2   2 -21 68.2300 28.8300   1
  -2  -2 -21 22.1900 5.80000   1
  -2   2 -21 13.3700 4.93000   1
  -2  -2 -21 13.2800 4.41000   1
 -13  -3  -2 519.310 25.2000   1
 -13   3  -2 443.050 26.0800   1
 -13  -3  -2 474.960 22.8500   1
 -13   3  -2 463.960 38.5800   1
  13   3   2 528.120 25.1800   1
  -1   1 -22 -6.7500 4.67000   1
  -1   1 -22 -9.7700 18.1400   1
  -1  -1 -22 8.54000 4.02000   1
  13  -1 -14 53.2800 7.60000   1
  13   1 -14 64.4400 8.05000   1
 -13  -1  14 46.9700 6.22000   1
  13  -1 -14 41.7900 6.61000   1
   4   6  13 31.5300 5.21000   1
   4  -6  13 22.4000 5.85000   1
  -4  -6 -13 37.0800 6.26000   1
  -4  -6 -13 20.3000 4.82000   1
 -10   6   5 1127.70 56.4900   1
 -10   6   5 925.550 66.6300   1
  10   6  -5 1132.31 50.6800   1
 -10  -6   5 1132.10 50.7400   1
 -10  -6   5 1087.08 48.9600   1
  -8  -6  12 18.0500 4.54000   1
   8   6 -12 33.3800 5.81000   1
  -8   6  12 22.2600 8.81000   1
  -8  -6  12 31.0700 6.13000   1
  12   0   9 -3.5900 3.45000   1
 -12   0  -9 -8.9400 7.29000   1
 -12   4  -3 29.2000 16.7100   1
 -12  -4  -3 13.1500 4.44000   1
 -12  -4  -3 17.5000 4.74000   1
 -12   4  -3 32.7300 11.1400   1
  12   4   3 17.9700 4.47000   1
 -12  -4  -3 26.7300 6.04000   1
   0  -8   6 45.5000 7.01000   1
   0   8   6 23.6900 5.49000   1
   0   8   6 38.3000 5.92000   1
   0   8  -6 48.7300 6.41000   1
   0  -8  -6 43.7500 6.92000   1
   0  -8   6 44.6700 7.57000   1
   0  -8  -6 33.8000 7.33000   1
 -14  -2   1 521.530 25.7000   1
 -14   2   1 520.720 27.2700   1
  14   2  -1 514.980 24.3500   1
 -14  -2   1 486.460 24.1500   1
   2   0 -23 1.48000 4.27000   1
 -10  -6   1 385.880 18.7500   1
 -10   6   1 351.820 33.2600   1
 -10   6   1 355.420 21.0200   1
  10   6  -1 373.210 17.8800   1
 -10  -6   1 385.030 19.1600   1
  -8  -4  18 28.2300 5.30000   1
  -8   4  18 42.9100 14.2600   1
   8  -4 -18 29.1300 7.55000   1
   8   4 -18 48.2100 6.52000   1
 -14   0  -2 766.690 36.3900   1
 -14   2   8 289.060 16.2000   1
  14   2  -8 386.910 18.9400   1
 -14  -2   8 342.230 16.7600   1
  14  -2  -8 268.310 14.6700   1
  -8  -6  -7 283.660 14.4200   1
  -8  -6  -7 309.720 15.4100   1
  -8   6  -7 281.520 55.0800   1
   8   6   7 294.090 15.2900   1
  -4   0  23 -11.620 10.9400   1
   4   0 -23 0.27000 4.60000   1
  -5  -3 -18 620.690 30.6300   1
  -5   3 -18 674.450 53.1400   1
  -5  -3 -18 623.380 30.2100   1
  -5   3 -18 631.740 31.7700   1
   5   3  18 624.250 30.0500   1
  -5   7  11 172.770 11.2000   1
   5   7 -11 167.090 34.0200   1
   5  -7 -11 178.630 10.6400   1
  -5  -7  11 152.530 15.8500   1
  -5  -7  11 158.240 16.0900   1
 -14   0  11 -4.1600 3.73000   1
  14   0 -11 -5.7300 3.90000   1
  -3   1 -21 898.890 51.7700   1
  -3  -1 -21 770.210 44.1100   1
  -3  -1 -21 804.900 37.6600   1
  -3   1 -21 793.180 38.3100   1
  -4  -8   1 264.580 13.8100   1
  -4   8   1 335.530 17.0700   1
   4   8  -1 349.070 17.2200   1
   4  -8  -1 324.190 16.9000   1
  -4  -8   1 316.570 16.0100   1
   4  -8  -1 314.490 16.5600   1
  -2   8   6 639.100 30.0400   1
   2   8  -6 638.830 29.4900   1
  -2   8   6 606.010 28.8300   1
   2  -8  -6 597.950 28.2500   1
  -2  -8   6 594.930 28.9400   1
  -2  -8   6 592.080 28.5200   1
  11   3 -16 9.06000 4.66000   1
 -11   3  16 -40.800 18.5500   1
  -2   6  16 3.28000 3.75000   1
  -2   6  16 -13.290 5.81000   1
  -2  -6  16 7.90000 4.65000   1
   2   6 -16 -2.8500 3.81000   1
  -9  -3 -13 683.840 32.7700   1
   9   3  13 706.880 32.7600   1
  -9  -3 -13 663.500 32.0300   1
  -9   3 -13 630.530 39.5200   1
  -4  -8   2 75.4100 9.26000   1
  -4  -8   2 87.6800 9.79000   1
  -4   8   2 93.5100 10.4100   1
   4  -8  -2 101.690 11.9200   1
   4   8  -2 87.2300 9.61000   1
   4  -8  -2 61.0400 7.76000   1
 -11   3  -9 -3.6700 14.2400   1
 -11  -3  -9 41.0800 7.40000   1
 -11  -3  -9 27.0500 5.86000   1
  11   3   9 33.1100 5.59000   1
   6   2  18 10.7300 4.30000   1
  -6  -2 -18 19.2800 5.62000   1
  -6   2 -18 21.6000 4.85000   1
  -6   2 -18 36.2900 18.4000   1
   7   7  -8 445.320 21.1900   1
  -7  -7   8 448.250 21.4600   1
   7  -7  -8 444.450 22.5500   1
  -7  -7   8 447.550 21.2800   1
  -7   7   8 470.690 25.5300   1
 -10   6   6 56.3700 12.5600   1
  10   6  -6 75.2600 8.83000   1
 -10  -6   6 76.1300 8.92000   1
 -10  -6   6 51.0700 7.20000   1
   4  -8   0 55.9500 8.00000   1
  -4   8   0 81.7100 9.37000   1
  -4  -8   0 77.5500 9.17000   1
  -4  -8   0 76.9500 9.09000   1
   4  -8   0 69.8600 9.30000   1
   4   8   0 83.4100 9.18000   1
  -8   4 -13 753.380 54.9900   1
  -8  -4 -13 697.860 33.1700   1
  -8  -4 -13 731.820 34.1400   1
   8   4  13 779.380 36.1200   1
 -12  -2  -8 560.390 27.5900   1
  12   2   8 602.150 28.2700   1
 -12  -2  -8 520.170 25.4700   1
 -12   2  -8 554.960 31.6200   1
   2   4  19 488.380 23.7700   1
   2   4  19 456.050 22.7100   1
  -2  -4 -19 423.280 21.6100   1
   2  -4  19 427.510 21.9200   1
  -2   4 -19 506.960 25.9900   1
  -2   4 -19 324.970 51.1600   1
 -12  -4  11 347.210 17.7000   1
  12   4 -11 370.330 18.0200   1
 -12  -4  11 383.220 18.4000   1
 -12   4  11 365.270 29.7900   1
   0   2 -22 602.920 30.3600   1
   0  -2 -22 593.360 28.3100   1
   0   2 -22 450.420 48.3800   1
   0  -2  22 583.520 30.1700   1
   0  -2 -22 584.350 31.5700   1
   5  -5 -18 305.820 16.1900   1
  -5  -5  18 390.130 19.8400   1
  -5   5  18 336.790 19.9800   1
   5   5 -18 339.880 17.4100   1
 -13   1  -6 163.980 18.0500   1
 -13  -1  -6 181.890 11.1600   1
  13   1   6 190.260 11.2100   1
   5  -7   8 26.0900 7.07000   1
  -5  -7  -8 21.8500 5.22000   1
   5   7   8 14.1600 4.42000   1
  -5  -7  -8 18.8600 5.66000   1
   4   8  -3 598.830 28.0800   1
  -4  -8   3 570.830 27.6200   1
   4  -8  -3 600.760 28.3100   1
  -4  -8   3 595.730 28.4200   1
   4  -8  -3 525.330 26.1200   1
  -4   8   3 563.820 27.2600   1
   2  -8   5 675.690 31.9900   1
   2   8   5 716.970 33.1100   1
   2  -8   5 650.900 31.1700   1
  -2  -8  -5 743.780 34.9900   1
  -2  -8  -5 715.880 32.8600   1
   3   1 -23 545.090 28.0300   1
   3   1 -23 646.860 31.0500   1
   3  -1 -23 669.770 31.8400   1
  -3   1  23 542.990 31.8800   1
  10   6   0 35.5100 5.67000   1
 -10  -6   0 25.0900 5.23000   1
 -10   6   0 18.8700 6.72000   1
 -10  -6   0 25.6400 4.98000   1
   7   1 -22 47.1600 6.88000   1
   7   1 -22 48.8500 7.07000   1
  -7  -1  22 89.8200 23.3500   1
   7  -1 -22 60.5700 7.57000   1
  -7   1  22 54.8900 16.7700   1
 -11  -5  10 1233.82 55.6900   1
 -11  -5  10 1184.68 52.4800   1
 -11   5  10 1220.58 68.9500   1
  11   5 -10 1199.18 53.2600   1
  -7   3 -16 293.170 16.3700   1
  -7   3 -16 373.650 35.2000   1
   7   3  16 321.610 16.9600   1
  -7  -3 -16 268.290 14.7200   1
  -7  -3 -16 305.250 16.2300   1
 -11  -5  -3 22.1900 4.93000   1
 -11   5  -3 46.2200 20.5800   1
  11   5   3 35.0600 5.82000   1
 -11  -5  -3 24.8700 5.74000   1
  -1  -7 -12 6.75000 4.54000   1
   1  -7  12 -7.2000 5.04000   1
   1   7  12 -1.2700 4.76000   1
  -1   7 -12 4.63000 4.17000   1
   1   7  12 4.99000 3.83000   1
   4   8   1 149.170 15.2400   1
  -4   8  -1 126.450 13.3900   1
  -4  -8  -1 128.660 13.7400   1
  -4  -8  -1 139.190 14.3200   1
   4  -8   1 96.7200 11.1900   1
   4  -8   1 121.710 13.8100   1
  13   3 -11 47.2900 6.47000   1
 -13  -3  11 48.8300 6.48000   1
 -13   3  11 27.2000 20.6100   1
  12   0 -17 0.49000 3.81000   1
 -14   2   0 600.840 30.6600   1
 -14  -2   0 647.840 30.9000   1
  14   2   0 602.430 29.0000   1
 -14  -2   0 670.800 31.9200   1
   7   7   4 687.490 31.3400   1
  -7  -7  -4 690.490 31.4800   1
   7  -7   4 643.380 31.1300   1
  -7  -7  -4 680.380 31.6600   1
  -7   7  -4 581.320 28.1300   1
  14  -2  -9 216.350 12.4400   1
  14   2  -9 261.510 13.6200   1
 -14  -2   9 272.310 14.1500   1
   0   4  20 50.2700 7.20000   1
   0  -4  20 85.8800 10.3200   1
   0  -4 -20 75.5800 8.90000   1
   0   4 -20 78.6000 9.58000   1
   0  -4 -20 69.1600 8.51000   1
  10   2 -19 415.480 21.1100   1
 -10  -2  19 429.600 21.4100   1
 -10   2  19 361.190 33.3600   1
  10  -2 -19 377.070 20.2800   1
   4  -8  -4 415.420 21.4000   1
  -4  -8   4 557.460 26.7500   1
   4  -8  -4 434.700 23.5300   1
  -4  -8   4 466.980 22.6800   1
  -4   8   4 480.900 23.7900   1
   4   8  -4 495.630 24.0500   1
  -6  -6 -11 1593.49 319.440   1
  -6  -6 -11 1412.00 63.4000   1
   6   6  11 1690.74 338.920   1
   6  -6  11 1488.87 67.2800   1
  -6  -2  22 238.610 13.9500   1
  -6   2  22 210.510 18.6400   1
   6   2 -22 241.480 13.5700   1
   6  -2 -22 229.150 13.2000   1
  -9   5  -9 -10.040 36.3300   1
  -9  -5  -9 22.9100 5.10000   1
  -9  -5  -9 14.8500 4.91000   1
   9   5   9 8.54000 4.45000   1
 -10   6   7 815.110 41.4800   1
 -10  -6   7 947.610 42.7100   1
 -10  -6   7 929.590 41.8000   1
  10   6  -7 1004.69 45.1800   1
  -7   5  17 40.1400 11.0000   1
   7   5 -17 32.3200 5.44000   1
   7  -5 -17 28.8800 5.09000   1
  -7  -5  17 34.7800 5.83000   1
  -7  -5  17 30.6700 5.95000   1
  -5  -5 -15 3.00000 4.60000   1
  -5  -5 -15 14.6000 4.38000   1
   5  -5  15 3.83000 5.11000   1
   5   5  15 1.16000 3.69000   1
  -5   5 -15 -148.31 50.6500   1
   9  -3 -19 95.5800 10.6800   1
  -9  -3  19 96.9100 11.0900   1
   9   3 -19 82.3700 9.70000   1
  -9   3  19 115.720 20.7800   1
   9  -1  15 157.570 16.3800   1
  -9  -1 -15 158.200 17.2400   1
  -9   1 -15 156.400 19.8800   1
   9   1  15 164.430 16.7500   1
  -2  -6 -15 1150.92 51.9400   1
   2  -6  15 949.140 43.5400   1
   2   6  15 1177.28 53.2000   1
  -2   6 -15 1068.97 50.2300   1
   2   6  15 1015.60 46.8600   1
  -4   2 -20 505.210 39.2500   1
  -4  -2 -20 597.520 31.9000   1
  -4  -2 -20 542.990 26.1000   1
  -4   2 -20 636.040 31.8900   1
 -13  -3  -3 151.100 15.7700   1
 -13   3  -3 146.760 19.1100   1
 -13  -3  -3 181.230 10.6900   1
 -13   3  -3 188.820 26.4600   1
  13   3   3 173.770 12.0000   1
  -4  -6  16 -3.6800 5.71000   1
  -4   6  16 12.7800 7.03000   1
  -4  -6  16 -12.840 5.24000   1
  -4   6  16 0.73000 5.20000   1
   4   6 -16 -3.3600 4.80000   1
  10   4 -16 209.350 11.2300   1
 -10   4  16 181.650 18.8700   1
 -10  -4  16 223.700 11.7500   1
  10   0 -20 846.920 39.3400   1
  10   0 -20 827.860 38.3000   1
  12  -2 -16 620.510 30.2400   1
 -12   2  16 527.840 40.5700   1
  12  -2 -16 511.290 27.2600   1
  12   2 -16 631.130 29.6000   1
 -12  -2  16 584.040 27.5600   1
   4   8   2 53.2100 6.71000   1
  -4   8  -2 48.8100 6.49000   1
   4  -8   2 43.8400 7.21000   1
   4  -8   2 26.8300 7.34000   1
  -4  -8  -2 43.3800 6.69000   1
  -4  -8  -2 41.1800 6.06000   1
  -2   0 -22 87.1400 9.91000   1
  -2   0 -22 40.9800 13.4400   1
   0   8  -7 71.2400 8.34000   1
   0   8   7 73.3200 8.61000   1
   0   8   7 65.5500 8.33000   1
   0  -8   7 87.1000 11.1600   1
   0  -8  -7 58.1400 7.71000   1
   0  -8  -7 70.4600 8.64000   1
   0  -8   7 68.3300 9.09000   1
   0  -6  16 23.7000 5.52000   1
   0   6  16 16.9200 5.08000   1
   0   6  16 18.6400 4.48000   1
   0   6 -16 30.5700 6.40000   1
   0  -6 -16 13.1400 4.68000   1
  10   6   1 18.7300 4.24000   1
 -10  -6  -1 32.5300 5.38000   1
 -10  -6  -1 -0.7000 4.36000   1
 -10   6  -1 48.8100 38.9300   1
 -10   6  -1 11.6900 5.13000   1
   8  -2 -21 161.980 17.4700   1
  -8  -2  21 171.710 10.6600   1
  -8   2  21 148.800 22.2900   1
   8   2 -21 190.250 11.6200   1
   1  -5  18 795.600 37.3200   1
  -1  -5 -18 828.520 39.4300   1
   1   5  18 820.440 38.3300   1
  -1   5 -18 880.880 41.3100   1
   1   5  18 875.010 41.2400   1
   2  -8  -7 559.940 26.7400   1
  -2  -8   7 645.860 30.1000   1
  -2  -8   7 634.420 29.8700   1
   2   8  -7 632.570 29.5500   1
  -2   8   7 594.370 28.7500   1
  -2   8   7 654.370 31.0500   1
  -6  -6  15 787.680 36.8300   1
  -6  -6  15 710.730 32.8700   1
  -6   6  15 724.480 37.9900   1
  -6   6  15 672.990 32.2300   1
   6   6 -15 716.530 33.4000   1
 -12   4  -4 55.1400 16.1700   1
 -12  -4  -4 61.3700 7.96000   1
  12   4   4 50.0800 6.88000   1
 -12  -4  -4 46.2400 6.63000   1
  -6   0 -19 -5.7500 9.39000   1
  -6   0 -19 0.03000 4.76000   1
  -1   3 -21 326.230 41.8200   1
   1  -3  21 429.800 23.3900   1
  -1   3 -21 438.890 23.0800   1
   1   3  21 340.530 18.7500   1
  -1  -3 -21 409.590 20.7500   1
  -1  -3 -21 432.760 22.8300   1
 -14   0  -3 6.74000 5.25000   1
   1  -1 -23 32.7600 6.13000   1
   1   1 -23 59.2300 21.0700   1
   1   1 -23 48.9500 6.84000   1
 -14   0  12 942.780 43.3800   1
  14   0 -12 964.870 44.9700   1
  -7  -7   9 27.4600 5.86000   1
   7  -7  -9 12.7900 4.47000   1
  -7  -7   9 26.6100 5.44000   1
   7   7  -9 31.1200 4.99000   1
  -7   7   9 18.4200 7.80000   1
  -6  -4 -16 -18.300 5.27000   1
   6   4  16 -3.8700 4.06000   1
  -6   4 -16 -7.7500 3.76000   1
  -6  -4 -16 10.0200 4.94000   1
  -6   4 -16 24.7100 33.6100   1
   4  -8  -5 573.020 28.4000   1
  -4  -8   5 673.270 31.5600   1
   4   8  -5 600.180 27.9800   1
  -4   8   5 552.610 26.5000   1
  -4  -8   5 590.060 27.8600   1
  -5   1  23 407.560 27.1600   1
   5   1 -23 397.180 20.5600   1
   5   1 -23 386.330 20.6100   1
   5  -1 -23 349.500 18.6600   1
  -9   5  15 28.0300 12.5900   1
  -9  -5  15 -2.5700 3.89000   1
   9   5 -15 12.5400 5.13000   1
  -9  -5  15 16.3400 5.92000   1
   1   7 -13 22.6500 6.47000   1
  -1   7  13 29.4000 9.57000   1
  -1  -7  13 37.2000 8.96000   1
  -1  -7  13 24.3900 7.16000   1
   1  -7 -13 41.7600 9.89000   1
  -1   7  13 6.94000 5.57000   1
  -8  -2 -16 799.350 38.8300   1
   8   2  16 877.980 42.5600   1
  -8   2 -16 778.400 38.1300   1
  -8   2 -16 825.440 48.8200   1
  -3  -7 -11 452.330 22.3800   1
   3  -7  11 376.960 19.8000   1
   3   7  11 464.750 22.7200   1
   2  -8   6 533.430 26.4000   1
  -2  -8  -6 587.480 29.2300   1
  -2  -8  -6 507.650 24.6200   1
   2   8   6 557.000 26.8200   1
   2  -8   6 481.670 24.0900   1
  -3  -3 -20 445.170 24.4100   1
  -3   3 -20 501.760 50.5600   1
  -3  -3 -20 359.240 19.8800   1
  -3   3 -20 471.630 24.6700   1
  -3  -3 -20 403.130 21.3400   1
  14   2   1 240.930 13.3700   1
 -14  -2  -1 259.420 14.2500   1
 -14   2  -1 260.800 16.0200   1
 -14  -2  -1 271.390 15.7800   1
 -10  -6   8 13.3400 4.81000   1
 -10  -6   8 25.9500 6.86000   1
 -10   6   8 34.5400 11.8400   1
  10   6  -8 22.7700 7.43000   1
   4   4  18 163.360 45.0500   1
  -4   4 -18 168.070 46.5100   1
  -4  -4 -18 129.260 26.6600   1
  -4   4 -18 24.0800 46.6400   1
  -4  -4 -18 158.380 43.7400   1
   4  -4  18 153.920 32.0800   1
  -8  -6  13 574.630 28.2400   1
   8   6 -13 627.400 30.1400   1
  -8   6  13 545.990 32.7800   1
  -8  -6  13 572.770 28.1200   1
 -14  -2  10 675.930 32.2600   1
  14   2 -10 641.460 31.1100   1
  14  -2 -10 630.520 32.0900   1
  13   1 -15 509.990 25.2600   1
  13  -1 -15 432.050 22.6800   1
  13  -1 -15 520.220 25.8900   1
 -13  -1  15 522.880 25.6900   1
  -3   7  13 524.220 26.3100   1
   3   7 -13 541.780 27.2500   1
  -3  -7  13 584.670 29.1500   1
  -3  -7  13 531.370 26.2100   1
   3  -7 -13 564.180 28.1800   1
  -3   7  13 585.200 29.5600   1
  -3   5 -17 -0.0200 4.98000   1
   3   5  17 2.13000 4.47000   1
   3   5  17 -6.6200 4.25000   1
   3  -5  17 0.04000 4.95000   1
 -12  -4  12 182.630 10.5000   1
  12   4 -12 199.810 11.7000   1
 -12   4  12 185.700 25.2100   1
   0   0 -23 1.89000 4.31000   1
   9   1 -21 68.3600 14.7400   1
  -9   1  21 57.6900 25.4600   1
   9  -1 -21 66.4600 14.2800   1
   9  -1 -21 65.9400 14.4800   1
   4   8   3 38.7800 8.97000   1
  -4  -8  -3 15.2400 5.44000   1
  -4   8  -3 56.4500 12.3900   1
  -4  -8  -3 62.9000 13.8000   1
   4  -8   3 79.8900 17.4200   1
   4  -8   3 25.0600 7.46000   1
 -11   5  11 2.80000 13.7000   1
 -11  -5  11 1.06000 4.37000   1
 -11  -5  11 10.7300 5.74000   1
  11   5 -11 8.47000 4.81000   1
 -11   5  -4 848.110 52.9300   1
  11   5   4 777.580 36.6600   1
 -11  -5  -4 800.960 38.2200   1
 -11  -5  -4 809.730 38.1600   1
  -5  -7  12 451.880 22.2600   1
  -5   7  12 466.940 26.8900   1
   5   7 -12 508.890 24.8300   1
   5  -7 -12 419.690 22.1700   1
  -5  -7  12 442.740 22.7700   1
  -8  -6  -8 32.2800 8.05000   1
  -8  -6  -8 21.1600 5.98000   1
   8   6   8 44.2800 10.1700   1
  -8   6  -8 -66.950 44.3700   1
 -10   2 -13 4.32000 15.9600   1
 -10  -2 -13 11.0900 6.43000   1
  10   2  13 4.09000 4.62000   1
   6   0 -23 6.40000 5.31000   1
  -6   0  23 -11.960 15.9500   1
   6   0 -23 -2.7800 3.88000   1
   3   3 -22 159.290 44.2200   1
   3  -3 -22 162.160 45.0200   1
  -3  -3  22 149.390 30.7900   1
  -3   3  22 140.260 29.7800   1
 -10  -4 -10 3.44000 4.93000   1
 -10   4 -10 -7.0200 27.7900   1
 -10  -4 -10 22.2000 6.46000   1
  10   4  10 12.3900 6.12000   1
   8   0 -22 1207.38 57.0700   1
   8   0 -22 1284.70 60.2500   1
  -8   0  22 1040.13 66.7800   1
  -6   4  20 -8.9800 9.86000   1
  -6  -4  20 -2.3200 4.48000   1
   6  -4 -20 -1.7500 4.39000   1
  -7  -7  -5 215.160 11.9700   1
  -7  -7  -5 227.500 12.1700   1
   7   7   5 199.090 11.4300   1
   7  -7   5 222.590 13.3200   1
 -13  -3  12 7.78000 4.54000   1
 -13   3  12 28.0900 25.4200   1
  13   3 -12 3.50000 4.92000   1
 -10  -6  -2 3.78000 4.65000   1
 -10   6  -2 -3.1400 5.21000   1
  10   6   2 -8.5700 4.43000   1
 -10  -6  -2 -0.2800 3.87000   1
 -10   6  -2 22.9600 31.7900   1
  -3  -5  19 -11.030 4.93000   1
   3  -5 -19 4.30000 3.84000   1
   3   5 -19 8.07000 5.24000   1
  -3   5  19 -3.3300 5.87000   1
  -5  -1 -20 18.5000 8.31000   1
  -5   1 -20 34.9300 15.6600   1
  -5   1 -20 18.5800 5.71000   1
  -5  -1 -20 20.5400 6.23000   1
  -4  -8   6 1032.89 48.0400   1
  -4  -8   6 1057.07 49.1200   1
   4   8  -6 1090.00 50.3600   1
  -4   8   6 1035.73 49.1300   1
   4  -8  -6 1083.69 51.1700   1
   7   1  18 175.230 10.8300   1
  -7   1 -18 149.080 33.6400   1
  -7  -1 -18 178.920 12.9100   1
  -7   1 -18 195.430 11.8300   1
  -7   5 -13 -117.72 40.8100   1
  -7  -5 -13 -1.7700 3.72000   1
   7   5  13 3.05000 4.41000   1
  -7  -5 -13 -7.7100 4.55000   1
  -7  -5 -13 3.68000 4.72000   1
  -5  -7  -9 59.9500 13.0800   1
   5  -7   9 62.1800 14.2600   1
   5   7   9 49.4800 10.8400   1
  -5  -7  -9 54.0700 12.1600   1
  10   0  14 18.4700 5.28000   1
  -4   0 -21 4.56000 4.07000   1
  -4   0 -21 6.68000 11.6900   1
  12   0  10 1124.74 53.7500   1
 -12   0 -10 1108.54 53.4000   1
   8   0  17 -2.5400 4.44000   1
  -8   0 -17 4.81000 10.8300   1
  13   1   7 722.760 34.7000   1
 -13  -1  -7 730.680 36.3700   1
 -13   1  -7 692.690 35.4100   1
   7   3 -21 135.760 28.1200   1
  -7  -3  21 163.780 45.1700   1
  -7   3  21 181.320 17.3300   1
   7  -3 -21 151.640 31.2800   1
   1   5 -19 6.45000 5.33000   1
  -1   5  19 4.94000 5.04000   1
  -1   5  19 -3.2100 4.81000   1
  -1  -5  19 25.4700 7.57000   1
  11  -1 -19 488.550 24.8500   1
  11  -1 -19 426.490 22.2200   1
  11   1 -19 466.540 23.9500   1
 -11   1  19 358.840 32.3500   1
 -13  -3  -4 496.980 24.8000   1
  13   3   4 576.340 27.6700   1
 -13   3  -4 445.740 26.6500   1
 -13  -3  -4 516.680 25.9800   1
  11  -1  12 68.2600 14.6500   1
 -11  -1 -12 76.8300 16.7800   1
 -11   1 -12 47.2200 13.8100   1
  11   1  12 67.5100 14.4800   1
   2   8  -8 746.840 35.2000   1
  -2   8   8 749.440 36.0700   1
  -2  -8   8 785.020 37.3900   1
  -2  -8   8 770.270 36.5300   1
   2  -8  -8 768.180 36.5400   1
  -2   8   8 763.130 36.7100   1
   0   8  -8 154.460 31.5600   1
   0   8   8 146.340 30.0000   1
   0   8   8 156.000 32.0000   1
   0  -8   8 127.230 26.2900   1
   0  -8   8 124.550 25.7900   1
   0  -8  -8 193.460 11.2900   1
  11  -3 -17 -3.0000 2.82000   1
 -11  -3  17 7.31000 4.52000   1
 -11   3  17 -37.650 19.7400   1
  11   3 -17 9.85000 4.98000   1
  -4  -6 -14 0.23000 5.52000   1
   4   6  14 -1.2100 3.95000   1
   4  -6  14 3.64000 5.84000   1
  11   3  10 159.680 44.1000   1
 -11   3 -10 187.270 20.2200   1
 -11  -3 -10 153.810 31.7500   1
 -11  -3 -10 198.700 11.5500   1
  12   2   9 196.810 11.4200   1
 -12  -2  -9 207.870 13.2000   1
 -12  -2  -9 199.450 12.0500   1
 -12   2  -9 155.210 33.6700   1
 -10  -6   9 334.580 17.2900   1
 -10  -6   9 331.720 16.6700   1
 -10   6   9 331.780 25.4800   1
  10   6  -9 217.540 11.9900   1
   1   3 -22 9.93000 4.89000   1
   1   3 -22 -55.930 35.1000   1
  -1   3  22 17.3600 5.70000   1
  -1  -3  22 15.7600 5.84000   1
   1  -3 -22 2.93000 4.11000   1
   4   8   4 298.770 15.9000   1
   4  -8   4 274.510 15.1100   1
  -4  -8  -4 299.680 15.8100   1
  -4  -8  -4 288.980 15.0200   1
   4  -8   4 298.560 15.8900   1
  -4   8  -4 261.020 14.2300   1
   2   2 -23 313.550 18.3100   1
   2  -2 -23 356.700 19.6000   1
  -2  -2  23 372.880 19.9700   1
   2   2 -23 214.670 39.0900   1
  -2   2  23 292.580 18.7400   1
   2   2 -23 348.520 19.7500   1
  14   2   2 998.520 47.2000   1
 -14  -2  -2 904.490 43.6500   1
 -14   2  -2 764.180 39.2200   1
 -14  -2  -2 905.200 43.5500   1
  -7   7  10 150.760 31.9400   1
  -7  -7  10 136.660 28.1500   1
  -7  -7  10 142.020 29.1400   1
   7   7 -10 152.920 31.1700   1
 -14   0  -4 404.320 22.2500   1
   4   2 -23 16.7100 6.07000   1
   4   2 -23 22.5800 5.90000   1
   4  -2 -23 18.2500 6.51000   1
  -4  -2  23 18.7600 5.86000   1
  -4   2  23 16.3900 8.49000   1
 -12  -4  -5 71.3700 15.3600   1
 -12   4  -5 42.8200 18.0900   1
  12   4   5 70.1700 15.0400   1
 -12  -4  -5 51.1300 11.4700   1
 -14  -2  11 248.080 13.2800   1
  14   2 -11 288.730 15.2800   1
 -14   0  13 0.73000 4.45000   1
  14   0 -13 -1.9500 3.79000   1
  -2  -8  -7 344.830 17.5700   1
   2  -8   7 320.670 17.0500   1
  -2  -8  -7 385.300 20.4800   1
   2   8   7 336.390 17.7000   1
   2  -8   7 354.510 18.9000   1
  -8  -4  19 188.360 10.9800   1
  -8   4  19 200.040 18.0400   1
   8   4 -19 177.750 10.3200   1
   8  -4 -19 153.290 31.5900   1
  -1  -7 -13 88.9000 18.6800   1
   1  -7  13 90.2700 19.1900   1
   1   7  13 108.510 22.5100   1
   1   7  13 99.1000 20.7400   1
  -1   7 -13 103.210 21.5300   1
  -2   4  21 599.270 31.9700   1
   2   4 -21 576.060 28.9000   1
   2  -4 -21 548.730 27.5400   1
  -2  -4  21 536.680 26.6900   1
  -5  -3  22 430.970 22.8300   1
  -5   3  22 370.770 23.4900   1
   5   3 -22 363.260 19.6800   1
   5  -3 -22 361.710 19.8100   1
 -10   6  -3 456.640 52.5300   1
  10   6   3 444.180 21.7900   1
 -10  -6  -3 416.950 20.7300   1
 -10  -6  -3 426.410 21.0200   1
  -2  -6  17 439.110 22.5200   1
   2   6 -17 437.320 22.8900   1
  -2   6  17 412.990 21.6100   1
  -2   6  17 410.810 21.2800   1
  -9  -5 -10 1138.32 53.3200   1
  -9  -5 -10 1133.28 52.8100   1
  -9  -5 -10 1266.18 59.0700   1
  -9   5 -10 1165.30 77.8600   1
   9   5  10 1241.00 57.0800   1
  -4  -8   7 541.660 29.4100   1
  -4   8   7 528.630 26.3800   1
   4   8  -7 579.500 27.8100   1
  -4  -8   7 523.110 25.6500   1
   4  -8  -7 596.410 29.2300   1
  -9  -3 -14 32.5200 8.20000   1
  -9  -3 -14 36.1600 9.90000   1
   9   3  14 31.5200 8.10000   1
  -9   3 -14 99.7400 29.2500   1
 -15  -1   5 476.760 23.6400   1
  15   1  -5 477.190 23.5200   1
  15  -1  -5 409.470 22.0300   1
 -15  -1   5 415.910 22.2000   1
 -15   1   5 411.100 22.2000   1
  12   0 -18 557.380 28.8100   1
  12   0 -18 525.010 26.0000   1
  -8  -4 -14 85.0000 17.8600   1
  -8  -4 -14 91.9600 19.3300   1
  -8   4 -14 78.9800 35.9200   1
   8   4  14 100.060 20.9000   1
  15  -1  -4 75.6700 15.8500   1
 -15   1   4 66.7100 14.8800   1
 -15  -1   4 90.1200 18.9700   1
  15   1  -4 79.1400 16.7200   1
 -15  -1   4 79.5500 17.5900   1
  -4  -4  21 482.390 25.5300   1
  -4   4  21 463.200 26.0700   1
   4   4 -21 458.940 23.6700   1
   4  -4 -21 469.180 24.9200   1
   6   6  12 6.00000 4.44000   1
  -6  -6 -12 -1.0500 4.63000   1
   6  -6  12 10.1800 5.91000   1
  -6  -6 -12 1.88000 4.51000   1
 -11  -5  12 776.780 37.0700   1
 -11  -5  12 788.740 36.8400   1
 -11   5  12 781.780 45.5900   1
  11   5 -12 786.290 36.8600   1
 -15  -1   6 0.15000 4.60000   1
  15  -1  -6 12.1800 4.70000   1
  15   1  -6 1.15000 4.15000   1
 -15  -1   6 8.11000 4.27000   1
 -15   1   6 0.84000 4.75000   1
 -11  -5  -5 63.7400 13.9700   1
 -11   5  -5 79.6900 29.8000   1
 -11  -5  -5 44.6200 10.4300   1
  11   5   5 43.6100 10.0900   1
 -12  -4  13 1082.31 49.9100   1
  12   4 -13 1148.38 53.0200   1
  12  -2 -17 15.1200 5.49000   1
  12   2 -17 38.1200 8.99000   1
 -12   2  17 42.6600 26.8600   1
  12  -2 -17 25.8100 7.15000   1
 -12  -2  17 31.9900 7.78000   1
   7   7   6 820.430 38.5700   1
  -7  -7  -6 754.350 35.5200   1
  -7  -7  -6 738.380 34.5500   1
   7  -7   6 782.830 38.5400   1
   5   5 -19 20.2400 6.26000   1
  -5   5  19 16.4200 7.81000   1
  -5  -5  19 28.6800 7.88000   1
   5  -5 -19 14.9600 5.27000   1
  15   1  -3 1188.09 55.3700   1
 -15   1   3 1254.68 59.3100   1
 -15  -1   3 1387.60 378.320   1
 -15  -1   3 1192.28 56.2700   1
 -10   4  17 1142.86 64.1600   1
  10   4 -17 1148.40 53.6000   1
 -10  -4  17 1235.67 57.5800   1
 -13  -3  13 21.0400 5.90000   1
  13   3 -13 21.8000 6.29000   1
 -13   3  13 25.0700 24.1400   1
 -15  -1   7 319.520 16.7000   1
  15  -1  -7 276.230 15.4800   1
 -15  -1   7 348.860 18.4300   1
 -15   1   7 301.280 17.1200   1
  15   1  -7 332.100 16.9600   1
  -8  -6  14 49.8000 11.4100   1
  -8   6  14 58.3400 14.7000   1
  -8  -6  14 45.2700 10.2600   1
  -5   3 -19 81.7700 30.5500   1
   5   3  19 103.490 21.5000   1
  -5  -3 -19 96.8300 20.5800   1
  -5   3 -19 64.7100 14.3300   1
   7  -5 -18 1006.06 49.1800   1
  -7  -5  18 1245.30 60.8400   1
  -7  -5  18 1219.90 56.1100   1
  -7   5  18 1049.05 54.9200   1
   7   5 -18 1178.36 54.4000   1
  -6  -6  16 16.3700 5.95000   1
   6   6 -16 21.8800 5.90000   1
  -6  -6  16 27.7800 8.18000   1
  -6   6  16 42.3600 12.0800   1
  -6   6  16 12.3000 5.29000   1
  -9  -5  16 942.030 44.0700   1
  -9  -5  16 882.180 43.1500   1
   9   5 -16 865.560 41.5200   1
  -9   5  16 817.640 46.5400   1
  -4  -8  -5 383.360 19.3000   1
  -4  -8  -5 377.130 18.9900   1
   4  -8   5 390.500 20.1400   1
   4   8   5 408.100 20.0700   1
   4  -8   5 398.570 20.5300   1
 -10   2  20 326.630 27.9500   1
  10   2 -20 360.550 19.1000   1
 -10   6  10 -3.3500 11.2000   1
  10   6 -10 26.6300 7.46000   1
 -10  -6  10 14.9600 4.88000   1
 -10  -6  10 4.05000 5.10000   1
  13  -1 -16 20.8200 6.07000   1
  13  -1 -16 33.0300 8.42000   1
  13   1 -16 23.9800 6.55000   1
 -13  -1  16 35.4400 8.36000   1
  -4   6  17 1350.49 64.1000   1
  -4  -6  17 1409.72 384.290   1
   4   6 -17 1347.04 61.8300   1
  -4   6  17 1228.90 57.7600   1
  -3  -7 -12 925.070 43.3700   1
   3  -7  12 886.920 42.5200   1
   3   7  12 926.410 43.6500   1
  -2  -2 -22 12.6600 6.35000   1
  -2   2 -22 62.3000 29.2100   1
  -2  -2 -22 22.6100 7.07000   1
  -2   2 -22 11.2200 5.98000   1
  -1   7  14 509.370 25.4500   1
   1  -7 -14 577.250 28.4500   1
  -1  -7  14 457.730 23.3800   1
  -1   7  14 524.960 26.6000   1
   1   7 -14 513.810 25.5600   1
   5   7 -13 76.5700 16.2900   1
  -5   7  13 46.3800 11.2800   1
  -5  -7  13 57.4900 12.8300   1
  -5  -7  13 38.8900 9.44000   1
 -15   1   2 -4.7800 4.69000   1
 -15  -1   2 16.5000 5.52000   1
  15   1  -2 9.23000 4.04000   1
 -15  -1   2 16.8300 6.27000   1
  -8  -6  -9 12.1900 5.54000   1
   8   6   9 1.15000 4.44000   1
  -8   6  -9 144.840 55.4600   1
  -8  -6  -9 13.1400 4.97000   1
   2   6  16 28.4000 7.37000   1
  -2  -6 -16 15.6000 6.00000   1
   2  -6  16 3.95000 5.63000   1
   2   6  16 22.2200 7.14000   1
   2  -8  -9 379.800 19.9200   1
  -2  -8   9 395.170 20.4700   1
   2   8  -9 361.290 18.5600   1
  -2   8   9 364.120 19.1900   1
  -2   8   9 383.560 20.1800   1
  -2  -8   9 341.840 18.1300   1
  -6   2 -19 73.5300 15.9900   1
  -6   2 -19 38.0800 22.1000   1
  -6  -2 -19 67.4000 15.3200   1
   6   2  19 87.4800 18.4300   1
 -14   2  -3 109.650 23.7700   1
 -14  -2  -3 144.430 29.7200   1
  14   2   3 127.980 26.3400   1
 -14  -2  -3 152.800 31.5600   1
  -9  -3  20 4.48000 4.69000   1
   9  -3 -20 2.60000 5.34000   1
   9   3 -20 24.9700 6.68000   1
  -9   3  20 18.7500 13.9800   1
   7   3  17 368.090 19.2900   1
  -7  -3 -17 325.870 18.1900   1
  -7   3 -17 354.900 29.2300   1
  -7  -3 -17 350.270 18.4800   1
  -7   3 -17 315.430 18.0900   1
  -1   1 -23 394.560 35.4300   1
  -1   1 -23 427.770 22.8000   1
  -1  -1 -23 404.060 20.9900   1
 -13  -3  -5 339.910 18.9000   1
 -13  -3  -5 324.510 17.6700   1
 -13   3  -5 257.410 18.5500   1
  -2  -4 -20 55.7700 12.5200   1
  -2   4 -20 143.600 49.0100   1
   2  -4  20 63.6300 14.3800   1
   2   4  20 45.1400 10.2300   1
  -2   4 -20 43.4000 10.3200   1
   3   7 -14 858.210 40.7700   1
  -3   7  14 993.670 47.2900   1
  -3  -7  14 1020.50 47.7100   1
   3  -7 -14 916.130 44.1100   1
  -3  -7  14 882.710 42.1600   1
  -3   7  14 851.260 40.7800   1
   5   5  16 1131.95 52.8100   1
  -5   5 -16 1080.37 93.4500   1
   5  -5  16 1020.33 49.1700   1
  -5  -5 -16 1085.44 50.9300   1
   0   8  -9 393.930 20.3200   1
   0   8   9 352.400 17.9700   1
   0  -8   9 356.320 18.9400   1
   0  -8   9 318.830 17.6600   1
   0  -8  -9 378.350 19.5600   1
   0   8   9 356.490 19.6300   1
  14   2 -12 564.050 27.4200   1
  14  -2 -12 539.580 27.4300   1
 -14  -2  12 657.480 31.4800   1
   4   0 -24 66.4300 14.4300   1
 -15   1   8 -12.710 4.35000   1
 -15  -1   8 -0.8700 4.86000   1
  15  -1  -8 8.20000 4.33000   1
  15   1  -8 9.81000 5.36000   1
   0   6  17 187.380 11.2700   1
   0  -6  17 186.780 11.4400   1
   0  -6 -17 204.360 13.2400   1
   0   6 -17 192.280 11.3800   1
   0   6  17 179.790 11.4200   1
   2   0 -24 441.320 23.9500   1
   9   7  -3 697.250 32.7800   1
  -9   7   3 613.560 32.6100   1
  -9   7   3 654.110 61.6300   1
  -9  -7   3 666.150 31.5500   1
  -9  -7   3 797.590 37.5100   1
   7  -1 -23 27.6500 7.20000   1
   7   1 -23 31.2200 7.93000   1
  -7   1  23 2.96000 12.8800   1
  -7  -1  23 11.6400 18.4200   1
   7   1 -23 15.4600 5.82000   1
  -3   1 -22 68.6800 20.9000   1
  -3   1 -22 62.2300 13.5400   1
  -3  -1 -22 53.5500 11.7600   1
  -3  -1 -22 52.3200 14.2600   1
  10   0 -21 -0.2100 4.78000   1
  10   0 -21 -5.1200 4.91000   1
   7   7 -11 13.8700 4.82000   1
  -7  -7  11 4.10000 4.71000   1
  -7  -7  11 2.36000 4.24000   1
  -7   7  11 52.9400 12.5600   1
   5  -7  10 19.9400 7.40000   1
  -5  -7 -10 -1.9100 4.80000   1
  -5  -7 -10 7.08000 4.66000   1
   5   7  10 16.8900 5.11000   1
  -9  -7   2 1324.46 60.4500   1
  -9  -7   2 1339.58 61.2600   1
   9   7  -2 1382.31 376.670   1
  -9   7   2 1241.78 59.6500   1
  -9   7   2 1196.15 89.1100   1
  -4  -8   8 86.4000 18.3100   1
   4  -8  -8 104.390 21.8600   1
  -4  -8   8 80.0100 16.9200   1
  -4   8   8 107.550 22.4200   1
   4   8  -8 94.0500 19.6400   1
 -10  -6  -4 73.7500 15.8900   1
 -10  -6  -4 73.7100 15.5700   1
 -10   6  -4 62.8100 55.6600   1
  10   6   4 73.6600 15.6300   1
  -9   7   4 338.360 20.1300   1
   9   7  -4 372.730 18.4400   1
  -9  -7   4 319.820 15.9800   1
  -9  -7   4 354.300 17.9900   1
  -9  -1 -16 -9.6700 6.26000   1
   9   1  16 -2.5800 5.20000   1
  -9   1 -16 8.22000 11.7500   1
   9  -1  16 -9.7700 4.64000   1
  -2  -8  -8 44.2200 10.1200   1
   2  -8   8 51.2100 12.1100   1
  -2  -8  -8 36.6400 8.95000   1
   2   8   8 24.1100 6.62000   1
   2  -8   8 42.1700 10.3700   1
 -14   0  -5 9.92000 5.81000   1
 -10  -4 -11 235.890 13.5800   1
 -10   4 -11 209.080 27.3300   1
  10   4  11 219.460 12.5300   1
 -10  -4 -11 215.560 12.2200   1
 -13   1  -8 137.450 29.1300   1
 -13  -1  -8 192.380 12.7500   1
  13   1   8 154.690 31.6200   1
   0   2 -23 428.020 22.0800   1
   0  -2 -23 466.400 24.1700   1
   0   2 -23 490.400 45.1500   1
 -12  -4  -6 12.1200 5.38000   1
 -12   4  -6 9.38000 16.8500   1
 -12  -4  -6 9.61000 5.11000   1
  12   4   6 18.7000 5.99000   1
  14   0 -14 504.030 25.3000   1
 -15  -1   1 329.680 17.9900   1
 -15  -1   1 401.130 20.9300   1
  15   1  -1 315.540 17.0500   1
 -15   1   1 355.480 18.8100   1
  -6   8   2 548.710 27.5700   1
   6   8  -2 643.780 30.6100   1
  -6  -8   2 551.090 26.6000   1
   6  -8  -2 530.840 27.3100   1
  -6  -8   2 619.120 30.2800   1
   6  -8  -2 597.560 29.6900   1
  -9  -7   1 120.990 15.6500   1
   9   7  -1 143.070 8.99000   1
  -9   7   1 120.280 16.7300   1
  -9   7   1 140.830 65.5700   1
  -9  -7   1 135.150 8.26000   1
   0   4 -21 596.050 29.6100   1
   0  -4  21 573.220 27.7600   1
   0   4  21 534.590 26.9700   1
   0  -4 -21 564.990 27.9500   1
   6   8  -1 521.260 24.4300   1
  -6  -8   1 506.420 23.9200   1
  -6   8   1 484.750 24.4700   1
   6  -8  -1 451.400 23.1700   1
  -6  -8   1 511.330 24.4500   1
   6  -8  -1 493.490 23.8400   1
   3   1 -24 109.930 30.6000   1
   3  -1 -24 131.600 8.79000   1
   9   7  -5 33.1000 10.0900   1
  -9   7   5 52.2100 15.7900   1
  -9  -7   5 24.9400 8.54000   1
  -9  -7   5 27.1900 8.81000   1
  -6   2  23 247.330 18.1200   1
   6  -2 -23 210.630 12.8700   1
   6   2 -23 239.200 13.8300   1
   6   2 -23 202.060 12.0400   1
  -6  -8   3 361.260 17.5500   1
   6  -8  -3 375.430 19.7200   1
  -6   8   3 392.540 20.1300   1
   6   8  -3 420.660 20.4200   1
   6  -8  -3 360.870 19.4400   1
  -6  -8   3 407.300 19.7300   1
  -1   5 -19 -0.4900 4.64000   1
   1  -5  19 23.2100 8.21000   1
  -1  -5 -19 8.41000 5.07000   1
   1   5  19 -0.5600 5.19000   1
   1   5  19 21.3000 7.52000   1
   8  -2 -22 406.870 21.6900   1
   8   2 -22 397.800 20.7600   1
  -8   2  22 363.270 27.6900   1
  -6   4 -17 78.3200 43.1400   1
  -6  -4 -17 15.4300 6.77000   1
   6   4  17 16.6400 6.70000   1
  -6  -4 -17 10.7400 6.22000   1
  15   1  -9 14.2500 5.91000   1
 -15  -1   9 22.7600 9.69000   1
  15  -1  -9 16.1500 6.00000   1
   6   8   0 566.440 26.5500   1
  -6  -8   0 530.310 24.7700   1
   6  -8   0 489.920 25.8800   1
  -6  -8   0 547.370 25.7100   1
  -6   8   0 466.230 23.1200   1
  -6  -8   4 408.210 19.8800   1
  -6  -8   4 449.390 21.3600   1
   6  -8  -4 424.020 21.7400   1
  -6   8   4 446.510 23.7200   1
   6   8  -4 501.030 23.9600   1
  12   0  11 -5.2800 3.62000   1
 -12   0 -11 -19.900 7.79000   1
  11   5 -13 59.3400 16.9000   1
 -11   5  13 113.010 21.3100   1
 -11  -5  13 48.1900 13.8200   1
 -11  -5  13 69.9300 19.9500   1
 -10  -2 -14 172.800 11.3600   1
  10   2  14 170.980 10.2300   1
 -10   2 -14 131.630 19.3800   1
  -9  -7   0 540.990 25.4100   1
  -9  -7   0 565.140 26.2400   1
  -9   7   0 527.590 63.0400   1
   9   7   0 548.380 25.4200   1
  -9   7   0 459.140 25.2100   1
  -4   2 -21 55.4300 24.6200   1
  -4  -2 -21 34.2800 10.4600   1
  -4   2 -21 37.1600 12.8400   1
  -4  -2 -21 30.2900 10.2300   1
 -11  -5  -6 246.460 13.5100   1
 -11  -5  -6 249.140 13.0100   1
 -11   5  -6 197.450 26.2200   1
  11   5   6 269.870 13.7700   1
   4  -8   6 269.330 15.0000   1
  -4  -8  -6 317.240 17.2100   1
  -4  -8  -6 316.090 16.0900   1
   4   8   6 265.370 13.9100   1
  -7  -7  -7 262.800 13.5600   1
   7  -7   7 276.680 15.2100   1
   7   7   7 262.180 13.7000   1
  -7  -7  -7 257.910 13.4300   1
 -12   2 -10 867.500 45.4200   1
 -12  -2 -10 835.890 39.9700   1
  12   2  10 984.920 45.3700   1
 -12  -2 -10 907.550 42.7800   1
  -8   2 -17 77.3800 21.9400   1
   8   2  17 54.1600 15.6500   1
  -8   2 -17 94.3800 31.3100   1
  -8  -2 -17 60.8800 17.8600   1
  -7  -5 -14 15.0000 6.73000   1
   7   5  14 10.0300 5.44000   1
  -7  -5 -14 4.81000 3.96000   1
  -7  -5 -14 9.42000 5.91000   1
  -9  -7   6 113.550 14.9100   1
  -9   7   6 107.760 30.6500   1
   9   7  -6 103.210 28.6800   1
  -9  -7   6 121.770 8.39000   1
 -11  -3  18 41.4700 12.3000   1
  11   3 -18 39.8600 11.7300   1
 -11   3  18 79.4500 27.9300   1
 -12  -4  14 197.910 10.7900   1
 -12   4  14 163.170 19.9000   1
  12   4 -14 213.120 11.5200   1
   3   5  18 18.6300 6.96000   1
  -3   5 -18 24.0400 8.38000   1
   3   5  18 6.85000 5.26000   1
   3  -5  18 9.49000 5.85000   1
  -3  -5 -18 22.6000 8.36000   1
 -10   6  11 124.050 13.1200   1
 -10  -6  11 86.1400 24.1000   1
 -10  -6  11 86.1000 24.0500   1
  10   6 -11 87.5100 24.4500   1
 -11  -3 -11 177.030 11.3600   1
 -11  -3 -11 198.780 12.8900   1
 -11   3 -11 182.400 19.3100   1
  11   3  11 184.900 10.6500   1
  -6   0 -20 174.620 11.3400   1
  -6   0 -20 155.080 14.1500   1
   9  -1 -22 56.5400 16.2500   1
   9   1 -22 52.2300 15.1400   1
   9   1 -22 45.7200 13.3000   1
   9  -1 -22 35.2100 10.9600   1
  -9   1  22 60.3500 23.7900   1
  -1  -3 -22 911.730 42.0800   1
   1  -3  22 880.790 42.1800   1
  -1  -3 -22 874.390 41.9400   1
  -1   3 -22 870.150 74.2900   1
  -1   3 -22 904.610 42.0500   1
 -13  -3  14 231.130 12.9100   1
  13   3 -14 206.400 12.4600   1
 -13   3  14 264.070 26.7900   1
 -15  -1   0 140.540 9.11000   1
  15   1   0 176.500 10.8400   1
 -15  -1   0 158.230 9.81000   1
 -15   1   0 161.100 10.7300   1
  -6   8  -1 323.730 17.1200   1
   6  -8   1 350.720 19.2800   1
  -6  -8  -1 360.390 17.7100   1
   6   8   1 398.350 19.3100   1
  -6  -8  -1 383.990 19.1100   1
  -4  -4 -19 797.900 37.5900   1
  -4   4 -19 808.930 40.4100   1
  -4   4 -19 1015.97 84.3300   1
  -4  -4 -19 667.560 32.9400   1
   4   4  19 711.980 34.1100   1
  11   1 -20 188.900 12.2900   1
  11  -1 -20 152.850 11.2800   1
  11  -1 -20 193.910 13.8000   1
 -11   1  20 188.430 23.9800   1
  -2   0 -23 12.2400 11.9800   1
  -2   0 -23 -7.1300 5.09000   1
  -6  -4  21 52.1200 15.1900   1
   6   4 -21 48.3000 14.2100   1
   6  -4 -21 42.7100 12.4700   1
  -6   8   5 122.710 8.59000   1
   6   8  -5 129.680 8.25000   1
   6  -8  -5 125.400 8.50000   1
  -6  -8   5 159.680 9.43000   1
  -6  -8   5 108.920 30.2200   1
 -11   1 -13 819.720 43.1400   1
  11   1  13 755.820 36.4100   1
 -11  -1 -13 814.160 39.2800   1
   3  -5 -20 243.860 13.6600   1
  -3  -5  20 238.360 13.0600   1
  -3   5  20 249.150 16.7000   1
   3   5 -20 243.450 14.2900   1
   5   1 -24 38.7400 11.9700   1
   5   1 -24 37.7800 11.2600   1
   5  -1 -24 51.9300 15.0500   1
 -14  -2  -4 334.560 18.7000   1
 -14   2  -4 282.930 19.3200   1
 -14  -2  -4 341.050 17.3000   1
  14   2   4 361.870 19.1900   1
   4   6  15 157.190 9.70000   1
  -4  -6 -15 136.470 9.18000   1
   4  -6  15 156.560 9.88000   1
  10   0  15 3.93000 3.82000   1
 -10   0 -15 8.07000 8.94000   1
   1   7  14 51.5400 14.9200   1
   1  -7  14 22.2600 8.40000   1
  -1  -7 -14 38.4800 11.5900   1
  -1   7 -14 37.2200 11.1900   1
   1   7  14 30.3600 10.0400   1
  -3  -3 -21 243.970 14.9100   1
  -3   3 -21 178.450 34.0500   1
  -3   3 -21 261.580 15.7700   1
  -3  -3 -21 238.970 13.8300   1
   2   8 -10 320.860 16.5500   1
  -2  -8  10 342.020 18.1700   1
   2  -8 -10 362.080 18.3900   1
  -2   8  10 296.170 15.3600   1
  -2   8  10 287.450 15.5400   1
  -2  -8  10 306.360 16.1400   1
 -14  -2  13 380.000 18.6500   1
  14  -2 -13 339.170 17.6600   1
  14   2 -13 402.740 20.0600   1
  -9   7  -1 106.340 29.7200   1
  -9   7  -1 27.0200 49.0000   1
  -9  -7  -1 144.510 8.57000   1
  -9  -7  -1 131.790 8.17000   1
   9   7   1 144.930 9.10000   1
  -9  -5 -11 13.1500 6.55000   1
   9   5  11 15.1100 5.78000   1
  -9  -5 -11 8.14000 4.54000   1
  -9   5 -11 47.4600 32.3500   1
  -9  -5 -11 40.1400 12.0800   1
   1  -1 -24 35.5200 10.8600   1
   1   1 -24 21.7900 7.36000   1
  -8   0  23 -64.250 17.9500   1
   8   0 -23 8.60000 6.09000   1
   8   0 -23 -5.8200 4.22000   1
  -4  -8   9 95.6900 26.8600   1
   4   8  -9 50.5500 14.4600   1
  -4   8   9 38.5400 12.0300   1
   4  -8  -9 67.2200 19.2400   1
  -4  -8   9 58.7800 16.9600   1
  15  -1 -10 11.8900 5.30000   1
 -15   1  10 2.57000 4.93000   1
  15   1 -10 11.8500 5.06000   1
 -10  -6  -5 1176.21 52.6200   1
 -10  -6  -5 1332.92 162.940   1
 -10   6  -5 1253.36 92.1900   1
  10   6   5 1397.30 170.790   1
   9   7  -7 17.0500 6.21000   1
  -9   7   7 19.3700 9.41000   1
  -9  -7   7 12.9300 5.28000   1
 -13  -3  -6 871.800 40.3700   1
 -13  -3  -6 853.180 39.4700   1
  13   3   6 885.980 40.4500   1
 -13   3  -6 845.100 45.4400   1
   0   8 -10 279.710 15.1400   1
   0  -8 -10 308.760 15.8800   1
   0  -8  10 270.960 14.2600   1
   0  -8  10 307.370 16.3700   1
   0   8  10 306.770 16.8200   1
   0   8  10 316.000 16.3600   1
   6   0 -24 643.420 30.7500   1
  -6   0  24 582.650 38.2800   1
  -8  -6  15 66.3700 18.9100   1
  -8  -6  15 33.0400 10.9000   1
   8   6 -15 42.5600 12.4500   1
  -8   6  15 53.4100 17.1300   1
  -3   3  23 105.770 29.7900   1
   3  -3 -23 161.110 9.59000   1
   3   3 -23 158.870 9.91000   1
  -3  -3  23 169.870 10.6200   1
   3   3 -23 128.360 8.49000   1
  12   0 -19 11.6300 5.79000   1
  12   0 -19 -3.4300 4.31000   1
  12   2 -18 306.170 16.3300   1
  12  -2 -18 287.430 16.7800   1
 -12  -2  18 325.170 16.6200   1
 -12   2  18 305.700 30.6600   1
  -7  -3  22 31.6000 9.78000   1
  -7   3  22 39.0600 15.0300   1
   7   3 -22 27.6300 9.17000   1
   7  -3 -22 44.9800 13.1300   1
  -6  -8  -2 417.160 21.3400   1
  -6   8  -2 350.170 17.9600   1
  -6  -8  -2 379.530 24.1700   1
   6  -8   2 420.450 21.9700   1
   6   8   2 465.000 22.1400   1
  -6  -6 -13 876.920 40.3600   1
   6   6  13 839.370 38.2400   1
  -6   6 -13 743.780 68.5000   1
   6  -6  13 757.720 36.1500   1
  -6  -6 -13 718.310 34.7100   1
  -1  -5  20 352.040 20.8700   1
   1   5 -20 337.920 18.1600   1
  -1   5  20 391.630 20.1700   1
  -1   5  20 373.870 20.1300   1
  -7  -7  12 49.9900 14.6400   1
  -7  -7  12 68.6500 19.5400   1
  -7   7  12 21.9100 9.21000   1
   7   7 -12 43.7900 12.8700   1
  -8   0 -18 416.320 27.6500   1
   8   0  18 423.030 21.3100   1
   7   1  19 549.950 27.3300   1
  -7  -1 -19 601.540 32.2600   1
  -7   1 -19 579.970 29.8800   1
  -7   1 -19 571.360 35.9000   1
   8  -4 -20 172.320 11.9400   1
   8   4 -20 179.280 11.0200   1
  -8   4  20 162.170 14.8000   1
  -8  -4  20 181.310 10.3600   1
  -2  -8  -9 8.77000 5.66000   1
   2  -8   9 6.19000 5.39000   1
   2   8   9 -5.1400 4.50000   1
   2  -8   9 -4.4300 5.62000   1
  -6  -8   6 31.4300 10.0200   1
   6  -8  -6 34.5800 10.8500   1
  -6  -8   6 31.9700 11.1800   1
  -6   8   6 32.4900 10.7100   1
  -5  -7  14 120.450 16.0700   1
   5   7 -14 137.390 8.68000   1
  -5   7  14 146.890 10.6200   1
  -5  -7  14 128.430 9.46000   1
   0   0 -24 760.540 36.1700   1
  13   1 -17 907.290 42.3800   1
  13  -1 -17 786.730 37.4900   1
  13  -1 -17 811.250 40.2500   1
 -10   4  18 31.2400 17.9700   1
 -10  -4  18 52.6300 15.3900   1
  10   4 -18 58.0500 16.6400   1
  -8  -6 -10 -7.2700 4.43000   1
  -8  -6 -10 0.71000 3.93000   1
  -8   6 -10 -3.9100 43.6400   1
   8   6  10 16.8800 6.35000   1
  -2   6  18 46.3400 13.7900   1
  -2   6  18 29.4300 9.16000   1
   2   6 -18 46.3700 13.4300   1
  -2  -6  18 19.2800 7.26000   1
 -14   0  -6 19.4000 8.43000   1
  -5  -1 -21 58.7300 16.7000   1
  -5   1 -21 45.9700 13.7100   1
  -5  -1 -21 37.6700 12.7600   1
  -5   1 -21 53.6300 20.5300   1
  -9  -5  17 23.0300 7.62000   1
  -9   5  17 0.84000 10.3700   1
   9   5 -17 21.8900 7.50000   1
 -15  -1  -1 343.480 18.3200   1
 -15  -1  -1 306.260 16.6700   1
 -15   1  -1 296.140 16.8400   1
   3   7  13 109.380 30.2600   1
   3  -7  13 119.990 16.0000   1
  -3  -7 -13 140.160 9.19000   1
  14   0 -15 5.85000 4.31000   1
  -8   4 -15 868.330 55.1500   1
   8   4  15 942.290 43.2500   1
  -8  -4 -15 868.070 40.5400   1
  -8  -4 -15 869.920 41.1700   1
  -9  -3 -15 29.1500 9.32000   1
  -9  -3 -15 9.39000 6.70000   1
  -9   3 -15 14.1900 17.0400   1
   9   3  15 17.4300 6.62000   1
  12   4   7 299.460 15.2900   1
 -12  -4  -7 263.840 13.7600   1
 -12   4  -7 258.230 25.4500   1
 -12  -4  -7 298.600 16.3100   1
  -9   7  -2 -7.2700 50.6900   1
  -9  -7  -2 110.720 30.6000   1
   9   7   2 122.990 7.42000   1
  -9  -7  -2 100.690 28.0700   1
  -9   7  -2 107.790 30.1000   1
  -6   6  17 387.780 21.3500   1
  -6   6  17 386.610 20.9400   1
  -6  -6  17 373.290 19.5000   1
   6   6 -17 380.540 18.7300   1
  -6  -6  17 394.160 19.3000   1
   4   8   7 543.020 25.6400   1
   4  -8   7 465.720 23.5600   1
  -4  -8  -7 550.960 26.5400   1
  -4  -8  -7 514.300 24.9400   1
  -4   0 -22 315.260 17.6600   1
  -4   0 -22 306.800 25.0500   1
  -1   7  15 338.150 17.2100   1
  -1   7  15 375.930 19.8900   1
   1  -7 -15 395.760 20.5400   1
   1   7 -15 371.200 19.4200   1
  -1  -7  15 329.760 17.9000   1
  -5  -7 -11 75.5100 21.2600   1
   5  -7  11 52.1500 15.8000   1
   5   7  11 64.8100 18.3400   1
  -5  -7 -11 68.4200 19.3900   1
  -3   7  15 84.6500 23.8000   1
  -3   7  15 76.1900 21.7300   1
  -3  -7  15 89.1000 25.2900   1
   3   7 -15 80.8600 22.6100   1
  -3  -7  15 83.7500 23.6600   1
  -9  -7   8 22.9700 7.78000   1
  -9  -7   8 17.3100 6.94000   1
  -9   7   8 14.2100 8.04000   1
   9   7  -8 19.9100 6.73000   1
 -10  -6  12 -6.3100 4.70000   1
  10   6 -12 23.5600 7.62000   1
 -10   6  12 57.3500 19.1800   1
 -10  -6  12 30.6100 9.86000   1
   7   5 -19 1.50000 4.11000   1
  -7   5  19 18.6600 10.1400   1
   7  -5 -19 3.65000 5.14000   1
  -7  -5  19 -11.760 4.79000   1
  -6   8  -3 66.1700 18.6300   1
   6  -8   3 82.7100 23.4200   1
  -6  -8  -3 101.910 28.2300   1
  -6  -8  -3 89.3200 25.1100   1
   6   8   3 105.020 29.0500   1
  15   1 -11 401.190 20.0500   1
  15  -1 -11 389.460 20.3000   1
 -15  -1  11 469.850 22.9600   1
  -5  -5  20 1057.62 48.1100   1
  -5   5  20 1057.49 50.7600   1
   5   5 -20 1073.83 49.1800   1
   5  -5 -20 954.020 44.5200   1
  -1   3  23 -0.6100 4.87000   1
   1  -3 -23 -0.5700 4.25000   1
  -1  -3  23 13.6000 6.53000   1
   1   3 -23 59.2500 38.9300   1
   1   3 -23 9.72000 6.40000   1
  13   1   9 498.620 25.9700   1
 -13  -1  -9 543.310 27.4700   1
 -13   1  -9 516.540 28.4000   1
 -11  -5  14 232.010 12.0500   1
 -11   5  14 190.610 19.1900   1
  11   5 -14 213.310 11.7700   1
  -7  -7  -8 617.310 29.4600   1
   7   7   8 642.660 29.8700   1
   7  -7   8 577.100 28.6800   1
  -7  -7  -8 597.890 28.0600   1
  -4   6  18 157.890 10.5700   1
  -4  -6  18 144.530 8.93000   1
   4   6 -18 126.880 8.60000   1
 -11  -5  -7 -1.9900 4.55000   1
 -11   5  -7 -9.1900 22.4300   1
  11   5   7 -7.7900 4.47000   1
 -11  -5  -7 3.24000 5.37000   1
   4   2 -24 20.5000 6.79000   1
  -4   2  24 8.39000 7.31000   1
   4   2 -24 -0.1100 4.65000   1
   4  -2 -24 1.97000 4.14000   1
   2  -4 -22 57.9200 16.4700   1
   2   4 -22 66.6200 18.9500   1
  -2   4  22 40.2700 12.2500   1
  -2  -4  22 54.2000 15.7900   1
  -5   3  23 232.150 18.4700   1
   5   3 -23 292.850 15.7500   1
   5  -3 -23 300.400 16.3000   1
  -5  -3  23 306.910 16.2900   1
  -6  -8   7 -3.8700 5.11000   1
   6  -8  -7 12.5100 6.59000   1
  -6  -8   7 -2.4600 5.06000   1
  -6   8   7 11.7600 6.14000   1
   6   8  -7 9.30000 4.63000   1
   2  -2 -24 87.4200 24.6500   1
  -2  -2  24 102.640 28.6100   1
   2   2 -24 89.0700 24.9000   1
  10  -2 -21 65.1500 18.5000   1
 -10   2  21 54.5000 25.0100   1
  10   2 -21 69.7500 19.8900   1
  -4  -4  22 81.7700 23.0200   1
  -4   4  22 61.2300 18.8800   1
   4   4 -22 80.9800 22.9400   1
   4  -4 -22 70.8500 19.9500   1
 -14  -4   4 8.42000 4.72000   1
  14   4  -4 16.5800 6.11000   1
 -14  -4   4 5.69000 4.66000   1
 -14   4   4 3.76000 20.8500   1
 -14   4   4 19.9900 9.15000   1
 -14  -4   5 9.87000 5.27000   1
 -14   4   5 -6.7300 17.6400   1
  14   4  -5 13.8900 5.73000   1
 -14  -4   5 7.47000 4.96000   1
   2   6  17 806.700 37.3400   1
  -2   6 -17 827.770 40.3300   1
   2  -6  17 778.660 37.4500   1
   2   6  17 751.940 35.5400   1
  -2  -6 -17 842.910 39.5800   1
  12   4 -15 899.070 41.1500   1
 -12   4  15 1030.29 74.7300   1
 -12  -4  15 928.190 41.9200   1
  14   2   5 175.070 10.7100   1
 -14   2  -5 143.320 11.9600   1
 -14  -2  -5 162.290 10.0800   1
 -14  -2  -5 203.710 11.7400   1
  -4  -8  10 55.2000 15.9000   1
  -4   8  10 67.7000 19.3000   1
  -4  -8  10 63.8900 18.6100   1
   4  -8 -10 53.8700 15.6900   1
   4   8 -10 72.1000 20.4400   1
 -10  -4 -12 21.6200 7.50000   1
 -10   4 -12 48.3500 23.1400   1
 -10  -4 -12 3.82000 5.59000   1
  10   4  12 20.1600 7.01000   1
 -13  -3  15 28.6900 10.8300   1
  13   3 -15 -0.1500 4.64000   1
 -13   3  15 73.3500 29.7300   1
  13   5  -4 578.820 27.5000   1
 -13  -5   4 546.400 25.9400   1
 -13  -5   4 516.000 24.3300   1
 -13   5   4 428.640 32.2600   1
 -14   4   3 3.94000 15.2800   1
 -14   4   3 5.86000 8.31000   1
 -14  -4   3 -6.9900 4.93000   1
  14   4  -3 24.0200 7.77000   1
 -14  -4   3 10.5400 5.33000   1
  14   2 -14 287.660 15.4500   1
 -14  -2  14 261.950 14.2100   1
  14  -2 -14 248.450 14.5400   1
  14   4  -6 10.3800 5.27000   1
 -14   4   6 -9.0900 20.0500   1
 -14  -4   6 6.35000 4.40000   1
 -14  -4   6 2.17000 4.66000   1
  -9  -3  21 45.1600 13.4100   1
   9  -3 -21 38.2300 11.8600   1
  -9   3  21 13.2500 13.9100   1
   9   3 -21 49.3800 14.5900   1
 -13  -5   5 12.2700 6.23000   1
  13   5  -5 12.7900 5.43000   1
 -13  -5   5 17.3000 6.22000   1
 -13   5   5 24.7300 18.0700   1
 -10  -6  -6 37.1200 11.3900   1
 -10  -6  -6 45.3200 13.2000   1
 -10   6  -6 79.4800 42.3200   1
  10   6   6 76.2100 21.3200   1
 -13  -5   3 13.4500 6.07000   1
 -13  -5   3 8.51000 5.08000   1
  13   5  -3 13.5600 5.45000   1
 -13   5   3 4.58000 10.9400   1
 -13   5   3 -8.2400 13.6600   1
  -2  -8  11 395.590 20.2400   1
   2  -8 -11 426.840 21.8600   1
  -2   8  11 428.880 21.6800   1
   2   8 -11 415.270 21.0500   1
  -2   8  11 407.840 21.4800   1
  -2  -8  11 403.250 20.5700   1
   9   7   3 5.55000 4.95000   1
  -9   7  -3 -112.37 44.1600   1
  -9  -7  -3 8.15000 4.49000   1
  -9  -7  -3 -1.2700 4.05000   1
   0  -6 -18 20.0900 7.56000   1
   0   6  18 18.1100 7.19000   1
   0   6  18 10.5600 5.35000   1
   0   6 -18 8.07000 4.75000   1
  -5  -5 -17 38.6800 12.1100   1
   5  -5  17 46.7500 14.2300   1
  -5   5 -17 -11.300 63.5300   1
   5   5  17 64.1900 18.2900   1
 -15  -1  -2 -0.4700 5.82000   1
 -15  -1  -2 5.61000 5.55000   1
 -15   1  -2 4.92000 6.34000   1
 -13   5   6 838.900 52.8600   1
 -13  -5   6 809.120 37.1000   1
 -13  -5   6 735.420 34.3000   1
  13   5  -6 802.990 36.4300   1
 -14   4   2 19.8300 9.17000   1
 -14  -4   2 32.5200 6.00000   1
 -14   4   2 39.3500 19.2600   1
  14   4  -2 50.5300 7.77000   1
 -14  -4   2 36.3700 11.1900   1
  -5   3 -20 39.4600 7.37000   1
  -5  -3 -20 48.7700 11.8700   1
  -5   3 -20 32.6600 27.9600   1
   5   3  20 28.9900 6.45000   1
  -5  -3 -20 37.6700 7.15000   1
  10   0 -22 156.870 10.0800   1
  10   0 -22 169.490 10.6300   1
 -10   0  22 71.2000 22.2900   1
  14   4  -7 225.900 12.5100   1
 -14   4   7 97.6500 24.9400   1
 -14  -4   7 223.690 12.6500   1
 -14  -4   7 187.250 11.3100   1
 -13  -5   2 108.110 14.4000   1
  13   5  -2 117.620 7.93000   1
 -13  -5   2 98.4300 13.2100   1
 -13   5   2 136.710 16.2300   1
 -13   5   2 80.4700 15.8600   1
  -7  -3 -18 492.770 25.5900   1
  -7  -3 -18 513.210 26.5600   1
  -7   3 -18 480.030 40.2300   1
   7   3  18 601.960 29.8800   1
  -7   3 -18 551.240 29.8300   1
   9   7  -9 41.8600 6.68000   1
  -9   7   9 45.3700 9.33000   1
  -9  -7   9 52.2100 8.64000   1
  -9  -7   9 32.9600 5.87000   1
 -12   2 -11 173.900 16.8900   1
 -12  -2 -11 188.680 12.2300   1
 -12  -2 -11 213.750 12.8400   1
  12   2  11 214.850 13.2900   1
  -6  -8  -4 54.3900 8.63000   1
  -6  -8  -4 55.2300 8.20000   1
   6   8   4 55.2900 8.02000   1
   6  -8   4 53.5200 8.87000   1
   0   8 -11 327.460 18.4700   1
   0   8  11 338.540 18.0300   1
   0   8  11 306.750 17.2100   1
   0  -8  11 273.550 15.3700   1
   0  -8 -11 343.070 18.6300   1
   0  -8  11 292.890 15.9400   1
 -13  -3  -7 280.570 16.1100   1
 -13   3  -7 268.860 20.4500   1
 -13  -3  -7 290.770 16.7600   1
  13   3   7 331.430 18.1700   1
  12   0  12 550.510 29.0700   1
 -12   0 -12 590.630 31.4900   1
   7   7 -13 97.5400 13.1200   1
  -7  -7  13 75.1300 11.2800   1
  -7   7  13 67.3900 11.3000   1
  -7  -7  13 96.4700 12.9400   1
 -11  -3  19 341.310 17.8900   1
 -11   3  19 381.390 32.0300   1
  11   3 -19 361.900 18.5900   1
   9   1  17 32.5300 6.27000   1
   9  -1  17 17.3100 4.77000   1
  -9  -1 -17 -1.7500 7.29000   1
  -9   1 -17 -5.3800 10.2300   1
  -6  -2 -20 298.550 18.8200   1
  -6   2 -20 277.340 28.4100   1
   6   2  20 311.350 17.7600   1
  -6   2 -20 310.970 17.7300   1
   2   8  10 0.41000 4.34000   1
   2  -8  10 -3.5300 5.00000   1
  -2  -8 -10 -16.150 4.98000   1
 -11  -3 -12 503.830 25.6900   1
 -11   3 -12 474.380 34.2500   1
 -11  -3 -12 556.710 28.8400   1
  11   3  12 530.520 26.6200   1
  -2   4 -21 56.3700 41.7400   1
   2   4  21 3.23000 4.65000   1
   2   4  21 11.5500 4.52000   1
  -2   4 -21 14.5800 5.62000   1
   2  -4  21 10.2900 5.13000   1
  -2  -4 -21 -3.3900 4.48000   1
   6   8  -8 134.980 8.96000   1
  -6   8   8 78.2000 12.0300   1
  -6  -8   8 118.350 8.00000   1
   6  -8  -8 114.130 8.66000   1
  -6  -8   8 100.640 13.7200   1
 -13  -5   7 27.3700 5.81000   1
 -13  -5   7 18.2200 5.31000   1
  13   5  -7 18.2200 5.77000   1
 -13   5   7 22.9200 16.1300   1
  15   1 -12 20.1400 4.65000   1
 -15  -1  12 18.3400 4.58000   1
  15  -1 -12 20.2500 5.48000   1
  -4  -8  -8 563.070 28.9300   1
   4   8   8 553.450 27.2300   1
   4  -8   8 500.900 35.8700   1
  -4  -8  -8 572.010 28.1700   1
  -2  -2 -23 59.7900 9.33000   1
  -2   2 -23 52.8200 8.88000   1
  -2   2 -23 78.4000 22.9200   1
  -2  -2 -23 51.9700 8.45000   1
  13   5  -1 1.29000 4.21000   1
 -13  -5   1 13.9200 4.68000   1
 -13  -5   1 9.79000 4.71000   1
 -13   5   1 2.46000 11.4200   1
 -13   5   1 23.8300 13.4700   1
 -14  -4   1 346.030 18.1200   1
 -14  -4   1 407.230 20.7400   1
 -14   4   1 352.900 24.7700   1
 -14   4   1 369.520 33.4300   1
  14   4  -1 350.590 18.0700   1
   7   1 -24 48.4400 7.97000   1
  -7   1  24 47.7500 15.8500   1
  -7  -1  24 42.9600 19.0600   1
   7  -1 -24 61.3700 9.48000   1
   7   1 -24 30.8800 6.16000   1
  14   4  -8 36.1000 6.42000   1
 -14   4   8 15.4200 21.2900   1
 -14  -4   8 51.8100 7.88000   1
  -7   5 -15 92.3900 47.1200   1
  -7  -5 -15 70.4200 10.8700   1
  -7  -5 -15 86.2500 12.0400   1
   7   5  15 81.4300 11.4000   1
  -7  -5 -15 76.1200 10.5900   1
  10   2  15 73.7700 10.4000   1
 -10   2 -15 53.6400 16.8500   1
 -10  -2 -15 74.7600 11.0000   1
   1   7  15 204.590 12.4700   1
   1   7  15 173.820 14.0900   1
  -1  -7 -15 232.490 13.5200   1
   1  -7  15 175.650 11.2000   1
  -1   7 -15 208.720 13.3400   1
  -9   5 -12 1004.78 70.6300   1
  -9  -5 -12 1071.44 51.6600   1
  -9  -5 -12 1106.18 52.1500   1
  -9  -5 -12 1043.12 49.1400   1
   9   5  12 1177.12 56.4000   1
 -14   0  -7 10.0500 6.40000   1
  -8  -6  16 12.1100 4.39000   1
  -8  -6  16 8.41000 5.17000   1
   8   6 -16 -13.810 3.55000   1
  -8   6  16 21.8300 9.74000   1
   1   5  20 998.070 48.4000   1
  -1   5 -20 999.710 49.3600   1
   1   5  20 987.150 47.3300   1
  -1  -5 -20 961.300 46.8300   1
   1  -5  20 870.350 43.0700   1
  -8   2  23 344.110 30.4500   1
   8  -2 -23 384.340 21.9200   1
   8   2 -23 379.500 20.4500   1
  -6  -4 -18 21.7600 5.67000   1
  -6   4 -18 -9.0200 31.6100   1
  -6  -4 -18 15.3100 4.79000   1
   6   4  18 34.5800 6.16000   1
  14   0 -16 14.5600 4.44000   1
   4   0 -25 -13.960 4.35000   1
 -10   6  13 24.7700 11.2100   1
 -10  -6  13 38.1000 6.82000   1
 -10  -6  13 25.6600 7.34000   1
  10   6 -13 58.7800 8.71000   1
  -1  -1 -24 66.6800 10.1600   1
  -1   1 -24 68.3000 10.1700   1
  -1   1 -24 57.1700 23.6700   1
  -1  -9   0 -6.7300 5.70000   1
   1  -9   0 27.3400 6.24000   1
  -1  -9   0 2.39000 5.45000   1
   1  -9   0 11.0900 5.69000   1
   1   9   0 4.10000 3.66000   1
  -5  -7  15 14.1000 5.53000   1
  -5  -7  15 18.6500 5.88000   1
   5   7 -15 1.20000 5.21000   1
  -5   7  15 -2.1200 5.84000   1
   1  -9  -1 581.860 29.9200   1
  -1  -9   1 554.430 27.3200   1
   1  -9  -1 569.700 28.5100   1
  -1  -9   1 540.180 28.1200   1
   1   9  -1 576.650 28.6700   1
 -12  -4  -8 48.1800 8.26000   1
 -12  -4  -8 32.4700 6.30000   1
  12   4   8 26.5400 5.51000   1
  11  -1 -21 637.910 33.1700   1
  11   1 -21 661.510 32.9300   1
  11  -1 -21 639.690 32.6500   1
 -11   1  21 750.160 51.0300   1
   0  -4 -22 198.090 12.7700   1
   0   4 -22 198.950 12.4400   1
   0   4  22 183.670 12.4300   1
   0  -4  22 220.070 13.1900   1
  -8  -6 -11 257.860 14.7700   1
  -8   6 -11 141.850 52.7000   1
  -8  -6 -11 304.640 16.2000   1
   8   6  11 252.340 13.5100   1
  -4  -6 -16 -9.2400 4.39000   1
   4  -6  16 34.6000 9.96000   1
   4   6  16 22.9900 6.08000   1
   9   7   4 13.1900 4.97000   1
  -9  -7  -4 5.48000 4.28000   1
  -9  -7  -4 11.2100 4.90000   1
  13   1 -18 53.7100 8.34000   1
  13  -1 -18 52.0700 8.46000   1
  13  -1 -18 68.9900 9.94000   1
  11   1  14 168.880 11.2800   1
 -11  -1 -14 197.360 12.9800   1
 -11   1 -14 222.430 18.1400   1
  -3  -1 -23 852.890 43.4200   1
  -3   1 -23 893.530 61.5300   1
  -3   1 -23 812.440 40.9700   1
  -1  -9  -1 6.02000 5.47000   1
   1  -9   1 -2.8500 5.06000   1
  -1  -9  -1 10.9600 5.69000   1
   1   9   1 6.98000 4.00000   1
   1  -9   1 8.31000 4.81000   1
   2   0 -25 -10.160 4.49000   1
 -13  -5   8 974.770 45.9300   1
 -13  -5   8 928.450 44.1900   1
  13   5  -8 1054.41 49.3900   1
 -13   5   8 971.750 57.4200   1
   6   2 -24 736.110 37.7200   1
  -6   2  24 694.950 40.6200   1
   6   2 -24 721.680 36.0800   1
   6  -2 -24 749.830 37.6000   1
 -12   2  19 75.4000 23.5300   1
  12  -2 -19 38.9600 6.57000   1
  12   2 -19 66.1100 9.82000   1
 -15   3   5 476.950 40.0700   1
  15   3  -5 404.520 20.3900   1
 -15  -3   5 386.810 19.7900   1
 -15  -3   5 358.200 18.3900   1
  -1  -9   2 71.5300 10.7400   1
  -1   9   2 50.7200 9.16000   1
   1  -9  -2 79.8500 11.4300   1
  -1  -9   2 71.3300 10.5900   1
   1   9  -2 63.9100 9.40000   1
   1  -9  -2 76.3900 11.7500   1
 -15  -3   4 198.420 14.4200   1
 -15  -3   4 249.750 13.7300   1
 -15   3   4 169.840 13.0200   1
 -15   3   4 205.900 25.8500   1
  15   3  -4 247.210 13.6400   1
  -3  -5 -19 -6.8600 5.31000   1
  -3   5 -19 48.1700 48.7400   1
   3   5  19 -1.0200 3.83000   1
   3  -5  19 8.45000 6.58000   1
  -8  -2 -18 311.710 18.7300   1
   8   2  18 309.710 17.1200   1
  -8   2 -18 262.680 21.6000   1
  -8   2 -18 318.420 19.1400   1
 -15  -1  -3 36.3700 6.99000   1
 -15  -1  -3 29.3900 6.54000   1
 -15   1  -3 61.7500 9.82000   1
 -15  -3   6 340.670 18.1600   1
 -15  -3   6 354.260 18.4800   1
 -15   3   6 455.510 62.4200   1
  15   3  -6 435.100 23.9800   1
   6   6  14 62.0100 9.26000   1
   6  -6  14 32.3600 7.17000   1
  -6  -6 -14 44.0400 7.48000   1
  -6   6 -14 102.270 48.9600   1
  12   0 -20 46.2100 8.37000   1
  12   0 -20 74.5200 10.8400   1
  -7  -7  -9 164.890 10.5500   1
  -7  -7  -9 156.370 10.7400   1
   7  -7   9 157.820 11.0600   1
   7   7   9 174.510 10.0100   1
 -13  -5   0 1.67000 4.11000   1
  13   5   0 -5.2000 3.56000   1
 -13  -5   0 -2.2600 4.46000   1
 -13   5   0 32.8300 11.3000   1
 -13   5   0 1.50000 15.3600   1
   0  -2 -24 228.020 14.1100   1
   0   2 -24 233.580 15.0500   1
   0   2 -24 256.100 38.6600   1
 -11  -5  15 -13.280 4.12000   1
  11   5 -15 -1.4700 4.63000   1
 -11   5  15 -10.710 14.0200   1
   4   8 -11 -5.1600 4.82000   1
  -4   8  11 11.8700 6.18000   1
  -4  -8  11 -6.7800 5.50000   1
  -4  -8  11 15.0800 5.87000   1
   4  -8 -11 8.98000 5.60000   1
   9  -1 -23 358.460 19.6700   1
  -9   1  23 241.680 25.1200   1
   9   1 -23 409.480 22.7400   1
   9   1 -23 336.370 18.2000   1
 -11  -5  -8 9.07000 4.74000   1
 -11  -5  -8 19.8900 6.12000   1
 -11   5  -8 65.0000 24.7100   1
  11   5   8 16.3000 4.59000   1
  14   4   0 152.170 9.12000   1
 -14  -4   0 147.540 10.0200   1
 -14  -4   0 167.640 10.5700   1
 -14   4   0 128.280 19.5300   1
 -14   4   0 104.610 17.3900   1
  -9  -7  10 232.040 13.2300   1
  -9  -7  10 247.120 13.4000   1
   9   7 -10 270.050 14.1300   1
  -9   7  10 247.940 16.4300   1
   1  -9   2 1.63000 5.46000   1
   1   9   2 8.79000 4.23000   1
  -1  -9  -2 9.66000 5.52000   1
  -1  -9  -2 1.82000 5.45000   1
   1  -9   2 30.4900 6.58000   1
  -5  -7 -12 416.120 21.0700   1
   5   7  12 370.740 19.1100   1
   5  -7  12 322.490 18.1700   1
 -14   4   9 829.840 57.0600   1
  14   4  -9 791.930 37.6400   1
 -14  -4   9 758.840 35.9400   1
  -6  -8  -5 10.9400 4.60000   1
  -6  -8  -5 -9.8300 3.77000   1
   6  -8   5 -9.0300 5.54000   1
   6   8   5 10.0400 3.97000   1
 -15  -3   3 228.590 13.2700   1
  15   3  -3 266.660 14.2900   1
 -15   3   3 279.320 29.0400   1
 -15   3   3 232.240 15.0300   1
 -15  -3   3 258.430 14.7600   1
   3   1 -25 733.200 36.8900   1
   3  -1 -25 814.070 40.5200   1
 -10   0 -16 386.980 22.3100   1
  10   0  16 424.920 23.7300   1
  10   4 -19 470.210 23.2700   1
 -10  -4  19 529.020 26.1600   1
 -10   4  19 446.350 29.7500   1
 -14  -2  -6 209.840 12.9400   1
  14   2   6 219.480 13.3600   1
 -14  -2  -6 200.340 12.2400   1
 -14   2  -6 202.140 15.6100   1
   9   5 -18 100.100 19.8500   1
  -9   5  18 137.050 15.6600   1
  -9  -5  18 85.8400 12.0800   1
  -3  -7 -14 558.590 27.5100   1
   3  -7  14 488.980 32.7900   1
   3   7  14 530.130 27.0500   1
  -6  -4  22 9.78000 4.99000   1
   6  -4 -22 5.63000 4.84000   1
  -6   4  22 15.5400 8.16000   1
   6   4 -22 -4.8100 5.13000   1
  -3   5  21 39.2800 8.38000   1
   3  -5 -21 35.9600 6.59000   1
  -3  -5  21 41.8600 7.46000   1
   3   5 -21 35.7400 6.51000   1
  -1  -9   3 684.700 33.6400   1
  -1  -9   3 662.660 32.8300   1
   1  -9  -3 682.310 34.2000   1
   1  -9  -3 709.490 34.6100   1
  -1   9   3 635.310 32.2100   1
   1   9  -3 718.090 35.0500   1
  14   2 -15 60.4200 8.87000   1
 -14   2  15 45.7500 23.4000   1
 -14  -2  15 46.3200 7.65000   1
  14  -2 -15 46.0400 7.39000   1
 -15  -3   7 33.5000 6.09000   1
 -15   3   7 43.4900 27.0800   1
  15   3  -7 24.0100 6.19000   1
  10   6   7 893.620 42.5600   1
 -10   6  -7 887.480 66.0000   1
 -10  -6  -7 832.340 39.9200   1
 -10  -6  -7 792.300 38.3000   1
  -4  -4 -20 207.830 12.9400   1
   4   4  20 194.580 12.4200   1
  -4   4 -20 179.960 14.3100   1
  -4   4 -20 325.340 39.9600   1
  -6  -8   9 63.9400 9.51000   1
   6  -8  -9 52.9200 8.85000   1
  -6  -8   9 47.5500 7.68000   1
   6   8  -9 69.7800 9.89000   1
  -6   8   9 62.9700 10.0500   1
  -4   2 -22 553.350 29.1400   1
  -4  -2 -22 522.590 27.3600   1
  -4   2 -22 544.720 44.3500   1
  12   6  -4 64.7600 9.42000   1
 -12  -6   4 47.4000 7.74000   1
 -12  -6   4 63.1000 9.14000   1
 -12   6   4 36.1500 11.5100   1
  -3   7  16 353.230 19.6900   1
  -3   7  16 329.030 18.6500   1
  -3  -7  16 338.940 18.4300   1
  -3  -7  16 363.850 19.1900   1
   3   7 -16 348.540 18.3400   1
 -12   4  16 108.360 20.8900   1
  12   4 -16 79.5500 11.2600   1
 -12  -4  16 80.6200 11.3700   1
  -1   7  16 472.760 24.6600   1
  -1   7  16 484.780 25.1600   1
   1  -7 -16 525.960 27.0400   1
   1   7 -16 530.320 27.3200   1
  -1  -7  16 496.890 26.2400   1
  13   3 -16 81.6000 12.4600   1
 -13   3  16 40.5300 22.4600   1
 -13  -3  16 71.2200 10.1900   1
  12   6  -3 702.950 33.3400   1
 -12  -6   3 658.840 32.0800   1
 -12  -6   3 668.650 32.1600   1
 -12   6   3 534.210 34.2300   1
  -6  -6  18 37.0500 7.71000   1
  -6  -6  18 37.9800 7.13000   1
  -6   6  18 -0.1700 6.65000   1
   6   6 -18 35.1400 6.51000   1
 -13  -1 -10 2.90000 5.42000   1
 -13   1 -10 31.4600 7.98000   1
  13   1  10 9.43000 5.93000   1
  -6   0 -21 23.6800 10.0200   1
  -6   0 -21 13.7800 5.19000   1
 -16   0   5 0.89000 4.25000   1
 -12  -6   5 439.500 21.8500   1
 -12  -6   5 499.460 25.0600   1
  12   6  -5 524.870 26.0200   1
 -12   6   5 469.490 30.4500   1
  -8  -4  21 563.270 28.2300   1
  -8   4  21 694.950 39.9700   1
   8  -4 -21 514.220 26.8800   1
   8   4 -21 602.200 31.3100   1
 -15  -3   2 508.950 26.1600   1
  15   3  -2 511.750 25.7200   1
 -15   3   2 543.530 43.8400   1
 -15   3   2 444.310 26.0900   1
 -15  -3   2 480.390 25.1200   1
  -2   8  12 109.110 14.7300   1
  -2   8  12 114.160 8.25000   1
   2   8 -12 119.550 7.98000   1
  -2  -8  12 110.310 14.9900   1
   2  -8 -12 147.630 9.38000   1
  -2  -8  12 98.8500 13.8600   1
 -13  -5   9 -12.190 4.92000   1
 -13  -5   9 -0.1100 4.05000   1
  13   5  -9 5.21000 4.68000   1
 -13   5   9 4.97000 13.7500   1
 -16   0   6 763.650 37.5300   1
  15  -1 -13 506.160 26.0200   1
 -15  -1  13 566.910 28.1800   1
  15   1 -13 500.040 25.5800   1
   1  -9   3 26.6100 6.96000   1
   1   9   3 9.02000 4.55000   1
   1  -9   3 3.22000 6.09000   1
  -1  -9  -3 6.20000 4.83000   1
  -1  -9  -3 -4.4300 5.30000   1
 -16   0   4 585.960 29.2500   1
  -1  -3 -23 126.400 9.42000   1
  -1   3 -23 122.990 9.32000   1
  -1   3 -23 161.940 36.8500   1
  -2  -6  19 518.910 26.5400   1
  -2   6  19 548.850 28.2700   1
   2   6 -19 554.980 29.6800   1
  -2   6  19 528.180 28.9100   1
   8   0 -24 572.730 30.1200   1
  -8   0  24 558.900 45.2600   1
   8   0 -24 561.160 30.4800   1
 -12  -6   2 -14.210 3.92000   1
 -12  -6   2 -10.640 4.42000   1
  12   6  -2 10.8600 5.15000   1
 -12   6   2 -2.4100 8.08000   1
  15   3  -8 68.3900 10.2500   1
 -15  -3   8 54.1100 8.78000   1
 -15   3   8 8.82000 24.8500   1
 -12  -6   6 -2.2700 4.45000   1
  12   6  -6 10.3300 4.22000   1
 -12   6   6 29.5000 12.0700   1
   1  -9  -4 395.000 20.3500   1
  -1  -9   4 320.670 17.0800   1
  -1  -9   4 380.710 20.2500   1
   1   9  -4 349.600 18.1900   1
  -1   9   4 343.180 17.9800   1
 -13  -5  -1 -8.0000 4.26000   1
 -13  -5  -1 8.16000 4.35000   1
  13   5   1 2.80000 4.38000   1
 -13   5  -1 16.7300 13.4800   1
 -16   0   7 6.78000 3.90000   1
  -7   3  23 33.4200 12.0400   1
   7   3 -23 28.4600 6.30000   1
  -7  -3  23 31.4800 6.82000   1
   7  -3 -23 21.7300 5.22000   1
   5  -1 -25 333.350 20.0100   1
   5   1 -25 357.970 19.6100   1
   5   1 -25 337.940 23.0700   1
  -1   5  21 7.31000 5.60000   1
  -1   5  21 14.5300 5.91000   1
  -1  -5  21 27.5700 6.73000   1
   1   5 -21 14.8300 5.61000   1
  -3   3 -22 223.010 30.1500   1
  -3  -3 -22 165.960 11.9700   1
  -3   3 -22 211.660 13.1100   1
  -3  -3 -22 174.600 11.7200   1
  -8   4 -16 107.450 28.6900   1
  -8  -4 -16 37.9500 7.62000   1
  -8  -4 -16 39.1300 7.16000   1
   8   4  16 30.6900 6.37000   1
 -16   0   3 -12.790 4.88000   1
  -9  -3 -16 26.9100 6.51000   1
  -9   3 -16 -0.4400 16.6500   1
  -9  -3 -16 3.42000 5.35000   1
   9   3  16 10.1000 4.85000   1
  14   4   1 1160.80 55.1200   1
 -14   4  -1 940.720 51.7900   1
 -14  -4  -1 1122.35 54.0400   1
 -14  -4  -1 1109.68 52.7500   1
  -2   0 -24 39.1000 7.83000   1
  14   4 -10 108.910 14.8100   1
 -14  -4  10 105.360 13.8600   1
 -14   4  10 121.450 19.9500   1
   4  -8   9 129.170 8.98000   1
   4   8   9 137.440 8.69000   1
  -4  -8  -9 142.960 9.00000   1
   0  -8 -12 413.190 21.5400   1
   0  -8  12 411.510 21.0900   1
   0  -8  12 433.700 22.8400   1
   0   8  12 376.490 20.2700   1
   0   8  12 412.700 21.6900   1
   0   8 -12 414.170 22.7000   1
  -8   0 -19 -11.520 9.32000   1
   8   0  19 6.43000 4.34000   1
  -7   5  20 257.220 18.6300   1
   7   5 -20 291.370 16.1800   1
  -7  -5  20 314.670 26.7200   1
   7  -5 -20 231.520 14.2000   1
   9   7   5 59.3500 8.59000   1
  -9  -7  -5 46.3700 7.46000   1
  -9   7  -5 207.220 48.6000   1
  -9  -7  -5 42.2000 6.87000   1
 -13  -3  -8 243.450 14.2700   1
  13   3   8 221.850 12.3600   1
 -13  -3  -8 270.350 15.3000   1
 -13   3  -8 285.160 20.3300   1
  -7  -7  14 224.690 13.0600   1
  -7  -7  14 196.710 11.0800   1
  -7   7  14 218.380 14.5100   1
   7   7 -14 195.030 11.2300   1
 -12   6   1 837.780 47.0500   1
 -12  -6   1 954.260 45.1300   1
 -12  -6   1 959.220 45.4300   1
 -12   6   1 776.960 55.4700   1
  12   6  -1 942.990 44.4000   1
 -15   3   1 234.620 35.9500   1
 -15  -3   1 288.060 15.7900   1
 -15   3   1 236.790 16.9800   1
 -15  -3   1 300.470 16.3400   1
  15   3  -1 307.310 16.0000   1
 -15  -3   1 268.980 14.5600   1
   2   8  11 59.4400 8.77000   1
   2  -8  11 81.9600 12.0500   1
  -2  -8 -11 42.1300 7.48000   1
  -4   6  19 368.340 21.6800   1
  -4   6  19 413.740 22.4600   1
  -4  -6  19 417.390 22.7300   1
   4   6 -19 491.820 25.6200   1
  -7   1 -20 190.580 20.3100   1
  -7  -1 -20 177.330 12.6800   1
   7   1  20 166.620 10.6900   1
  -7   1 -20 173.090 11.9900   1
   6   0 -25 16.1300 5.11000   1
   1   1 -25 280.560 16.8100   1
   1  -1 -25 273.960 15.3500   1
  -3   3  24 428.650 24.7900   1
  -3  -3  24 437.370 23.8800   1
   3  -3 -24 510.270 26.5100   1
   3   3 -24 542.720 27.8800   1
 -10  -4 -13 -0.0500 4.74000   1
 -10   4 -13 22.5800 26.6900   1
 -10  -4 -13 16.7500 5.51000   1
  10   4  13 27.6800 4.39000   1
 -16   0   8 799.120 39.7900   1
 -16   0   8 905.900 45.0100   1
  -1  -9  -4 150.910 10.1300   1
   1  -9   4 135.830 9.26000   1
   1   9   4 158.810 9.96000   1
   1  -9   4 141.960 9.64000   1
  -1  -9  -4 142.320 9.60000   1
  12   6  -7 53.4900 5.75000   1
 -12  -6   7 35.9900 5.09000   1
 -12  -6   7 60.7800 6.14000   1
 -12   6   7 48.4900 10.7100   1
  -3   9   1 646.740 32.5000   1
   3  -9  -1 586.590 31.9700   1
  -3  -9   1 609.130 30.3800   1
   3  -9  -1 652.980 32.8800   1
  -3  -9   1 610.390 31.0200   1
   3   9  -1 674.430 33.2400   1
 -16   0   2 59.8400 7.41000   1
 -16   0   2 73.5200 6.76000   1
  -5   5  21 14.3600 6.48000   1
   5  -5 -21 33.6500 4.41000   1
   5   5 -21 15.9000 5.08000   1
  -5  -5  21 24.2400 5.07000   1
  -3  -9   0 287.320 15.7000   1
   3  -9   0 273.160 16.9200   1
  -3  -9   0 251.440 14.1600   1
  -3   9   0 257.330 19.8100   1
   3   9   0 304.140 15.9200   1
   3  -9   0 284.180 16.3000   1
   3  -9  -2 51.3700 6.21000   1
  -3  -9   2 44.1300 5.36000   1
   3  -9  -2 42.9600 5.89000   1
  -3   9   2 56.1700 6.39000   1
   3   9  -2 36.8800 4.65000   1
  -3  -9   2 39.6200 5.63000   1
  15   3  -9 5.03000 4.07000   1
 -15   3   9 52.0100 26.2900   1
 -15  -3   9 36.8000 6.62000   1
  -6  -8  -6 13.6800 5.36000   1
  -6  -8  -6 9.78000 4.68000   1
   6  -8   6 -2.7200 6.06000   1
   6   8   6 4.24000 3.82000   1
  -9  -7  11 306.400 16.9600   1
   9   7 -11 274.530 14.9700   1
  -9   7  11 219.730 16.4400   1
  -9  -7  11 271.900 15.0700   1
 -15  -1  -4 -0.0200 4.93000   1
 -15   1  -4 4.53000 5.87000   1
 -15  -1  -4 -1.1500 5.13000   1
 -10   6  14 41.0900 10.0100   1
 -10  -6  14 10.7300 4.92000   1
 -10  -6  14 11.0000 4.79000   1
  10   6 -14 30.9900 5.25000   1
  10   2 -22 146.490 9.36000   1
 -10   2  22 109.750 25.8800   1
  10  -2 -22 114.250 8.67000   1
 -13  -5  10 188.550 11.2400   1
 -13  -5  10 172.400 10.2300   1
  13   5 -10 173.920 10.4600   1
 -13   5  10 233.710 23.2600   1
   2   6  18 6.65000 4.21000   1
  -2   6 -18 18.9000 6.12000   1
  -2  -6 -18 18.4500 5.35000   1
   2   6  18 2.64000 5.46000   1
   2  -6  18 18.6300 5.17000   1
   1   9  -5 930.990 45.4100   1
  -1   9   5 880.130 44.0300   1
  -1  -9   5 958.490 47.1100   1
  -1  -9   5 830.390 40.6800   1
   1  -9  -5 960.690 46.6800   1
 -14   0  -8 18.3600 5.77000   1
  -5  -1 -22 15.4000 7.53000   1
  -5   1 -22 -30.130 15.5900   1
  -5   1 -22 10.0200 4.87000   1
  -5  -1 -22 -4.4400 3.81000   1
 -12   2 -12 347.780 23.7900   1
 -12  -2 -12 313.900 17.7600   1
  12   2  12 348.470 19.3200   1
 -12  -2 -12 323.030 18.1200   1
   3  -9   1 883.410 43.0100   1
  -3  -9  -1 952.490 46.1600   1
  -3  -9  -1 944.120 46.6100   1
   3  -9   1 855.440 43.4800   1
   3   9   1 948.360 45.5400   1
  -3   9  -1 828.890 40.9400   1
   3  -9  -3 795.820 38.9500   1
  -3  -9   3 787.060 38.7600   1
  -3  -9   3 868.330 42.8000   1
   3   9  -3 751.600 36.7800   1
  -3   9   3 786.710 39.1000   1
   6   8 -10 111.210 7.67000   1
  -6   8  10 163.480 11.0300   1
  -6  -8  10 100.710 7.43000   1
  -6  -8  10 88.8800 7.76000   1
  12   6   0 16.8200 4.13000   1
 -12  -6   0 23.0100 4.59000   1
 -12  -6   0 19.1000 5.04000   1
   0   0 -25 1.90000 4.59000   1
  14   0 -17 -7.9700 3.97000   1
  14   0 -17 -0.3400 4.22000   1
   9  -3 -22 145.130 11.1800   1
   9   3 -22 142.550 10.1400   1
  -9   3  22 154.050 18.4700   1
 -13  -5  -2 214.020 11.8900   1
 -13  -5  -2 192.920 11.7300   1
  13   5   2 233.220 15.0200   1
 -13   5  -2 178.070 18.7800   1
  -8  -8   3 95.5300 6.68000   1
  -8  -8   3 105.560 7.52000   1
   8   8  -3 130.420 8.21000   1
  -8   8   3 93.5500 9.41000   1
  -8  -8   2 40.2100 5.87000   1
   8   8  -2 41.6100 4.50000   1
  -8   8   2 43.0300 6.20000   1
  -8  -8   2 45.0200 4.80000   1
  -4   8  12 49.2800 6.12000   1
  -4  -8  12 33.9600 6.07000   1
  -4  -8  12 49.8900 5.91000   1
 -16   0   9 -3.5700 4.34000   1
 -15  -3   0 363.800 20.0200   1
  15   3   0 335.230 17.8100   1
 -15   3   0 317.210 19.9200   1
 -15  -3   0 312.540 17.0200   1
 -15   3   0 329.920 35.0500   1
 -15  -3   0 355.350 19.0400   1
 -12  -4  -9 776.800 38.7100   1
 -12   4  -9 767.760 51.6800   1
  12   4   9 838.760 40.8200   1
 -12  -4  -9 734.170 36.4500   1
 -12   0 -13 -5.1500 6.57000   1
  12   0  13 10.6500 4.23000   1
   0   6  19 46.2300 5.66000   1
   0   6  19 55.8200 6.03000   1
   0   6 -19 31.9800 5.82000   1
   0  -6  19 47.0400 6.08000   1
 -12  -6   8 42.8000 4.70000   1
 -12  -6   8 25.1500 4.65000   1
  12   6  -8 35.3500 5.31000   1
 -12   6   8 16.8800 13.6700   1
 -11   3  20 385.240 29.4900   1
  11   3 -20 397.320 20.8500   1
 -11  -3  20 391.530 21.4000   1
  -4   0 -23 -15.920 8.86000   1
   8   6 -17 185.350 11.1500   1
  -8  -6  17 150.150 9.95000   1
  -8  -6  17 133.530 10.7400   1
  -8   6  17 180.130 14.8300   1
   2   4 -23 751.890 38.8700   1
   2  -4 -23 716.490 36.4200   1
  -2  -4  23 674.270 34.0000   1
  -2   4  23 683.670 36.3900   1
 -11  -3 -13 173.940 11.3200   1
  11   3  13 168.940 10.9900   1
 -11  -3 -13 189.200 13.0800   1
 -11   3 -13 205.780 21.4900   1
  -8   8   4 -6.6000 9.93000   1
   8   8  -4 5.01000 3.94000   1
  -8  -8   4 -2.0400 4.39000   1
  -8  -8   4 0.84000 4.96000   1
  14   4   2 93.2100 7.12000   1
 -14  -4  -2 103.150 7.47000   1
 -14  -4  -2 108.350 8.11000   1
 -14   4  -2 56.6700 14.4800   1
 -16   0   1 -6.2700 4.51000   1
 -16   0   1 -4.8800 6.37000   1
   5   3 -24 84.3300 7.68000   1
  -5   3  24 78.6300 11.3200   1
   5  -3 -24 90.6300 8.10000   1
  -5  -3  24 81.7600 7.47000   1
   8   8  -1 95.9400 6.86000   1
  -8   8   1 87.5700 7.46000   1
  -8  -8   1 87.1400 6.77000   1
  -8  -8   1 82.0800 6.67000   1
  -4   4  23 -10.200 6.41000   1
  -4  -4  23 -6.7400 5.51000   1
   4   4 -23 -2.8900 4.16000   1
   4  -4 -23 9.81000 4.78000   1
  -5   5 -18 809.760 64.7300   1
  -5  -5 -18 700.470 35.8100   1
   5   5  18 653.580 32.6100   1
  -7  -7 -10 218.230 13.0900   1
   7  -7  10 205.310 13.3100   1
   7   7  10 250.880 13.8300   1
  -7   7 -10 96.5200 59.9100   1
  -7  -7 -10 205.930 12.0900   1
 -14   4  11 370.070 34.0100   1
  14   4 -11 417.550 21.7800   1
 -14  -4  11 371.290 19.2200   1
  14   2   7 7.67000 4.27000   1
 -14  -2  -7 -19.380 4.64000   1
 -14  -2  -7 -3.0200 5.43000   1
 -14   2  -7 -1.9400 7.67000   1
  -3  -9  -2 114.040 7.85000   1
   3  -9   2 109.660 9.11000   1
   3  -9   2 129.870 9.09000   1
   3   9   2 113.160 9.78000   1
  -3  -9  -2 100.000 7.93000   1
  -5   7  16 111.100 10.2800   1
  -5  -7  16 110.480 8.39000   1
   5   7 -16 108.940 7.46000   1
  -5  -7  16 101.390 7.46000   1
   1   9   5 688.280 34.0400   1
   1  -9   5 669.810 33.6300   1
   1  -9   5 691.130 34.7700   1
  -1  -9  -5 663.560 33.2600   1
  15   1 -14 25.6100 4.82000   1
 -15  -1  14 25.9400 4.39000   1
  15  -1 -14 33.0000 4.83000   1
  -3  -9   4 69.2800 6.55000   1
   3  -9  -4 110.340 8.30000   1
  -3   9   4 66.4900 6.38000   1
  -3  -9   4 69.9000 6.41000   1
   3   9  -4 73.3400 6.84000   1
 -11  -5  16 19.9900 4.22000   1
 -11   5  16 10.5400 12.0200   1
  11   5 -16 12.7700 4.75000   1
  -1  -3  24 30.7900 6.30000   1
   1   3 -24 19.1000 10.1300   1
   1   3 -24 -1.9800 38.3200   1
   1  -3 -24 40.6600 5.17000   1
  -9   5 -13 81.2800 34.6900   1
  -9  -5 -13 53.2600 5.83000   1
  -9  -5 -13 52.1600 6.44000   1
  -9  -5 -13 25.1900 5.12000   1
   9   5  13 33.6800 4.79000   1
  10   6   8 8.49000 4.73000   1
 -10  -6  -8 -10.540 4.07000   1
 -10   6  -8 -17.260 36.8400   1
 -10  -6  -8 30.8100 5.73000   1
  11   5   9 -1.8400 4.14000   1
 -11  -5  -9 9.72000 4.50000   1
 -11   5  -9 -7.4600 27.0200   1
 -11  -5  -9 7.25000 4.66000   1
 -11  -5  -9 -3.9100 5.21000   1
  14   2 -16 1.95000 4.87000   1
  14  -2 -16 9.21000 4.96000   1
 -14   2  16 27.6600 20.9200   1
 -14  -2  16 10.8300 4.81000   1
   4   2 -25 91.4800 7.94000   1
   4   2 -25 83.9900 6.74000   1
   4  -2 -25 92.7700 7.74000   1
   8   6  12 -2.7000 5.01000   1
  -8   6 -12 -15.810 40.0700   1
  -8  -6 -12 4.47000 4.61000   1
  -8  -6 -12 -2.0100 4.62000   1
 -15  -3  10 106.330 7.72000   1
 -15   3  10 96.9600 28.8500   1
  15   3 -10 92.8100 7.19000   1
  -1  -7 -16 287.430 16.0600   1
   1   7  16 252.190 15.1000   1
   1   7  16 251.200 15.0100   1
   1  -7  16 222.000 13.5500   1
  -1   7 -16 240.880 15.1900   1
  10   0 -23 -11.600 5.19000   1
 -10   0  23 24.2800 20.6900   1
  10   0 -23 -6.0500 4.36000   1
  13  -1 -19 816.140 41.2800   1
  13  -1 -19 755.840 39.3800   1
  13   1 -19 817.650 41.6100   1
  -8  -8   5 52.1500 5.78000   1
  -8  -8   5 39.7700 5.72000   1
  -8   8   5 51.4000 6.83000   1
   8   8  -5 53.7100 6.26000   1
  -8  -8   0 169.520 10.0400   1
  -8  -8   0 153.140 9.35000   1
  -8   8   0 141.320 9.92000   1
   8   8   0 162.930 9.63000   1
   2   2 -25 10.4700 4.43000   1
   2  -2 -25 12.9900 4.88000   1
  12   6   1 510.110 25.2000   1
 -12  -6  -1 487.870 24.9100   1
 -12  -6  -1 454.760 22.8400   1
 -12   6  -1 383.890 35.8200   1
   1  -9  -6 52.4000 6.61000   1
  -1   9   6 57.2900 6.35000   1
  -1  -9   6 55.9800 6.22000   1
   1   9  -6 61.2800 6.23000   1
  -1  -9   6 21.4000 6.02000   1
  -7  -5 -16 323.350 20.1400   1
   7   5  16 403.640 21.5100   1
  -7  -5 -16 394.660 21.5500   1
  -7   5 -16 445.860 48.1800   1
  -7  -5 -16 427.010 22.4600   1
  -9   7  -6 119.910 46.5600   1
   9   7   6 184.210 10.9300   1
  -9  -7  -6 196.250 11.5100   1
  -9  -7  -6 187.770 11.0900   1
  -7  -3 -19 203.500 13.3200   1
   7   3  19 216.260 13.3300   1
  -7  -3 -19 192.960 13.5000   1
  -7   3 -19 152.940 27.3500   1
   5   7  13 86.8200 7.18000   1
  -5  -7 -13 69.7200 6.40000   1
   5  -7  13 87.8800 7.62000   1
 -12   2  20 48.7600 21.0700   1
  12   2 -20 17.8800 4.37000   1
  12  -2 -20 5.25000 4.42000   1
 -16   0  10 151.340 9.56000   1
 -13  -3  17 292.130 16.0800   1
 -13   3  17 214.220 29.7700   1
  13   3 -17 287.800 16.1100   1
 -13  -5  11 7.42000 4.05000   1
 -13   5  11 11.7600 17.4000   1
  -2   8  13 116.690 7.89000   1
  -2   8  13 102.530 8.31000   1
   2  -8 -13 128.330 8.80000   1
   2   8 -13 118.690 8.37000   1
  -2  -8  13 132.790 9.53000   1
  -2  -8  13 94.4400 7.64000   1
  12   4 -17 180.960 11.1300   1
 -12   4  17 138.200 20.0100   1
 -12  -4  17 189.410 11.1400   1
   3   9   3 99.8900 11.0900   1
   3  -9   3 97.5400 8.40000   1
  -3  -9  -3 104.880 8.49000   1
   3  -9   3 107.940 8.44000   1
  -3  -9  -3 110.280 7.76000   1
   9  -1  18 8.22000 4.73000   1
   9   1  18 18.3800 4.17000   1
  10   2  16 262.280 15.5700   1
   3   9  -5 118.560 7.93000   1
 -12   6   9 41.8600 11.6000   1
;
_shelx_hkl_checksum              94101
_olex2_date_sample_data_collection 14/11/2013
_olex2_submission_original_sample_id '2013lhb014, lhb1_088_01'
_olex2_submission_special_instructions 'No special instructions were received'
loop_
_space_group_symop_operation_xyz
'x, y, z'
'-x, y, -z+1/2'
'x+1/2, y+1/2, z'
'-x+1/2, y+1/2, -z+1/2'
'-x, -y, -z'
'x, -y, z-1/2'
'-x+1/2, -y+1/2, -z'
'x+1/2, -y+1/2, z-1/2'
loop_
_atom_site_label
_atom_site_type_symbol
_atom_site_fract_x
_atom_site_fract_y
_atom_site_fract_z
_atom_site_U_iso_or_equiv
_atom_site_adp_type
_atom_site_occupancy
_atom_site_site_symmetry_order
_atom_site_calc_flag
_atom_site_refinement_flags_posn
_atom_site_refinement_flags_adp
_atom_site_refinement_flags_occupancy
_atom_site_disorder_assembly
_atom_site_disorder_group
Ba1 Ba 0.32583(2) 0.20256(2) 0.70870(2) 0.00933(7) Uani 1 1 d . . . . .
F1 F 0.09666(15) 0.4292(2) 0.90589(9) 0.0143(4) Uani 1 1 d . . . . .
F2 F 0.39962(14) 0.0230(2) 0.96066(9) 0.0144(4) Uani 1 1 d . . . . .
F11 F 0.35828(15) 0.3167(2) 0.56313(10) 0.0146(4) Uani 1 1 d . . . . .
F12 F 0.31899(15) 0.3322(2) 0.42869(9) 0.0141(4) Uani 1 1 d . . . . .
O1 O 0.23757(18) 0.3453(3) 0.81740(11) 0.0123(4) Uani 1 1 d . . . . .
O1W O 0.5000 -0.0643(4) 0.7500 0.0142(6) Uani 1 2 d S T P . .
H1WA H 0.5098 -0.1327 0.7167 0.017 Uiso 0.5 1 calc R . . . .
H1WB H 0.4902 -0.1327 0.7833 0.017 Uiso 0.5 1 calc R . . . .
O2 O 0.26167(18) 0.0383(3) 0.83048(11) 0.0144(4) Uani 1 1 d . . . . .
O11 O 0.51989(18) 0.3343(3) 0.67818(12) 0.0150(4) Uani 1 1 d . . . . .
O12 O 0.58990(18) 0.6254(3) 0.68416(11) 0.0157(4) Uani 1 1 d . . . . .
C1 C 0.2476(2) 0.1987(3) 0.85230(16) 0.0105(6) Uani 1 1 d . . . . .
C2 C 0.2467(3) 0.2217(4) 0.92853(16) 0.0113(6) Uani 1 1 d . . . . .
C3 C 0.1738(2) 0.3393(4) 0.95158(15) 0.0107(5) Uani 1 1 d . . . . .
C4 C 0.3232(2) 0.1327(4) 0.97889(15) 0.0114(5) Uani 1 1 d . . . . .
C11 C 0.5453(2) 0.4866(4) 0.65278(16) 0.0132(6) Uani 1 1 d . . . . .
C12 C 0.5209(2) 0.4942(4) 0.57412(15) 0.0107(5) Uani 1 1 d . . . . .
C13 C 0.4322(2) 0.4070(4) 0.53353(16) 0.0123(6) Uani 1 1 d . . . . .
C14 C 0.4113(2) 0.4127(4) 0.46256(15) 0.0111(5) Uani 1 1 d . . . . .
loop_
_atom_site_aniso_label
_atom_site_aniso_U_11
_atom_site_aniso_U_22
_atom_site_aniso_U_33
_atom_site_aniso_U_23
_atom_site_aniso_U_13
_atom_site_aniso_U_12
Ba1 0.00988(11) 0.00723(10) 0.01080(11) -0.00002(5) 0.00193(7) -0.00019(6)
F1 0.0133(9) 0.0155(8) 0.0130(8) 0.0016(7) 0.0001(7) 0.0043(7)
F2 0.0141(9) 0.0140(8) 0.0151(9) -0.0012(7) 0.0028(7) 0.0059(7)
F11 0.0125(9) 0.0160(8) 0.0160(9) 0.0021(6) 0.0047(7) -0.0043(7)
F12 0.0107(9) 0.0147(7) 0.0152(9) 0.0006(7) -0.0016(7) -0.0042(7)
O1 0.0140(11) 0.0099(9) 0.0137(10) 0.0006(8) 0.0039(9) 0.0006(8)
O1W 0.0153(15) 0.0107(12) 0.0160(15) 0.000 0.0021(12) 0.000
O2 0.0176(11) 0.0117(9) 0.0140(10) -0.0003(8) 0.0036(9) 0.0003(9)
O11 0.0125(11) 0.0160(9) 0.0169(11) 0.0041(8) 0.0039(9) -0.0012(8)
O12 0.0149(11) 0.0150(10) 0.0163(11) -0.0038(9) 0.0014(9) 0.0004(9)
C1 0.0093(14) 0.0090(13) 0.0129(14) -0.0019(10) 0.0013(11) -0.0022(10)
C2 0.0116(14) 0.0095(11) 0.0124(14) -0.0017(10) 0.0019(12) -0.0023(11)
C3 0.0100(13) 0.0090(11) 0.0125(14) 0.0015(10) 0.0009(11) -0.0006(10)
C4 0.0115(13) 0.0080(12) 0.0148(14) -0.0014(10) 0.0026(12) 0.0015(11)
C11 0.0098(14) 0.0158(13) 0.0132(14) -0.0007(11) 0.0004(11) 0.0006(12)
C12 0.0112(13) 0.0085(11) 0.0135(14) 0.0015(10) 0.0050(11) 0.0025(11)
C13 0.0112(14) 0.0095(11) 0.0181(15) 0.0024(11) 0.0073(12) -0.0007(11)
C14 0.0071(12) 0.0097(12) 0.0152(14) -0.0006(11) -0.0007(11) -0.0019(10)
loop_
_atom_type_symbol
_atom_type_description
_atom_type_scat_dispersion_real
_atom_type_scat_dispersion_imag
_atom_type_scat_source
C C 0.0033 0.0016 'International Tables Vol C Tables 4.2.6.8 and 6.1.1.4'
H H 0.0000 0.0000 'International Tables Vol C Tables 4.2.6.8 and 6.1.1.4'
Ba Ba -0.3244 2.2819 'International Tables Vol C Tables 4.2.6.8 and 6.1.1.4'
F F 0.0171 0.0103 'International Tables Vol C Tables 4.2.6.8 and 6.1.1.4'
O O 0.0106 0.0060 'International Tables Vol C Tables 4.2.6.8 and 6.1.1.4'
loop_
_geom_angle_atom_site_label_1
_geom_angle_atom_site_label_2
_geom_angle_atom_site_label_3
_geom_angle
_geom_angle_site_symmetry_1
_geom_angle_site_symmetry_3
F11 Ba1 F1 53.18(4) . 4_546
F11 Ba1 C1 162.33(6) . .
F12 Ba1 F1 61.84(5) 7_556 4_546
F12 Ba1 F11 48.66(5) 7_556 .
F12 Ba1 C1 125.15(7) 7_556 .
O1 Ba1 F1 54.69(5) 4_546 4_546
O1 Ba1 F1 164.60(5) . 4_546
O1 Ba1 F11 139.90(5) . .
O1 Ba1 F11 99.18(5) 4_546 .
O1 Ba1 F12 68.96(6) 4_546 7_556
O1 Ba1 F12 118.12(6) . 7_556
O1 Ba1 O1 110.14(5) 4_546 .
O1 Ba1 O1W 66.90(6) 4_546 .
O1 Ba1 O1W 114.57(4) . .
O1 Ba1 O2 70.12(6) 4_546 .
O1 Ba1 O2 45.41(6) . .
O1 Ba1 O11 65.30(6) . 2_656
O1 Ba1 O11 126.85(6) 4_546 2_656
O1 Ba1 O11 121.02(6) 4_546 .
O1 Ba1 O12 62.86(6) 4_546 3_445
O1 Ba1 O12 69.85(6) . 3_445
O1 Ba1 C1 22.84(6) . .
O1 Ba1 C1 91.76(7) 4_546 .
O1W Ba1 F1 59.45(4) . 4_546
O1W Ba1 F11 101.66(3) . .
O1W Ba1 F12 119.58(4) . 7_556
O1W Ba1 O2 79.75(4) . .
O1W Ba1 O12 126.85(6) . 3_445
O1W Ba1 C1 95.37(5) . .
O2 Ba1 F1 119.94(5) . 4_546
O2 Ba1 F1 119.42(5) 4_556 4_546
O2 Ba1 F11 167.89(6) . .
O2 Ba1 F11 67.65(6) 4_556 .
O2 Ba1 F12 70.72(6) 4_556 7_556
O2 Ba1 F12 120.12(6) . 7_556
O2 Ba1 O1 134.62(7) 4_556 4_546
O2 Ba1 O1 72.28(6) 4_556 .
O2 Ba1 O1W 155.77(6) 4_556 .
O2 Ba1 O2 115.44(4) 4_556 .
O2 Ba1 O11 96.20(7) 4_556 2_656
O2 Ba1 O11 87.77(6) 4_556 .
O2 Ba1 O12 77.33(6) 4_556 3_445
O2 Ba1 O12 68.19(6) . 3_445
O2 Ba1 C1 94.80(6) 4_556 .
O2 Ba1 C1 23.03(6) . .
O11 Ba1 F1 69.92(5) . 4_546
O11 Ba1 F1 119.77(5) 2_656 4_546
O11 Ba1 F11 117.03(6) 2_656 .
O11 Ba1 F11 54.93(6) . .
O11 Ba1 F12 103.30(6) . 7_556
O11 Ba1 F12 163.05(6) 2_656 7_556
O11 Ba1 O1 122.82(6) . .
O11 Ba1 O1W 68.57(5) 2_656 .
O11 Ba1 O1W 68.85(6) . .
O11 Ba1 O2 74.81(6) 2_656 .
O11 Ba1 O2 135.16(6) . .
O11 Ba1 O11 64.45(8) . 2_656
O11 Ba1 O12 134.41(6) 2_656 3_445
O11 Ba1 O12 156.58(6) . 3_445
O11 Ba1 C1 65.11(7) 2_656 .
O11 Ba1 C1 129.48(7) . .
O12 Ba1 F1 101.70(5) 3_445 4_546
O12 Ba1 F11 102.22(6) 3_445 .
O12 Ba1 F12 54.86(5) 3_445 7_556
O12 Ba1 C1 70.49(7) 3_445 .
C1 Ba1 F1 142.94(5) . 4_546
C3 F1 Ba1 118.26(16) . 4_556
C13 F11 Ba1 139.15(18) . .
C14 F12 Ba1 143.25(16) . 7_556
Ba1 O1 Ba1 110.13(7) 4_556 .
C1 O1 Ba1 96.29(17) . .
C1 O1 Ba1 153.54(19) . 4_556
Ba1 O1W Ba1 97.58(8) . 2_656
Ba1 O1W H1WA 112.2 . .
Ba1 O1W H1WA 112.2 2_656 .
Ba1 O1W H1WB 112.2 . .
Ba1 O1W H1WB 112.2 2_656 .
H1WA O1W H1WB 109.8 . .
Ba1 O2 Ba1 106.43(7) 4_546 .
C1 O2 Ba1 147.1(2) . 4_546
C1 O2 Ba1 90.00(17) . .
Ba1 O11 Ba1 101.89(7) . 2_656
C11 O11 Ba1 132.64(19) . .
C11 O11 Ba1 114.54(19) . 2_656
C11 O12 Ba1 124.51(19) . 3
O1 C1 Ba1 60.87(16) . .
O1 C1 O2 125.7(3) . .
O1 C1 C2 116.1(2) . .
O2 C1 Ba1 66.97(16) . .
O2 C1 C2 118.2(2) . .
C2 C1 Ba1 161.6(2) . .
C3 C2 C1 122.0(3) . .
C3 C2 C4 116.5(3) . .
C4 C2 C1 121.3(3) . .
F1 C3 C2 120.0(3) . .
F1 C3 C4 118.1(3) . 7_557
C4 C3 C2 121.9(3) 7_557 .
F2 C4 C2 120.1(3) . .
F2 C4 C3 118.3(3) . 7_557
C3 C4 C2 121.6(3) 7_557 .
O11 C11 C12 114.9(3) . .
O12 C11 O11 127.6(3) . .
O12 C11 C12 117.4(3) . .
C13 C12 C11 123.4(3) . .
C13 C12 C14 114.6(3) . 5_666
C14 C12 C11 122.1(3) 5_666 .
F11 C13 C12 120.2(3) . .
F11 C13 C14 116.7(3) . .
C14 C13 C12 123.0(3) . .
F12 C14 C12 119.9(3) . 5_666
F12 C14 C13 117.6(3) . .
C13 C14 C12 122.4(3) . 5_666
loop_
_geom_bond_atom_site_label_1
_geom_bond_atom_site_label_2
_geom_bond_distance
_geom_bond_site_symmetry_2
Ba1 F1 3.2884(17) 4_546
Ba1 F11 3.1039(18) .
Ba1 F12 2.9642(18) 7_556
Ba1 O1 2.807(2) .
Ba1 O1 2.691(2) 4_546
Ba1 O1W 2.8924(18) .
Ba1 O2 2.939(2) .
Ba1 O2 2.686(2) 4_556
Ba1 O11 2.813(2) 2_656
Ba1 O11 2.791(2) .
Ba1 O12 2.957(2) 3_445
Ba1 C1 3.194(3) .
F1 Ba1 3.2884(17) 4_556
F1 C3 1.348(3) .
F2 C4 1.344(3) .
F11 C13 1.358(3) .
F12 Ba1 2.9642(18) 7_556
F12 C14 1.346(3) .
O1 Ba1 2.691(2) 4_556
O1 C1 1.247(3) .
O1W Ba1 2.8924(18) 2_656
O1W H1WA 0.8500 .
O1W H1WB 0.8500 .
O2 Ba1 2.686(2) 4_546
O2 C1 1.250(3) .
O11 Ba1 2.813(2) 2_656
O11 C11 1.267(4) .
O12 Ba1 2.957(2) 3
O12 C11 1.241(4) .
C1 C2 1.522(4) .
C2 C3 1.386(4) .
C2 C4 1.392(4) .
C3 C4 1.386(4) 7_557
C4 C3 1.386(4) 7_557
C11 C12 1.528(4) .
C12 C13 1.384(4) .
C12 C14 1.395(4) 5_666
C13 C14 1.378(4) .
C14 C12 1.395(4) 5_666
loop_
_geom_torsion_atom_site_label_1
_geom_torsion_atom_site_label_2
_geom_torsion_atom_site_label_3
_geom_torsion_atom_site_label_4
_geom_torsion
_geom_torsion_site_symmetry_1
_geom_torsion_site_symmetry_2
_geom_torsion_site_symmetry_3
_geom_torsion_site_symmetry_4
Ba1 F1 C3 C2 -57.3(3) 4_556 . . .
Ba1 F1 C3 C4 123.3(2) 4_556 . . 7_557
Ba1 F11 C13 C12 -6.5(4) . . . .
Ba1 F11 C13 C14 176.13(17) . . . .
Ba1 F12 C14 C12 -8.8(4) 7_556 . . 5_666
Ba1 F12 C14 C13 168.01(18) 7_556 . . .
Ba1 O1 C1 Ba1 176.7(5) 4_556 . . .
Ba1 O1 C1 O2 -18.0(3) . . . .
Ba1 O1 C1 O2 158.7(3) 4_556 . . .
Ba1 O1 C1 C2 159.5(2) . . . .
Ba1 O1 C1 C2 -23.8(6) 4_556 . . .
Ba1 O2 C1 Ba1 -121.4(3) 4_546 . . .
Ba1 O2 C1 O1 -104.4(4) 4_546 . . .
Ba1 O2 C1 O1 17.0(3) . . . .
Ba1 O2 C1 C2 78.2(5) 4_546 . . .
Ba1 O2 C1 C2 -160.4(2) . . . .
Ba1 O11 C11 O12 97.1(4) . . . .
Ba1 O11 C11 O12 -39.7(4) 2_656 . . .
Ba1 O11 C11 C12 -85.1(3) . . . .
Ba1 O11 C11 C12 138.1(2) 2_656 . . .
Ba1 O12 C11 O11 96.5(3) 3 . . .
Ba1 O12 C11 C12 -81.2(3) 3 . . .
Ba1 C1 C2 C3 118.6(6) . . . .
Ba1 C1 C2 C4 -58.0(7) . . . .
F11 C13 C14 F12 1.3(4) . . . .
F11 C13 C14 C12 178.0(2) . . . 5_666
O1 C1 C2 C3 42.8(4) . . . .
O1 C1 C2 C4 -133.7(3) . . . .
O2 C1 C2 C3 -139.5(3) . . . .
O2 C1 C2 C4 44.0(4) . . . .
O11 C11 C12 C13 34.4(4) . . . .
O11 C11 C12 C14 -144.1(3) . . . 5_666
O12 C11 C12 C13 -147.6(3) . . . .
O12 C11 C12 C14 33.9(4) . . . 5_666
C1 C2 C3 F1 3.9(4) . . . .
C1 C2 C3 C4 -176.7(3) . . . 7_557
C1 C2 C4 F2 -0.4(4) . . . .
C1 C2 C4 C3 176.7(3) . . . 7_557
C3 C2 C4 F2 -177.1(2) . . . .
C3 C2 C4 C3 0.0(5) . . . 7_557
C4 C2 C3 F1 -179.4(2) . . . .
C4 C2 C3 C4 0.0(5) . . . 7_557
C11 C12 C13 F11 3.5(4) . . . .
C11 C12 C13 C14 -179.3(3) . . . .
C12 C13 C14 F12 -176.0(2) . . . .
C12 C13 C14 C12 0.7(5) . . . 5_666
C14 C12 C13 F11 -177.9(2) 5_666 . . .
C14 C12 C13 C14 -0.7(5) 5_666 . . .
