#------------------------------------------------------------------------------
#$Date: 2015-07-16 18:05:34 +0300 (Thu, 16 Jul 2015) $
#$Revision: 152130 $
#$URL: svn://www.crystallography.net/cod/cif/7/11/75/7117544.cif $
#------------------------------------------------------------------------------
#
# This file is available in the Crystallography Open Database (COD),
# http://www.crystallography.net/
#
# All data on this site have been placed in the public domain by the
# contributors.
#
data_7117544
loop_
_publ_author_name
'L. H. Blair'
'A. Colakel'
'R. M. Vrcelj'
'I. Sinclair'
'S. J. Coles'
_publ_section_title
;
 Metal-organic fireworks: MOFs as integrated structural scaffolds for
 pyrotechnic materials
;
_journal_name_full               Chem.Commun.
_journal_page_first              12185
_journal_paper_doi               10.1039/C5cc04174K
_journal_volume                  51
_journal_year                    2015
_chemical_formula_moiety         'C11 H10 F4 N O6 Sr'
_chemical_formula_sum            'C11 H10 F4 N O6 Sr'
_chemical_formula_weight         415.82
_chemical_name_systematic
;
 ?
;
_space_group_crystal_system      triclinic
_space_group_IT_number           2
_space_group_name_Hall           '-P 1'
_space_group_name_H-M_alt        'P -1'
_symmetry_space_group_name_Hall  '-P 1'
_symmetry_space_group_name_H-M   'P -1'
_atom_sites_solution_hydrogens   mixed
_audit_creation_date             2015-01-29
_audit_creation_method
;
Olex2 1.2
(compiled 2015.01.19 svn.r3143 for OlexSys, GUI svn.r4992)
;
_audit_update_record
;
2015-01-30 deposited with the CCDC.
2015-06-23 downloaded from the CCDC.
;
_cell_angle_alpha                94.495(16)
_cell_angle_beta                 96.741(16)
_cell_angle_gamma                101.639(17)
_cell_formula_units_Z            2
_cell_length_a                   6.1469(4)
_cell_length_b                   7.0452(5)
_cell_length_c                   16.1438(11)
_cell_measurement_reflns_used    0
_cell_measurement_temperature    100(2)
_cell_measurement_theta_max      27.5
_cell_measurement_theta_min      3.1
_cell_volume                     676.26(10)
_computing_cell_refinement
'CrystalClear-SM Expert 3.1 b27 (Rigaku, 2013)'
_computing_data_collection
'CrystalClear-SM Expert 3.1 b27 (Rigaku, 2013)'
_computing_data_reduction
'CrystalClear-SM Expert 3.1 b27 (Rigaku, 2013)'
_computing_molecular_graphics    'Olex2 (Dolomanov et al., 2009)'
_computing_publication_material  'Olex2 (Dolomanov et al., 2009)'
_computing_structure_refinement  'ShelXL (Sheldrick, 2008)'
_diffrn_ambient_temperature      100(2)
_diffrn_detector                 'CCD area detector'
_diffrn_detector_area_resol_mean 28.5714
_diffrn_detector_type            'Rigaku HG Saturn724+ (2x2 bin mode)'
_diffrn_measured_fraction_theta_full 0.991
_diffrn_measured_fraction_theta_max 0.980
_diffrn_measurement_details
;
scan:
    Number of images: 140
               Slice: -63.0000 - 77.0000
         Image width: 1.0000
            Exp time: 125.0000
       Rotation axis: Omega
               Omega: 0.0000
               Kappa: 0.0000
                 Phi: -30.0000
                 XTD: 40.0129
              2theta: -12.8534
scan:
    Number of images: 101
               Slice: -78.0000 - 23.0000
         Image width: 1.0000
            Exp time: 125.0000
       Rotation axis: Omega
               Omega: 0.0000
               Kappa: -72.0000
                 Phi: 150.0000
                 XTD: 40.0129
              2theta: -12.8534
scan:
    Number of images: 86
               Slice: -63.0000 - 23.0000
         Image width: 1.0000
            Exp time: 125.0000
       Rotation axis: Omega
               Omega: 0.0000
               Kappa: -72.0000
                 Phi: -60.0000
                 XTD: 40.0129
              2theta: -12.8534
scan:
    Number of images: 105
               Slice: -29.0000 - 76.0000
         Image width: 1.0000
            Exp time: 125.0000
       Rotation axis: Omega
               Omega: 0.0000
               Kappa: 72.0000
                 Phi: 60.0000
                 XTD: 40.0129
              2theta: -12.8534
scan:
    Number of images: 28
               Slice: -79.0000 - -51.0000
         Image width: 1.0000
            Exp time: 125.0000
       Rotation axis: Omega
               Omega: 0.0000
               Kappa: -18.0000
                 Phi: 150.0000
                 XTD: 40.0129
              2theta: -12.8534
scan:
    Number of images: 27
               Slice: -31.0000 - -4.0000
         Image width: 1.0000
            Exp time: 125.0000
       Rotation axis: Omega
               Omega: 0.0000
               Kappa: 72.0000
                 Phi: 120.0000
                 XTD: 40.0129
              2theta: -12.8534
;
_diffrn_measurement_device       'four-circle \k diffractometer'
_diffrn_measurement_device_type  'Rigaku AFC12 (Right)'
_diffrn_measurement_method       'profile data from \w-scans'
_diffrn_measurement_specimen_support 'MiTeGen MicroMesh'
_diffrn_orient_matrix_type       d*Trek
_diffrn_orient_matrix_UB_11      -0.069242
_diffrn_orient_matrix_UB_12      -0.152664
_diffrn_orient_matrix_UB_13      0.003347
_diffrn_orient_matrix_UB_21      0.115132
_diffrn_orient_matrix_UB_22      -0.085772
_diffrn_orient_matrix_UB_23      0.024972
_diffrn_orient_matrix_UB_31      -0.008305
_diffrn_orient_matrix_UB_32      -0.004270
_diffrn_orient_matrix_UB_33      0.062022
_diffrn_radiation_collimation    0.3
_diffrn_radiation_monochromator  'Confocal mirrors, HF Varimax'
_diffrn_radiation_probe          x-ray
_diffrn_radiation_type           MoK\a
_diffrn_radiation_wavelength     0.71073
_diffrn_reflns_av_R_equivalents  0.1512
_diffrn_reflns_av_unetI/netI     0.2182
_diffrn_reflns_laue_measured_fraction_full 0.991
_diffrn_reflns_laue_measured_fraction_max 0.980
_diffrn_reflns_limit_h_max       7
_diffrn_reflns_limit_h_min       -7
_diffrn_reflns_limit_k_max       9
_diffrn_reflns_limit_k_min       -9
_diffrn_reflns_limit_l_max       20
_diffrn_reflns_limit_l_min       -20
_diffrn_reflns_number            7817
_diffrn_reflns_point_group_measured_fraction_full 0.991
_diffrn_reflns_point_group_measured_fraction_max 0.980
_diffrn_reflns_theta_full        25.242
_diffrn_reflns_theta_max         27.473
_diffrn_reflns_theta_min         3.106
_diffrn_source                   'Rotating Anode'
_diffrn_source_current           55.0
_diffrn_source_power             2.475
_diffrn_source_target            Mo
_diffrn_source_type              'Rotating Anode'
_diffrn_source_voltage           45.0
_exptl_absorpt_coefficient_mu    4.067
_exptl_absorpt_correction_T_max  1.000
_exptl_absorpt_correction_T_min  0.468
_exptl_absorpt_correction_type   multi-scan
_exptl_absorpt_process_details
;
CrystalClear-SM Expert 3.1 b27 (Rigaku, 2013)
;
_exptl_crystal_colour            colourless
_exptl_crystal_colour_primary    colourless
_exptl_crystal_density_diffrn    2.042
_exptl_crystal_description       Needle
_exptl_crystal_F_000             410
_exptl_crystal_size_max          0.04
_exptl_crystal_size_mid          0.02
_exptl_crystal_size_min          0.01
_refine_diff_density_max         1.294
_refine_diff_density_min         -0.754
_refine_diff_density_rms         0.194
_refine_ls_extinction_coef       .
_refine_ls_extinction_method     none
_refine_ls_goodness_of_fit_ref   0.989
_refine_ls_hydrogen_treatment    constr
_refine_ls_matrix_type           full
_refine_ls_number_parameters     211
_refine_ls_number_reflns         3016
_refine_ls_number_restraints     0
_refine_ls_restrained_S_all      0.989
_refine_ls_R_factor_all          0.1912
_refine_ls_R_factor_gt           0.1003
_refine_ls_shift/su_max          0.000
_refine_ls_shift/su_mean         0.000
_refine_ls_structure_factor_coef Fsqd
_refine_ls_weighting_details
'w=1/[\s^2^(Fo^2^)+(0.0996P)^2^] where P=(Fo^2^+2Fc^2^)/3'
_refine_ls_weighting_scheme      calc
_refine_ls_wR_factor_gt          0.1915
_refine_ls_wR_factor_ref         0.2308
_reflns_Friedel_coverage         0.000
_reflns_friedel_fraction_full    .
_reflns_friedel_fraction_max     .
_reflns_number_gt                1557
_reflns_number_total             3016
_reflns_threshold_expression     'I > 2\s(I)'
_cod_data_source_file            c5cc04174k2.cif
_cod_data_source_block           sr_altfbdc_1
_cod_original_cell_volume        676.26(9)
_cod_database_code               7117544
_shelxl_version_number           2013-3
_shelx_space_group_comment
;
The symmetry employed for this shelxl refinement is uniquely defined
by the following loop, which should always be used as a source of
symmetry information in preference to the above space-group names.
They are only intended as comments.
;
_shelx_estimated_absorpt_t_max   0.960
_shelx_estimated_absorpt_t_min   0.854
_olex2_refinement_description
;
1. Fixed Uiso
 At 1.2 times of:
  All C(H,H) groups
 At 1.5 times of:
  All C(H,H,H) groups, All O(H,H) groups
2.a Rotating group:
 O1W(H1WA,H1WB)
2.b Secondary CH2 refined with riding coordinates:
 C1S1(H1SA,H1SB)
2.c Idealised Me refined as rotating group:
 C2S1(H2SA,H2SB,H2SC), C3S1(H3SA,H3SB,H3SC)
;
_shelx_res_file
;
TITL 2013lhb042
CELL 0.71073 6.1469 7.0452 16.1438 94.495 96.741 101.639
ZERR 2 0.0004 0.0005 0.0011 0.016 0.016 0.017
LATT 1
SFAC C H F N O Sr
UNIT 22 20 8 2 12 2
EQIV $1 -X,-Y,1-Z
EQIV $2 -X,1-Y,1-Z
EQIV $3 1-X,1-Y,1-Z
EQIV $4 +X,-1+Y,+Z

L.S. 20
PLAN  20
SIZE 0.01 0.02 0.04
TEMP -173(2)
HTAB O1W O3_$4
FREE Sr1 H1Wb
FREE Sr1 H1Wa
FREE Sr1 Sr1_$1
FREE Sr1 C1_$2
FREE Sr1 H1Wb_$3
SHEL7 0.77
BOND $H
CONF
MORE -1
fmap 2
acta
MERG 2
REM <olex2.extras>
REM <HklSrc "%.\\p-1.hkl">
REM </olex2.extras>

WGHT    0.099600
FVAR       0.34131
SR1   6    0.105056    0.244959    0.444482    11.00000    0.03083    0.01493 =
         0.04849    0.00592    0.01271    0.00122
F3    3    0.332902    0.761761    0.064855    11.00000    0.04357    0.04323 =
         0.05414    0.00963    0.01695   -0.00068
F4    3    0.660592    0.902516    0.193031    11.00000    0.02928    0.04038 =
         0.06228    0.01534    0.01852    0.00200
F2    3   -0.090142    0.608352    0.094714    11.00000    0.04066    0.04029 =
         0.04828    0.00856    0.00727   -0.00731
F1    3   -0.178305    0.583702    0.254314    11.00000    0.02676    0.02959 =
         0.06023    0.00310    0.01367   -0.00358
O2    5    0.157983    0.904522    0.437420    11.00000    0.02360    0.01867 =
         0.05528    0.00404    0.01228    0.00395
O3    5    0.709166    1.073628    0.367663    11.00000    0.03615    0.01963 =
         0.03761    0.00538    0.01202   -0.00250
O4    5    0.644843    0.778650    0.415955    11.00000    0.03320    0.01680 =
         0.05396    0.00966    0.00609   -0.00212
O1S1  5    0.123826    0.219397    0.281740    11.00000    0.04963    0.02893 =
         0.06080    0.00255    0.01607    0.00511
O1    5    0.051281    0.580981    0.422640    11.00000    0.03535    0.01772 =
         0.04833    0.00851    0.01253    0.00093
O1W   5    0.506879    0.382212    0.420549    11.00000    0.04754    0.02326 =
         0.06594    0.00822    0.02839    0.00559
AFIX   7
H1WA  2    0.559199    0.291243    0.394378    11.00000   -1.50000
H1WB  2    0.590570    0.422300    0.468869    11.00000   -1.50000
AFIX   0
N1S1  4    0.240793    0.236989    0.152028    11.00000    0.04058    0.03122 =
         0.04177    0.00923    0.01307   -0.00049
C5    1    0.290989    0.755900    0.145172    11.00000    0.04356    0.02245 =
         0.03665    0.00579    0.01923    0.00425
C2    1    0.196320    0.739040    0.309463    11.00000    0.03591    0.01547 =
         0.04781    0.00637    0.01427   -0.00065
C7    1    0.416408    0.822964    0.292765    11.00000    0.03580    0.01226 =
         0.05249    0.01303    0.01616    0.00689
C6    1    0.455369    0.828670    0.211920    11.00000    0.02783    0.02755 =
         0.04641    0.01506    0.02038    0.00864
C3    1    0.034038    0.663520    0.242088    11.00000    0.02980    0.02054 =
         0.04324    0.00449    0.00414    0.00775
C4    1    0.074411    0.675865    0.160249    11.00000    0.03053    0.02003 =
         0.04548   -0.00573    0.00270   -0.00576
C2S1  1    0.020989    0.170883    0.105810    11.00000    0.03892    0.04159 =
         0.05842    0.00854    0.00593    0.00469
AFIX 137
H2SA  2    0.006881    0.038767    0.078673    11.00000   -1.50000
H2SB  2   -0.002741    0.258601    0.063003    11.00000   -1.50000
H2SC  2   -0.091469    0.170080    0.144149    11.00000   -1.50000
AFIX   0
C1S1  1    0.273679    0.254208    0.233827    11.00000    0.05626    0.01653 =
         0.05772    0.00155    0.02802    0.00401
AFIX  23
H1SA  2    0.381274    0.171397    0.249323    11.00000   -1.20000
H1SB  2    0.354590    0.390475    0.251208    11.00000   -1.20000
AFIX   0
C3S1  1    0.425596    0.277235    0.104396    11.00000    0.02510    0.05719 =
         0.06967    0.00338    0.01556   -0.00903
AFIX 137
H3SA  2    0.564115    0.332028    0.142551    11.00000   -1.50000
H3SB  2    0.398090    0.370929    0.064723    11.00000   -1.50000
H3SC  2    0.440419    0.156152    0.073481    11.00000   -1.50000
AFIX   0
C1    1    0.134885    0.737989    0.396500    11.00000    0.02112    0.02391 =
         0.04824    0.01261    0.00934    0.00784
C8    1    0.606388    0.897993    0.366149    11.00000    0.03559    0.01168 =
         0.05062    0.00253    0.02539   -0.00250
HKLF 4

REM  2013lhb042
REM R1 =  0.1003 for    1557 Fo > 4sig(Fo)  and  0.1912 for all    3016 data
REM    211 parameters refined using      0 restraints

END

WGHT      0.0996      0.0000

REM Highest difference peak  1.294,  deepest hole -0.754,  1-sigma level  0.194
Q1    1   0.0860  0.2279  0.3769  11.00000  0.05    1.29
Q2    1   0.0941  0.2482  0.5111  11.00000  0.05    1.27
Q3    1  -0.0307  0.2755  0.4563  11.00000  0.05    1.12
Q4    1   0.2600  0.2719  0.4898  11.00000  0.05    1.10
Q5    1   0.0309  0.2822  0.3880  11.00000  0.05    1.02
Q6    1   0.1707  0.7291  0.0988  11.00000  0.05    0.92
Q7    1  -0.0376  0.2187  0.4037  11.00000  0.05    0.86
Q8    1  -0.1427  0.5622  0.3209  11.00000  0.05    0.69
Q9    1  -0.2092  0.1168  0.0067  11.00000  0.05    0.64
Q10   1   0.1145  0.7384  0.2187  11.00000  0.05    0.63
Q11   1   0.0678  0.1765  0.2047  11.00000  0.05    0.62
Q12   1   0.3532  0.6653 -0.0297  11.00000  0.05    0.62
Q13   1   0.2690  0.7631  0.0029  11.00000  0.05    0.60
Q14   1   0.8527  1.0244  0.3774  11.00000  0.05    0.60
Q15   1   0.2652  0.8150  0.2887  11.00000  0.05    0.60
Q16   1  -0.0265  0.6321  0.0502  11.00000  0.05    0.59
Q17   1   0.3363  0.3510  0.3840  11.00000  0.05    0.57
Q18   1   0.2964  0.9129  0.4764  11.00000  0.05    0.57
Q19   1  -0.0514  0.6337  0.4829  11.00000  0.05    0.56
Q20   1   0.0325  0.3214  0.3017  11.00000  0.05    0.56
;
_shelx_res_checksum              66412
_shelx_hkl_file
;
   0  -1   1 150.050 16.4100   1
   0   1  -1 151.080 15.8900   1
   0  -1   1 176.840 21.7700   1
   0   1  -1 174.070 22.1500   1
   0   1  -1 173.230 19.4700   1
   0   1  -1 158.380 23.8700   1
   0  -1   1 187.780 23.4600   1
   0  -1  -1 27.3900 16.7500   1
  -1   0   0 541.380 23.6100   1
   1   0   0 550.100 21.2800   1
  -1   0   0 576.800 23.3500   1
   0  -1   2 131.040 16.8100   1
   0  -1   2 133.640 16.4900   1
   0   1  -2 143.910 18.3600   1
   0   1  -2 132.710 15.1700   1
   1   0   1 994.550 28.0700   1
  -1   0  -1 945.430 25.7800   1
   1   0   1 818.570 33.3000   1
  -1   0  -1 859.890 25.6400   1
   0   0  -3 445.450 25.0000   1
   0   0   3 440.570 25.5600   1
   0   0  -3 400.170 22.5700   1
   0   0   3 350.540 20.0500   1
   0   0   3 383.850 19.2600   1
   1   0  -2 191.390 16.5000   1
  -1   0   2 184.670 16.9100   1
  -1   0   2 156.490 15.6000   1
   0  -1  -2 48.4400 16.3700   1
   0  -1  -2 48.9400 19.4300   1
   0  -1  -2 68.6800 19.1300   1
   0   1   2 64.6000 18.2500   1
   0   1   2 68.9900 15.7000   1
   1  -1  -1 441.900 29.7500   1
   1  -1  -1 494.180 30.9200   1
   1  -1  -1 407.460 31.2500   1
  -1   1   1 474.360 29.4500   1
  -1   1   1 442.140 22.0200   1
  -1   1   1 433.460 28.3100   1
   1  -1   1 31.8600 18.2900   1
   1   0   2 178.700 15.6000   1
  -1   0  -2 137.090 13.3500   1
   1   0   2 152.330 17.1900   1
  -1   0  -2 148.390 17.9500   1
  -1   0  -2 168.440 19.2400   1
   0  -1   3 284.880 19.9700   1
   0  -1   3 280.850 16.9000   1
   0   1  -3 262.510 19.7200   1
   0   1  -3 235.820 18.2500   1
   1  -1  -2 600.230 24.2200   1
   1  -1  -2 571.390 23.2300   1
  -1   1   2 540.010 21.6600   1
  -1   1   2 599.680 25.9400   1
  -1  -1   1 203.590 15.8600   1
   1   1  -1 165.520 16.6300   1
   1   1  -1 202.380 16.4200   1
  -1  -1   1 200.740 19.3000   1
  -1  -1   0 828.790 26.8800   1
  -1  -1   0 779.500 24.9000   1
   0  -1  -3 155.010 16.2000   1
   0  -1  -3 149.920 17.2400   1
   0   1   3 113.840 16.1500   1
   0   1   3 119.050 16.5100   1
   0  -1  -3 122.840 18.0900   1
   0   1   3 134.950 15.4000   1
   0   0   4 167.380 19.5300   1
   0   0  -4 171.660 19.7600   1
   0   0   4 131.930 14.1900   1
  -1  -1  -1 9.35000 15.7300   1
  -1   1   3 467.600 19.3700   1
   1  -1  -3 492.960 22.4900   1
  -1   0  -3 585.910 27.8200   1
   0   1  -4 334.660 21.0600   1
   0   1  -4 363.250 20.0000   1
   0  -1   4 377.070 20.7700   1
   0   1  -4 426.700 22.6000   1
   0  -1   4 353.180 21.3200   1
   1  -1   3 30.0600 16.5100   1
  -1  -1   3 313.780 18.1200   1
   1   1  -3 289.140 18.7700   1
   1   1  -3 339.410 22.4800   1
   1   1  -3 317.850 18.2900   1
  -1  -1   3 305.610 18.3100   1
   0   2   0 2733.73 51.1700   1
   0   2   0 2742.51 51.4000   1
   0   2   0 2765.84 50.6700   1
   0  -2   0 2661.45 53.5700   1
   0  -2   0 2816.15 55.5900   1
   0  -2   0 2716.90 48.8000   1
   0  -2   1 226.170 16.0600   1
   0   2  -1 218.690 16.6300   1
   0  -2   1 230.260 20.8800   1
  -1  -1  -2 102.330 12.8600   1
  -1  -1  -2 109.550 14.5400   1
   1   1   2 99.1800 13.9500   1
  -1  -1  -2 140.410 16.1900   1
   1   1   2 143.720 14.5300   1
   1   1   2 104.290 15.0500   1
   0   1   4 80.3400 14.7600   1
   0  -1  -4 78.9300 16.4600   1
   0   1   4 114.010 13.7000   1
   0   1   4 72.5900 15.8300   1
  -1   2   0 348.200 21.6700   1
  -1   2   0 423.350 23.3000   1
   1  -2   0 426.770 27.5700   1
   0  -2  -1 26.7100 14.5700   1
   0   2   1 34.8900 12.8000   1
   0   2  -2 21.8800 15.8200   1
  -1   2  -1 5080.03 92.1700   1
  -1   2  -1 5253.26 184.720   1
  -1   2  -1 5129.76 87.5200   1
  -1   2  -1 5309.77 184.940   1
  -1   2   1 1200.12 30.2300   1
   1  -2  -1 1278.10 34.2900   1
  -1   2   1 1223.80 35.4100   1
   1  -2  -1 1304.11 34.4900   1
  -1   1   4 319.270 17.6200   1
   1  -1  -4 331.050 17.9100   1
  -1   1   4 388.340 20.2800   1
   0   0  -5 58.6700 14.9100   1
   0   0   5 47.3300 13.9800   1
   0   0   5 75.2500 13.2300   1
   0   0  -5 78.7000 18.2600   1
   1   0   4 176.070 14.5300   1
  -1   0  -4 174.410 15.9100   1
  -1   0  -4 137.150 13.6300   1
   1   0   4 151.950 13.8700   1
   1   1  -4 189.970 15.9300   1
   1   1  -4 190.060 21.0700   1
  -1  -1   4 182.800 16.3300   1
   1   1  -4 154.920 16.8400   1
  -1  -1   4 171.860 15.7700   1
  -1   1  -4 29.1900 18.3800   1
   1  -1   4 20.7800 16.4400   1
  -1   1  -4 36.2200 15.8900   1
   0   2   2 253.670 15.9000   1
   0  -2  -2 245.840 17.1300   1
   0  -2  -2 265.050 18.9200   1
   0   2   2 252.130 15.2800   1
   0   2   2 267.770 17.1100   1
   0  -2  -2 283.690 18.5200   1
   0  -2   3 161.580 16.6500   1
   0   2  -3 192.500 22.7400   1
   0  -2   3 148.110 14.0300   1
   0   2  -3 154.650 16.6100   1
   0   2  -3 154.570 18.0400   1
   0   2  -3 163.120 16.0500   1
   1   1   3 73.6600 15.0900   1
  -1  -1  -3 50.2800 15.3200   1
   1   1   3 54.7400 13.9200   1
   1   1   3 51.1100 15.5700   1
  -1  -1  -3 59.8300 12.6900   1
  -1   2   2 127.580 15.5600   1
  -1   2   2 94.2600 12.6700   1
   1  -2  -2 113.670 14.8600   1
  -1   2   2 100.210 12.1000   1
  -1   2   2 111.480 15.1800   1
   0  -1   5 302.600 17.6600   1
   0  -1   5 305.370 20.4300   1
   0   1  -5 274.090 18.3700   1
   0   1  -5 212.140 15.5100   1
   0   1  -5 242.120 16.9800   1
  -2   0   1 104.950 15.9100   1
   2   0  -1 116.240 14.2200   1
  -2   0   1 121.490 15.7300   1
   2   0  -1 81.0000 14.6700   1
  -1   0   5 65.3300 12.6600   1
   1   0  -5 102.040 15.6400   1
  -1   0   5 79.4100 14.2900   1
   1   0  -5 91.9000 16.5100   1
   2   0   0 16.8800 12.2200   1
  -2   0   0 13.7500 15.2200   1
  -2   0   0 24.5400 13.5600   1
   2  -1   0 34.2200 12.8800   1
  -2   1   0 25.1400 13.0500   1
   2  -1   0 27.5000 11.3800   1
   2  -1  -1 72.1100 15.3500   1
  -2   1   1 92.7400 14.8200   1
   2  -1  -1 88.1600 12.9500   1
  -2   1   1 91.8700 14.9600   1
  -2   0   2 530.610 22.3700   1
   2   0  -2 479.810 26.9100   1
  -2   0   2 500.810 29.8500   1
   2   0  -2 581.730 28.4800   1
  -2   1  -1 71.2000 14.2300   1
   2  -1   1 82.1700 13.1100   1
  -2   1   2 48.6500 15.1100   1
   2  -1  -2 61.7200 12.7500   1
   2  -1  -2 47.2000 12.8000   1
  -2   1   2 47.5000 14.6800   1
  -2   0  -1 405.890 20.5000   1
  -2   0  -1 406.320 21.9200   1
   1  -2   3 190.370 15.5400   1
  -1   2  -3 204.240 20.4600   1
  -1   2  -3 213.210 19.4300   1
  -1   2  -3 220.170 22.0300   1
   0  -1  -5 45.3700 13.0500   1
   0   1   5 44.6300 13.5500   1
   0  -1  -5 73.1000 17.4900   1
   0   1   5 33.5700 14.3000   1
   1  -2  -3 133.240 14.8600   1
  -1   2   3 146.130 15.5100   1
  -1   2   3 102.330 13.1300   1
  -1   2   3 136.800 16.5400   1
   2   0  -3 341.160 19.7700   1
   2   0  -3 242.080 20.4400   1
  -2   0   3 286.310 20.7100   1
   2   0  -3 330.210 18.6400   1
  -2   0   3 263.650 18.5400   1
  -1  -2   1 187.830 16.3900   1
  -1  -2   1 174.240 15.9500   1
   1   2  -1 197.810 15.4500   1
   1   2  -1 167.550 15.8500   1
  -1  -2   1 182.020 14.7300   1
   1   2  -1 178.210 14.7600   1
   0  -2  -3 179.700 15.2000   1
   0   2   3 171.160 13.5900   1
   0   2   3 157.740 15.3600   1
   0   2   3 193.960 15.5400   1
   0  -2  -3 203.280 16.2700   1
   1  -1  -5 -0.9900 13.3000   1
   0   2  -4 112.920 15.1800   1
   0   2  -4 102.460 18.0200   1
   0   2  -4 95.6400 13.4700   1
   0  -2   4 116.110 15.1100   1
   0  -2   4 112.430 16.7100   1
   1   2   0 80.3500 12.9300   1
  -1  -2   0 78.9400 14.1800   1
  -1  -2   0 67.6500 12.2000   1
   1   2   0 75.3900 14.3400   1
  -1  -2   0 74.8900 13.9500   1
   1   2   0 61.5800 13.5600   1
  -1  -1   5 335.130 17.7800   1
   1   1  -5 285.280 17.2200   1
  -1  -1   5 309.530 17.3800   1
   1   1  -5 266.380 18.5200   1
  -1  -2   2 15.2500 16.3500   1
   1   2  -2 -0.7400 14.3600   1
  -1  -2   2 11.9200 11.4500   1
   1   2  -2 18.3500 13.6500   1
  -2   1  -2 10.3400 13.4100   1
   2  -1   2 9.10000 11.9900   1
  -2   1   3 233.660 17.2400   1
   2  -1  -3 225.800 17.5500   1
  -2   1   3 177.810 16.1100   1
   2  -1  -3 179.170 17.3100   1
   2   0   2 1598.69 49.8100   1
   2   0   2 1631.26 46.2600   1
  -1   0  -5 366.450 23.3100   1
   1   0   5 421.120 24.2000   1
  -1   0  -5 401.040 24.3500   1
   1   0   5 352.260 21.3900   1
   0   0  -6 905.200 37.9800   1
  -1  -1  -4 4.41000 13.4800   1
  -1  -1  -4 10.7300 11.3800   1
  -1   1  -5 5.43000 14.6900   1
   1  -1   5 21.5200 15.9500   1
  -1   1  -5 23.2800 15.2100   1
   1   2   1 390.400 17.7300   1
  -1  -2  -1 367.570 17.1300   1
   1   2   1 353.800 18.5600   1
  -1  -2  -1 350.080 17.3500   1
   1   2   1 383.930 17.7300   1
  -1  -2  -1 354.340 17.8100   1
  -1  -2   3 79.7100 12.6900   1
   1   2  -3 99.7200 15.1700   1
   1   2  -3 121.930 14.3500   1
  -1  -2   3 105.240 12.2800   1
   1   2  -3 102.350 16.8700   1
  -1  -2   3 82.3900 15.0300   1
  -1  -2   3 89.1700 19.3400   1
   2   1  -1 559.240 21.2400   1
  -2  -1   1 567.830 20.7500   1
  -2  -1   1 618.210 22.7600   1
  -1   2  -4 149.560 18.4000   1
  -1   2  -4 161.150 18.3500   1
   1  -2   4 151.600 12.7700   1
   0   1  -6 90.4000 17.1600   1
   0  -1   6 80.7400 16.9700   1
   0   1  -6 67.8700 13.2400   1
   0  -1   6 100.360 15.5100   1
   0   1  -6 68.2600 17.1900   1
   2   0  -4 1188.68 46.0400   1
   2   0  -4 1212.75 31.8800   1
   1   0  -6 1252.74 40.5000   1
  -1   0   6 1131.48 36.0100   1
   1   0  -6 1018.68 38.4600   1
  -2  -1   0 673.540 35.2800   1
  -2  -1   0 734.540 23.2200   1
  -2  -1   2 396.570 18.6900   1
  -2  -1   2 356.540 17.7800   1
   2   1  -2 357.930 19.2300   1
  -2   2   0 41.3900 11.2100   1
  -1   2   4 14.9500 12.7200   1
   1  -2  -4 25.7400 12.9500   1
  -1   2   4 29.8800 12.4900   1
  -2   1  -3 75.0600 14.5100   1
   2  -1  -4 243.340 16.8300   1
  -2   1   4 219.590 18.1200   1
  -2   1   4 252.790 17.4000   1
   2  -2   1 121.710 16.0200   1
  -2   2  -1 117.990 13.9700   1
  -1  -2  -2 56.5500 12.1000   1
   1   2   2 60.3400 12.7100   1
  -1  -2  -2 82.6300 12.8300   1
   1   2   2 36.9600 12.8800   1
  -1  -2  -2 64.0900 12.4800   1
   0   2   4 114.700 14.1800   1
   0  -2  -4 75.6200 15.5100   1
   0   2   4 116.430 13.7700   1
   0  -2  -4 107.430 13.9600   1
   0   2  -5 15.6300 13.2000   1
   0  -2   5 12.9400 10.5900   1
   0  -2   5 27.4000 11.9100   1
   2   0   3 494.390 25.4700   1
  -2   0  -3 520.520 24.0000   1
  -2   0  -3 544.580 28.9400   1
   2   0   3 539.000 27.8500   1
   2   1   1 11.2300 13.8500   1
   2   1   1 15.3400 12.4500   1
  -2  -1  -1 22.5000 13.4200   1
  -2  -1  -1 18.5600 11.4300   1
  -2  -1  -1 9.10000 12.7000   1
   2   1  -3 410.000 18.5100   1
  -2  -1   3 501.470 19.9200   1
   2   1  -3 480.060 20.9500   1
  -2  -1   3 474.630 21.0300   1
  -2   2   2 54.2000 14.4900   1
   2  -2  -2 69.1800 11.5600   1
   2  -2  -2 49.5600 14.5900   1
  -2   2   2 58.2500 13.0400   1
  -2   2   2 62.8200 12.8100   1
  -1  -2   4 5.29000 11.6900   1
   1   2  -4 14.6700 14.1200   1
   1   2  -4 13.6800 12.1600   1
   1   2  -4 3.32000 12.9200   1
   1   1  -6 109.680 14.0100   1
   1   1  -6 89.5200 14.8800   1
  -1  -1   6 99.7700 14.2200   1
  -1  -1   6 60.5400 13.2600   1
   0  -1  -6 678.160 27.3200   1
   0  -1  -6 805.790 33.9900   1
   0   1   6 750.250 33.4900   1
  -1   1   6 61.2400 12.4100   1
   1  -1  -6 67.1900 12.7400   1
  -2   2  -2 161.610 14.9400   1
   2  -2   2 165.220 17.5800   1
  -1  -1  -5 685.600 29.9000   1
   1   1   5 679.140 29.6600   1
  -1  -1  -5 691.010 23.4700   1
   1   1   5 671.260 23.1100   1
   1   1   5 653.310 30.7100   1
  -2   0   5 108.880 14.1500   1
  -2   0   5 107.380 13.7800   1
   2   0  -5 91.4100 15.2500   1
  -2   2   3 86.1000 15.5700   1
   2  -2  -3 58.2700 12.8200   1
  -2   2   3 106.780 14.0000   1
   2  -2  -3 80.1600 12.6800   1
   2   1   2 136.860 14.6000   1
  -2  -1  -2 116.960 13.6200   1
  -2  -1  -2 131.960 16.1500   1
   2   1   2 127.490 13.4700   1
   1  -2   5 246.810 14.7800   1
  -1   2  -5 235.440 20.3700   1
  -1   2  -5 240.910 18.8400   1
  -1   1  -6 76.9600 16.4800   1
   1  -1   6 59.2300 16.6200   1
  -1   1  -6 60.3600 11.4400   1
  -1   1  -6 42.2200 15.0500   1
  -1   1  -6 26.3300 12.0700   1
  -2  -1   4 20.5800 12.8000   1
  -2  -1   4 10.4900 13.3300   1
   2   1  -4 24.5200 12.4700   1
   2   1  -4 17.6700 14.0300   1
   1   0   6 44.9900 11.2700   1
  -1   0  -6 62.3100 13.8100   1
  -1   0  -6 58.4700 13.8700   1
   1   0   6 40.9500 12.8900   1
   1  -3   1 228.030 18.2700   1
  -1   3  -1 232.110 18.7400   1
   1  -3   1 254.880 21.9900   1
  -1   3  -1 210.620 14.6300   1
   1  -3   1 200.950 13.6400   1
  -1   3  -1 208.330 13.7400   1
   0   3  -1 201.480 16.1800   1
   0  -3   1 220.450 18.7800   1
   0   3  -1 189.250 14.6700   1
   0  -3   1 187.430 15.8100   1
   0  -3   1 201.160 13.3800   1
   0  -3   1 181.640 13.4500   1
   0   3  -1 199.910 15.7700   1
   1   2   3 129.060 13.7100   1
  -1  -2  -3 95.2500 13.5700   1
   1   2   3 104.720 14.1000   1
  -1  -2  -3 105.650 12.9400   1
   1   2   3 129.780 14.0000   1
  -1  -2  -3 109.990 14.6000   1
   2  -1   4 246.160 20.9000   1
   2  -1   4 205.850 18.5800   1
  -2   1  -4 239.440 20.8500   1
   0   3   0 28.2000 12.7300   1
  -2   1   5 457.590 24.7500   1
   2  -1  -5 398.020 28.1800   1
  -2   1   5 542.110 28.2700   1
   0   0   7 333.120 22.7700   1
   0   0  -7 319.260 24.7200   1
  -1   3   1 1133.20 29.0600   1
   1  -3  -1 1131.27 29.6500   1
   1  -3  -1 1194.70 34.0100   1
  -1   3   1 1085.65 44.3400   1
  -1   3   1 1045.04 47.6600   1
   1  -3  -1 1092.92 47.5100   1
   0  -3   2 20.6200 11.6000   1
   0  -3   2 20.8600 18.0300   1
   0   3  -2 17.8200 12.1800   1
  -1   2   5 95.7000 12.0000   1
  -1   2   5 91.3000 14.6000   1
   1  -2  -5 135.110 14.5700   1
  -1   2   5 111.450 14.6900   1
   2  -2   3 304.450 21.9200   1
  -2   2  -3 310.650 21.5400   1
  -1   3  -2 30.8400 12.4300   1
  -1   3  -2 36.0000 13.2700   1
   1  -3   2 35.3900 15.7200   1
   2   0   4 938.340 42.3000   1
  -2   0  -4 885.110 43.3500   1
  -2   0  -4 890.760 50.1300   1
   2   0   4 787.850 41.6600   1
   1   2  -5 145.630 15.1500   1
  -1  -2   5 128.860 15.3600   1
  -1  -2   5 129.730 14.4800   1
   1   2  -5 105.140 15.2900   1
   1   2  -5 85.5200 14.9000   1
   0   1  -7 10.8900 11.7800   1
   0  -1   7 -9.4100 11.7900   1
   0   1  -7 -6.7700 16.7000   1
   0   1  -7 7.47000 13.2600   1
   1   0  -7 663.180 38.3900   1
   1   0  -7 591.320 33.6900   1
  -1   0   7 664.400 33.7900   1
   0  -3  -1 381.630 21.8200   1
   0  -3  -1 313.120 19.4900   1
   0   3   1 343.880 20.2500   1
   0  -3  -1 357.240 20.9900   1
   0   3   1 373.310 22.0900   1
   0   3   1 368.060 20.0600   1
   0   2   5 31.5500 12.3400   1
   0  -2  -5 5.41000 11.9900   1
   0  -2   6 35.4400 11.8200   1
   0  -2   6 28.6500 15.4800   1
   0   2  -6 39.5900 13.7600   1
   0   2  -6 34.2400 14.4500   1
   0   3  -3 53.7000 14.7600   1
   0  -3   3 64.1900 19.6200   1
   0  -3   3 69.4500 14.0800   1
   0  -3   3 46.3400 11.5000   1
   0   3  -3 56.0200 13.6200   1
   0  -3   3 44.1400 10.3700   1
   0   3  -3 47.8000 10.2200   1
   0   3  -3 63.5900 13.5300   1
  -1   3   2 994.410 46.3900   1
  -1   3   2 1086.66 45.2600   1
  -1   3   2 1033.63 43.3000   1
   1  -3  -2 1089.72 46.3900   1
  -1   3   2 1122.79 28.3900   1
  -2   2   4 196.690 17.2500   1
  -2   2   4 295.340 21.6800   1
   2  -2  -4 272.780 20.5200   1
   2   1   3 72.2400 12.4200   1
  -2  -1  -3 78.8100 15.7900   1
  -2  -1  -3 68.2500 12.7400   1
   2   1   3 62.2000 14.3100   1
  -2  -1   5 153.580 16.2700   1
   2   1  -5 134.710 15.9800   1
  -2  -1   5 142.610 15.3500   1
   2   1  -5 137.970 14.1000   1
  -1   3  -3 226.020 18.2500   1
   1  -3   3 242.710 20.4600   1
  -1   3  -3 228.540 18.0700   1
  -1   3  -3 263.770 20.1300   1
   0  -3  -2 8.89000 12.8300   1
   0   3   2 8.40000 12.6200   1
  -1  -1   7 59.2700 13.1300   1
   1   1  -7 58.6900 15.0100   1
   1   1  -7 50.9900 12.4500   1
   2   0  -6 453.820 29.1900   1
  -2   0   6 344.750 26.6100   1
  -2   0   6 503.840 27.0900   1
   2   0  -6 378.480 23.6500   1
  -1  -2  -4 9.44000 11.9900   1
   1   2   4 10.8400 12.2100   1
   1   2   4 5.52000 12.4700   1
   1   2   4 9.21000 10.9200   1
   1  -1  -7 -8.5400 11.7400   1
  -1   1   7 12.9400 11.7500   1
  -1   1   7 3.70000 11.1000   1
  -1   1   7 3.79000 13.7200   1
   2  -2   4 418.390 29.9600   1
  -2   2  -4 371.990 26.7300   1
   2  -2   4 275.880 23.5400   1
   0   1   7 143.620 16.0500   1
   0   1   7 94.7300 13.9400   1
   0  -1  -7 168.050 16.1500   1
  -1   2  -6 22.6000 18.0000   1
   1   1   6 496.890 35.0700   1
  -1  -1  -6 557.660 36.1100   1
   1   1   6 533.060 29.8300   1
  -1  -1  -6 558.570 34.1200   1
  -1  -1  -6 627.170 29.2000   1
  -2   1  -5 102.920 15.5000   1
   2  -1   5 98.6600 13.1900   1
   2  -1   5 115.190 14.6100   1
   0   3  -4 302.400 19.4400   1
   0  -3   4 414.610 22.9700   1
   0   3  -4 422.660 23.3800   1
   0   3  -4 389.620 22.9400   1
   0   3  -4 383.390 20.0600   1
  -2   1   6 18.5600 12.9900   1
  -2   1   6 1.91000 11.1800   1
   2  -1  -6 5.89000 13.6000   1
  -1   3   3 631.720 29.1800   1
   1  -3  -3 633.830 31.8000   1
   1  -3  -3 599.490 29.7400   1
  -1   3   3 705.270 31.6400   1
   2   2  -1 17.5800 8.74000   1
  -2  -2   1 22.6300 11.3600   1
  -2  -2   1 7.73000 8.69000   1
   2   2  -1 6.14000 13.1300   1
  -2  -2   1 27.1300 12.7600   1
  -1  -2   6 2.76000 11.5800   1
   1   2  -6 5.22000 13.4500   1
   1   2  -6 8.67000 12.1300   1
  -2  -2   2 596.430 40.2500   1
   2   2  -2 709.550 32.1900   1
  -2  -2   2 633.050 29.2100   1
  -2  -2   2 709.410 41.0400   1
  -2  -2   2 703.090 31.0200   1
   2   2  -2 548.980 34.3200   1
  -1   1  -7 637.110 36.0400   1
  -1   1  -7 730.990 39.0000   1
  -1   1  -7 684.140 41.5200   1
   1  -1   7 743.560 36.1800   1
   1  -1   7 564.580 38.7600   1
  -2  -2   0 5.99000 10.9000   1
  -2  -2   0 -2.8900 12.0700   1
   2   2   0 1.94000 11.9500   1
  -1   3  -4 391.580 23.4500   1
  -1   3  -4 410.150 28.1100   1
   1  -3   4 430.040 25.6900   1
  -1   3  -4 415.930 25.1600   1
  -2   0  -5 107.590 14.5100   1
   2   0   5 110.480 13.0900   1
   2   0   5 117.430 14.5200   1
  -2   0  -5 108.800 12.3300   1
  -1   2   6 275.360 18.2800   1
  -1   2   6 268.450 17.9600   1
   1  -2  -6 247.700 19.8200   1
  -1   2   6 211.740 14.9100   1
   3  -1  -1 15.9900 12.0400   1
  -3   1   1 28.9800 13.1400   1
  -3   1   1 26.1900 11.3700   1
   3  -1  -1 22.2300 11.5200   1
  -1   0  -7 16.0800 10.5800   1
   1   0   7 6.56000 10.9200   1
   1   0   7 3.49000 12.5800   1
  -2   3   0 258.580 19.4100   1
  -2   3   0 239.680 22.5600   1
  -2   3   0 226.460 18.9400   1
  -2   3   0 250.620 19.2800   1
   3  -1   0 323.990 23.6700   1
  -3   1   0 365.910 28.0900   1
   3  -1   0 372.080 29.2400   1
  -3   1   0 315.710 21.5600   1
   0   3   3 43.1800 10.9800   1
   0  -3  -3 30.8400 13.9300   1
   0   3   3 36.8500 13.1400   1
   0   3   3 31.3400 10.4400   1
   0  -3  -3 45.3900 10.9200   1
   0  -3  -3 33.3100 11.5300   1
   2  -2  -5 422.250 22.7700   1
   2  -2  -5 353.710 23.2100   1
  -2   2   5 379.360 22.3900   1
  -2   3  -1 164.860 17.0900   1
  -2   3  -1 168.150 17.7100   1
  -2   3  -1 145.880 15.5500   1
  -2   3  -1 205.010 16.8900   1
   2  -3  -1 204.940 18.6100   1
  -2   3   1 256.850 19.6700   1
  -2   3   1 243.570 17.4000   1
  -2   3   1 246.520 19.0400   1
   3  -1  -2 81.9800 13.4700   1
  -3   1   2 97.9300 13.0200   1
  -3   1   2 103.500 14.7700   1
   3  -1  -2 130.370 14.2500   1
   2   2  -3 98.5700 15.2800   1
  -2  -2   3 99.1400 12.8100   1
  -2  -2   3 101.490 15.1700   1
   2   2  -3 75.2200 10.1000   1
  -2  -2   3 86.6500 12.9200   1
  -1  -3   1 885.240 37.8700   1
  -1  -3   1 888.400 39.6200   1
   1   3  -1 910.260 37.6500   1
  -1  -3   1 912.150 38.1900   1
   1   3  -1 846.520 35.9900   1
  -1  -3   1 975.280 44.7600   1
   1   3  -1 925.290 38.4600   1
   2   1   4 8.39000 12.6200   1
  -2  -1  -4 10.1700 10.9100   1
  -2  -1  -4 17.3200 12.3800   1
  -3   0   1 450.780 32.8900   1
  -3   0   1 442.160 29.6900   1
   3   0  -1 489.310 27.3400   1
   3   0  -1 462.730 30.7100   1
  -1  -3   2 374.470 25.4100   1
   1   3  -2 350.230 19.2100   1
  -1  -3   2 379.730 22.8800   1
  -1  -3   2 366.440 23.3700   1
   1   3  -2 324.690 22.0200   1
  -1  -3   2 373.170 21.1300   1
   1   3  -2 369.880 21.3800   1
   0   2   6 183.880 16.7200   1
   0  -2  -6 209.160 16.6600   1
   0  -2  -6 143.890 16.3400   1
   2   1  -6 8.71000 11.7900   1
  -2  -1   6 14.7300 12.1200   1
  -2  -1   6 31.6400 12.4300   1
   1   3   0 147.310 14.2400   1
   1   3   0 179.030 15.0000   1
  -1  -3   0 164.510 14.5800   1
   1   3   0 184.680 20.3700   1
  -1  -3   0 162.880 14.6600   1
  -1  -3   0 188.000 16.7100   1
   0   2  -7 818.480 36.8600   1
   0   2  -7 660.020 37.8100   1
   0  -2   7 716.290 36.7000   1
   3   0  -2 233.390 22.8000   1
  -3   0   2 263.030 22.4300   1
   3   0  -2 278.780 20.9700   1
  -3   0   2 296.360 19.6700   1
   0   0  -8 213.640 22.9700   1
   0   0  -8 256.440 22.9000   1
   0   0   8 208.040 19.9500   1
  -2  -2  -1 172.530 15.6500   1
   2   2   1 187.560 16.8200   1
  -2  -2  -1 192.170 15.0800   1
  -2  -2  -1 205.870 16.2600   1
   2   2   1 196.010 16.1500   1
  -3   0   0 5.83000 14.1000   1
  -3   0   0 5.76000 12.2100   1
   3   0   0 -1.1600 12.1500   1
   3  -1   1 208.370 21.4800   1
  -3   1  -1 203.120 18.2500   1
  -3   1  -1 211.590 20.6400   1
   3  -1   1 216.970 17.3000   1
  -2   3  -2 74.7300 14.0100   1
  -2   3  -2 76.1500 13.5900   1
  -2   3  -2 72.2700 13.4000   1
   2  -3  -2 210.460 17.9400   1
  -2   3   2 222.480 18.8900   1
  -2   3   2 214.750 17.8700   1
  -2   3   2 259.300 19.0500   1
  -1   0   8 9.10000 12.1900   1
   1   0  -8 8.35000 12.4800   1
  -1   0   8 11.6700 11.3200   1
   1   0  -8 3.48000 12.9900   1
   1   0  -8 14.9100 10.7000   1
   0  -1   8 61.2100 12.3300   1
   0   1  -8 107.010 14.7800   1
   0  -1   8 81.9900 15.7800   1
   0   1  -8 84.3800 17.6500   1
   0  -1   8 87.7600 12.9500   1
   3  -1  -3 92.3100 13.2700   1
  -3   1   3 92.6200 13.2500   1
  -3   1   3 90.9000 14.6000   1
   1   3  -3 763.550 33.8300   1
   1   3  -3 837.980 35.3500   1
  -1  -3   3 721.430 31.5400   1
   1   3  -3 793.300 35.7000   1
  -1  -3   3 768.720 38.1500   1
  -1  -3   3 773.530 34.0700   1
   0   3  -5 518.230 35.4300   1
   0  -3   5 499.280 26.4600   1
   0  -3   5 488.450 26.2200   1
   0   3  -5 571.150 30.1400   1
   0   3  -5 492.420 25.0200   1
  -1   3   4 153.680 13.4300   1
  -1   3   4 200.070 16.0400   1
   1  -3  -4 192.110 16.0700   1
   3   0  -3 106.000 13.4100   1
  -3   0   3 74.1800 13.1400   1
   3   0  -3 100.270 14.4600   1
  -3   0   3 89.0400 13.8400   1
   1   3   1 23.8500 12.3600   1
  -1  -3  -1 23.7400 12.4600   1
   1   3   1 18.5300 11.0600   1
  -1  -3  -1 31.2900 12.1700   1
   1   3   1 26.5600 11.3600   1
  -1  -3  -1 16.6800 10.7900   1
   2  -2   5 125.710 13.4700   1
  -2   2  -5 178.960 17.1800   1
  -2  -2   4 130.710 16.2800   1
  -2  -2   4 98.7600 18.2500   1
  -2  -2   4 132.630 16.1800   1
   2   2  -4 88.0800 11.8600   1
  -2  -2   4 136.070 16.4600   1
  -2   0   7 265.530 22.4100   1
  -2   0   7 300.440 21.0500   1
   2   0  -7 290.500 19.8200   1
   3   0   1 16.5400 11.6600   1
   3   0   1 31.9900 12.5100   1
  -3   0  -1 10.4900 10.2000   1
  -3   0  -1 20.2700 11.3500   1
  -1  -2  -5 21.4100 14.4400   1
   1   2   5 22.2800 9.11000   1
   1   2   5 -8.4700 12.6000   1
  -1  -2  -5 19.8000 12.2800   1
   1   2   5 22.0300 10.6600   1
  -1  -2  -5 10.7200 13.3600   1
   1  -3   5 592.560 30.0900   1
  -1   3  -5 662.640 34.6300   1
  -1   3  -5 643.330 33.4600   1
  -3   1  -2 87.0500 14.2300   1
   3  -1   2 86.9400 12.9000   1
  -3   1  -2 102.270 13.1400   1
   3  -1   2 115.160 13.6500   1
   1   1  -8 4.49000 11.6100   1
  -1  -1   8 3.45000 8.05000   1
   1   1  -8 10.7500 9.84000   1
   2   2   2 395.070 27.3200   1
  -2  -2  -2 503.900 24.5400   1
  -2  -2  -2 487.040 24.5200   1
   2   2   2 402.270 20.8900   1
  -2  -2  -2 418.190 21.0600   1
  -3   2   1 310.690 24.5900   1
  -3   2   1 321.180 25.6800   1
   3  -2  -1 309.740 26.6300   1
   3  -2  -1 313.580 24.7500   1
   3  -2   0 50.9000 12.2400   1
  -3   2   0 47.4800 12.0100   1
  -3   2   0 53.2800 10.8100   1
  -2   3  -3 10.3700 14.3900   1
  -2   3  -3 6.85000 13.5000   1
  -2   3   3 254.010 18.6100   1
  -2   3   3 170.650 14.8000   1
   2  -3  -3 225.060 17.7200   1
   0   3   4 425.190 22.6700   1
   0   3   4 494.050 24.4400   1
   0  -3  -4 512.320 28.8500   1
   0  -3  -4 525.890 25.7100   1
   0  -3  -4 479.590 23.6400   1
   0   3   4 529.940 25.2500   1
   2  -1   6 155.640 15.1900   1
  -2   1  -6 161.070 13.2500   1
  -2   1  -6 153.020 19.1700   1
   2  -1   6 135.160 15.8100   1
  -1   2  -7 80.5600 15.7400   1
   1  -2   7 49.4000 11.1700   1
  -1   2  -7 56.1700 17.6700   1
  -2   1   7 -2.5400 10.7100   1
   2  -1  -7 -1.8400 13.3900   1
  -2   1   7 -7.5800 11.7500   1
  -1  -3   4 212.920 15.4900   1
   1   3  -4 204.110 17.2100   1
   1   3  -4 191.770 13.5400   1
  -1  -3   4 159.060 17.3400   1
  -1  -3   4 216.210 17.3000   1
  -3   1   4 66.9300 12.4700   1
   3  -1  -4 48.4000 13.0400   1
   3  -1  -4 83.3700 12.3900   1
  -1  -2   7 475.010 20.0000   1
   1   2  -7 443.470 25.1500   1
  -3   0   4 418.850 20.3600   1
   3   0  -4 381.480 23.6700   1
  -3   0   4 473.140 24.7900   1
   3   0  -4 398.860 23.7500   1
  -3   2   2 171.560 15.9800   1
  -3   2   2 157.900 14.2100   1
   3  -2  -2 128.760 13.2000   1
   3  -2  -2 129.730 16.7600   1
  -1   1   8 -0.5900 12.8200   1
  -1   1   8 2.62000 11.4200   1
  -1   1   8 -5.9100 11.0600   1
  -1  -3  -2 32.1000 12.6000   1
   1   3   2 49.5300 12.6200   1
   1   3   2 33.7000 12.2700   1
  -1  -3  -2 33.9400 12.2100   1
   1   3   2 26.7700 11.0500   1
  -3   2  -1 110.890 13.1800   1
   3  -2   1 117.870 14.2600   1
  -3   2  -1 139.290 16.0400   1
   3  -2   1 90.9100 13.3600   1
  -2   2   6 532.410 22.2300   1
   2  -2  -6 501.180 25.3300   1
  -2   2   6 508.120 27.7500   1
  -3   0  -2 154.880 16.4200   1
  -3   0  -2 140.690 14.2400   1
   3   0   2 140.950 15.2200   1
   3   0   2 120.640 14.4200   1
   1   1   7 130.990 14.4100   1
  -1  -1  -7 146.020 13.6800   1
  -1  -1  -7 137.020 16.2800   1
   1   1   7 137.110 14.1800   1
  -1  -1  -7 157.150 14.8200   1
   0   1   8 13.1700 11.2900   1
   0   1   8 15.6500 11.8500   1
   0  -1  -8 16.6300 12.7500   1
   0  -1  -8 14.0900 12.3100   1
   0   1   8 18.9500 15.5100   1
   0   1   8 12.6600 13.3600   1
  -2   0  -6 -4.5400 9.81000   1
   2   0   6 -1.3900 10.8400   1
  -2   0  -6 -1.0700 12.7700   1
   2   0   6 1.25000 12.0500   1
  -2  -2   5 145.710 13.9300   1
   2   2  -5 131.370 12.5100   1
  -2  -2   5 166.770 15.6400   1
   2   2  -5 95.1800 10.3300   1
  -2  -1  -5 9.37000 9.50000   1
   2   1   5 2.43000 11.3600   1
  -1   2   7 62.8200 12.9900   1
   1  -2  -7 53.8200 12.5600   1
  -1   2   7 55.7300 13.4200   1
  -1   2   7 36.3100 7.95000   1
   2   1  -7 111.240 13.4800   1
  -2  -1   7 91.9700 13.6800   1
  -2  -1   7 100.780 13.4000   1
   2   1  -7 109.690 14.8900   1
   3  -2  -3 313.270 20.8400   1
  -3   2   3 296.760 20.3300   1
  -3   2   3 303.490 23.0800   1
   0  -3   6 347.510 19.9500   1
   0  -3   6 283.400 17.8400   1
   0   3  -6 394.240 18.3800   1
   0   3  -6 364.450 24.6200   1
  -1   1  -8 66.9200 12.0000   1
  -1   1  -8 54.7500 14.5400   1
   1  -1   8 45.7400 11.1400   1
   1  -1   8 39.3600 14.8500   1
  -1   1  -8 74.8000 15.5700   1
  -3   1  -3 94.6900 13.7100   1
   3  -1   3 108.630 12.4200   1
  -3   1  -3 97.5600 13.9700   1
   3  -1   3 125.150 13.3100   1
  -3  -1   1 77.8800 13.3400   1
  -3  -1   1 62.5400 9.81000   1
   3   1  -1 82.6700 13.6500   1
   3   1  -1 114.580 14.0100   1
  -3  -1   2 318.740 17.0200   1
   3   1  -2 234.520 18.6400   1
  -3  -1   2 288.420 19.7300   1
   3   1  -2 292.760 17.4100   1
   3  -2   2 101.860 12.8000   1
  -3   2  -2 103.940 14.1100   1
  -3   2  -2 94.5100 11.0200   1
   3  -2   2 104.740 13.4900   1
  -1   3   5 220.470 17.4300   1
   1  -3  -5 242.160 15.6900   1
  -1   3   5 233.560 15.3500   1
  -1   0  -8 68.5900 13.1600   1
  -1   0  -8 76.4600 13.1900   1
   1   0   8 48.8100 13.3400   1
  -1   0  -8 96.5800 12.1800   1
   1   0   8 90.8300 12.1400   1
  -2  -2  -3 22.6000 11.8600   1
   2   2   3 13.3000 10.9900   1
  -2  -2  -3 29.6100 11.3400   1
   2   2   3 27.6400 11.7500   1
  -2  -2  -3 25.7000 11.4900   1
   2   2   3 26.7600 12.8200   1
  -2   3  -4 69.3600 15.6400   1
   2  -3   4 87.1100 10.5900   1
  -2   3  -4 64.9000 14.9400   1
  -2   3   4 -6.7100 13.0300   1
   0   2   7 47.8000 12.2200   1
   0  -2  -7 69.2300 14.3400   1
   0  -2  -7 52.6100 9.64000   1
   3   1   0 54.0800 12.4500   1
  -3  -1   0 60.7500 13.3000   1
   3   1   0 41.8500 13.1200   1
  -3  -1   0 65.2500 12.9000   1
   1   3  -5 230.160 13.0600   1
  -1  -3   5 287.710 17.5600   1
  -1  -3   5 278.580 16.1800   1
   1   3  -5 272.660 17.5300   1
   0  -2   8 127.810 12.8600   1
   0   2  -8 216.950 15.9200   1
   0  -2   8 132.840 10.9700   1
   0   2  -8 154.560 15.1100   1
  -3   1   5 25.2000 11.2400   1
   3  -1  -5 20.4700 10.5000   1
   3  -1  -5 21.5000 12.1500   1
  -3   1   5 29.3300 11.7200   1
   3   0  -5 473.620 28.5900   1
  -3   0   5 448.190 21.2100   1
   3   0  -5 373.810 19.1600   1
  -2   2  -6 95.2000 12.4700   1
   2  -2   6 115.270 15.5000   1
  -2   2  -6 115.660 15.3300   1
   3   1  -3 27.5500 12.7300   1
   3   1  -3 36.4700 11.8500   1
  -3  -1   3 20.6800 8.07000   1
   3   1  -3 17.6400 9.76000   1
  -3  -1   3 20.1400 12.4900   1
  -1  -3  -3 191.230 14.6700   1
  -1  -3  -3 165.440 13.7600   1
  -1  -3  -3 182.130 14.2300   1
   1   3   3 168.940 14.2500   1
   1   3   3 167.050 14.3200   1
   1   3   3 149.750 11.5500   1
   1  -3   6 363.590 23.4800   1
   1  -3   6 411.340 21.2000   1
  -1   3  -6 433.570 23.8900   1
  -1   3  -6 390.560 20.4400   1
  -3   0  -3 44.2700 11.2500   1
   3   0   3 43.8300 12.8400   1
   3   0   3 66.9800 11.8700   1
  -3   0  -3 33.3100 13.6400   1
   1   2   6 91.9400 13.7400   1
   1   2   6 98.0800 12.5300   1
  -1  -2  -6 79.2800 13.8000   1
  -1  -2  -6 121.540 13.4800   1
   1   2   6 93.1300 14.0300   1
   0   3   5 437.520 19.6800   1
   0   3   5 462.950 18.5100   1
   0   3   5 460.960 23.7800   1
   0  -3  -5 419.620 18.3800   1
   2   0  -8 10.6500 10.8400   1
  -2   0   8 3.09000 8.01000   1
   2   0  -8 5.77000 13.6100   1
  -2   0   8 7.45000 10.7900   1
  -2   0   8 1.79000 10.7100   1
   0   0   9 120.170 13.7500   1
   0   0  -9 71.0200 13.5400   1
   0   0  -9 78.5400 13.9000   1
   0   0   9 104.710 13.0500   1
   0   0   9 103.660 11.9100   1
   3  -2  -4 118.110 13.3500   1
  -3   2   4 123.440 15.7500   1
  -3   2   4 130.530 15.3800   1
  -3   2   4 114.570 13.7200   1
  -3  -1  -1 260.370 17.9000   1
  -3  -1  -1 274.270 20.0200   1
   3   1   1 263.630 16.3300   1
  -3  -1  -1 237.120 16.9100   1
   3   1   1 227.170 16.4700   1
   1   0  -9 107.210 14.2700   1
   1   0  -9 80.6100 15.1100   1
  -1   0   9 89.6100 13.9900   1
  -1   0   9 76.6800 12.3000   1
   1   0  -9 73.3300 11.8000   1
   0  -1   9 38.6800 10.8800   1
   0  -1   9 49.2600 11.0600   1
   0   1  -9 43.0600 16.5400   1
   0  -1   9 56.0500 14.5000   1
   2   2  -6 183.640 16.3200   1
   2   2  -6 149.000 16.8100   1
   2   2  -6 175.590 14.4400   1
  -2  -2   6 224.090 16.2600   1
  -2  -2   6 215.730 14.9700   1
   3  -2   3 247.070 20.9000   1
  -3   2  -3 237.280 15.2900   1
   3  -2   3 222.760 19.7200   1
  -1   4  -1 1032.95 40.6400   1
   1  -4   1 972.960 28.7600   1
  -1   4  -1 1051.90 34.3700   1
  -1   4  -1 996.600 31.3600   1
   1  -4   1 1002.05 30.8100   1
   3   1  -4 151.450 14.6800   1
  -3  -1   4 137.990 14.4900   1
  -3  -1   4 125.860 13.3100   1
   3   1  -4 156.230 15.8300   1
   1   2  -8 175.990 17.0200   1
   1   2  -8 157.880 13.7400   1
  -1  -2   8 181.560 15.5700   1
  -1  -2   8 206.990 15.9900   1
  -2   1  -7 65.9200 13.9100   1
   2  -1   7 75.2500 13.2600   1
   2  -1   7 78.8200 12.9900   1
  -2   1  -7 96.0700 11.5600   1
  -1   4  -2 32.3200 11.1000   1
  -1   4  -2 22.9200 9.72000   1
   1  -4   2 33.1500 14.4000   1
  -3   1  -4 -2.8000 13.1000   1
  -3   1  -4 -4.3600 10.8100   1
   3  -1   4 -16.360 11.4300   1
   2  -1  -8 111.300 14.2000   1
  -2   1   8 75.4700 14.4600   1
  -2   1   8 149.420 13.0500   1
   2  -1  -8 158.900 15.2900   1
   1  -4  -1 83.4200 14.1300   1
  -1   4   1 80.8100 10.3900   1
   1  -4  -1 87.6300 13.8700   1
  -1   4   1 94.3700 13.6900   1
  -1   4   1 77.3300 11.5400   1
   1  -4  -1 81.7000 12.1300   1
   2  -2  -7 13.9300 11.7400   1
  -2   2   7 10.3000 10.2200   1
  -2   2   7 4.14000 8.81000   1
   2  -2  -7 13.6400 8.27000   1
   1   1  -9 74.9400 12.4000   1
   1   1  -9 99.2700 13.9000   1
  -1  -1   9 94.4000 12.9200   1
  -1  -1   9 101.080 14.6300   1
   0  -4   1 102.970 10.9800   1
   0  -4   1 99.0400 15.9200   1
   0   4  -1 80.3300 11.4100   1
   0  -4   1 91.7300 11.0900   1
   0   4  -1 89.1900 12.1400   1
   0   4  -1 83.7900 12.2200   1
   0  -4   1 103.020 14.4000   1
  -1   2  -8 13.2500 14.3400   1
   1  -2   8 -0.6600 9.30000   1
  -1   2  -8 -11.340 15.4900   1
  -2   3  -5 3.23000 14.3800   1
  -2   3  -5 14.0100 10.3300   1
   2  -3  -5 19.0300 8.34000   1
  -2   3   5 26.4200 9.50000   1
  -2   3   5 29.2000 9.77000   1
   0  -4   0 202.730 13.9600   1
   0   4   0 209.720 14.5100   1
   0   4   0 226.030 14.5300   1
   0  -4   0 199.040 17.5900   1
   0   4   0 189.070 13.4100   1
   0  -4   0 199.440 14.9800   1
   0  -4   0 232.170 13.6500   1
   0  -4   2 59.4300 9.58000   1
   0   4  -2 65.2900 10.3800   1
   0  -4   2 63.4100 10.2500   1
   0   4  -2 65.6700 12.6100   1
   0  -4   2 65.6300 16.8400   1
   0   4  -2 67.1600 12.4200   1
   0  -4   2 75.0200 13.8700   1
  -2  -2  -4 254.190 18.1200   1
  -2  -2  -4 255.220 16.8300   1
   2   2   4 242.070 18.1000   1
   2   2   4 235.340 15.3900   1
  -2  -2  -4 273.370 15.0500   1
   2   2   4 230.020 18.6100   1
   1   3  -6 233.990 16.1400   1
  -1  -3   6 198.660 14.8500   1
   1   3  -6 206.010 16.6500   1
  -1  -3   6 190.890 15.5900   1
   2   1   6 171.510 15.1900   1
   2   1   6 167.930 14.9900   1
  -2  -1  -6 192.540 13.4000   1
  -2  -1  -6 184.420 18.4200   1
   3   1   2 308.950 22.9500   1
  -3  -1  -2 395.220 24.4200   1
   3   1   2 366.540 23.5800   1
  -3  -1  -2 427.120 17.8700   1
  -3  -1  -2 381.800 21.2500   1
  -3  -1  -2 326.290 25.5400   1
  -3   0   6 35.7700 12.2000   1
  -3   0   6 33.8700 8.86000   1
   3   0  -6 32.2800 9.70000   1
   3   0  -6 33.0800 10.8200   1
   0   3  -7 79.9800 13.6100   1
   0  -3   7 52.3300 11.5600   1
   0   3  -7 81.8900 15.7700   1
   0  -3   7 53.5700 13.9300   1
   0   3  -7 49.4400 12.7200   1
   3  -1  -6 168.080 15.0300   1
  -3   1   6 151.850 13.4000   1
  -3   1   6 179.270 15.9000   1
  -3   1   6 178.170 16.8800   1
   2   1  -8 85.8400 13.5800   1
   2   1  -8 106.930 14.9100   1
  -2  -1   8 92.7700 12.5400   1
   2   0   7 60.9600 11.3800   1
   2   0   7 58.4100 13.4300   1
  -2   0  -7 32.9300 12.7600   1
  -2   0  -7 47.3800 10.6100   1
  -2   0  -7 53.5800 12.8700   1
  -1   3   6 21.9900 11.9700   1
   1  -3  -6 26.1900 11.7900   1
  -1   3   6 19.7500 12.8300   1
  -1   3   6 25.0100 9.38000   1
  -1   4  -3 113.720 14.7700   1
  -1   4  -3 84.1100 11.0300   1
  -1   4  -3 100.420 12.1400   1
   1  -4   3 91.4800 14.7100   1
  -1   4  -3 112.360 13.6700   1
  -1  -3  -4 78.3700 13.1400   1
   1   3   4 84.2000 12.0600   1
  -1  -3  -4 71.8500 12.3600   1
   1   3   4 76.7200 12.8600   1
   1   3   4 91.2600 13.3600   1
  -1   1   9 151.620 13.4800   1
  -1   1   9 140.070 12.9400   1
   1  -1  -9 88.5200 13.8900   1
  -1   1   9 138.930 14.0500   1
  -1  -1  -8 25.3900 11.3000   1
   1   1   8 9.11000 10.7700   1
  -1  -1  -8 23.2400 11.6000   1
   3  -2  -5 66.0800 12.2900   1
  -3   2   5 51.1900 10.8700   1
  -3   2   5 42.2900 10.6200   1
  -3   2   5 79.5200 15.1900   1
  -3   0  -4 23.9800 12.0200   1
   3   0   4 19.5300 12.2700   1
  -3   0  -4 31.1400 11.3100   1
   3   0   4 24.6400 11.3200   1
   3  -3   0 117.980 17.0500   1
  -3   3   0 153.200 14.9400   1
  -3   3   0 105.260 14.9300   1
  -3  -1   5 8.71000 8.96000   1
  -3  -1   5 2.39000 9.99000   1
   3   1  -5 -5.0900 13.2200   1
   3   1  -5 -2.2300 10.3500   1
   0  -4  -1 136.980 12.5200   1
   0   4   1 140.010 12.7000   1
   0   4   1 139.660 13.0800   1
   0  -4  -1 158.060 12.9900   1
   0   4   1 125.200 13.0400   1
   0  -4  -1 157.900 13.7800   1
   0  -4  -1 144.220 14.2000   1
   3  -3  -1 96.7700 14.2600   1
   3  -3  -1 87.7400 11.7800   1
  -3   3   1 65.2300 14.0800   1
  -3   3   1 86.8800 12.4400   1
   1  -4  -2 43.3900 14.0900   1
   1  -4  -2 41.7000 11.5900   1
  -1   4   2 41.6900 13.0300   1
  -1   4   2 34.8400 9.18000   1
  -1   4   2 38.5300 9.37000   1
   1  -4  -2 47.6300 14.1400   1
  -1   2   8 22.2200 11.8200   1
   1  -2  -8 11.3500 10.7700   1
  -1   2   8 16.0200 7.61000   1
  -1   2   8 15.2800 11.9100   1
   0   4  -3 17.0700 8.15000   1
   0  -4   3 18.6900 13.3300   1
   0   4  -3 18.4700 8.68000   1
   0   1   9 36.1200 9.82000   1
   0   1   9 51.0700 13.1400   1
   0  -1  -9 50.1500 11.3400   1
   0  -1  -9 38.4700 11.5800   1
   0   1   9 36.5900 11.8800   1
   0   1   9 38.8700 11.6600   1
  -3   3  -1 340.040 26.6300   1
   3  -3   1 293.860 23.9100   1
   3  -2   4 135.580 15.8000   1
  -3   2  -4 161.400 16.1400   1
   3  -2   4 123.760 14.1800   1
  -2  -3   1 256.810 15.9300   1
   2   3  -1 215.930 16.1400   1
  -2  -3   1 204.080 17.2100   1
   2   3  -1 209.200 14.9600   1
  -2  -3   1 215.430 16.1600   1
  -2  -3   2 331.010 32.0000   1
  -2  -3   2 431.220 19.7100   1
   2   3  -2 412.070 19.2600   1
  -2  -3   2 429.400 20.5000   1
  -2  -3   2 402.540 27.1800   1
   2   3  -2 428.740 20.8700   1
   3  -3  -2 105.540 12.8900   1
  -3   3   2 103.350 15.4700   1
  -3   3   2 103.620 13.4100   1
   3  -3  -2 82.6700 14.6200   1
  -3   3   2 71.0700 9.92000   1
   1  -3   7 324.530 22.6900   1
   1  -3   7 333.490 20.4000   1
  -1   3  -7 350.440 22.2500   1
  -1   3  -7 283.940 23.2500   1
   2  -2   7 90.5000 15.9600   1
  -2   2  -7 70.8700 10.0300   1
  -2   2  -7 85.0300 14.2900   1
  -2   2  -7 51.2800 11.2100   1
   2   2  -7 13.7000 8.36000   1
  -2  -2   7 38.3100 9.04000   1
   2   2  -7 65.5500 14.1400   1
   2   2  -7 11.9300 10.4900   1
   2   3   0 325.070 17.6500   1
  -2  -3   0 312.720 17.7300   1
  -2  -3   0 307.780 17.9500   1
   2   3   0 335.960 18.4900   1
   1  -1   9 58.7700 11.0900   1
  -1   1  -9 51.9500 12.4300   1
  -1   1  -9 68.5100 14.6000   1
   2   3  -3 768.740 28.0600   1
   2   3  -3 761.440 30.5000   1
  -2  -3   3 845.340 29.5100   1
  -2  -3   3 697.540 25.7400   1
  -2  -3   3 785.420 37.3900   1
  -2  -3   3 788.640 29.6300   1
   0  -3  -6 254.410 17.9700   1
   0   3   6 274.870 17.3900   1
   0   3   6 288.740 16.8300   1
   0  -2  -8 183.190 16.1200   1
   0   2   8 234.120 15.3100   1
   2  -4   0 286.690 24.9800   1
  -2   4   0 288.890 19.4400   1
  -2   4   0 295.450 21.2000   1
  -2   4   0 325.740 19.4200   1
   0   2  -9 -7.7600 11.5700   1
   0   2  -9 12.4300 12.3300   1
   0  -2   9 17.2700 14.2800   1
   0  -2   9 5.06000 10.5500   1
   0  -2   9 14.1700 10.1600   1
   1  -4   4 75.3700 15.0000   1
  -1   4  -4 50.5000 13.6200   1
  -1   4  -4 59.7700 10.2100   1
   0   4   2 178.670 13.9200   1
   0  -4  -2 173.500 13.5100   1
   0  -4  -2 189.930 15.1400   1
   0  -4  -2 180.290 14.8300   1
   0   4   2 160.630 13.6100   1
   0   4   2 206.850 14.7700   1
  -2   4  -1 163.760 16.2500   1
  -2   4  -1 165.520 14.1600   1
  -2   4  -1 183.780 15.0400   1
  -2   4  -1 136.840 14.0600   1
   3  -3   2 275.550 23.8400   1
  -3   3  -2 260.350 18.8200   1
   0   4  -4 52.4700 12.5800   1
   0  -4   4 37.4500 8.95000   1
   0  -4   4 56.7400 14.2500   1
   0   4  -4 38.9500 10.2400   1
   0   4  -4 49.7200 11.5200   1
   0  -4   4 35.1300 9.69000   1
   0   4  -4 39.9100 9.45000   1
   3   1   3 58.3800 10.7800   1
  -3  -1  -3 82.1000 15.1100   1
   3   1   3 68.0200 13.5300   1
  -3  -1  -3 53.1200 9.44000   1
  -1   0  -9 130.750 15.6500   1
   1   0   9 149.280 13.6200   1
  -1   0  -9 126.660 13.7700   1
   1   0   9 104.180 18.1300   1
  -1   0  -9 103.750 14.7900   1
  -1   0  -9 151.460 14.3100   1
  -1  -2  -7 10.2300 13.8700   1
   1   2   7 7.30000 10.5300   1
  -1  -2  -7 -3.0800 8.29000   1
   1   2   7 2.28000 12.4300   1
   1   2   7 -10.830 11.1500   1
  -1  -2  -7 -8.5500 11.4900   1
  -2   4   1 0.12000 12.1400   1
  -2   4   1 -2.6500 12.2000   1
   3  -1   5 96.2400 13.1600   1
  -3   1  -5 86.7400 14.1200   1
   3  -1   5 67.2600 9.41000   1
  -1   4   3 -2.6000 12.8300   1
   1  -4  -3 -9.3200 11.2100   1
  -3   3   3 2.31000 13.9200   1
   2   0  -9 29.1200 10.7300   1
  -2   0   9 23.6500 8.20000   1
  -2   0   9 35.4500 11.4800   1
   2   0  -9 32.1600 14.0700   1
  -2   0   9 9.26000 10.1500   1
  -2   4  -2 420.790 21.4800   1
  -2   4  -2 413.350 27.4900   1
  -2   4  -2 412.230 22.0600   1
  -2   4  -2 458.820 25.1300   1
   2   3   1 141.870 17.7900   1
   2   3   1 154.140 14.7000   1
  -2  -3  -1 119.850 12.4200   1
   2   3   1 133.960 10.6200   1
  -2  -3  -1 140.690 13.9000   1
   2   3   1 134.700 14.5300   1
  -2  -3  -1 121.480 13.9700   1
  -2   3  -6 3.67000 12.9000   1
  -2   3  -6 0.01000 14.1200   1
  -2   3   6 9.64000 11.7400   1
   2  -3  -6 6.39000 7.97000   1
  -2   3   6 -21.480 12.6800   1
   1   3  -7 6.99000 11.9800   1
  -1  -3   7 11.3400 9.33000   1
  -1  -3   7 13.3300 11.1900   1
   1   3  -7 36.6700 12.3100   1
   1   3  -7 2.45000 12.2900   1
   2   3  -4 34.9700 13.5700   1
  -2  -3   4 3.04000 10.7000   1
  -2  -3   4 4.40000 9.46000   1
   2   3  -4 -7.1200 10.7700   1
  -2  -3   4 5.47000 11.3700   1
   3   1  -6 117.140 13.3400   1
   3   1  -6 107.260 15.2000   1
  -3  -1   6 93.1100 12.3200   1
  -3  -1   6 124.460 14.5500   1
  -2  -2  -5 137.520 14.8800   1
   2   2   5 109.270 11.2900   1
   2   2   5 142.050 13.8600   1
  -2  -2  -5 128.790 11.8300   1
  -3   0   7 31.5300 11.3200   1
  -3   0   7 29.0400 12.3900   1
   3   0  -7 36.5700 11.4100   1
   3   0  -7 37.9900 13.5100   1
  -3   0   7 49.7200 12.0700   1
  -3   2   6 180.430 16.5900   1
  -3   2   6 230.450 18.4100   1
   3  -2  -6 263.830 23.8500   1
  -2   4   2 5.96000 10.7700   1
  -2   4   2 17.8500 11.4000   1
   2  -4  -2 11.2800 6.92000   1
  -2   4   2 21.9000 12.4000   1
   2  -4  -2 22.0800 11.0400   1
  -3   1   7 67.8000 12.7600   1
   3  -1  -7 88.0400 13.5300   1
  -3   1   7 31.2300 14.2500   1
   3  -1  -7 68.6200 14.1300   1
  -3  -2   2 14.4200 7.90000   1
   3   2  -2 14.8600 8.99000   1
  -3  -2   2 15.0400 12.4700   1
   3   2  -2 21.9800 13.4000   1
   3   2  -1 72.1200 13.7000   1
  -3  -2   1 81.7800 12.7400   1
  -3  -2   1 62.8900 9.09000   1
   3   2  -1 85.0900 10.6700   1
  -3  -2   1 75.1300 13.3800   1
  -1  -3  -5 596.430 29.7400   1
   1   3   5 755.460 26.5000   1
   1   3   5 651.180 32.0300   1
   1   2  -9 245.140 16.2300   1
   1   2  -9 163.660 13.4700   1
  -1  -2   9 196.510 17.1600   1
  -1  -2   9 201.640 16.8200   1
  -2   2   8 -5.2400 11.8500   1
  -2   2   8 -6.4500 9.96000   1
   2  -2  -8 2.04000 11.0400   1
   1   0 -10 30.5700 10.9000   1
  -1   0  10 35.3100 9.41000   1
  -1   0  10 27.1100 9.82000   1
  -1   0  10 17.9900 11.2100   1
   1   0 -10 14.5900 9.35000   1
  -1   0  10 33.4800 12.6700   1
   0   0  10 93.2200 12.8200   1
   0   0  10 97.5600 11.7000   1
   0   0 -10 82.5900 13.4200   1
   0   0 -10 71.5300 13.1300   1
   0   0 -10 74.3200 13.0800   1
   0   0  10 97.6900 13.8100   1
   3  -3   3 125.220 15.9000   1
  -3   3  -3 119.090 11.5000   1
  -3   0  -5 99.9800 11.9200   1
   3   0   5 116.480 13.9400   1
  -3   0  -5 141.140 15.8300   1
   3   0   5 127.240 15.3600   1
  -2   1  -8 6.56000 12.8100   1
   2  -1   8 2.49000 12.9200   1
  -2   1  -8 19.7600 10.1600   1
  -2   1  -8 4.79000 8.72000   1
   0   1 -10 13.0000 14.9900   1
   0  -1  10 11.4600 10.4400   1
   0  -1  10 7.05000 10.8300   1
   0   1 -10 -1.1500 11.8100   1
   0   3  -8 198.140 16.1200   1
   0  -3   8 182.260 17.0900   1
   0  -3   8 164.610 15.1400   1
   0   3  -8 153.950 16.9100   1
  -2   1   9 97.4700 14.5900   1
   2  -1  -9 121.650 14.9000   1
  -2   1   9 158.260 14.0100   1
   2  -1  -9 144.260 15.2100   1
   3  -2   5 329.150 27.1900   1
  -3   2  -5 368.910 29.9300   1
   3  -2   5 377.860 24.7300   1
   0  -4  -3 12.3700 12.3000   1
   0  -4  -3 34.9200 11.2600   1
   0  -4  -3 37.2000 9.92000   1
   0   4   3 32.7000 9.70000   1
   0   4   3 34.1300 10.7100   1
   0   4   3 32.4400 11.6700   1
   3   2  -3 15.8500 11.7300   1
   3   2  -3 17.8100 12.6000   1
  -3  -2   3 23.5600 10.2300   1
  -3  -2   3 10.4800 12.2000   1
  -3  -2   3 15.4200 14.0100   1
  -2   4  -3 47.4100 11.7400   1
  -2   4  -3 43.4900 14.8300   1
  -2   4  -3 44.6500 12.7500   1
   0  -4   5 -1.3000 13.6800   1
   0   4  -5 17.2700 8.65000   1
   0   4  -5 -0.1500 12.4600   1
  -3  -2   0 5.86000 8.22000   1
   3   2   0 5.88000 8.49000   1
  -3  -2   0 -6.8300 7.77000   1
  -3  -2   0 4.71000 12.0900   1
  -1   4  -5 27.2100 13.6000   1
  -1   4  -5 14.2400 12.3600   1
   1  -4   5 15.3100 14.7500   1
   2   1   7 66.2800 13.1300   1
   2   1   7 57.3400 12.0300   1
  -2  -1  -7 57.7300 11.4100   1
  -2  -1  -7 47.8200 13.9200   1
   2   1   7 33.3100 8.43000   1
  -1   3   7 95.4900 10.5900   1
   1  -3  -7 96.0100 12.7500   1
  -1   3   7 96.4500 11.0500   1
  -1   3   7 107.570 11.6500   1
  -3   3   4 -0.8600 12.7800   1
   3  -3  -4 3.88000 9.90000   1
   1  -2   9 92.8400 11.9900   1
  -1   2  -9 96.7000 16.8000   1
  -1   2  -9 79.3300 14.3000   1
  -1  -4   1 165.650 14.9700   1
  -1  -4   1 160.720 14.9600   1
   1   4  -1 152.330 12.9900   1
   1   4  -1 156.430 14.4900   1
  -1  -4   1 150.560 12.8700   1
   1   4  -1 144.850 12.9000   1
  -1  -4   1 145.940 17.5800   1
  -1  -4   2 6.00000 13.9000   1
  -1  -4   2 16.2500 10.3000   1
   1   4  -2 33.0100 11.8800   1
   1   4  -2 16.6400 9.69000   1
  -1  -4   2 23.4400 10.8800   1
  -1  -4   2 28.4200 12.2700   1
   1   4  -2 21.4800 11.0500   1
   2   1  -9 175.410 16.7400   1
  -2  -1   9 141.610 14.6900   1
   2   1  -9 158.250 13.9100   1
  -2  -3  -2 24.6900 8.05000   1
  -2  -3  -2 43.8800 11.6900   1
   2   3   2 30.8600 8.55000   1
  -2  -3  -2 22.7000 11.0500   1
   2   3   2 58.8700 12.9300   1
   2   3   2 42.2200 12.6500   1
  -1  -1  10 42.0100 13.9000   1
   1   1 -10 52.2900 11.7600   1
   1   1 -10 42.0500 13.4100   1
  -1  -1  10 21.0900 8.38000   1
  -1  -1  10 42.4000 8.58000   1
  -2  -3   5 14.3300 18.2200   1
   2   3  -5 26.5500 11.4300   1
  -2  -3   5 29.0000 12.5100   1
  -2  -3   5 11.4400 10.1800   1
  -2  -3   5 22.4900 10.5400   1
   2   3  -5 9.93000 13.2800   1
  -1   4   4 0.74000 13.0000   1
   1  -4  -4 -4.0700 11.2300   1
  -1  -4   0 271.500 17.4900   1
  -1  -4   0 269.070 14.9200   1
   1   4   0 293.690 16.4500   1
  -1  -4   0 282.430 17.5800   1
   1   4   0 284.330 16.5900   1
   1   4   0 313.650 17.4600   1
  -2   0  -8 42.9200 9.92000   1
  -2   0  -8 30.4100 13.5300   1
  -2   0  -8 31.9200 12.0600   1
   2   0   8 25.8700 11.2900   1
   2   0   8 60.3200 13.3600   1
  -2   4   3 67.9700 11.5600   1
  -2   4   3 90.8800 12.7400   1
  -2   4   3 133.550 14.3600   1
  -2   4   3 95.9300 11.5500   1
  -2   4   3 113.120 11.3100   1
   2  -4  -3 110.990 13.2600   1
   3   1   4 70.0300 9.34000   1
  -3  -1  -4 104.590 13.1700   1
  -3  -1  -4 90.0700 11.5800   1
   3   1   4 124.080 13.6600   1
  -3  -1  -4 84.1500 15.7000   1
  -1  -4   3 32.3200 13.2300   1
   1   4  -3 38.9400 9.26000   1
   1   4  -3 13.5000 10.1300   1
  -1  -4   3 25.5200 16.3100   1
  -1  -4   3 35.3700 10.1800   1
   1   4  -3 46.6800 12.4100   1
  -3  -2   4 58.3900 11.6300   1
   3   2  -4 28.1200 8.77000   1
   3   2  -4 32.3100 10.2100   1
  -3  -2   4 54.8800 13.4600   1
  -3  -2   4 38.9000 14.8200   1
   2   2  -8 19.3900 9.75000   1
   2   2  -8 4.83000 11.7000   1
   2   2  -8 15.3400 11.6700   1
  -2  -2   8 -4.5500 12.6200   1
  -2  -2   8 2.82000 11.0700   1
   1  -3   8 11.8500 10.3300   1
  -1   3  -8 8.64000 12.2900   1
   1  -3   8 31.0500 10.9800   1
  -3  -2  -1 6.82000 8.57000   1
   3   2   1 16.7700 11.2400   1
  -3  -2  -1 3.17000 11.2400   1
   3   2   1 6.51000 10.7600   1
  -3  -2  -1 -0.9600 9.84000   1
  -1   2   9 33.7400 12.1100   1
  -1   2   9 36.2000 12.9400   1
  -1   2   9 64.7100 11.6800   1
  -1  -1  -9 27.3500 8.56000   1
  -1  -1  -9 21.8200 11.9500   1
   1   1   9 16.1500 10.5700   1
  -1  -1  -9 45.9000 12.1000   1
  -2   2  -8 32.7900 13.3200   1
   2  -2   8 -0.4000 13.8400   1
  -2   2  -8 -4.3400 12.2900   1
  -2   2  -8 0.97000 9.75000   1
  -2   2  -8 -0.6600 8.48000   1
   2  -2   8 -6.4000 9.06000   1
  -1   1  10 5.80000 10.0000   1
  -1   1  10 9.40000 12.7200   1
   1  -1 -10 11.2600 9.08000   1
   1  -1 -10 1.26000 10.0300   1
  -1   1  10 8.18000 10.5900   1
  -4   1   1 146.100 18.1000   1
   4  -1  -1 140.970 14.7900   1
   4  -1  -1 121.750 15.9900   1
  -4   1   1 118.120 17.0500   1
   1   4   1 753.940 22.3500   1
  -1  -4  -1 768.330 21.4100   1
   1   4   1 774.040 21.0800   1
   1   4   1 755.130 21.2600   1
  -1  -4  -1 780.430 57.6400   1
  -1  -4  -1 815.630 57.4100   1
  -2   4  -4 44.1700 11.8600   1
  -2   4  -4 58.1800 10.5500   1
  -2   4  -4 55.6100 16.2500   1
  -2   4  -4 42.7900 13.8500   1
   0   3   7 1.59000 8.10000   1
   0  -3  -7 27.6300 13.3100   1
  -3  -1   7 248.690 16.6100   1
   3   1  -7 251.050 19.4100   1
  -3  -1   7 185.830 13.5800   1
   3   1  -7 268.400 16.0500   1
   3  -1   6 -9.1700 11.0900   1
  -3   1  -6 8.00000 12.2500   1
  -3   1  -6 7.53000 8.95000   1
   3  -1   6 1.79000 10.3000   1
  -3   3  -4 3.24000 12.4700   1
   3  -3   4 -3.8300 13.6800   1
   4  -1  -2 16.5900 10.5400   1
  -4   1   2 0.21000 12.7000   1
  -4   1   2 0.48000 10.8300   1
  -4   1   2 -12.540 12.7000   1
   4  -1   0 18.3500 11.7000   1
  -4   1   0 20.1100 13.5500   1
   4  -1   0 19.1000 11.3800   1
  -4   1   0 18.8700 11.1600   1
  -1  -4   4 18.7600 18.3500   1
   1   4  -4 15.2600 11.2100   1
  -1  -4   4 25.5500 13.5500   1
   1   4  -4 3.41000 9.03000   1
  -1  -4   4 13.9800 9.69000   1
   1   3  -8 15.4800 13.2100   1
  -1  -3   8 31.7300 11.4500   1
  -1  -3   8 31.6100 13.6200   1
   1   3  -8 23.2600 9.68000   1
   1   3  -8 14.4000 8.62000   1
   0   4   4 6.50000 9.00000   1
   0  -4  -4 -1.7400 8.76000   1
   0   4   4 -3.1600 11.4200   1
   0   4   4 8.98000 10.1700   1
  -2   3  -7 91.8800 15.7800   1
  -2   3  -7 77.0900 15.2600   1
   2  -3   7 73.8300 10.1700   1
   0   1  10 -1.6900 11.8300   1
   0  -1 -10 19.9000 12.4400   1
   0   1  10 19.9700 11.1400   1
   0  -1 -10 -0.7800 10.3600   1
   0   1  10 16.4300 11.4800   1
  -2   3   7 24.4300 9.95000   1
  -2   3   7 20.9100 9.58000   1
   2  -3  -7 13.9200 11.9500   1
  -2   3   7 22.5400 12.2300   1
   3  -3  -5 174.240 16.0400   1
  -3   3   5 169.720 14.5300   1
  -3   3   5 151.790 14.6600   1
  -3   3   5 100.010 13.1600   1
   3  -2  -7 3.29000 8.94000   1
  -3   2   7 -9.2200 10.4900   1
  -3   2   7 3.38000 13.4400   1
   0  -4   6 7.39000 13.6900   1
   0  -4   6 -5.4000 9.22000   1
   0   4  -6 1.34000 12.6700   1
   0   4  -6 7.84000 11.5100   1
   2   3   3 24.5000 11.9200   1
  -2  -3  -3 13.0500 11.8400   1
  -2  -3  -3 23.8800 11.4000   1
   2   3   3 13.8300 11.7700   1
  -2  -3  -3 26.5800 10.3900   1
   2   3   3 5.32000 12.6800   1
  -3   0   8 10.8800 11.2400   1
  -3   0   8 8.30000 13.0700   1
  -3   0   8 16.4000 12.1200   1
   3   0  -8 -4.1900 12.9100   1
   3   0  -8 2.11000 9.56000   1
   4  -1  -3 -9.2800 8.11000   1
  -4   1   3 4.78000 10.8300   1
   4  -1  -3 4.44000 8.02000   1
  -4   1   3 -2.6300 13.2200   1
   3   2  -5 317.200 17.8900   1
  -3  -2   5 308.440 15.3700   1
  -3  -2   5 207.400 26.9000   1
  -2  -2  -6 110.840 14.6600   1
   2   2   6 82.3400 9.76000   1
   2   2   6 126.990 14.2300   1
   2   2   6 95.6300 12.8800   1
  -2  -2  -6 96.5900 11.7200   1
  -2  -2  -6 136.670 16.5900   1
   0  -2  -9 93.5300 13.6700   1
   0   2   9 133.350 16.3700   1
   0   2   9 110.180 10.8300   1
   2   3  -6 -8.0400 13.2700   1
  -2  -3   6 4.58000 10.4900   1
  -2  -3   6 -5.8600 13.1500   1
   1  -4   6 109.780 12.6300   1
  -1   4  -6 114.960 16.2100   1
  -1   4  -6 117.370 11.2000   1
   1  -4   6 110.690 13.1800   1
   1   2   8 57.0100 13.8300   1
   1   2   8 71.2800 12.9800   1
  -1  -2  -8 72.1000 12.5800   1
  -1  -2  -8 57.0400 15.2800   1
  -1  -2  -8 52.6800 12.6700   1
   1   2   8 53.8200 11.2200   1
   2  -4  -4 74.1100 12.0100   1
  -2   4   4 69.5300 14.2000   1
  -2   4   4 69.5200 10.2700   1
  -2   4   4 57.8200 11.4600   1
  -2   4   4 47.9700 10.8700   1
   0  -2  10 33.9500 8.06000   1
   0   2 -10 46.2500 12.2600   1
   0  -2  10 42.5100 13.9800   1
   0   2 -10 40.6700 12.5900   1
   0  -2  10 64.4300 11.7300   1
  -3  -2  -2 1.23000 10.6500   1
   3   2   2 3.01000 10.6400   1
   3   2   2 14.5900 9.07000   1
  -3  -2  -2 -10.770 10.4300   1
  -3  -2  -2 9.00000 12.2900   1
  -3   1   8 39.1000 13.0700   1
  -3   1   8 52.0200 11.9300   1
   3  -1  -8 52.2300 10.3500   1
  -1   1 -10 39.4300 10.1900   1
  -1   1 -10 61.0500 13.7700   1
   1  -1  10 44.3400 10.6100   1
   4   0  -1 123.280 11.0700   1
  -4   0   1 127.800 11.3200   1
  -4   0   1 158.940 15.5000   1
   4   0  -1 144.570 17.0200   1
   4   0  -2 115.870 15.6100   1
  -4   0   2 126.960 12.7300   1
  -4   0   2 126.650 14.8500   1
   4   0  -2 113.750 13.3900   1
   4  -1   1 -2.0500 11.3000   1
   4  -1   1 8.99000 11.0300   1
  -4   1  -1 16.3400 12.0500   1
  -4   1  -1 0.37000 10.8200   1
  -1  -3  -6 327.850 17.2700   1
  -1  -3  -6 289.060 17.4900   1
   1   3   6 253.190 19.5100   1
   1   3   6 284.990 16.4100   1
   1   3   6 301.580 15.5400   1
   3  -2   6 40.3100 10.2700   1
  -3   2  -6 65.3600 10.7200   1
   3   0   6 129.630 14.4500   1
   3   0   6 140.010 11.4000   1
  -3   0  -6 128.890 15.3600   1
   1   4   2 50.2300 10.9500   1
  -1  -4  -2 43.9000 11.3400   1
  -1  -4  -2 37.5100 12.7200   1
   1   4   2 36.2100 9.08000   1
   1   4   2 28.6400 11.0800   1
  -1  -4  -2 37.0500 11.6700   1
   4  -2  -1 329.090 21.8600   1
  -4   2   1 274.220 19.6900   1
   4  -2  -1 294.890 21.4400   1
  -4   2   1 334.470 23.4400   1
   2   0 -10 103.170 14.4800   1
  -2   0  10 77.3200 12.0300   1
  -2   0  10 54.1800 11.0100   1
  -1   4   5 142.790 14.7700   1
   1  -4  -5 156.680 14.3600   1
  -1   4   5 140.390 12.6600   1
   1  -4  -5 133.580 13.8900   1
   4   0   0 233.540 18.8700   1
  -4   0   0 160.100 15.6700   1
   4   0   0 169.630 13.3500   1
  -4   0   0 260.140 21.2600   1
  -4   0   0 173.320 14.8900   1
  -1   0 -10 212.970 18.0100   1
  -1   0 -10 178.880 17.2400   1
   1   0  10 152.420 18.9400   1
   1   0  10 202.320 16.8200   1
  -1   0 -10 166.210 15.0700   1
  -1   0 -10 147.020 16.1000   1
  -4   0   3 16.7000 11.3200   1
  -4   0   3 49.1300 12.4700   1
   4   0  -3 27.5200 13.0200   1
   4   0  -3 35.4400 10.1600   1
  -4   0   3 18.9200 11.1200   1
  -4   2   0 297.310 22.4500   1
  -4   2   0 314.530 23.4500   1
   4  -2   0 323.480 20.7600   1
   4  -2   0 275.240 21.5100   1
  -4   2   2 41.6100 11.2600   1
   4  -2  -2 49.4400 11.3200   1
   4  -2  -2 58.0700 12.2900   1
  -4   2   2 65.3800 13.6000   1
   4  -1  -4 10.4000 10.4200   1
  -4   1   4 -9.2200 12.1000   1
  -4   1   4 14.9600 10.0900   1
   4  -1  -4 20.0800 10.8600   1
   1   4  -5 99.5300 10.2800   1
  -1  -4   5 98.3400 10.6400   1
  -1  -4   5 138.790 20.0000   1
  -1  -4   5 117.900 15.0300   1
   1   4  -5 122.000 13.9600   1
   3   1   5 133.490 15.0000   1
  -3  -1  -5 81.9600 15.6800   1
  -3  -1  -5 79.5000 10.6100   1
  -3  -1  -5 97.7500 13.0600   1
  -2   2   9 6.39000 11.6100   1
   2  -2  -9 -3.8200 11.2900   1
  -2   2   9 12.5200 9.25000   1
  -2   4  -5 82.9900 16.5300   1
  -2   4  -5 71.3600 16.1600   1
  -2   4  -5 38.2000 12.3500   1
  -2   4  -5 62.2400 10.9000   1
   0  -3   9 9.14000 13.3000   1
   0   3  -9 16.2700 12.4400   1
   0   3  -9 -0.3900 11.1300   1
   0  -3   9 -1.7400 10.8500   1
   0  -3   9 -17.900 9.01000   1
   1   2 -10 82.6800 13.8600   1
  -1  -2  10 101.820 12.9800   1
   1   2 -10 59.5500 9.64000   1
  -1   3   8 32.9900 12.0800   1
   1  -3  -8 32.5000 9.27000   1
  -1   3   8 35.9200 12.8100   1
   4  -2   1 122.170 12.6000   1
  -4   2  -1 120.300 14.0400   1
   4  -2   1 117.370 14.6500   1
  -4   2  -1 103.070 11.0500   1
  -3   3  -5 79.0900 12.3000   1
   3  -3   5 86.9700 15.5000   1
  -3   3  -5 96.2800 14.1900   1
   3  -3   5 89.5900 11.3900   1
   4  -2  -3 156.990 14.5000   1
  -4   2   3 142.590 12.6000   1
  -4   2   3 146.530 18.1300   1
   4  -2  -3 152.870 16.3900   1
   4  -1   2 7.93000 10.1800   1
  -4   1  -2 19.9900 9.24000   1
  -4   1  -2 23.8200 9.85000   1
   4  -1   2 21.6600 11.5500   1
  -4   0  -1 87.0900 10.3900   1
  -4   0  -1 100.650 15.3300   1
   4   0   1 90.0200 12.1700   1
   4   0   1 62.4000 10.2000   1
  -2   1  -9 11.1800 9.51000   1
  -2   1  -9 9.09000 7.71000   1
   2  -1   9 -11.930 13.8000   1
  -2   1  -9 5.50000 13.1700   1
  -4   0   4 80.0800 13.8300   1
  -4   0   4 41.5300 11.8200   1
  -4   0   4 56.9500 8.99000   1
   4   0  -4 50.6700 9.19000   1
   4   0  -4 66.6000 12.9600   1
  -3  -2   6 112.320 12.6800   1
   3   2  -6 93.3900 11.2900   1
  -3  -2   6 141.800 14.0700   1
   3   2  -6 129.410 12.3100   1
   2   1   8 240.020 16.2400   1
  -2  -1  -8 199.030 16.6000   1
  -2  -1  -8 208.660 15.5200   1
   2   1   8 158.800 16.4400   1
  -2  -1  -8 181.220 13.3700   1
   2   1   8 217.420 15.2500   1
  -3   4   0 -0.6900 12.7100   1
  -3   4   0 14.2700 10.7800   1
  -3   4   0 15.6500 12.7700   1
   2  -1 -10 189.530 19.2200   1
  -2   1  10 206.210 18.8700   1
  -2   1  10 234.160 15.2400   1
   2  -1 -10 245.630 17.4500   1
  -3   4   1 51.9100 14.5300   1
  -3   4   1 19.0000 11.2900   1
   2   1 -10 108.540 14.6500   1
  -2  -1  10 70.3000 10.6500   1
  -2  -1  10 81.7200 11.8300   1
  -2  -1  10 107.860 14.2600   1
   2   1 -10 56.4700 9.42000   1
  -2  -2   9 23.2500 10.8400   1
   2   2  -9 13.8100 12.7600   1
   2   2  -9 12.3800 8.44000   1
  -2  -2   9 24.1100 11.7200   1
  -1   0  11 -17.960 11.7900   1
   1   0 -11 11.5000 13.4300   1
  -1   0  11 6.46000 12.2100   1
  -1   0  11 -2.6400 9.49000   1
  -1   0  11 -9.0300 10.7500   1
  -3   4  -1 8.85000 10.0400   1
  -3   4  -1 -12.330 11.9300   1
  -3   4  -1 1.35000 12.0400   1
  -3   4  -1 11.7200 11.1300   1
   3   1  -8 47.7300 10.3800   1
  -3  -1   8 24.8200 11.8500   1
  -3  -1   8 13.5600 8.80000   1
   3   1  -8 21.7000 8.40000   1
   3   2   3 4.12000 10.4800   1
  -3  -2  -3 4.39000 10.6300   1
   3   2   3 -2.5600 12.1500   1
  -3  -2  -3 10.2800 10.9900   1
  -3  -2  -3 -3.2200 12.5100   1
   3  -3  -6 260.470 17.8500   1
  -3   3   6 289.080 21.1100   1
  -3   3   6 297.410 21.0700   1
   2   3   4 25.5200 12.2600   1
   2   3   4 19.1700 10.1800   1
  -2  -3  -4 18.2000 8.17000   1
   2   3   4 30.4600 12.8300   1
  -2  -3  -4 26.5200 10.8300   1
  -2  -3  -4 8.60000 12.4300   1
  -1   2 -10 75.5100 14.8700   1
  -1   2 -10 98.6500 16.7100   1
   1  -2  10 78.1300 11.7700   1
  -1   2 -10 56.9300 9.29000   1
   0   0  11 66.0200 11.7400   1
   0   0 -11 59.6500 10.7700   1
   0   0 -11 64.3000 12.8500   1
   0   0  11 29.3300 9.41000   1
   0   0 -11 44.6700 11.6500   1
   0   0  11 33.0900 7.99000   1
   0   1 -11 -6.0400 8.85000   1
   0   1 -11 15.8000 13.4100   1
   0   1 -11 12.3800 12.0800   1
   0  -1  11 9.10000 10.9200   1
   0   4   5 4.99000 10.0900   1
   0   4   5 27.6300 12.1500   1
   0  -4  -5 6.58000 9.60000   1
  -1  -4  -3 47.1400 9.05000   1
  -1  -4  -3 60.0000 12.2600   1
   1   4   3 55.9600 12.5400   1
   1   4   3 52.5800 10.8300   1
   1   4   3 74.7800 12.6000   1
   2  -4  -5 235.560 18.5400   1
  -2   4   5 215.290 15.8100   1
  -2   4   5 202.010 15.8100   1
  -2   4   5 187.180 13.9200   1
   2   3  -7 137.150 14.8200   1
   2   3  -7 179.720 14.2300   1
  -2  -3   7 166.820 15.5400   1
   2   3  -7 146.300 15.4200   1
  -2  -3   7 176.700 15.5700   1
   0   4  -7 24.3600 9.27000   1
   0  -4   7 70.9500 14.2700   1
   0  -4   7 44.4600 10.6000   1
  -4   1   5 38.7800 11.6700   1
   4  -1  -5 29.3000 11.5000   1
   4  -1  -5 42.3800 12.5700   1
  -1   3  -9 37.8800 12.8300   1
   1  -3   9 42.9000 11.4600   1
  -1   3  -9 68.1100 14.3300   1
   1  -3   9 45.6400 10.8600   1
  -3   4   2 21.1000 10.8100   1
  -3   4   2 -19.380 13.6700   1
   4  -2   2 27.8700 10.1700   1
  -4   2  -2 23.7200 13.0800   1
   4  -2   2 9.51000 11.7800   1
  -4   2  -2 28.6900 10.0000   1
   3  -1   7 -4.8800 11.2000   1
   3  -1   7 3.73000 11.0500   1
  -3   1  -7 -7.4300 13.4700   1
  -3   1  -7 5.91000 6.77000   1
   2   0   9 68.1100 10.5300   1
  -2   0  -9 53.7700 12.4200   1
  -2   0  -9 62.8000 13.8000   1
   2   0   9 58.9200 12.4500   1
   1   1 -11 120.650 20.8400   1
   1   1 -11 144.140 15.4900   1
  -1  -1  11 118.910 12.7800   1
   1   1 -11 153.860 12.6800   1
  -4   2   4 131.250 13.3300   1
   4  -2  -4 160.100 14.0800   1
  -4   2   4 151.950 18.2600   1
   4  -2  -4 130.150 17.7300   1
  -4   2   4 129.360 14.1600   1
  -1   4  -7 -2.8900 17.5200   1
  -1   4  -7 -17.270 14.7200   1
  -1   4  -7 -15.120 12.6800   1
   1  -4   7 2.21000 14.7000   1
  -3   4  -2 5.82000 12.2400   1
  -3   4  -2 0.17000 11.5000   1
  -3   4  -2 -5.8600 10.3600   1
  -3   4  -2 -2.9500 11.6700   1
  -1  -4   6 50.5400 11.2700   1
   1   4  -6 40.7800 10.2700   1
  -1  -4   6 47.4600 14.2900   1
   1   4  -6 56.9800 14.3000   1
   4   0   2 38.2700 11.8800   1
  -4   0  -2 30.8600 8.68000   1
   4   0   2 24.9900 11.2600   1
  -4   0  -2 46.8300 14.2100   1
   0   3   8 17.8900 11.5600   1
   0  -3  -8 16.5100 12.9500   1
   0  -3  -8 14.3200 10.6300   1
  -3   2   8 29.4300 12.6900   1
  -3   2   8 29.9900 11.2700   1
   3  -2  -8 7.95000 12.9900   1
  -4   0   5 77.9600 14.4800   1
   4   0  -5 66.0000 14.1700   1
   4   0  -5 65.3500 12.5000   1
  -2   2  -9 60.0000 10.1900   1
   2  -2   9 72.3000 10.9200   1
  -2   2  -9 71.8500 15.1400   1
  -2   2  -9 68.6900 15.8500   1
   2  -2   9 63.8400 14.0300   1
   1   3  -9 146.220 18.2800   1
   1   3  -9 87.9400 13.2800   1
  -1  -3   9 139.530 15.8400   1
   1   3  -9 158.660 17.0500   1
  -1  -3   9 133.080 16.8400   1
  -2   3  -8 166.870 17.5000   1
  -2   3  -8 230.520 22.3500   1
   2  -3   8 217.090 20.5800   1
  -2   3   8 266.730 24.2500   1
  -2   3   8 212.270 20.8900   1
  -2   3   8 300.830 26.1800   1
   2  -3  -8 244.320 25.3900   1
   4  -1   3 22.5800 11.8200   1
  -4   1  -3 25.7500 11.0100   1
  -4   1  -3 21.1700 12.8500   1
   4  -1   3 18.8900 10.4300   1
  -3   0   9 57.1200 13.3400   1
  -3   0   9 59.1800 12.9300   1
   3   0  -9 78.9600 12.1900   1
  -3   0   9 50.9300 12.5800   1
   3   0  -9 83.8500 13.2900   1
  -1   2  10 112.590 14.7100   1
  -1   2  10 83.5900 13.5900   1
  -1   2  10 73.9100 11.4200   1
   1  -2 -10 74.3900 14.7100   1
  -1   4   6 30.6500 13.4700   1
  -1   4   6 49.3300 11.9600   1
  -2  -2  -7 4.79000 15.1100   1
   2   2   7 13.8200 8.97000   1
   2   2   7 3.67000 12.3500   1
  -2  -2  -7 10.6200 9.69000   1
   2   2   7 5.07000 10.1600   1
  -2   4  -6 225.110 23.8500   1
  -2   4  -6 152.650 20.5800   1
  -2   4  -6 157.280 18.4200   1
   2  -4   6 147.200 16.4600   1
  -3   4   3 70.0400 13.3300   1
   3  -4  -3 55.4100 13.8500   1
  -3   4   3 57.9900 12.5100   1
  -3   4   3 60.9000 11.9400   1
  -3   4   3 69.2900 15.2500   1
  -1  -1 -10 -5.9300 10.7800   1
   1   1  10 8.31000 11.7400   1
  -1  -1 -10 -3.2600 11.5700   1
  -1  -1 -10 -7.2300 11.5500   1
   1   1  10 8.34000 11.3600   1
  -3   1   9 21.3500 13.3800   1
   3  -1  -9 16.5700 9.84000   1
  -3   1   9 15.6300 11.2300   1
  -3   1   9 24.4400 11.1900   1
   3  -1  -9 28.0000 11.2500   1
  -4  -1   2 31.7200 12.9800   1
  -4  -1   2 30.7200 12.4700   1
   4   1  -2 41.0000 13.4400   1
   4   1  -2 25.1600 11.8300   1
   3  -2   7 35.4800 14.1400   1
   3  -2   7 71.2300 11.9200   1
  -3   2  -7 42.1900 13.5900   1
   4   1  -1 66.4300 14.3700   1
  -4  -1   1 29.5300 12.3300   1
  -4  -1   1 71.2300 13.9000   1
   4   1  -1 48.0700 11.9400   1
   1   3   7 69.0500 12.1400   1
  -1  -3  -7 99.4700 15.0300   1
   1   3   7 144.640 16.9400   1
   1   3   7 119.520 15.8200   1
  -1  -3  -7 92.2400 14.7100   1
  -1   5  -1 26.8400 11.8700   1
   1  -5   1 30.4000 15.9500   1
  -1   5  -1 20.8500 10.2500   1
   1  -5   1 30.1100 13.5300   1
   1  -5   1 28.0500 10.2400   1
  -1   1  11 12.5000 7.66000   1
  -1   1  11 41.1800 13.5600   1
   1  -1 -11 20.1100 11.3100   1
   1  -1 -11 9.42000 11.1400   1
  -1   1  11 16.6900 10.3600   1
  -3   0  -7 145.040 15.4400   1
  -3   0  -7 127.180 15.4900   1
   3   0   7 159.180 16.9600   1
   3   0   7 128.850 16.8000   1
  -3   4  -3 -0.3900 10.7000   1
  -3   4  -3 7.60000 12.2800   1
  -3   4  -3 -0.7400 10.5300   1
   3   2  -7 30.9600 11.8500   1
  -3  -2   7 13.9000 10.2000   1
   3   2  -7 7.61000 13.9800   1
   1  -5   0 140.230 18.6400   1
  -1   5   0 120.950 13.9000   1
   1  -5   0 149.050 18.8300   1
   1  -5   0 117.790 14.4600   1
  -1   5   0 118.480 15.6200   1
  -1   5   0 102.600 12.2500   1
   4   1  -3 24.2600 13.4800   1
   4   1  -3 -4.2300 8.17000   1
  -4  -1   3 16.7600 11.6000   1
  -4  -1   3 14.8000 12.7400   1
  -3   3  -6 -5.9400 13.1500   1
   3  -3   6 5.86000 9.78000   1
  -3   3  -6 -0.9100 14.6500   1
   3  -3   6 -3.6500 13.6700   1
   1  -5   2 18.8200 17.7400   1
   1  -5   2 18.1000 14.5700   1
   1  -5   2 21.0700 9.12000   1
  -1   5  -2 14.1200 10.1500   1
  -1   5  -2 8.43000 10.6500   1
   4  -2   3 13.3000 11.7500   1
  -4   2  -3 -2.9500 13.3700   1
  -4   2  -3 7.81000 9.82000   1
   3   1   6 19.9800 9.67000   1
  -3  -1  -6 16.3600 14.4300   1
   3   1   6 12.0900 10.0100   1
  -4   2   5 -1.5200 10.7600   1
  -4   2   5 0.02000 13.2500   1
  -4   2   5 16.9000 10.9100   1
  -4  -1   0 67.7800 12.6900   1
   4   1   0 29.5700 10.3800   1
  -4  -1   0 45.8900 13.7400   1
  -1  -2  -9 20.5100 13.5700   1
   1   2   9 1.81000 10.9300   1
   1   2   9 -0.1500 9.26000   1
  -1  -2  -9 -5.2200 11.7900   1
   1   2   9 -4.1000 10.1600   1
   3   2   4 6.68000 13.4900   1
   3   2   4 4.99000 7.54000   1
  -3  -2  -4 10.1300 9.47000   1
   4  -1  -6 158.080 16.3100   1
  -4   1   6 139.330 21.0400   1
  -4   1   6 198.280 20.5700   1
   4  -1  -6 197.480 22.3000   1
  -4   3   1 0.26000 9.27000   1
   4  -3  -1 7.52000 12.1900   1
   4  -3  -1 18.8400 9.52000   1
  -4   3   1 33.2200 11.2600   1
   1   4   4 19.0600 12.2500   1
   1   4   4 20.5800 11.9200   1
  -1  -4  -4 26.6400 12.7000   1
  -1  -4  -4 17.0800 12.2600   1
   1   4   4 48.4100 12.7500   1
  -1  -4  -4 31.9700 12.9500   1
  -4   3   0 7.47000 12.2100   1
   4  -3   0 11.9600 12.7000   1
   0   2  10 81.4700 16.0900   1
   0  -2 -10 87.9300 15.7400   1
   0  -2 -10 70.8300 12.7300   1
   0   2  10 86.2300 13.9700   1
  -1   5   1 54.5000 10.4400   1
   1  -5  -1 71.1500 15.0100   1
   1  -5  -1 47.0200 11.7900   1
  -1   5   1 42.5800 10.9100   1
   1  -5  -1 53.7900 13.2500   1
   0   1  11 30.0000 13.9100   1
   0  -1 -11 9.47000 11.5800   1
   0  -1 -11 50.4500 12.0900   1
   0  -1 -11 20.9800 9.07000   1
   0   1  11 43.6900 11.8900   1
   0  -2  11 18.5100 10.0400   1
   0   2 -11 4.98000 11.7900   1
   0  -2  11 35.2700 15.4100   1
   0  -2  11 34.3500 11.1000   1
  -4   0  -3 6.49000 14.1500   1
  -4   0  -3 -17.230 10.6700   1
   4   0   3 -0.4700 11.3900   1
   4  -3  -2 24.3200 12.0400   1
   4  -3  -2 54.7600 12.8300   1
  -4   3   2 35.0900 9.97000   1
  -4   3   2 25.0300 11.2600   1
  -2  -3  -5 22.2300 13.3800   1
   2   3   5 43.7800 10.9800   1
   2   3   5 57.4600 13.6800   1
   2   3   5 41.9300 10.2000   1
   4   1  -4 75.5300 14.3900   1
   4   1  -4 57.6500 10.7900   1
  -4  -1   4 101.140 15.5900   1
  -4  -1   4 46.3900 14.1300   1
  -2   4   6 44.6100 10.1000   1
  -2   4   6 103.210 16.1700   1
  -2   4   6 77.0000 12.3200   1
  -1   5  -3 9.16000 8.74000   1
   1  -5   3 7.02000 14.7500   1
  -1   5  -3 17.1700 8.56000   1
   4   0  -6 -4.9600 11.5900   1
  -4   0   6 15.9600 11.4800   1
   4   0  -6 13.3000 10.7900   1
  -4   0   6 9.07000 12.5600   1
  -3   3   7 179.550 18.5500   1
  -3   3   7 291.250 31.5100   1
  -2  -4   2 152.150 15.7000   1
  -2  -4   2 170.610 21.1900   1
   2   4  -2 136.030 15.6400   1
  -2  -4   2 162.820 16.2600   1
  -2  -4   2 136.360 17.3000   1
   2   4  -2 130.580 16.1600   1
  -3  -3   2 25.7400 11.6500   1
  -3  -3   2 52.9800 16.8900   1
   3   3  -2 14.1700 9.71000   1
   0  -5   1 17.3500 9.34000   1
   0   5  -1 41.1200 10.9800   1
   0  -5   1 18.7800 10.0800   1
   0  -5   1 36.0200 12.6400   1
   0  -5   1 30.3300 15.2300   1
   0   5  -1 31.8000 11.2700   1
   0   5  -1 16.6700 11.2600   1
   2   0 -11 9.80000 10.8200   1
  -2   0  11 10.8200 9.33000   1
  -2   0  11 17.2800 12.3200   1
  -1   1 -11 22.9500 14.5500   1
  -1   1 -11 37.2000 14.2700   1
  -1   1 -11 25.2800 10.7600   1
   1  -1  11 29.7700 8.46000   1
   4  -3   1 93.2700 13.2600   1
  -4   3  -1 102.930 15.9000   1
  -4   3  -1 91.5200 11.8000   1
   4  -3   1 81.8200 14.3600   1
   2   3  -8 141.150 18.2200   1
  -2  -3   8 125.390 14.2100   1
  -2  -3   8 194.230 20.5300   1
   2   3  -8 198.080 20.5500   1
  -2  -4   1 4.70000 15.8100   1
   2   4  -1 -5.8700 12.6100   1
  -2  -4   1 19.4000 10.8000   1
  -2  -4   1 16.4500 11.3900   1
  -2  -4   1 5.20000 9.20000   1
   2   4  -1 -0.5500 10.8900   1
   0   3 -10 41.9000 13.1100   1
   0  -3  10 24.5700 15.1300   1
   0  -3  10 9.44000 9.83000   1
   0  -3  10 22.3800 11.0800   1
  -3   4   4 50.6800 12.2700   1
  -3   4   4 55.4100 12.3700   1
  -3   4   4 56.3800 14.3600   1
  -3   4   4 47.4300 12.4200   1
   3  -4  -4 39.1700 10.9100   1
   3   3  -1 103.920 12.9900   1
  -3  -3   1 84.6800 14.8600   1
  -3  -3   1 143.850 17.2100   1
   0   4   6 30.6700 12.0700   1
   0  -4  -6 37.7000 11.7500   1
   0  -4  -6 31.9500 11.3800   1
   0   4   6 32.8900 10.8200   1
   0   5  -2 5.84000 10.2200   1
   0  -5   2 13.4200 9.57000   1
   0   5  -2 30.7200 11.8400   1
   0   5  -2 31.5000 11.7200   1
   0  -5   2 7.17000 14.7500   1
   0  -5   2 2.56000 9.24000   1
   0  -5   2 3.03000 12.4700   1
  -1  -4   7 224.750 21.4900   1
   1   4  -7 189.670 20.3300   1
   1   4  -7 157.230 19.7600   1
  -1  -4   7 215.060 21.4000   1
  -3  -1   9 125.870 15.9700   1
  -3  -1   9 120.140 18.6900   1
   3   1  -9 122.280 17.6900   1
   3   1  -9 151.360 17.0700   1
  -4  -1  -1 222.970 23.2600   1
   4   1   1 285.050 28.9900   1
  -2   2  10 23.6700 13.2200   1
   2  -2 -10 17.6400 11.7200   1
  -2   2  10 15.9400 12.6900   1
  -2   2  10 35.5100 10.6400   1
  -3  -3   3 -14.240 15.0600   1
  -3  -3   3 4.25000 13.2000   1
  -3  -3   3 -7.3900 10.8000   1
   3   3  -3 7.56000 12.6800   1
   0  -4   8 95.3000 13.7400   1
   0   4  -8 89.6200 15.1400   1
   0  -4   8 90.1100 13.2900   1
   4  -1   4 8.71000 12.1300   1
  -4   1  -4 -2.3800 10.8400   1
   2   4  -3 53.6400 13.2500   1
  -2  -4   3 32.0400 10.1500   1
   2   4  -3 27.8700 8.36000   1
  -2  -4   3 53.2400 12.2200   1
  -2  -4   3 44.5000 12.1100   1
  -2  -4   3 35.5200 16.6400   1
   0   5   0 32.5400 10.7300   1
   0  -5   0 47.8700 10.7400   1
   0   5   0 29.8300 11.2000   1
   0  -5   0 48.7100 11.4600   1
   0  -5   0 35.2800 9.82000   1
   0   5   0 42.9000 11.5200   1
   0  -5   0 37.8200 9.65000   1
   0  -5   0 36.9200 10.7400   1
  -1   3   9 149.540 17.4500   1
  -1   3   9 191.420 18.3700   1
  -1   3   9 220.390 21.4600   1
  -4   3   3 187.500 19.9200   1
   4  -3  -3 174.130 20.3800   1
  -4   3   3 162.770 17.7000   1
   4  -3  -3 115.300 17.5400   1
  -4   3   3 156.870 19.3900   1
  -3   4  -4 5.61000 14.3500   1
  -3   4  -4 13.6500 12.7800   1
  -3   4  -4 24.5600 11.8100   1
   2   4   0 20.7300 11.3700   1
  -2  -4   0 22.0200 9.63000   1
  -2  -4   0 2.31000 12.1600   1
   2   4   0 28.0600 9.28000   1
  -2  -4   0 29.2200 10.7600   1
   2   4   0 -1.1900 10.7100   1
   1   0  11 110.030 20.9200   1
  -1   0 -11 180.800 18.9900   1
  -1   0 -11 157.070 18.2000   1
   1   0  11 201.720 19.6500   1
  -1   0 -11 159.380 20.0600   1
  -1   0 -11 154.650 18.6500   1
  -1   5   2 48.9300 10.3300   1
   1  -5  -2 45.8800 12.6200   1
   1  -5  -2 31.9900 12.8700   1
  -1   5   2 41.4900 10.5700   1
  -1   5   2 43.4700 9.72000   1
   1   2 -11 -6.3300 9.22000   1
   1   2 -11 12.8400 11.8600   1
  -1  -2  11 -4.0400 11.2600   1
  -1  -2  11 15.5600 13.8900   1
   2   2 -10 -23.380 13.6000   1
  -2  -2  10 -6.1500 9.23000   1
   2   2 -10 11.9400 12.0000   1
   2   2 -10 33.9700 14.0400   1
   0  -5   3 20.0700 14.1800   1
   0   5  -3 21.8500 11.8000   1
   0   5  -3 5.09000 8.56000   1
   0  -5   3 5.02000 12.1400   1
   0   5  -3 22.0200 11.8600   1
   3   3   0 89.6800 14.2600   1
  -3  -3   0 89.1300 14.6000   1
  -3  -3   0 96.2100 15.1100   1
   2  -5   0 306.720 29.1900   1
  -2   5   0 257.930 25.8100   1
  -2   5   0 186.590 18.8500   1
  -2   5   0 284.770 26.3500   1
  -2   5  -1 27.0500 11.4200   1
  -2   5  -1 42.7100 11.7800   1
  -2   5  -1 20.6600 10.3300   1
   1  -4   8 83.4700 12.3800   1
  -1   4  -8 151.540 22.8100   1
   1  -4   8 61.7300 12.1300   1
   2   1   9 37.1200 11.6500   1
  -2  -1  -9 31.2400 13.3000   1
  -2  -1  -9 17.5100 9.77000   1
   2   1   9 17.2700 11.8800   1
   2   1   9 26.4000 9.52000   1
  -1   5  -4 37.8200 9.47000   1
  -1   5  -4 22.2600 9.98000   1
   1  -5   4 30.0500 14.3700   1
   4  -3   2 45.9800 13.1400   1
  -4   3  -2 65.0700 14.9100   1
  -4   3  -2 69.4100 12.1100   1
  -3  -3   4 30.7400 11.7300   1
  -3  -3   4 24.8300 15.9600   1
  -3  -3   4 34.7400 12.5600   1
   3   3  -4 18.3400 14.0800   1
   4   1  -5 259.020 25.8900   1
   4   1  -5 320.300 22.2500   1
  -4  -1   5 368.050 21.0400   1
  -4  -1   5 270.510 26.2100   1
   0   5   1 36.8200 10.4100   1
   0   5   1 52.3600 11.4600   1
   0  -5  -1 39.9700 14.7200   1
   0  -5  -1 47.6900 11.8000   1
   0   5   1 46.8600 11.4700   1
   0  -5  -1 38.6300 11.0400   1
   0  -5  -1 47.5900 13.8300   1
   2  -1  10 38.4700 14.8000   1
  -2   1 -10 29.5100 9.95000   1
  -2   1 -10 30.2700 11.5800   1
  -2   1 -10 41.5100 10.7500   1
  -2   1 -10 51.2300 14.6900   1
  -2  -4   4 9.44000 15.3500   1
  -2  -4   4 27.0800 12.9200   1
  -2  -4   4 19.5800 9.94000   1
  -2  -4   4 22.6100 10.8800   1
   2   4  -4 23.8600 13.4400   1
   4  -2   4 0.87000 10.6800   1
  -4   2  -4 8.32000 12.7400   1
   2   1 -11 128.310 15.2500   1
  -2  -1  11 144.240 17.7400   1
   2   1 -11 121.900 17.0900   1
   2  -1 -11 118.430 16.8600   1
  -2   1  11 67.7800 13.7600   1
   2  -1 -11 103.750 15.9900   1
  -2   5   1 289.150 28.2400   1
  -2   5   1 333.810 21.6600   1
   2  -5  -1 389.040 19.1300   1
  -2   5   1 320.710 16.3600   1
  -4   2   6 134.050 18.0800   1
  -4   2   6 117.670 15.3500   1
   4  -2  -6 117.950 17.1500   1
   4  -2  -6 113.680 15.9900   1
  -2   5  -2 172.900 18.5200   1
  -2   5  -2 179.970 21.0400   1
  -2   5  -2 167.530 18.2900   1
  -2   4  -7 3.84000 15.1000   1
   3  -1   8 37.2500 12.4000   1
  -3   1  -8 25.0300 9.88000   1
  -3   1  -8 17.0000 10.0500   1
   3  -2  -9 18.4300 12.1600   1
  -3   2   9 18.5100 9.69000   1
  -3   2   9 63.5800 12.6100   1
   1  -3  10 1.81000 11.2600   1
   1  -3  10 9.02000 10.0500   1
  -1   3 -10 -7.7900 15.9500   1
  -1   4   7 56.5900 13.8100   1
   3   2  -8 20.3100 14.0400   1
   3   2  -8 3.02000 8.21000   1
  -3  -2   8 12.1800 13.1500   1
   2   4   1 17.7600 11.6500   1
  -2  -4  -1 32.0700 8.40000   1
   2   4   1 31.9900 11.8100   1
  -2  -4  -1 13.2000 11.9200   1
  -2  -4  -1 20.1300 12.9100   1
   4   1   2 160.530 18.3400   1
  -4  -1  -2 144.130 18.7600   1
  -4   1   7 85.2400 14.2600   1
   4  -1  -7 82.8700 14.4900   1
  -4   1   7 94.2000 15.1900   1
   4  -1  -7 100.090 15.4100   1
  -4   1   7 96.2300 20.6000   1
   0   5  -4 72.6200 11.3200   1
   0   5  -4 80.1800 13.3300   1
   0  -5   4 82.6400 12.3700   1
   0  -5   4 111.840 21.7300   1
   0   5  -4 90.8500 13.8000   1
   0  -5   4 115.470 17.5600   1
   0  -5   4 71.5300 11.5000   1
  -4   3   4 20.5300 11.5100   1
   4  -3  -4 18.2600 10.5000   1
  -4   3   4 40.8000 11.3200   1
   4  -3  -4 20.8800 10.9700   1
  -4   3   4 31.2700 15.2400   1
   3   3   1 232.880 22.3800   1
  -3  -3  -1 228.970 22.4100   1
  -3  -3  -1 188.680 23.1200   1
  -1   2 -11 117.570 14.8600   1
  -1   2 -11 161.890 18.2500   1
  -1   2 -11 126.290 15.8000   1
   1  -2  11 161.640 17.5500   1
  -1  -3  10 88.4200 13.1600   1
   1   3 -10 118.210 19.1400   1
   1   3 -10 137.040 15.6300   1
  -1  -3  10 133.040 15.7900   1
   4   0   4 20.3500 11.7100   1
  -4   0  -4 6.73000 14.1600   1
  -4   0  -4 3.65000 10.3400   1
  -2   3  -9 102.890 14.0600   1
  -2   3  -9 57.3200 10.1500   1
   2  -3   9 55.3000 10.3400   1
  -2   3   9 73.0600 12.4900   1
  -2   3   9 92.9500 14.9100   1
  -2   3   9 111.680 15.8300   1
  -1   0  12 15.2000 9.61000   1
   1   0 -12 -4.6400 9.42000   1
   1   0 -12 5.40000 10.8300   1
   1   0 -12 -8.8100 11.8900   1
  -1   0  12 4.39000 11.2200   1
   3   0 -10 26.3200 10.3900   1
  -3   0  10 32.6600 12.3500   1
  -3   0  10 24.5800 12.6200   1
   3   0 -10 22.6000 10.2400   1
  -1  -4  -5 1.64000 12.0900   1
   1   4   5 2.64000 11.9000   1
  -1  -4  -5 2.39000 12.0800   1
   1   4   5 4.66000 12.1400   1
   3   2   5 27.0200 13.6700   1
  -3  -2  -5 21.0400 14.2700   1
  -3   4   5 96.0000 13.5900   1
   3  -4  -5 75.2000 13.2900   1
  -3   4   5 88.5100 14.8400   1
   0   3   9 -12.020 8.33000   1
   4   0  -7 35.7400 13.7700   1
   4   0  -7 29.5000 9.42000   1
  -4   0   7 33.0100 12.2700   1
   1  -5  -3 292.550 27.2700   1
  -1   5   3 320.070 16.8100   1
  -1   5   3 246.410 23.5800   1
  -1   5   3 287.220 26.5000   1
   1  -5  -3 290.610 25.6500   1
  -2   5   2 51.9900 10.7900   1
  -2   5   2 50.1200 13.6700   1
   2  -5  -2 55.3000 11.5300   1
  -2   5   2 49.6400 10.7000   1
  -2   5   2 41.5600 10.4900   1
   2  -5  -2 38.6900 13.7600   1
  -2   5  -3 58.9400 11.9900   1
  -2   5  -3 63.8300 16.7800   1
  -2   5  -3 66.1500 12.3800   1
  -2   5  -3 67.7800 14.7500   1
  -3   3  -7 97.2200 13.6900   1
   3  -3   7 103.080 13.4600   1
  -3   3  -7 121.000 16.5200   1
  -2   0 -10 -15.680 10.3800   1
   2   0  10 9.14000 12.0500   1
  -2   0 -10 8.90000 13.2400   1
   2   0  10 -5.1400 9.03000   1
   3   3  -5 47.8500 14.7100   1
  -3  -3   5 25.6300 12.0600   1
  -3  -3   5 31.2000 13.9300   1
   0   1 -12 23.0800 9.70000   1
   0   1 -12 -5.4200 13.9500   1
   0  -1  12 20.9600 11.5300   1
   0   1 -12 7.59000 12.1200   1
  -3   2  -8 33.3200 7.67000   1
  -3   2  -8 35.7300 11.3500   1
  -3   2  -8 30.3400 13.3900   1
   0  -5  -2 51.7300 13.2600   1
   0   5   2 28.2700 10.1100   1
   0  -5  -2 63.1000 11.4300   1
   0   5   2 29.1400 12.0700   1
   0   5   2 49.5800 12.1000   1
   0  -5  -2 60.0900 13.1000   1
   0   0 -12 -10.230 10.6000   1
   0   0  12 5.48000 12.3800   1
   0   0  12 2.05000 9.20000   1
   0   0 -12 -18.900 9.60000   1
   0   0 -12 9.76000 11.9000   1
   2   4  -5 122.750 17.2000   1
  -2  -4   5 118.790 14.7200   1
  -2  -4   5 157.500 19.0700   1
  -2  -4   5 140.820 23.3400   1
   2   2   8 -6.3900 11.6400   1
   2   2   8 13.9500 12.3200   1
  -2  -2  -8 -7.2500 10.8200   1
   2   2   8 -3.5600 7.90000   1
  -2   2 -10 13.2000 14.0100   1
  -2   2 -10 18.7100 8.83000   1
   2  -2  10 22.5700 9.26000   1
  -2   2 -10 15.2500 7.87000   1
   4  -3   3 68.0900 11.9300   1
  -4   3  -3 87.0600 12.7700   1
   4  -3   3 66.1600 15.4300   1
   1   1 -12 19.3100 9.41000   1
  -1  -1  12 17.4300 8.76000   1
   1   1 -12 34.0300 15.9900   1
  -1  -1  12 29.9900 12.6000   1
   1   1 -12 34.9800 11.3400   1
   1   1 -12 43.5900 12.8400   1
  -1  -1  12 41.4400 13.5700   1
   3  -1 -10 32.9300 14.2800   1
  -3   1  10 23.4000 11.1900   1
  -3   1  10 21.9900 12.6500   1
   3  -1 -10 44.0900 13.0900   1
  -3   4  -5 62.1200 13.5300   1
   1   3   8 13.3000 8.81000   1
   1   3   8 39.2400 11.9900   1
   1   3   8 39.7300 12.8400   1
  -1   5  -5 155.480 19.2000   1
  -1   5  -5 142.660 17.3800   1
   1  -5   5 165.700 20.1600   1
   3   1   7 27.1000 12.5000   1
  -3  -1  -7 5.06000 13.2200   1
   3   0   8 22.8900 12.8000   1
  -3   0  -8 6.40000 12.1600   1
   4   1  -6 137.850 20.5300   1
  -4  -1   6 83.9200 13.2600   1
   4   1  -6 126.020 16.6900   1
   4   1  -6 108.980 15.7800   1
  -2   4   7 7.80000 9.75000   1
  -2   4   7 10.2100 8.24000   1
  -2   4   7 -13.270 14.1000   1
   4  -1   5 57.0200 10.8200   1
  -4   1  -5 56.7400 14.4700   1
   2   3   6 41.4400 10.1600   1
   2   3   6 46.3200 10.2500   1
  -2  -3  -6 42.6400 13.2000   1
   2   3   6 20.6600 11.4000   1
  -1  -4   8 79.4600 13.4800   1
  -1  -4   8 43.7000 10.8700   1
   1   4  -8 101.240 16.2400   1
  -2  -4  -2 69.8000 14.2800   1
   2   4   2 58.0100 13.6900   1
  -2  -4  -2 66.6900 14.5000   1
   2   4   2 72.3200 13.9100   1
  -2  -4  -2 37.9300 8.89000   1
   2   4   2 74.2200 13.3900   1
  -1   2  11 23.7900 13.1700   1
  -1   2  11 7.05000 10.4400   1
  -3   3   8 155.400 18.0200   1
  -3   3   8 193.430 20.0800   1
   2   3  -9 94.4300 17.1500   1
   2   3  -9 65.3800 10.7600   1
  -2  -3   9 132.450 17.7300   1
   0  -5   5 26.9800 9.22000   1
   0   5  -5 32.3400 11.8000   1
   0  -5   5 25.1300 9.20000   1
   0   5  -5 37.5300 10.0100   1
   0  -5   5 61.7400 16.1000   1
  -3  -3  -2 59.7800 14.4800   1
   3   3   2 66.4800 14.0300   1
   4  -3  -5 134.500 16.8900   1
  -4   3   5 54.1200 14.3500   1
  -4   3   5 90.5200 16.3300   1
  -4   3   5 103.140 14.4400   1
  -4   3   5 90.7600 13.3900   1
   2  -5  -3 11.5200 12.1400   1
  -2   5   3 21.6200 10.5000   1
  -2   5   3 13.5500 11.7200   1
  -2   5   3 14.3400 9.88000   1
   0  -4  -7 189.050 19.6000   1
   0   4   7 211.340 22.8600   1
   0   4   7 187.250 18.4600   1
   0   4   7 245.490 22.5600   1
   0  -4  -7 165.120 19.6500   1
  -2   5  -4 -0.2700 16.8900   1
  -2   5  -4 4.88000 11.1100   1
  -2   5  -4 10.3200 10.5400   1
  -2   5  -4 19.7500 12.0200   1
   4  -2   5 51.7000 12.8700   1
  -4   2  -5 33.3500 14.2900   1
   4   1   3 14.9100 12.8600   1
  -4  -1  -3 -0.3700 9.68000   1
  -4  -1  -3 12.6900 13.1200   1
  -1  -1 -11 15.4700 8.83000   1
   1   1  11 3.04000 13.2700   1
   1   1  11 4.30000 10.4600   1
  -1  -1 -11 13.2200 12.2100   1
  -1  -1 -11 -7.4400 12.1300   1
   0  -4   9 33.5600 15.1700   1
   0   4  -9 25.8000 13.5600   1
  -4   2   7 39.8300 12.4100   1
  -4   2   7 22.7000 10.9000   1
  -4   2   7 57.6300 12.2200   1
   4  -2  -7 54.8500 14.2100   1
   3   3  -6 131.990 18.2000   1
  -3  -3   6 105.130 17.5300   1
  -3  -3   6 125.420 16.4000   1
  -3  -3   6 113.740 21.2200   1
   3   1 -10 17.7100 10.2600   1
  -3  -1  10 28.6100 13.3700   1
   3   1 -10 33.0600 11.7000   1
  -3  -1  10 21.6400 11.2600   1
   1  -1 -12 54.2900 12.8500   1
   1  -1 -12 37.3900 11.2700   1
  -1   1  12 58.0300 11.9300   1
  -1   1  12 75.4900 14.8300   1
  -1  -2 -10 6.96000 14.2900   1
   1   2  10 41.3900 13.1600   1
   1   2  10 17.2000 10.0000   1
   1   2  10 18.3900 8.87000   1
   0   5   3 19.2800 11.1100   1
   0   5   3 7.44000 11.7800   1
   0  -5  -3 6.75000 11.7600   1
   0  -5  -3 18.2900 7.25000   1
   0   5   3 11.8900 9.18000   1
   2   4  -6 205.280 19.7800   1
  -2  -4   6 274.400 25.6900   1
  -2  -4   6 216.350 21.2100   1
  -1   5   4 169.210 17.6100   1
   1  -5  -4 178.910 20.0400   1
  -1   5   4 136.910 15.5400   1
  -1   5   4 197.430 20.8600   1
   1  -4   9 47.6600 15.8700   1
   1  -4   9 23.0900 10.2600   1
  -4   3  -4 43.2000 14.6300   1
   4  -3   4 33.2300 9.67000   1
  -1  -5   2 48.1900 13.6900   1
   1   5  -2 50.9300 9.62000   1
  -1  -5   2 40.9500 15.1900   1
   1   5  -2 44.5400 12.2200   1
  -1  -5   2 60.7700 11.7900   1
   1   5  -2 55.2500 10.6600   1
  -1  -5   2 45.8300 11.7900   1
   1   5  -1 157.890 16.8100   1
  -1  -5   1 134.090 16.5300   1
  -1  -5   1 134.970 16.9900   1
   1   5  -1 152.160 16.8300   1
  -1  -5   1 153.220 19.1400   1
   1   5  -1 156.270 18.1300   1
  -1  -5   1 156.250 16.5200   1
   0   2  11 10.3800 11.2800   1
  -4  -2   2 138.290 15.5100   1
  -4  -2   2 113.650 15.0300   1
   4   2  -2 147.000 17.0300   1
   0   3 -11 22.2400 17.3100   1
   0  -3  11 19.7600 7.46000   1
   0   3 -11 37.7500 9.91000   1
   0  -3  11 38.8700 8.99000   1
   0  -3  11 29.7900 14.6900   1
   3  -4  -6 66.9100 13.4500   1
  -3   4   6 38.8000 11.2500   1
  -3   4   6 65.9900 11.3000   1
  -4   1   8 107.260 17.7000   1
   4  -1  -8 145.400 22.0000   1
  -4   1   8 102.540 18.5200   1
   4  -1  -8 151.550 18.3700   1
  -2   4  -8 8.97000 11.3400   1
   0  -2  12 5.49000 10.8500   1
   0  -2  12 15.6700 11.0600   1
   0   2 -12 24.9100 15.7900   1
   4   0   5 66.5900 11.5700   1
  -4   0  -5 59.0400 15.1400   1
  -4  -2   1 121.100 16.3900   1
   4   2  -1 120.780 17.0800   1
  -3  -2   9 40.8500 11.3800   1
   3   2  -9 52.4900 11.2600   1
   3   2  -9 26.8600 11.2500   1
   4   2  -3 29.0200 14.9100   1
  -4  -2   3 13.2000 12.8700   1
  -4  -2   3 -1.1500 13.1100   1
  -4  -2   3 12.5200 10.9300   1
  -1   5  -6 226.780 25.1200   1
   1  -5   6 262.840 26.2300   1
   1  -5   6 160.200 18.4600   1
  -1   5  -6 181.580 21.5900   1
  -1  -5   3 257.240 27.0100   1
  -1  -5   3 219.670 19.9900   1
   1   5  -3 195.610 17.8600   1
  -1  -5   3 198.560 21.5900   1
  -1  -5   3 253.700 24.4800   1
   1   5  -3 273.850 24.9500   1
   2   2 -11 16.6900 16.7900   1
  -2  -2  11 2.92000 9.50000   1
   2   2 -11 -11.750 12.0900   1
   2   2 -11 -3.7500 14.3900   1
   4   0  -8 199.720 24.1400   1
  -4   0   8 190.900 20.5000   1
   4   0  -8 165.960 22.5600   1
  -2   0  12 116.650 16.8700   1
  -2   0  12 99.6500 13.4300   1
   2   0 -12 109.400 14.8000   1
   2   0 -12 125.980 16.6600   1
  -1   3  10 173.630 18.0900   1
  -1   3  10 113.370 14.0400   1
   0   1  12 339.960 20.5500   1
   0   1  12 285.370 27.5300   1
   0  -1 -12 249.220 28.6000   1
   0  -1 -12 309.780 30.9900   1
  -2   2  11 8.36000 12.1400   1
   2  -2 -11 13.0900 8.66000   1
  -2   2  11 18.3100 12.3400   1
   1   5   0 17.5400 8.16000   1
  -1  -5   0 21.7900 13.0800   1
   1   5   0 14.1300 7.92000   1
  -1  -5   0 17.4800 10.3400   1
   1   5   0 24.9700 12.4400   1
  -1  -5   0 -1.8700 15.3000   1
   2   4   3 111.710 16.2200   1
   2   4   3 98.9900 16.1700   1
  -2  -4  -3 99.3800 16.6200   1
   2   4   3 140.640 17.4200   1
   4   1  -7 234.170 26.2500   1
   4   1  -7 233.170 24.2800   1
  -4  -1   7 262.380 26.5600   1
   1   4   6 16.8500 10.2700   1
   1   4   6 4.12000 11.1000   1
   1   4   6 -7.8800 11.7800   1
  -1  -4  -6 9.48000 12.1600   1
  -1  -4  -6 -4.8400 11.8000   1
   0   5  -6 319.930 72.7500   1
   0  -5   6 256.330 26.8700   1
   0  -5   6 335.130 74.7500   1
   3  -4   6 25.4500 9.18000   1
  -3   4  -6 29.2400 9.83000   1
   3   3   3 127.370 17.6900   1
  -3  -3  -3 80.4700 14.7000   1
  -1   4   8 98.2400 13.2200   1
  -1   4   8 125.720 17.6400   1
   3   2   6 59.0300 14.8800   1
  -3  -2  -6 45.3900 14.7500   1
  -1   1 -12 10.8500 7.80000   1
  -1   1 -12 29.2400 10.1200   1
  -2   5   4 2.70000 8.94000   1
  -2   5   4 17.3100 12.8600   1
   2  -5  -4 5.36000 12.4200   1
  -2   5   4 -4.9500 10.4300   1
  -4  -2   0 3.41000 12.0900   1
   4   2   0 16.1500 12.4300   1
  -2   5  -5 45.7900 18.0000   1
  -2   5  -5 61.7200 16.1100   1
   4   2  -4 -6.1800 14.1700   1
  -4  -2   4 -14.350 12.0600   1
  -4  -2   4 12.8500 13.5300   1
   1   2 -12 35.6800 13.8600   1
  -1  -2  12 44.3600 13.8500   1
  -3   2  10 69.3800 14.2000   1
   3  -2 -10 42.8200 12.6100   1
   3  -1   9 119.020 16.4400   1
  -3   1  -9 101.400 15.5200   1
  -3   1  -9 97.4300 17.0800   1
  -3   1  -9 47.2000 8.60000   1
   4  -4   0 52.6300 13.9000   1
  -4   4   0 86.7900 14.8600   1
  -4   4   0 132.930 21.6200   1
  -4   4   0 111.120 14.9900   1
  -4   4   1 137.560 19.7700   1
  -4   4   1 135.250 17.7500   1
  -4   4   1 129.650 18.8200   1
   4  -4  -1 85.9100 16.4100   1
  -4   3   6 130.660 18.1300   1
  -4   3   6 149.430 20.8200   1
   4  -3  -6 151.500 19.1600   1
  -1  -5   4 385.020 86.3300   1
  -1  -5   4 261.880 25.0000   1
  -1  -5   4 254.060 26.8800   1
   1   5  -4 296.540 26.9500   1
  -1  -5   4 224.580 21.4800   1
   1   5  -4 342.780 75.7100   1
   2   1  10 50.0600 16.2800   1
   2   1  10 77.3800 14.3100   1
   2   1  10 118.640 17.4700   1
  -2  -1 -10 103.270 16.6900   1
   3  -3   8 63.5300 9.96000   1
  -3   3  -8 60.8000 11.7800   1
   3  -3   8 68.4100 11.5300   1
  -3   3  -8 80.1400 13.3300   1
   1   5   1 7.02000 10.9700   1
   1   5   1 22.9000 11.0300   1
  -1  -5  -1 6.76000 10.7200   1
   1   5   1 12.6300 10.6100   1
  -1  -5  -1 21.9900 11.5000   1
  -1  -5  -1 4.81000 12.1200   1
  -3   5   0 101.850 16.9800   1
  -3   5   0 72.6700 14.7000   1
  -3   5   0 83.5200 14.3300   1
  -4   1  -6 44.7200 10.5500   1
   4  -1   6 65.3100 13.6400   1
  -1   0 -12 -11.350 10.4700   1
   1   0  12 -10.130 9.67000   1
  -1   0 -12 20.1800 13.8000   1
  -1   0 -12 -5.4700 13.3100   1
  -2  -1  12 192.150 23.1900   1
   2   1 -12 145.980 19.3200   1
  -2  -1  12 90.7800 14.2400   1
   2   1 -12 198.620 22.6200   1
  -4  -1  -4 148.240 21.7300   1
   4   1   4 188.180 21.6300   1
  -3  -3   7 197.840 22.1700   1
  -3  -3   7 132.820 20.9800   1
   3   3  -7 174.190 22.4300   1
  -3   5  -1 135.090 17.7000   1
  -3   5  -1 135.810 18.5300   1
  -3   5  -1 151.560 18.9200   1
   4  -4   1 75.0800 16.4800   1
  -4   4  -1 107.010 16.2700   1
  -4   4  -1 69.9000 13.4200   1
  -2   1 -11 39.4100 11.1700   1
  -2   1 -11 51.7700 15.6600   1
  -4   4   2 40.9800 15.7800   1
  -1  -3  11 97.8800 14.3600   1
   1   3 -11 177.470 22.6700   1
   0   5   4 166.980 19.1700   1
   0  -5  -4 124.350 15.8300   1
   0   5   4 168.890 19.1600   1
   0   5   4 197.440 21.0100   1
   1  -3  11 19.7100 10.1600   1
  -1   3 -11 1.82000 16.0900   1
  -3   5   1 41.2200 12.0700   1
  -3   5   1 54.5900 12.7200   1
  -3   5   1 54.6600 11.2900   1
  -1  -4   9 47.2500 9.06000   1
  -1  -4   9 42.8300 11.0500   1
  -2   1  12 34.3800 10.2500   1
   2  -1 -12 27.3000 10.6000   1
  -2   1  12 20.0300 10.8600   1
  -2   3 -10 96.3800 17.6700   1
   2  -3  10 57.5500 9.47000   1
  -2   3 -10 54.9000 10.4900   1
   3   0 -11 34.1800 10.4700   1
  -3   0  11 33.0300 11.4200   1
   3   0 -11 49.7400 17.6400   1
  -3   0  11 61.2900 14.4700   1
   2   4  -7 37.3300 14.1500   1
  -2  -4   7 58.7200 15.6700   1
  -2   3  10 36.3500 9.84000   1
  -2   3  10 78.5900 14.8200   1
  -2   3  10 46.1900 8.45000   1
  -2   4   8 1.28000 13.1500   1
  -2   4   8 -1.1800 9.10000   1
  -3   2  -9 6.47000 8.69000   1
   3  -2   9 -6.4400 11.0500   1
  -3   2  -9 0.81000 10.0700   1
  -3   2  -9 5.97000 7.50000   1
   4   2   1 97.5400 13.5200   1
  -4  -2  -1 83.8800 12.6900   1
  -1   5   5 135.930 17.7100   1
  -1   5   5 135.330 16.4500   1
  -1   5   5 139.130 15.8800   1
  -4   2  -6 56.0200 15.5400   1
   4  -2   6 70.4500 13.2600   1
   2   3   7 71.4800 14.1100   1
   2   3   7 50.1000 16.5500   1
   2   3   7 78.1800 15.4500   1
  -2  -3  -7 42.5700 13.4200   1
   4   2  -5 50.3000 15.3100   1
  -4  -2   5 32.5100 13.9300   1
  -3  -1  -8 136.580 18.0600   1
   3   1   8 156.680 20.5400   1
  -3   5  -2 181.590 24.1100   1
  -3   5  -2 137.420 18.6200   1
  -3   5  -2 122.920 17.7100   1
  -3   5  -2 140.240 17.9800   1
   0   3  10 -4.5100 12.0500   1
  -4   2   8 62.4200 13.9500   1
  -4   2   8 67.1300 15.4500   1
  -4   2   8 66.9500 13.6500   1
   4  -2  -8 74.6300 15.8600   1
  -4   3  -5 23.7000 13.1900   1
  -3   3   9 122.300 17.8600   1
  -3   3   9 78.8200 12.5400   1
   2   2   9 25.5800 9.68000   1
   2   2   9 -4.4600 11.0900   1
  -2  -2  -9 5.12000 15.6600   1
   2   2   9 10.8300 12.6200   1
   2   3 -10 234.890 26.6900   1
  -3   5   2 50.2200 17.7400   1
  -3   5   2 49.7700 15.6500   1
  -3   5   2 35.2300 11.8300   1
  -3   1  11 33.8600 11.9200   1
  -3   1  11 32.4600 9.60000   1
   3  -1 -11 80.2200 12.9800   1
  -4   4  -2 75.9700 15.3400   1
   4  -4   2 54.7700 15.7700   1
  -4   4  -2 104.030 13.8100   1
   1   3   9 8.62000 9.18000   1
   1   3   9 16.8400 12.8000   1
   1   3   9 6.07000 10.9300   1
  -1  -3  -9 -8.9400 12.9700   1
  -4   4   3 41.1800 11.2800   1
  -4   4   3 19.2500 16.2800   1
  -4   4   3 21.0200 9.02000   1
   4  -4  -3 34.7900 11.0900   1
  -1   2 -12 46.7900 11.5900   1
  -1  -5   5 21.8000 14.6000   1
   1   5  -5 6.67000 12.3100   1
  -1  -5   5 -14.400 14.4800   1
   1   5  -5 2.05000 8.03000   1
  -1  -5   5 9.69000 9.83000   1
   3   0   9 8.63000 12.8200   1
  -3   0  -9 15.8800 13.8500   1
  -2   0 -11 19.9400 14.2100   1
  -2   0 -11 9.11000 7.79000   1
   2   0  11 34.6300 10.0100   1
  -1  -5  -2 3.45000 10.3900   1
   1   5   2 18.7300 12.1400   1
   1   5   2 11.7300 8.39000   1
  -1  -5  -2 5.69000 9.28000   1
   1   5   2 14.3100 7.90000   1
   2   4   4 190.390 21.0400   1
   2   4   4 213.700 23.0100   1
   2   4   4 136.470 16.4400   1
  -2  -4  -4 177.820 20.6500   1
   1  -5   7 80.6000 16.5300   1
  -1   5  -7 44.9900 10.2600   1
   1  -5   7 62.6000 12.1400   1
  -1   5  -7 65.0600 12.3100   1
   2  -2  11 128.250 16.4100   1
  -2   2 -11 139.680 16.7200   1
  -2   2 -11 76.0600 11.5000   1
  -2   2 -11 149.370 21.0100   1
   0   4   8 49.0300 15.7800   1
   0   4   8 51.0900 12.0100   1
   0   4   8 69.9900 13.2400   1
  -3   4   7 -4.8800 11.3600   1
   1   0 -13 30.9900 13.3600   1
   1   0 -13 24.9500 11.2500   1
  -1   0  13 24.1200 12.8500   1
   1   0 -13 26.1800 11.8000   1
  -1   0  13 6.21000 10.0600   1
   0   4 -10 107.560 16.9700   1
   0  -4  10 52.2800 10.5900   1
   0  -4  10 116.210 18.9900   1
   0  -4  10 69.5600 12.8200   1
   0   5  -7 186.500 21.4500   1
   0  -5   7 218.160 24.7500   1
   0  -5   7 127.470 15.7400   1
  -2   5   5 2.16000 9.24000   1
  -2   5   5 2.55000 12.9700   1
  -2   5   5 -9.8300 10.9300   1
   4   1  -8 169.880 19.1200   1
  -4  -1   8 104.070 14.1900   1
  -2   5  -6 14.6500 17.9900   1
  -2   5  -6 18.9000 10.8000   1
   3   3   4 61.9000 11.7300   1
  -3  -3  -4 60.7700 15.2000   1
  -3   5  -3 39.0900 9.84000   1
  -3   5  -3 45.9100 12.5800   1
  -3   5  -3 60.8000 13.7100   1
  -3   5  -3 56.5200 11.7400   1
   4   0   6 110.060 17.2900   1
  -4   0  -6 89.9100 13.7400   1
   0  -1  13 54.5900 11.2400   1
   0   1 -13 55.1900 11.5700   1
   0   1 -13 89.9200 17.1200   1
   0   1 -13 28.1000 9.56000   1
   0  -1  13 60.9200 13.7400   1
  -4   1   9 120.250 19.1800   1
  -4   1   9 87.5600 16.2900   1
   4  -1  -9 93.8900 16.3000   1
   4  -1  -9 109.950 17.7200   1
  -1  -1  13 42.9500 12.6000   1
   1   1 -13 78.8200 14.7100   1
   1   1 -13 37.2100 10.3600   1
   1   1 -13 85.3500 18.6700   1
  -1  -1  13 74.2900 16.8400   1
  -5   1   2 13.8600 14.8100   1
  -5   1   2 17.1900 11.9900   1
   5  -1  -2 14.1000 9.03000   1
   5  -1  -1 108.500 15.4200   1
  -5   1   1 58.3400 15.3700   1
  -5   1   1 57.3400 15.2200   1
  -5   1   1 81.8400 12.7400   1
   4   2   2 148.540 17.8600   1
  -4  -2  -2 157.810 19.7600   1
   0   0 -13 -6.1900 12.3700   1
   0   0  13 18.1100 12.9400   1
   0   0  13 -4.4200 9.04000   1
   0   0 -13 11.5400 10.0500   1
   4   0  -9 -1.5800 13.7300   1
  -4   0   9 6.05000 9.79000   1
   4   0  -9 -4.5700 10.6300   1
   4   0  -9 9.44000 11.2400   1
  -4   0   9 7.27000 11.9300   1
   3   1 -11 17.6200 10.6900   1
  -3  -1  11 2.23000 12.1500   1
   3   1 -11 -2.5200 12.2000   1
  -3   5   3 0.41000 9.21000   1
  -3   5   3 -7.9800 9.34000   1
   3  -5  -3 -7.3300 11.6700   1
   3  -4   7 27.3500 9.64000   1
  -3   4  -7 22.9100 13.8800   1
   3  -4   7 23.1500 8.62000   1
  -4  -2   6 -8.8300 9.50000   1
   4   2  -6 -4.6800 14.5800   1
  -4   3   7 33.2600 11.3700   1
  -4   3   7 30.5300 10.7400   1
  -4   3   7 42.4500 12.0800   1
   4  -3  -7 47.9400 13.0400   1
   3   2 -10 39.0200 11.7500   1
  -3  -2  10 52.0300 13.6300   1
   3   2 -10 90.5700 17.2700   1
  -4   4  -3 14.7900 14.5100   1
  -4   4  -3 1.37000 13.1600   1
  -5   1   3 7.01000 14.1600   1
  -5   1   3 2.45000 11.6900   1
   5  -1  -3 24.1500 9.13000   1
   5  -1  -3 24.8200 13.0800   1
  -2   4  -9 6.62000 15.7900   1
   2  -4   9 1.67000 9.09000   1
  -1   2  12 12.5800 9.65000   1
  -1   2  12 -13.340 10.6100   1
  -4   4   4 1.75000 15.4500   1
  -1   4 -10 19.2300 20.5200   1
   1  -4  10 -0.7400 9.33000   1
   5  -1   0 12.7200 11.4200   1
  -5   1   0 -1.1800 11.6400   1
  -5   1   0 22.3600 10.8100   1
  -3  -3   8 74.1400 12.6800   1
  -3  -3   8 105.100 18.4200   1
   3   3  -8 123.330 17.8700   1
   1   4   7 35.9200 11.7300   1
   1   4   7 32.7800 11.8400   1
   1   4   7 44.5800 12.3400   1
  -1  -4  -7 30.0400 13.3300   1
   5  -2  -1 87.9400 16.7800   1
  -5   2   1 91.7500 15.7600   1
   5  -2  -1 107.500 16.4900   1
  -5   2   1 100.030 18.2000   1
   0   5   5 107.910 13.4600   1
   0  -5  -5 114.860 16.7100   1
   0  -5  -5 112.510 14.7600   1
   0   5   5 127.230 15.8800   1
   1   5  -6 -7.7900 12.4800   1
  -1  -5   6 11.4600 9.07000   1
  -1  -5   6 2.64000 14.8500   1
   4   1   5 60.2200 13.9200   1
  -4  -1  -5 14.2900 13.9400   1
  -5   2   2 23.5700 14.9100   1
  -5   2   2 10.8900 8.16000   1
   5  -2  -2 27.6700 11.0400   1
   5  -2  -2 24.4100 11.9600   1
  -2  -4   8 12.1400 14.3500   1
  -3  -2  -7 43.7800 14.9800   1
   3   2   7 34.1200 14.8600   1
  -3  -2  -7 28.5300 14.7900   1
   5  -2   0 115.120 15.4800   1
  -5   2   0 120.730 17.1500   1
  -5   2   0 112.680 18.7200   1
   1   2  11 54.3200 15.9500   1
   1   2  11 60.8700 10.9700   1
  -1  -2 -11 91.8200 17.9000   1
  -1  -1 -12 12.3400 13.1600   1
   1   1  12 29.4600 14.8000   1
  -1  -1 -12 39.0600 12.7900   1
   1   1  12 23.4400 10.8900   1
  -1  -5  -3 3.54000 10.6100   1
   1   5   3 -15.120 10.4000   1
  -1  -5  -3 13.2800 11.8000   1
   1   5   3 10.2200 11.5900   1
   1   5   3 -4.0300 10.9900   1
   5  -1  -4 200.490 22.9600   1
   5  -1  -4 144.720 21.1500   1
  -5   1   4 215.840 30.5100   1
  -3   5  -4 3.29000 11.6300   1
  -3   5  -4 13.0400 13.1000   1
  -3   5  -4 28.2100 11.3700   1
   5  -2  -3 -0.0400 13.1600   1
  -5   2   3 -9.7900 14.5100   1
  -5   2   3 -12.360 7.58000   1
   5  -2  -3 8.55000 11.3300   1
  -1   4   9 50.0600 17.1800   1
  -5   1  -1 -8.6600 9.80000   1
  -5   1  -1 13.3800 15.5900   1
   5  -1   1 2.89000 8.99000   1
   0  -3  12 76.4100 12.9200   1
   0   3 -12 86.9600 16.6000   1
  -1   5   6 18.4300 10.6100   1
  -1   5   6 33.6100 15.6400   1
  -1   5   6 17.0400 11.2100   1
   4  -1   7 10.6900 13.1300   1
  -4   1  -7 21.3000 13.4200   1
   5   0  -2 46.9300 14.3700   1
  -5   0   2 31.4700 15.4900   1
  -2  -2  12 13.8200 10.3100   1
   2   2 -12 19.5700 15.5700   1
  -1   1  13 81.7100 12.2000   1
  -1   1  13 101.980 15.2700   1
   1  -1 -13 87.5900 14.5100   1
   1  -1 -13 78.8400 14.6500   1
   1  -1 -13 72.9900 13.4900   1
   4  -3   6 46.5300 11.8800   1
  -4   3  -6 9.39000 13.3300   1
   5   0  -1 188.700 22.5100   1
  -5   0   1 144.940 18.6100   1
  -3   5   4 8.48000 13.9700   1
  -3   5   4 30.5100 12.3200   1
   3  -5  -4 26.1500 12.3200   1
   3  -3   9 38.4900 9.71000   1
  -3   3  -9 49.9900 15.3100   1
  -3   3  -9 47.6600 10.3600   1
   3  -3   9 32.5500 12.3800   1
   5   0  -3 -9.6200 9.37000   1
  -5   0   3 -5.8300 9.61000   1
  -1   3  11 137.580 15.7600   1
  -1   3  11 214.480 20.7200   1
   0   2  12 9.21000 12.6700   1
   0  -2 -12 15.6700 15.3600   1
   0   2  12 26.4000 13.0000   1
   1   4 -10 145.420 19.4300   1
  -1  -4  10 101.520 15.2500   1
  -1  -4  10 124.090 19.2900   1
   4  -2   7 149.140 15.9300   1
  -4   2  -7 152.740 16.3700   1
  -5   2  -1 98.1900 16.6900   1
  -5   2  -1 79.2900 11.1200   1
   5  -2   1 100.570 14.7400   1
  -3   2  11 41.7100 10.5000   1
   3  -2 -11 64.6500 14.6000   1
  -4  -2  -3 2.17000 10.0200   1
  -2   2  12 25.4800 11.5100   1
  -2   2  12 34.0900 14.9600   1
   0  -2  13 -2.5300 11.1600   1
  -3  -4   2 78.8900 12.1800   1
   3   4  -2 88.4100 13.0800   1
  -3  -4   2 98.9000 16.1000   1
  -3  -4   2 77.1200 18.6000   1
  -2  -4  -5 131.560 17.5500   1
   2   4   5 102.440 12.8100   1
   2   4   5 114.110 13.9000   1
  -4   4  -4 10.2600 13.7300   1
  -4   4  -4 9.89000 12.4600   1
  -4   2   9 5.31000 14.8700   1
   4  -2  -9 8.22000 13.2700   1
  -4   4   5 11.6500 15.2600   1
   4  -4  -5 0.94000 9.68000   1
   2   0 -13 180.920 20.1300   1
  -2   0  13 83.1800 13.1900   1
  -2   0  13 141.640 18.2400   1
  -5   0   0 114.110 17.7100   1
   5   0   0 149.690 18.2500   1
  -3   1 -10 9.09000 15.0700   1
   3  -1  10 0.07000 11.2900   1
   4   2  -7 30.2900 14.6400   1
  -4  -2   7 -0.7100 9.71000   1
  -2   5   6 32.2700 12.5800   1
  -2   5   6 29.1100 12.5900   1
  -2   5   6 46.2000 15.2900   1
  -2   5   6 11.7500 11.3700   1
  -3  -4   3 240.690 25.5900   1
  -3  -4   3 274.860 25.3800   1
   3   4  -3 352.960 32.6200   1
  -3  -4   3 212.580 26.2200   1
   5  -2  -4 53.1800 13.2600   1
   5  -2  -4 27.1600 14.9800   1
  -5   2   4 42.1200 11.9400   1
  -1   5  -8 5.85000 10.2000   1
   1  -5   8 5.82000 15.6200   1
   1  -5   8 13.8500 9.99000   1
  -2   4   9 25.3200 10.9700   1
  -2   4   9 37.6300 14.6100   1
  -2   4   9 11.4800 9.78000   1
  -2   5  -7 72.9700 15.6000   1
   2  -5   7 47.2000 10.1900   1
   3   4  -1 47.9200 14.1600   1
  -3  -4   1 17.3400 13.1900   1
  -3  -4   1 23.2600 14.1000   1
   0   5  -8 90.4900 15.7100   1
   0  -5   8 86.7500 16.3000   1
  -3  -3  -5 -17.010 13.9700   1
   3   3   5 16.9100 13.5100   1
   5  -1  -5 40.2100 12.5200   1
   5  -1  -5 23.1000 13.8200   1
  -5   1   5 14.6700 10.5100   1
  -5   0   4 -7.8600 13.9600   1
   5   0  -4 -3.2000 13.2500   1
  -2  -3  -8 188.670 23.2000   1
   2   3   8 179.300 21.4000   1
   2   3   8 234.980 22.2100   1
   2   3   8 249.160 22.8400   1
  -4  -1   9 107.120 16.6800   1
   4   1  -9 128.230 18.0100   1
   0  -1 -13 31.9200 13.9000   1
   0   1  13 79.9100 16.2800   1
   0   1  13 75.6600 13.2700   1
   0  -1 -13 57.9600 13.2700   1
   1   2 -13 32.5300 17.3900   1
  -1  -2  13 51.7900 14.7600   1
   1   2 -13 34.2500 16.0400   1
  -1  -2  13 47.8400 12.0700   1
  -3   4   8 23.5500 11.7900   1
  -3   4   8 19.7800 13.9700   1
  -3   4   8 5.98000 11.8200   1
  -5   1  -2 192.240 22.4300   1
   5  -1   2 252.120 25.3600   1
   1   3 -12 142.260 17.7300   1
  -1  -3  12 113.850 16.9500   1
   2   1  11 34.9400 13.2600   1
   2   1  11 49.8700 13.4100   1
  -2  -1 -11 63.7200 14.8900   1
  -3   3  10 28.7100 14.5900   1
  -3  -4   4 68.6700 15.3600   1
   3   4  -4 55.2700 14.6400   1
  -3  -4   4 33.4300 18.8200   1
  -3  -4   4 16.6800 14.9100   1
  -2  -3  11 98.0600 16.5400   1
   2   3 -11 61.7000 15.9800   1
  -1   1 -13 136.980 18.7700   1
  -1   1 -13 143.340 19.3300   1
  -3   0  12 94.8900 14.7900   1
   3   0 -12 146.150 19.3600   1
   3   0 -12 100.330 14.4900   1
  -3   0  12 117.390 16.6000   1
  -3   2 -10 4.10000 9.14000   1
  -3   2 -10 11.1700 15.1100   1
  -3   2 -10 -3.1100 8.79000   1
   3  -2  10 8.41000 11.8500   1
  -1  -5   7 -2.6900 8.93000   1
  -1  -5   7 11.6600 13.9900   1
   1   5  -7 -1.6500 12.5200   1
  -2   3 -11 81.0300 16.7100   1
  -2   3 -11 45.3000 10.1700   1
   2  -3  11 46.4500 8.88000   1
  -2   3  11 56.8700 13.7700   1
  -2   3  11 64.6800 13.8000   1
   3   4   0 9.68000 9.57000   1
  -3  -4   0 -1.3800 13.9200   1
   3   1   9 80.9100 12.2500   1
  -2  -1  13 18.2400 10.0100   1
  -2  -1  13 3.07000 10.1400   1
   2   1 -13 25.6900 13.7500   1
  -1   3 -12 -5.5100 17.5300   1
  -5   2  -2 123.920 18.3200   1
   5  -2   2 129.870 16.4800   1
  -5   2  -2 119.620 15.0200   1
   5   0   1 7.83000 9.61000   1
  -5   0  -1 16.9800 11.2300   1
  -5   0  -1 13.7300 15.4900   1
  -3   5  -5 37.9300 12.2700   1
  -3   5  -5 43.7200 11.0400   1
  -4   3   8 3.82000 15.0700   1
  -4   3   8 19.5600 11.3700   1
   4  -3  -8 27.3300 14.5300   1
  -4   0  -7 19.3100 11.2200   1
   4   0   7 41.0600 14.4000   1
   1   5   4 23.3900 14.0200   1
  -1  -5  -4 -11.590 11.8200   1
  -1  -5  -4 -4.6500 11.7000   1
   1   5   4 -16.950 12.1200   1
   1   5   4 4.58000 12.3900   1
  -2   1 -12 63.1100 16.3100   1
  -2   1 -12 42.3100 11.9200   1
   1  -6   1 203.170 23.3300   1
  -1   6  -1 132.540 16.8600   1
  -1   6  -1 154.430 17.0100   1
   1  -6   1 170.690 21.3600   1
   1  -6   1 119.380 12.8100   1
  -1   6  -1 118.500 14.4600   1
   3  -4   8 80.3200 12.4600   1
  -3   4  -8 72.9100 12.3800   1
   3  -4   8 72.6200 12.0900   1
   4  -1 -10 31.6200 16.3600   1
  -4   1  10 -2.3200 12.0100   1
  -3  -3   9 407.060 36.2000   1
  -3  -3   9 276.980 30.3000   1
   3   3  -9 307.190 31.1000   1
   0   4   9 12.5100 12.0200   1
   0   4   9 37.5600 13.2400   1
   2  -1 -13 22.1500 11.7500   1
  -2   1  13 19.4400 14.9400   1
  -2   1  13 32.1400 13.6300   1
   2   2  10 22.9600 14.0200   1
   2   2  10 18.2000 13.2800   1
  -2  -2 -10 29.1600 17.6900   1
   2   2  10 11.8900 11.0600   1
   4   0 -10 36.1800 12.6300   1
  -4   0  10 35.6400 14.9800   1
   4   0 -10 -3.6200 14.3800   1
  -4   0  10 53.3600 14.5300   1
   4   0 -10 46.0700 12.5000   1
  -1   6  -2 107.490 14.9100   1
   1  -6   2 78.4500 11.4400   1
  -1   6  -2 135.570 16.7100   1
   1  -6   2 173.320 23.1700   1
  -1   6  -2 101.830 12.5300   1
   1  -6   2 101.970 18.5900   1
  -3   1  12 5.81000 12.6900   1
  -3   1  12 2.12000 10.9400   1
   3  -1 -12 -4.7700 10.2000   1
   3  -1 -12 7.30000 13.1800   1
  -5   0   5 28.2300 15.8700   1
   5   0  -5 58.4400 11.2200   1
   5  -2  -5 9.59000 12.6800   1
  -5   2   5 10.5500 11.8000   1
   5  -2  -5 -4.7800 13.5500   1
  -5   2   5 3.10000 13.8700   1
   0   5   6 15.8200 12.5300   1
   0  -5  -6 -4.3600 10.1200   1
   0   5   6 0.66000 11.6100   1
   0   5   6 -5.8500 8.65000   1
   1   3  10 -3.8400 10.9200   1
  -1  -3 -10 9.83000 13.6800   1
   1   3  10 7.40000 13.2700   1
   1   3  10 14.3800 13.0100   1
  -1   6   0 32.7300 14.5100   1
   1  -6   0 49.8900 15.4700   1
   1  -6   0 21.2800 11.3500   1
  -1   6   0 29.1400 11.6100   1
   1  -6   0 42.7700 15.5900   1
  -1   0 -13 62.0000 14.4200   1
   1   0  13 80.6800 13.4500   1
   0   3  11 35.5700 11.5400   1
   0   3  11 71.7300 12.9400   1
   3  -5  -5 18.4800 11.0200   1
  -3   5   5 31.5200 12.0900   1
  -3   5   5 30.6100 12.3100   1
  -3   5   5 20.8500 12.2800   1
   0   4 -11 -8.7800 9.36000   1
   0  -4  11 5.93000 11.4600   1
   0  -4  11 0.54000 14.0200   1
   0  -4  11 12.1000 10.2800   1
  -3   0 -10 10.3600 14.2700   1
   3   0  10 2.97000 8.92000   1
   2   5  -2 48.4600 10.8800   1
  -2  -5   2 69.7700 14.3900   1
  -2  -5   2 59.9400 12.8400   1
  -2  -5   2 51.8900 16.9000   1
  -5   3   1 30.6500 14.1400   1
   5  -3  -1 38.9600 11.5500   1
  -2  -4   9 13.5700 14.5100   1
   2   4  -9 16.8600 13.4900   1
  -4  -1  -6 -6.8200 15.3900   1
   4   1   6 -0.6800 13.0500   1
  -3  -4   5 82.8200 14.5500   1
   3   4  -5 115.770 14.4100   1
  -3  -4   5 61.2800 19.1100   1
  -3  -4   5 117.850 17.5400   1
   2   5  -1 4.55000 10.9800   1
   2   5  -1 7.51000 9.52000   1
  -2  -5   1 37.6100 14.6500   1
  -2  -5   1 -11.700 12.5400   1
  -2  -5   1 7.44000 13.2400   1
   5  -3  -2 41.9700 11.7300   1
  -5   3   2 60.4700 11.3800   1
  -5   3   2 45.1900 15.0700   1
   5  -3  -2 38.3000 12.8300   1
  -2  -5   3 48.6300 10.8800   1
  -2  -5   3 61.3900 15.4200   1
  -2  -5   3 91.8800 18.4800   1
   2   5  -3 39.1400 13.3400   1
   5  -3   0 22.5500 11.9400   1
  -5   3   0 33.0000 16.2600   1
  -3  -4  -1 52.1500 13.9300   1
   3   4   1 17.3800 9.89000   1
   5  -1  -6 37.2000 12.6300   1
   5  -1  -6 43.8000 12.6600   1
  -5   1   6 24.6100 13.8000   1
   3   2 -11 8.37000 11.6200   1
  -3  -2  11 20.1800 14.8500   1
   3   2 -11 32.9600 16.6300   1
   1  -6   3 157.490 19.9600   1
  -1   6  -3 107.850 14.0300   1
  -1   6  -3 160.670 17.8800   1
  -4   4  -5 35.4300 13.2500   1
  -4   4   6 -5.0900 10.3000   1
  -4   4   6 14.3100 15.0100   1
  -4   4   6 7.23000 11.3200   1
  -4  -2  -4 40.0500 10.7200   1
   4   2   4 69.0500 11.7900   1
  -1   6   1 20.2900 11.5500   1
   1  -6  -1 37.8100 13.8300   1
  -1   6   1 30.3500 12.5800   1
   1  -6  -1 43.0200 14.8400   1
  -2   4 -10 -11.310 12.2700   1
   2  -4  10 4.77000 9.64000   1
  -1   2 -13 48.9100 12.1800   1
  -1   2 -13 35.9800 11.4700   1
   5  -1   3 8.05000 11.5800   1
  -5   1  -3 3.24000 13.5900   1
  -2   2 -12 50.9800 12.0600   1
  -2   2 -12 42.1600 11.2300   1
   1   4   8 8.65000 10.7100   1
  -1  -4  -8 33.9100 15.6300   1
   1   4   8 46.1400 13.2100   1
  -3  -1  12 3.37000 9.81000   1
   3   1 -12 14.2100 12.3500   1
   3   1 -12 31.5400 14.3200   1
   3   1 -12 17.7700 13.9500   1
  -3  -1  12 -2.2900 10.1000   1
  -1   5   7 9.15000 13.6500   1
  -1   5   7 5.37000 10.1700   1
   4   3  -2 37.9000 10.8400   1
  -4  -3   2 25.5200 11.5500   1
  -4  -3   2 27.5900 17.1500   1
  -5   0  -2 122.790 18.6400   1
  -5   0  -2 114.500 17.5600   1
   5   0   2 123.720 15.5100   1
  -4  -2   8 21.8700 14.8600   1
   4   2  -8 3.47000 14.7300   1
  -5   3   3 29.4200 11.6900   1
   5  -3  -3 -0.2800 12.9700   1
   5  -3  -3 35.9300 11.6000   1
   2   5   0 49.3600 11.3400   1
  -2  -5   0 40.9800 14.9400   1
  -2  -5   0 44.5300 16.6500   1
   2   5   0 40.6200 14.1900   1
  -2   0 -12 58.2600 14.3700   1
   2   0  12 86.3500 16.0600   1
   4  -3   7 6.80000 10.0100   1
  -4   3  -7 14.0300 13.9600   1
   2   5  -4 50.1500 14.7100   1
  -2  -5   4 37.7400 14.0100   1
  -2  -5   4 35.9200 11.0200   1
  -1   4 -11 69.3100 20.2100   1
   1  -4  11 30.5100 12.7800   1
  -4  -3   3 42.2000 13.0700   1
   4   3  -3 55.8100 11.7400   1
  -2   6  -1 85.0000 15.2700   1
  -2   6  -1 68.5300 14.5000   1
  -2   6  -1 61.3300 11.7100   1
   5  -3   1 -5.3100 9.76000   1
  -5   3  -1 -10.720 13.0600   1
  -5   2  -3 70.6400 14.9500   1
  -5   2  -3 78.3400 12.5300   1
   5  -2   3 65.7800 13.5200   1
  -3  -2  -8 64.4700 15.6800   1
   3   2   8 81.9700 16.3500   1
  -2   6   0 151.160 21.8900   1
  -2   6   0 150.700 18.9100   1
  -2   6   0 111.130 14.1000   1
   2  -6   0 184.060 22.5100   1
  -4  -3   1 41.0900 13.1100   1
   4   3  -1 51.8600 13.7300   1
  -2   6  -2 334.690 31.5000   1
  -2   6  -2 575.920 53.5100   1
  -2   6  -2 460.220 43.1700   1
   0   6  -1 261.300 21.9100   1
   0  -6   1 289.490 24.4200   1
   0  -6   1 237.920 21.6100   1
   0  -6   1 262.600 25.2600   1
   0  -6   1 229.100 20.7300   1
   0  -6   1 297.930 29.4100   1
   0   6  -1 274.580 24.1800   1
   0  -6   2 214.290 19.5100   1
   0   6  -2 218.060 18.8500   1
   0  -6   2 242.440 21.1900   1
   0   6  -2 256.290 27.1300   1
   0  -6   2 238.930 21.8600   1
   0  -6   2 250.560 26.1600   1
   2   4   6 88.8800 14.7900   1
  -2  -4  -6 68.8400 16.5200   1
  -4   1  -8 -14.000 14.0600   1
   4  -1   8 -11.920 9.08000   1
  -5   0   6 59.8200 14.5900   1
   5   0  -6 66.3200 14.8000   1
   1  -6   4 110.140 15.3900   1
  -1   6  -4 138.900 17.3400   1
  -1   6  -4 88.2200 12.3200   1
  -2   5   7 14.9000 13.2400   1
  -2   5   7 34.0400 16.7300   1
  -2   5   7 21.0400 12.4800   1
  -2   5   7 11.4000 9.79000   1
  -1   0  14 7.90000 13.2400   1
   1   0 -14 17.3800 13.5900   1
   1   0 -14 0.10000 10.9400   1
  -1   0  14 16.3300 10.0200   1
  -5  -1   2 169.850 17.5400   1
   5   1  -2 287.450 28.3600   1
   4   3  -4 45.9800 15.6500   1
  -4  -3   4 32.7900 15.3600   1
  -4  -3   4 35.1800 15.8400   1
   2  -5   8 110.800 14.5600   1
  -2   5  -8 179.850 24.8800   1
  -2   5  -8 106.770 15.4700   1
   3   4  -6 198.000 23.0700   1
  -3  -4   6 165.000 19.5500   1
  -3  -4   6 123.390 23.6000   1
   2  -6  -1 21.7500 15.0100   1
  -2   6   1 3.03000 9.75000   1
  -2   6   1 -19.120 16.0300   1
  -2   6   1 25.0900 12.8100   1
  -5   2   6 53.3100 13.8000   1
   5  -2  -6 87.3200 14.4900   1
  -5   2   6 55.1500 15.6800   1
   5  -2  -6 65.5600 15.8600   1
  -5  -1   3 7.42000 12.0700   1
  -5  -1   3 50.9800 14.8300   1
   5   1  -3 34.1100 11.0600   1
  -1   6   2 0.62000 8.72000   1
   1  -6  -2 -8.7600 13.5600   1
  -1   6   2 17.2400 13.3500   1
   1  -6  -2 11.0500 9.99000   1
   1   5  -8 10.8300 13.6400   1
  -1  -5   8 24.8100 14.9800   1
  -1  -5   8 20.7000 11.0000   1
   0  -5   9 21.4400 14.8900   1
   0   5  -9 58.7400 13.9700   1
  -3   5  -6 -5.5500 11.4400   1
  -3   5  -6 29.5900 14.7400   1
  -5  -1   1 63.0600 14.3400   1
   5   1  -1 114.190 17.3400   1
  -1  -1  14 29.3200 9.45000   1
   1   1 -14 35.8400 12.1700   1
  -1  -1  14 -1.9600 9.88000   1
   1   1 -14 14.1800 9.01000   1
   1   1 -14 16.9000 9.99000   1
  -4   2  -8 140.660 19.8100   1
   4  -2   8 170.010 21.1100   1
   0   6   0 534.700 143.270   1
   0   6   0 468.350 125.600   1
   0  -6   0 405.170 35.2600   1
   0  -6   0 522.730 140.460   1
   0   6   0 385.950 31.3900   1
   0  -6   0 383.590 33.7100   1
   0  -6   0 396.340 33.2500   1
  -1   5  -9 108.530 24.0000   1
   1  -5   9 60.0900 12.3400   1
   1  -5   9 87.8500 16.6000   1
   0  -6   3 31.1300 10.0200   1
   0  -6   3 35.5200 19.2300   1
   0  -6   3 74.7700 17.5300   1
   0  -6   3 24.3200 10.3700   1
   0   6  -3 45.7300 11.5200   1
   0   6  -3 36.5400 12.0100   1
   0   1 -14 87.1700 17.2200   1
   0  -1  14 49.0900 10.4900   1
   0   1 -14 86.8900 13.6100   1
   0  -1  14 114.530 15.7900   1
   3   3   6 -6.8700 9.70000   1
  -3  -3  -6 1.64000 14.7600   1
   4   3   0 62.0000 14.7800   1
  -4  -3   0 50.8300 15.1500   1
   3   4   2 196.040 20.4700   1
  -3  -4  -2 120.310 17.2600   1
  -5   3   4 125.000 18.0500   1
  -5   3   4 118.110 19.8600   1
   5  -3  -4 82.4700 14.0800   1
  -5   3   4 118.220 18.1400   1
   5  -3  -4 137.790 16.9100   1
  -5   3   4 119.960 16.0200   1
  -2  -5  -1 52.6200 15.4900   1
   2   5   1 35.5800 12.1100   1
   2   5   1 41.3400 12.3900   1
  -1   4  10 -1.9600 12.9900   1
  -4   2  10 19.6300 13.0400   1
  -4   2  10 4.13000 14.7800   1
   4  -2 -10 32.6100 17.2400   1
  -2  -5   5 58.8000 21.0200   1
   2   5  -5 72.7000 15.3200   1
  -2  -5   5 34.4900 10.8700   1
  -2  -5   5 83.1100 16.4200   1
  -1  -4  11 -13.040 14.9600   1
   1   4 -11 -2.4300 14.6500   1
  -1   2  13 -3.2100 11.0000   1
  -1   2  13 4.68000 14.1100   1
  -2   6  -3 119.940 15.5700   1
  -2   6  -3 161.010 22.7900   1
  -5   3  -2 0.10000 10.1700   1
  -5   3  -2 10.6700 9.86000   1
   0   0 -14 4.37000 13.5300   1
   0   0 -14 15.9600 10.1800   1
   0   0 -14 22.8400 11.3400   1
   0   0  14 25.9600 9.70000   1
   0   0  14 10.6600 12.4900   1
   1   5   5 83.9300 14.7600   1
   1   5   5 107.520 15.0800   1
  -1  -5  -5 86.4800 14.8300   1
   1   5   5 86.9800 14.3800   1
  -4  -1  10 26.6000 12.9100   1
  -4  -1  10 25.2300 10.1400   1
   4   1 -10 26.8400 15.1600   1
  -3   3 -10 33.2700 13.2900   1
  -3   3 -10 33.6800 16.0000   1
  -3   3 -10 5.34000 9.78000   1
   3  -3  10 21.7500 8.59000   1
  -4   5   0 -14.980 14.6600   1
  -4   5   0 2.23000 10.3100   1
  -4   5   0 10.4800 9.99000   1
  -5  -1   4 59.4700 14.4400   1
  -5  -1   4 89.3400 16.6000   1
   5   1  -4 80.8400 15.1700   1
  -4   5   1 6.85000 11.7200   1
  -4   5   1 10.9600 13.4800   1
  -4   5   1 16.3600 13.7600   1
  -3   5   6 63.4700 12.4200   1
  -3   5   6 58.4200 10.0300   1
  -3   5   6 90.5500 16.9100   1
   3  -5  -6 47.7300 11.5000   1
  -5  -1   0 11.2200 13.8900   1
   5   1   0 -13.050 13.5500   1
  -5   1   7 18.9400 13.3800   1
   5  -1  -7 23.9000 13.5900   1
   4   3  -5 172.550 20.6400   1
  -4  -3   5 132.660 15.2700   1
  -4  -3   5 122.700 21.0700   1
  -4  -3   5 147.980 19.7600   1
  -3   4   9 7.94000 11.8900   1
  -3   4   9 -5.0500 14.8600   1
  -3   4   9 10.9000 9.58000   1
  -4   5  -1 51.8000 12.4600   1
  -4   5  -1 43.4500 12.2100   1
  -2   6   2 54.9900 12.6700   1
   2  -6  -2 61.9900 15.4300   1
  -2   6   2 43.2800 16.0100   1
  -2   6   2 49.7600 10.9100   1
  -2   6   2 70.6600 15.9700   1
  -2  -2  13 38.2300 15.9200   1
   2   2 -13 25.2900 11.4300   1
   0   6   1 123.480 15.7100   1
   0  -6  -1 95.4700 12.7600   1
   0  -6  -1 127.740 23.8300   1
   0  -6  -1 123.580 15.1700   1
   0   6   1 117.120 16.0100   1
   0   6   1 102.860 12.4900   1
   1   2  12 22.3300 13.2000   1
   1   2  12 5.21000 8.77000   1
  -1  -2 -12 18.4500 13.9900   1
   0  -3  13 29.2300 8.43000   1
   0  -3  13 39.3500 12.0300   1
   0   3 -13 60.8600 20.5600   1
   5   0   3 89.6400 12.6100   1
  -5   0  -3 77.6000 17.4200   1
   0  -6   4 4.03000 8.84000   1
   0   6  -4 17.1400 12.2800   1
   0  -6   4 19.6300 19.7000   1
   0  -6   4 8.28000 11.4700   1
   0  -6   4 1.93000 8.18000   1
  -2   4  10 11.6700 10.2800   1
  -4   3   9 10.4000 10.5500   1
   4  -3  -9 -12.570 12.8800   1
  -4   5   2 7.21000 12.7100   1
  -4   5   2 -0.4500 15.5100   1
  -4   5   2 9.85000 12.2000   1
   5  -1   4 16.7300 12.4200   1
  -5   1  -4 -0.6400 10.4800   1
  -3   2  12 104.130 18.3000   1
   1  -6   5 25.0000 9.03000   1
   1  -6   5 96.0600 17.6400   1
  -1   6  -5 46.7000 10.5000   1
  -1  -1 -13 52.0900 14.7500   1
   1   1  13 54.2100 15.1300   1
  -1  -1 -13 78.4300 14.3500   1
   1   1  13 105.090 14.9200   1
  -4  -3  -1 305.630 28.0400   1
   4   3   1 465.880 125.610   1
  -4   4  -6 54.9500 11.3100   1
   4  -4   6 60.4600 11.2900   1
   3   3 -10 118.440 15.3000   1
  -3  -3  10 103.990 14.6200   1
  -3  -3  10 69.1900 12.2700   1
  -3  -3  10 64.4400 14.8800   1
   2   3   9 8.26000 13.0700   1
   2   3   9 11.7500 9.60000   1
  -2  -3  -9 11.9000 13.5900   1
  -5   2  -4 7.95000 10.3100   1
   5  -2   4 -5.1800 11.6500   1
  -1   3  12 67.4800 12.5000   1
  -1   3  12 76.9700 13.5500   1
  -4   4   7 25.0900 15.0100   1
   0   5   7 15.3800 11.8200   1
   0   5   7 -6.3900 11.5400   1
   0   5   7 1.40000 10.4900   1
   1  -6  -3 45.7700 14.8300   1
  -1   6   3 33.5100 14.2900   1
  -1   6   3 26.2600 10.6000   1
   1  -6  -3 34.8000 13.8100   1
  -1   6   3 44.6500 14.0800   1
  -2   6  -4 224.740 26.8700   1
  -2   6  -4 191.770 20.0100   1
  -4   5  -2 50.9000 12.4300   1
  -4   5  -2 67.0500 10.6700   1
  -4   5  -2 91.0300 17.4600   1
  -3   1 -11 61.8700 12.6700   1
   3  -1  11 143.230 17.7200   1
  -4  -2  -5 25.2000 10.8100   1
   4   2   5 -8.9500 10.0400   1
   5   1  -5 140.600 18.9400   1
  -5  -1   5 69.0700 13.1500   1
  -5  -1   5 81.2000 15.6600   1
  -5   3   5 81.7800 13.9100   1
   5  -3  -5 72.6400 14.6700   1
  -5   3   5 113.030 14.6600   1
   5  -3  -5 132.690 16.9800   1
  -5   3   5 79.8400 18.2000   1
   4   0   8 68.1200 15.5400   1
  -4   0  -8 35.4100 11.3700   1
   2   5   2 -15.270 11.0600   1
  -2  -5  -2 0.27000 12.9700   1
   2   5   2 -5.4700 12.3600   1
   2   3 -12 90.5700 17.5300   1
  -2  -3  12 44.0900 11.7400   1
  -2  -4  10 12.4600 14.9000   1
   2   4 -10 17.3100 15.0200   1
  -3   4  -9 17.9500 13.2400   1
   3  -4   9 6.63000 8.93000   1
   3  -4   9 8.05000 9.55000   1
  -3   3  11 -8.0400 12.2800   1
  -3   3  11 -13.560 13.4700   1
  -5   0   7 40.9900 14.5400   1
   5   0  -7 69.2100 14.3200   1
  -2   2  13 41.0200 12.1800   1
  -2   2  13 11.3400 12.3100   1
   5   1   1 13.5000 12.4800   1
  -5  -1  -1 -2.4900 9.97000   1
  -3  -4   7 62.0100 14.9400   1
  -3  -4   7 22.5000 14.3200   1
   3   4  -7 19.8600 13.6000   1
  -1   1  14 23.5100 8.20000   1
   1  -1 -14 3.86000 10.8500   1
  -1   1  14 17.1400 9.79000   1
  -2  -5   6 9.94000 9.24000   1
  -2  -5   6 36.6800 11.2700   1
  -2  -5   6 9.20000 19.5700   1
   4   2  -9 -5.4700 13.8900   1
  -4  -2   9 1.97000 14.0800   1
  -5   3  -3 -4.9300 13.3500   1
   5  -3   3 16.7500 10.2600   1
  -5   3  -3 31.5800 11.3300   1
   4   1   7 -26.780 14.2300   1
  -4  -1  -7 8.94000 11.3400   1
   4   0 -11 414.080 113.430   1
  -4   0  11 277.540 31.0800   1
  -4   0  11 247.110 32.2800   1
   4   0 -11 155.390 20.9900   1
   0   2  13 63.5400 12.3900   1
   0  -2 -13 86.6100 15.3200   1
   0  -2 -13 30.3400 11.4700   1
  -4   1  11 8.78000 11.1700   1
  -4   1  11 9.00000 14.4400   1
   4  -1 -11 22.8000 11.0000   1
   3   4   3 258.290 23.5800   1
  -3  -4  -3 232.960 24.3900   1
  -4   5   3 36.8900 11.2800   1
  -4   5   3 17.1100 11.0000   1
  -4   5   3 7.93000 13.7100   1
   0  -2  14 -9.0300 11.6600   1
   0   2 -14 7.77000 16.5600   1
   0   2 -14 9.02000 8.60000   1
  -5   2   7 113.840 15.7700   1
   5  -2  -7 202.130 25.6900   1
   5  -2  -7 108.630 17.9300   1
  -5   2   7 139.390 17.6400   1
  -2   0  14 35.8300 14.6300   1
  -2   0  14 30.7900 12.4300   1
  -2   0  14 31.3500 10.9400   1
   2   0 -14 34.3300 12.5800   1
  -1  -3  13 105.820 15.1200   1
   1   3 -13 162.300 19.8800   1
   0  -6  -2 28.0300 10.7800   1
   0   6   2 21.2000 8.92000   1
   0   6   2 19.6400 10.3800   1
   0  -6  -2 28.8000 10.4200   1
   0   6   2 21.2500 10.5700   1
   0  -6  -2 9.23000 8.66000   1
   3  -2  11 5.88000 11.1100   1
  -3   2 -11 0.51000 7.12000   1
  -3   2 -11 6.00000 14.0200   1
  -4  -3   6 141.670 25.8100   1
  -4  -3   6 114.900 14.4300   1
  -4  -3   6 148.410 19.5700   1
   4   3  -6 153.630 17.3400   1
  -3  -1 -10 8.53000 15.0500   1
   3   1  10 36.5300 14.1000   1
  -2   6   3 127.340 18.5800   1
  -2   6   3 114.360 14.1000   1
  -2   6   3 117.300 16.7700   1
  -2   6   3 104.130 15.9500   1
   2  -6  -3 150.480 18.8000   1
  -2   6   3 177.180 19.9700   1
   0  -6   5 18.5600 16.6900   1
   0  -6   5 12.2800 8.09000   1
   0  -6   5 8.41000 8.22000   1
   0   6  -5 25.9600 12.9600   1
  -3   0  13 66.3900 13.6500   1
  -3   0  13 36.6200 9.37000   1
   3   0 -13 81.0900 16.4900   1
   3   0 -13 71.1200 12.5100   1
   2  -3  12 92.6400 11.4800   1
  -2   3 -12 89.9100 14.0600   1
  -2   3 -12 56.1100 11.9000   1
  -2   3  12 17.6700 10.1800   1
  -2   3  12 64.8100 14.8400   1
   0   4  10 61.7400 14.5800   1
   0   4  10 90.1200 14.9100   1
   1   2 -14 37.0800 14.4200   1
  -1  -2  14 21.7900 11.4400   1
  -1  -2  14 46.9900 16.1900   1
   1   2 -14 19.4500 17.9700   1
  -1   5   8 4.72000 8.30000   1
  -1   5   8 5.61000 9.39000   1
  -2  -1 -12 8.25000 13.7300   1
   2   1  12 -7.0400 10.5000   1
   2   1  12 2.36000 12.4700   1
  -4   5  -3 115.840 17.0600   1
  -4   5  -3 108.660 13.5500   1
  -4   5  -3 86.1600 14.2300   1
  -4   3  -8 6.63000 15.1900   1
   4  -3   8 51.4200 11.7200   1
  -3   5  -7 10.1700 10.2700   1
  -3   5  -7 0.65000 12.0200   1
   0  -4  12 11.2000 10.5800   1
   0  -4  12 30.8300 11.9700   1
   0   4 -12 -5.8300 20.0300   1
   0   4 -12 31.9800 16.2100   1
  -1   3 -13 30.0700 10.7600   1
  -1   3 -13 80.3800 18.6000   1
  -4  -3  -2 34.8400 10.9900   1
   4   3   2 42.0900 13.9100   1
  -1  -5   9 7.53000 11.2400   1
   1   5  -9 24.2600 14.2000   1
   3   2 -12 125.160 17.2600   1
   3   2 -12 219.250 26.0300   1
  -3  -2  12 126.520 16.6200   1
   2   1 -14 30.1100 10.8400   1
  -2  -1  14 29.0100 9.80000   1
   2   1 -14 18.6700 9.42000   1
  -2  -1  14 23.6200 13.6500   1
   0   1  14 28.3700 13.6200   1
   0  -1 -14 15.8800 11.4500   1
   0  -1 -14 34.4200 12.6400   1
   0   1  14 34.1900 11.9100   1
   1  -6   6 37.0100 9.62000   1
  -1   6  -6 56.8200 13.7300   1
  -1   6  -6 35.3700 10.9300   1
   1  -6   6 8.48000 16.8100   1
  -5  -1   6 110.110 17.7400   1
   5   1  -6 80.2500 16.3500   1
   2   2  11 6.38000 13.7700   1
  -2  -2 -11 43.5600 12.5000   1
   2   2  11 13.2700 9.41000   1
   3  -1 -13 61.2700 11.8800   1
  -3   1  13 49.2300 12.8100   1
   3  -1 -13 23.1200 11.1100   1
  -3   1  13 18.8000 9.58000   1
   3  -1 -13 16.0100 14.0900   1
   1   3  11 9.12000 11.3700   1
   1   3  11 11.8600 12.4600   1
  -2   6  -5 56.9900 11.5900   1
  -2   6  -5 79.4300 22.0900   1
  -2   5   8 53.9800 14.0400   1
  -2   5   8 10.3000 14.8800   1
  -2   5   8 39.6400 11.8400   1
   2   4   7 -2.4700 13.5200   1
   2   4   7 14.1400 13.5900   1
  -2  -4  -7 34.2900 14.1900   1
   1   4   9 1.97000 12.4800   1
   1   4   9 0.93000 10.8300   1
   5   0   4 -2.7100 13.1400   1
  -5   0  -4 29.3000 14.6700   1
  -2   5  -9 47.6200 20.0400   1
   2  -5   9 40.8100 10.5800   1
  -1   1 -14 17.5300 14.7700   1
  -1   1 -14 -0.1100 11.2300   1
   2  -4  11 33.0500 10.5800   1
  -2   4 -11 26.2400 18.5800   1
  -2   4 -11 21.1000 9.84000   1
  -3   0 -11 -12.260 13.2100   1
   3   0  11 4.58000 13.1000   1
  -5   1   8 4.64000 14.4500   1
  -5   1   8 -6.1800 12.3300   1
   5  -1  -8 5.93000 13.7100   1
   5  -1  -8 17.1000 14.0100   1
  -5  -1  -2 152.380 18.8100   1
   5   1   2 199.350 62.4100   1
   0   3  12 163.900 19.2300   1
   0   3  12 175.230 17.3100   1
  -2   1 -13 -9.4400 15.2400   1
  -2   1 -13 -6.4700 11.4300   1
  -3   5   7 166.510 18.9300   1
   3  -5  -7 179.170 18.8200   1
  -3   5   7 160.940 15.4000   1
  -3   5   7 204.950 64.4300   1
  -1  -5  -6 26.6000 14.2400   1
   1   5   6 46.7500 12.0500   1
   1   5   6 52.9800 13.7700   1
   1   5   6 57.6600 10.7900   1
  -1   6   4 3.27000 11.7600   1
  -1   6   4 -2.6800 13.7600   1
   1  -6  -4 28.1200 15.1400   1
   1  -6  -4 47.5900 13.7800   1
  -1   6   4 14.7200 10.7900   1
  -5   3   6 77.1600 13.9000   1
   5  -3  -6 110.590 17.3800   1
   5  -3  -6 66.3000 13.1600   1
  -5   3   6 64.3200 16.3600   1
  -4   5   4 83.3700 13.5400   1
  -4   5   4 77.9000 16.2500   1
   0   5 -10 0.85000 14.0600   1
   0  -5  10 8.71000 9.19000   1
   0  -5  10 -1.6200 11.0300   1
   0  -5  10 37.1700 14.9000   1
   2   5   3 7.11000 11.5700   1
  -2  -5  -3 20.6900 14.6400   1
   2   5   3 19.1700 12.6600   1
  -3   6   0 58.3800 11.0800   1
  -3   6   0 36.1700 11.1100   1
  -3   6   0 29.4300 10.0300   1
   2  -1 -14 -4.6900 9.79000   1
  -2   1  14 -9.1700 11.2200   1
  -2   1  14 -5.5900 9.85000   1
   3   2   9 -4.6700 14.2500   1
  -3  -2  -9 14.4400 15.2200   1
  -3   6  -1 45.1200 12.7600   1
  -3   6  -1 81.1700 13.8500   1
  -3   6  -1 60.1100 15.1000   1
   3   3   7 83.6200 16.3400   1
  -3  -3  -7 63.2700 15.0100   1
   5  -4  -1 19.7700 15.6100   1
  -5   4   1 -8.3600 11.3700   1
  -5   4   1 8.15000 11.2900   1
  -5   4   1 1.02000 8.89000   1
   5  -1   5 107.790 13.1000   1
  -5   1  -5 94.4500 19.6300   1
   2   5  -7 12.4300 14.1500   1
  -1   5 -10 -30.580 21.5600   1
   1  -5  10 -4.3000 9.06000   1
  -3  -1  13 13.8300 14.3100   1
   3   1 -13 -4.9500 15.3600   1
   4  -1   9 11.2400 13.5800   1
  -4   1  -9 6.02000 10.7100   1
  -5   4   0 30.0200 13.0700   1
   5  -4   0 50.7900 11.6600   1
  -5   4   0 38.3000 10.4600   1
   0   6   3 9.73000 10.2300   1
   0  -6  -3 14.2200 12.2600   1
   0   6   3 -3.3500 10.7200   1
   0  -6  -3 8.41000 9.36000   1
  -5   2  -5 -4.2100 14.6900   1
   5  -2   5 -0.2600 11.8200   1
  -5   3  -4 29.6300 13.9000   1
   5  -3   4 11.4200 10.7800   1
   1  -4  12 50.6000 11.0000   1
  -5   4   2 8.07000 10.9400   1
  -5   4   2 26.2900 16.6700   1
   5  -4  -2 6.72000 14.1900   1
  -5   4   2 23.5900 14.1000   1
  -3   6   1 14.2800 13.5000   1
  -3   6   1 20.9500 11.8400   1
  -3   6   1 19.1500 11.9200   1
   0  -6   6 35.0500 10.0500   1
   0   6  -6 37.3200 9.90000   1
   0  -6   6 47.7600 16.0700   1
   0   6  -6 71.0400 14.2900   1
  -4  -3   7 150.720 18.2200   1
  -4  -3   7 205.220 63.7700   1
   4   3  -7 203.830 64.2500   1
  -2   6   4 153.270 18.8400   1
  -2   6   4 235.860 73.1100   1
  -2   6   4 125.960 21.2400   1
  -2   6   4 144.460 17.3600   1
  -2   6   4 152.380 19.7300   1
   2  -6  -4 169.800 18.7700   1
   4  -2   9 69.6900 13.4600   1
  -4   2  -9 43.7300 15.9200   1
   3   4  -8 -14.270 14.8400   1
  -3  -4   8 7.37000 11.1700   1
  -3  -4   8 17.6700 15.1500   1
   1   0  14 47.7700 11.2600   1
  -1   0 -14 48.1200 11.4500   1
   5   0  -8 85.3600 12.7300   1
  -3   6  -2 -3.6200 10.9300   1
  -3   6  -2 0.62000 8.86000   1
  -4  -1  11 0.27000 12.6100   1
  -4  -1  11 -16.300 13.6100   1
   4   1 -11 44.2500 15.3000   1
   4   1 -11 5.55000 8.77000   1
  -1  -6   2 21.9300 12.3400   1
  -1  -6   2 60.4800 17.0100   1
  -1  -6   2 24.8600 12.8200   1
   1   6  -2 43.7500 10.4600   1
  -1  -6   2 25.1400 10.0000   1
   1   6  -2 26.7000 11.8400   1
  -4   4  -7 33.5500 10.2100   1
   4  -4   7 33.4300 9.86000   1
  -4   4  -7 35.2700 13.4200   1
   4  -4   7 33.3400 8.83000   1
  -4   5  -4 56.4500 13.6100   1
  -4   5  -4 43.3200 13.2900   1
  -4   2  11 105.590 15.9900   1
   4  -2 -11 75.0400 16.0700   1
  -4   4   8 24.4500 16.2800   1
   4  -4  -8 14.1700 10.0500   1
  -4   4   8 5.03000 10.5900   1
  -1  -6   1 152.960 19.3600   1
  -1  -6   1 104.000 14.1300   1
  -1  -6   1 137.020 15.9800   1
   1   6  -1 163.000 16.0200   1
  -1  -6   1 130.690 13.0800   1
   1   6  -1 212.880 66.0500   1
   5  -4   1 43.9800 10.4400   1
  -5   4  -1 18.1100 12.5900   1
  -5   4  -1 43.3900 11.2900   1
  -5   4  -1 49.8400 15.3400   1
  -2   2 -13 5.54000 10.5100   1
  -2   2 -13 14.7400 14.3900   1
   3   4   4 49.4300 13.8100   1
  -3  -4  -4 37.4400 15.6000   1
  -1  -6   3 33.0000 11.3000   1
  -1  -6   3 17.1600 11.0700   1
   1   6  -3 1.39000 9.21000   1
   1   6  -3 23.9300 13.4000   1
  -1  -6   3 56.1900 18.6800   1
  -1  -4  12 5.24000 11.2900   1
   1   4 -12 32.6400 15.3600   1
  -5   4   3 34.3500 10.5600   1
  -5   4   3 43.6100 17.2200   1
  -5   4   3 40.2700 11.8700   1
   5  -4  -3 52.4400 11.9900   1
   5  -4  -3 23.9000 15.4100   1
  -1   2 -14 24.5100 12.4100   1
  -1   2 -14 54.1200 14.7600   1
  -5   2   8 28.0100 18.1000   1
  -5   2   8 8.93000 12.5900   1
   5  -2  -8 70.5300 16.1900   1
   5  -2  -8 74.7200 15.5000   1
   4   2   6 59.2000 15.6700   1
  -4  -2  -6 65.5500 16.2200   1
  -3   6   2 40.3500 13.3500   1
  -3   6   2 68.3600 13.3500   1
  -3   6   2 53.4100 15.0600   1
   3  -6  -2 128.070 18.3900   1
  -2   0 -13 27.8600 17.0400   1
   2   0  13 15.0500 14.7200   1
  -3   4  10 3.82000 13.3600   1
  -3   4  10 -21.400 14.8400   1
  -4   3  10 10.4500 14.3900   1
  -4  -3  -3 -3.0500 12.8500   1
   4   3   3 -6.0600 13.3700   1
   5   1  -7 23.2800 15.4800   1
  -5  -1   7 25.2300 16.0200   1
  -1   4  11 15.1600 13.6100   1
   1   6   0 108.750 13.0000   1
   1   6   0 142.890 16.2000   1
  -1  -6   0 107.620 13.6700   1
  -1  -6   0 122.170 18.2100   1
  -1  -6   0 132.330 18.0900   1
  -3  -3  11 15.3000 15.2400   1
   3   3 -11 29.4100 14.1200   1
  -3   6  -3 13.1900 9.99000   1
  -3   6  -3 17.2100 11.4300   1
  -3   3 -11 26.5500 12.1300   1
   3  -3  11 19.7500 8.83000   1
   3  -3  11 45.3100 12.7500   1
  -3   3 -11 29.4100 11.2500   1
  -4  -2  10 55.9600 15.0500   1
   4   2 -10 30.9100 14.4500   1
  -2   6  -6 83.3100 22.9900   1
  -2   6  -6 28.1800 14.0000   1
   0   5   8 12.3300 9.55000   1
   0   5   8 -3.2500 11.4000   1
   0   5   8 9.09000 12.1900   1
   5   1   3 17.1000 13.1900   1
  -5  -1  -3 35.2300 15.1300   1
  -1  -6   4 7.95000 19.8700   1
  -1  -6   4 -11.160 13.7600   1
  -1  -6   4 17.4800 10.4900   1
  -1  -6   4 9.30000 9.30000   1
   1   6  -4 -2.9800 9.31000   1
   1   6  -4 24.6800 14.5800   1
  -4   5   5 85.4100 15.6700   1
  -4   5   5 138.540 15.3400   1
  -4   5   5 137.000 19.2900   1
  -1   6  -7 61.6200 19.7100   1
   1  -6   7 -12.160 16.9100   1
   5  -4   2 32.0700 9.48000   1
  -5   4  -2 19.7400 16.1000   1
  -5   4  -2 6.90000 12.6900   1
   2   4 -11 69.3000 12.5300   1
  -2  -4  11 60.5800 15.9700   1
  -2   4  11 29.6100 12.8400   1
  -2   4  11 -9.0500 14.1300   1
  -1   0  15 37.3700 10.3200   1
   1   0 -15 19.6200 12.7500   1
   1   0 -15 39.3200 12.4000   1
  -1   0  15 47.3600 12.9300   1
   1   0 -15 19.8600 12.2000   1
   5  -3  -7 3.63000 13.4200   1
  -5   3   7 17.5400 12.9100   1
  -5   3   7 16.9400 14.0400   1
  -5   3   7 27.4600 17.7500   1
  -3   4 -10 4.70000 8.66000   1
  -3   4 -10 -6.1900 14.4600   1
   3  -4  10 -1.9400 10.6900   1
  -5   4   4 4.80000 17.3800   1
   5  -4  -4 0.11000 11.3500   1
   5  -4  -4 5.40000 13.2100   1
  -5   4   4 -4.1300 12.4700   1
  -5  -2   2 -15.410 14.3700   1
   5   2  -2 8.47000 15.1000   1
   4   1   8 84.0200 16.6200   1
  -4  -1  -8 30.3900 12.1800   1
   3  -5   8 41.3000 9.68000   1
  -3   5  -8 54.3800 13.5000   1
  -3   5  -8 55.6400 15.8800   1
  -1   6   5 62.7900 11.9600   1
   1  -6  -5 76.8200 13.8500   1
  -1   6   5 94.1600 14.7300   1
  -1   6   5 87.5000 14.7600   1
  -2  -5  -4 -3.8300 13.8700   1
   2   5   4 -7.1100 12.7100   1
   2   5   4 -7.3700 12.7900   1
   4   0   9 58.6500 13.9100   1
  -4   0  -9 29.0100 15.5900   1
  -5  -2   3 19.6200 15.6700   1
  -5  -2   3 39.3800 14.7300   1
   5   2  -3 78.3400 16.6000   1
   5   0   5 5.30000 13.2100   1
  -5   0  -5 12.9100 16.4900   1
   1   1 -15 -5.5700 10.0400   1
   1   1 -15 15.1900 15.8600   1
  -1  -1  15 24.7000 14.1900   1
   1   6   1 152.050 16.7500   1
  -1  -6  -1 177.990 17.5300   1
  -1  -6  -1 88.5900 13.7300   1
   1   6   1 131.390 13.9600   1
   0  -6  -4 18.4600 13.5600   1
   0   6   4 39.1400 13.2000   1
   0  -6  -4 13.5200 8.38000   1
  -3   6   3 46.3900 10.5200   1
   3  -6  -3 75.2400 16.2800   1
  -3   6   3 55.7100 12.3400   1
   2   3  10 76.6900 11.9400   1
  -2  -3 -10 26.0000 16.2700   1
   2   2 -14 47.9000 15.9200   1
   2   5  -8 27.7200 16.5300   1
  -2  -5   8 34.8000 13.9300   1
   0  -6   7 44.9400 12.5800   1
   0  -6   7 19.4000 10.9600   1
   0   6  -7 31.3800 13.3500   1
   1  -2 -14 42.4700 14.7100   1
  -1   2  14 53.5800 14.1000   1
  -1   2  14 26.8800 11.2400   1
   0  -1  15 24.6500 11.3300   1
   0  -1  15 33.1700 13.8100   1
   0   1 -15 20.4900 11.6600   1
   0   1 -15 37.1200 13.6200   1
  -5  -2   1 19.4600 11.7500   1
   5   2  -1 72.1900 14.4800   1
  -3   2  13 54.3300 15.5200   1
   4   0 -12 33.3500 11.5700   1
  -4   0  12 19.5700 14.8300   1
  -4   0  12 35.4300 13.2800   1
   4   0 -12 7.53000 12.4300   1
   5  -1  -9 5.42000 13.2800   1
  -5   1   9 -1.2300 13.7400   1
   5  -1  -9 1.96000 13.9900   1
  -5   1   9 -9.5700 13.8700   1
  -5   3  -5 68.5200 15.5700   1
   5  -3   5 35.1300 11.3900   1
  -2   6   5 120.850 16.5600   1
  -2   6   5 76.7000 12.8800   1
  -2   6   5 142.420 15.8900   1
  -2   6   5 94.2000 16.5500   1
   2  -6  -5 96.0400 13.0200   1
  -2   6   5 100.320 14.0400   1
   4   3  -8 25.0300 16.4700   1
  -4  -3   8 44.0400 15.0200   1
  -4  -3   8 17.6800 11.6100   1
   1   5 -10 37.3000 15.5300   1
  -1  -5  10 56.6000 16.6100   1
  -4   5  -5 24.1800 11.5900   1
  -4   5  -5 12.6400 12.3900   1
   4  -1 -12 -16.570 13.2300   1
  -4   1  12 3.49000 9.91000   1
  -3   6  -4 19.3400 13.3300   1
  -3   6  -4 11.1400 13.6300   1
   2   3 -13 44.9500 16.5200   1
  -2  -3  13 -0.1900 15.5200   1
  -1  -6   5 16.9900 9.83000   1
   1   6  -5 41.7500 13.5000   1
   1   6  -5 28.0100 12.3900   1
  -1  -6   5 32.9700 9.95000   1
  -1  -6   5 37.8600 19.4000   1
  -1  -6   5 27.7000 17.6000   1
   0  -3  14 107.190 14.3800   1
   0   3 -14 141.340 22.6000   1
  -5  -2   4 16.1900 15.3200   1
   5   2  -4 -16.670 14.8400   1
  -5  -2   4 5.45000 13.3600   1
  -3   3  12 11.1100 13.0500   1
  -3   3  12 -10.430 13.0900   1
   0   0  15 27.1500 16.4600   1
   0   0 -15 16.7800 12.1400   1
   0   0 -15 35.2100 14.0500   1
   0   0  15 42.0200 10.4300   1
  -1  -2 -13 20.6900 13.7400   1
  -1  -2 -13 44.6300 13.4400   1
   1   2  13 35.2700 11.2900   1
   1   2  13 79.3600 14.0400   1
   1   2  13 24.6100 14.6100   1
  -1   5   9 43.8400 13.4100   1
  -1   5   9 56.4800 14.7300   1
   4  -3   9 26.2500 13.5400   1
  -4   3  -9 25.4600 16.6300   1
  -4   3  -9 0.19000 10.7800   1
  -3   5   8 110.930 16.5300   1
  -3   5   8 81.7300 13.2400   1
  -3   5   8 56.1800 12.5000   1
   5  -1   6 38.0300 13.7100   1
  -5   1  -6 28.0800 17.6800   1
   5  -2   6 39.4500 13.1000   1
   3  -1  12 36.8400 13.6200   1
  -3   1 -12 35.3700 18.7800   1
  -5   4  -3 53.9100 15.5100   1
  -5   4  -3 1.45000 10.5700   1
  -3  -4   9 30.7300 11.3100   1
  -3  -4   9 34.4800 13.8300   1
   3   4  -9 18.1000 11.9400   1
  -1   3  13 -0.3200 10.6500   1
  -1   3  13 0.16000 8.53000   1
   1   5   7 150.070 14.8500   1
   1   5   7 177.690 27.0400   1
   1   5   7 126.740 21.2400   1
  -1  -5  -7 146.500 24.9300   1
   5   2   0 65.8500 16.0600   1
  -5  -2   0 36.9300 15.4300   1
   5   0  -9 45.6700 12.3200   1
  -5   0   9 39.8500 13.4400   1
  -2   5   9 98.8600 20.0800   1
  -2   5   9 57.8700 15.9900   1
  -2   5 -10 66.9200 13.0600   1
  -2   5 -10 111.800 20.5400   1
   2  -5  10 94.8900 17.2100   1
  -2  -4  -8 -4.4500 14.3800   1
   2   4   8 -14.550 11.8500   1
   2   4   8 -6.1700 14.2100   1
  -3  -1 -11 100.440 19.3400   1
   3   1  11 125.810 19.7400   1
  -3  -4  -5 40.6900 17.0300   1
   3   4   5 114.650 20.6300   1
  -4  -3  -4 101.290 17.6400   1
   4   3   4 179.290 27.2900   1
  -5  -1   8 17.2400 15.8000   1
   5   1  -8 6.36000 14.6800   1
   1   1  14 -10.450 14.8200   1
  -1  -1 -14 13.3800 12.5600   1
   1   1  14 23.6200 13.9900   1
  -1  -1 -14 -2.2700 11.3900   1
   3  -2  12 6.18000 14.3100   1
  -3   2 -12 18.4000 17.0000   1
  -5  -2   5 17.9600 15.1500   1
   5   2  -5 66.3900 16.7900   1
  -5   4   5 23.4100 15.0200   1
  -5   4   5 35.3100 13.1800   1
  -5   4   5 42.1600 12.6900   1
   5  -4  -5 20.0900 13.4200   1
   5  -4  -5 12.2400 13.1200   1
  -1  -6  -2 61.6300 14.0800   1
  -1  -6  -2 81.0400 18.2600   1
   1   6   2 69.4800 15.1200   1
   1   6   2 93.0900 15.3500   1
  -2   2  14 5.54000 12.6100   1
  -2   2  14 15.2700 10.0700   1
   0   4  11 -5.6400 13.4700   1
   0   4  11 1.41000 8.72000   1
  -1  -3  14 -20.130 11.1400   1
  -1  -3  14 10.7100 8.94000   1
   1   3 -14 7.95000 14.5900   1
   0   5 -11 37.8200 14.7200   1
   0  -5  11 19.0800 11.9700   1
   0  -5  11 4.83000 14.8300   1
   0  -5  11 18.5800 11.2800   1
  -4   5   6 137.920 23.5700   1
  -3  -2  13 42.8900 14.5100   1
  -3  -2  13 31.7600 10.9500   1
   3   2 -13 49.1700 13.5800   1
   3   0 -14 54.5800 16.7300   1
  -3   0  14 14.6300 11.5700   1
  -5  -1  -4 38.8600 14.9600   1
   5   1   4 45.5300 15.0100   1
  -2   6  -7 32.2100 11.0700   1
  -2   6  -7 30.5100 20.7300   1
  -3  -3  -8 96.7500 20.5100   1
   3   3   8 113.020 21.5000   1
  -3   6   4 84.7000 19.0700   1
  -3   6   4 67.7100 14.0700   1
   3  -6  -4 112.980 20.4500   1
  -3   6   4 60.4900 13.9600   1
  -3   6   4 57.0000 12.4300   1
  -3   6   4 71.3100 15.0100   1
   0  -4  13 15.9400 11.2700   1
   0   4 -13 57.0800 17.2500   1
   0  -4  13 43.6000 16.1400   1
  -4   4  -8 39.8700 14.4000   1
   4  -4   8 31.8900 11.6300   1
   4  -4   8 42.7000 10.1000   1
  -4   4  -8 24.4100 12.3200   1
  -2   3 -13 17.9600 16.9200   1
  -2   3  13 -18.390 12.0900   1
  -2   3  13 23.6800 14.5600   1
   4  -4  -9 22.7900 12.3400   1
  -4   4   9 25.6500 17.0000   1
  -4   4   9 41.1000 12.2100   1
   5  -2  -9 46.1600 12.5000   1
  -5   2   9 46.3300 17.2700   1
  -5   2   9 19.7300 14.8800   1
   5  -2  -9 49.8200 24.1300   1
   1   4  10 47.1800 13.7800   1
   1   4  10 48.4300 14.0600   1
   1  -5  11 -12.160 11.1700   1
  -1   5 -11 -37.260 22.1900   1
   1  -5  11 4.40000 10.7300   1
   0   2  14 12.4000 9.44000   1
   0  -2 -14 14.4600 11.4800   1
   1  -1 -15 1.29000 10.2300   1
  -1   1  15 -13.220 11.9500   1
  -1   1  15 3.94000 9.82000   1
   1  -1 -15 5.01000 11.1500   1
   1   6  -6 159.330 24.7100   1
  -1  -6   6 191.590 30.0000   1
  -2   0  15 55.3500 15.4800   1
   2   0 -15 43.0600 13.5600   1
  -2   0  15 49.6100 14.9300   1
   2   0 -15 23.5500 15.7200   1
  -2   0  15 42.0000 12.4400   1
  -2   4 -12 49.7800 17.1100   1
  -2   4 -12 8.92000 9.95000   1
   2  -4  12 40.7000 10.9500   1
   0  -2  15 -6.0000 12.0400   1
  -1   6  -8 51.5100 13.6500   1
   1  -6   8 82.0500 19.1100   1
   1  -6   8 30.6400 9.87000   1
  -3   6  -5 15.7200 11.9100   1
  -3   6  -5 10.3800 16.2700   1
  -5  -2  -1 -19.510 14.1300   1
   5   2   1 35.9800 13.7000   1
   4   2   7 21.8100 12.6000   1
  -4  -2  -7 -4.4100 10.7400   1
   3   2  10 -7.9900 12.7500   1
  -4   1 -10 -7.6500 10.7200   1
   4   1 -12 14.9000 14.6900   1
  -4  -1  12 17.3000 14.5700   1
  -1  -2  15 38.4900 11.8500   1
   1   2 -15 -12.320 17.7900   1
  -1  -2  15 19.5700 12.7300   1
  -1  -2  15 70.6700 18.2800   1
  -1   3 -14 35.2100 11.4600   1
  -1   3 -14 39.7300 17.8100   1
   2   1  13 5.84000 12.6700   1
   2   1  13 8.16000 11.3600   1
  -2  -1 -13 -12.570 14.2700   1
   3   5  -2 44.5900 16.1200   1
  -3  -5   2 6.52000 12.2500   1
  -3  -5   2 38.3500 15.4100   1
   0   6   5 7.87000 9.33000   1
   0   6   5 25.4700 14.7300   1
   0  -6  -5 8.22000 12.7400   1
   3  -1 -14 19.0400 15.1700   1
   3  -1 -14 3.49000 10.1600   1
  -3   1  14 -0.1600 11.4000   1
  -3   1  14 0.39000 9.10000   1
  -2  -2 -12 74.7500 19.7500   1
   2   2  12 52.3100 12.6000   1
   2   2  12 85.0200 17.1000   1
   1   3  12 27.1600 15.0800   1
   1   3  12 12.8600 13.2000   1
  -1  -3 -12 31.3000 15.8500   1
   1   3  12 50.1000 16.3300   1
   5  -3  -8 3.51000 9.78000   1
   5  -3  -8 8.45000 13.0800   1
  -5   3   8 -2.8700 14.9800   1
  -5   3   8 11.2500 13.0800   1
   3   5  -3 32.4200 11.6300   1
  -3  -5   3 18.4600 15.8400   1
   4  -2  10 25.4200 14.9000   1
  -4   2 -10 30.1600 15.9900   1
   2   5   5 21.0500 11.3100   1
   2   5   5 15.4700 13.0200   1
  -2  -5  -5 33.7500 16.8100   1
  -3   0 -12 3.71000 13.8400   1
   3   0  12 20.7700 15.0400   1
   1  -6  -6 150.130 24.5000   1
  -1   6   6 183.860 28.9500   1
  -1   6   6 178.810 25.7900   1
  -1   6   6 143.060 22.2400   1
  -5   4  -4 11.3500 15.1000   1
   5  -4   4 6.51000 8.65000   1
   0  -6   8 80.2600 15.7000   1
   0   6  -8 120.260 22.4400   1
   0  -6   8 91.4700 20.9700   1
  -5  -2   6 15.5700 15.5000   1
   5   2  -6 1.69000 10.6400   1
   2   1 -15 3.45000 12.7500   1
   2   1 -15 -3.2300 14.1400   1
  -2  -1  15 6.35000 13.4400   1
  -4   5  -6 71.0700 13.7800   1
  -4  -2  11 183.170 28.3400   1
   4   2 -11 151.780 25.8700   1
  -4  -2  11 113.790 22.1300   1
  -3  -5   1 98.3000 20.7300   1
  -3  -5   1 96.8300 19.0000   1
   3   5  -1 74.6800 17.9500   1
  -4   2  12 21.2100 15.2300   1
   4  -2 -12 62.1200 17.3400   1
  -2  -5   9 10.3800 15.9500   1
   2   5  -9 27.4800 13.5500   1
  -2   6   6 44.8400 12.8500   1
  -2   6   6 39.7400 16.5000   1
   2  -6  -6 47.1400 15.3600   1
  -2   6   6 39.6300 12.1400   1
  -1   4 -13 38.5000 20.3400   1
   4  -3 -11 -5.5800 13.5800   1
  -4   3  11 13.0800 11.3400   1
  -3  -1  14 5.12000 10.6300   1
   3   1 -14 -2.2900 15.6600   1
   4   3  -9 33.4900 20.5000   1
  -4  -3   9 4.32000 11.6700   1
  -4  -3   9 5.88000 13.1000   1
  -3  -5   4 5.84000 12.7700   1
  -3  -5   4 -17.100 10.1300   1
  -3  -5   4 7.08000 14.1700   1
   3   5  -4 -0.9000 13.6400   1
   5   0   6 9.64000 13.8700   1
  -5   0  -6 -9.8400 11.4100   1
   0   3  13 11.8600 12.5300   1
   0   3  13 -1.2600 12.8600   1
  -5   3  -6 21.0300 15.4800   1
   5  -3   6 50.6700 13.2500   1
  -3  -3  12 13.1400 13.8100   1
   3   3 -12 2.48000 11.4000   1
  -3   4  11 57.3800 15.8000   1
  -3   4  11 16.4400 14.4600   1
  -4  -4   2 67.9700 18.8200   1
   4   4  -2 135.760 22.7400   1
  -4  -4   2 119.730 21.9300   1
   1   6   3 101.040 18.1900   1
  -1  -6  -3 75.1000 14.8000   1
   1   6   3 89.2300 15.4800   1
   4   4  -3 87.0000 19.2400   1
  -4  -4   3 46.3900 12.1600   1
  -4  -4   3 39.5000 16.8000   1
   0  -1 -15 9.50000 13.5400   1
   0   1  15 29.1000 12.4500   1
   0   1  15 12.3100 11.4600   1
   0  -1 -15 15.5500 12.8000   1
   0   5   9 3.70000 12.2200   1
   0   5   9 0.20000 9.22000   1
   0   5   9 1.88000 10.9000   1
   5  -4  -6 -3.1900 11.7600   1
  -5   4   6 18.0700 12.8200   1
  -5   4   6 13.2500 11.2200   1
  -5   4   6 20.2500 13.8000   1
   1   4 -13 -0.3700 13.8800   1
  -1  -4  13 3.77000 15.8600   1
  -2   1 -14 5.17000 15.4800   1
   3  -5   9 65.1500 13.3200   1
  -3   5  -9 27.7900 14.5500   1
  -3   5  -9 80.3700 19.4700   1
  -1   1 -15 3.69000 10.7400   1
  -1   1 -15 14.4700 11.9500   1
  -3  -5   0 145.010 22.4100   1
   3   5   0 187.730 27.8700   1
  -2   1  15 16.9500 15.0400   1
   2  -1 -15 1.88000 14.0200   1
   4   4  -1 122.270 19.6800   1
  -4  -4   1 135.160 22.7000   1
   2   4 -12 2.97000 10.9900   1
  -2  -4  12 16.9900 16.8100   1
   5  -1 -10 14.2600 15.1700   1
   5  -1 -10 33.2200 14.4200   1
  -5   1  10 -1.9300 11.1200   1
  -5   1  10 6.56000 14.0100   1
  -4  -4   4 80.0700 18.5400   1
  -4  -4   4 42.2100 14.0400   1
   3  -6  -5 51.3500 14.9400   1
  -3   6   5 64.6600 14.6500   1
  -3   6   5 32.6000 16.5200   1
  -3   6   5 48.3500 12.5100   1
  -3   6   5 43.3200 13.7500   1
  -5  -2  -2 34.3900 13.7100   1
   5   2   2 14.4400 14.3500   1
   1   6  -7 253.080 37.3700   1
  -1  -6   7 285.000 40.5700   1
   3   5  -5 -7.4300 14.9500   1
  -3  -5   5 8.82000 14.9600   1
  -3  -5   5 -4.2500 11.4600   1
  -3  -5   5 45.4800 20.5100   1
  -3  -4  10 0.32000 13.8000   1
   3   4 -10 -11.690 13.7800   1
   5   1  -9 19.2200 15.7400   1
  -5  -1   9 12.5000 15.5800   1
   5  -2   7 43.1000 13.2400   1
  -5   2  -7 25.0700 17.1800   1
  -1  -5  11 72.1800 19.4800   1
   1   5 -11 25.3300 17.5500   1
  -1   4  12 31.2600 13.6900   1
  -4  -3  -5 36.9400 14.7900   1
   4   3   5 23.1100 20.3400   1
   3  -3  12 18.8900 13.5300   1
  -3   3 -12 41.9000 12.4800   1
   5  -1   7 51.1500 15.5800   1
  -5   1  -7 27.5200 17.6600   1
   4   1   9 12.3000 15.5200   1
  -4  -1  -9 5.39000 14.8300   1
  -4   5   7 48.9200 12.5800   1
  -4   5   7 66.7700 15.6200   1
   4  -5  -7 55.2800 13.9900   1
  -4   5   7 47.9700 11.5300   1
   5   0 -10 104.580 20.6900   1
  -5   0  10 50.1500 13.2200   1
  -5   0  10 48.7800 12.7600   1
  -2   2 -14 40.0600 11.4300   1
  -2   2 -14 84.9700 19.8600   1
   3  -4  11 7.82000 9.91000   1
  -3   4 -11 0.01000 15.1800   1
  -3   6  -6 61.3000 15.1600   1
  -3   6  -6 73.3100 18.4200   1
  -3   5   9 32.0700 12.5900   1
  -3   5   9 68.0700 18.1300   1
  -3   5   9 18.1100 11.7800   1
  -5  -1  -5 58.0400 16.4600   1
  -5  -1  -5 111.250 19.0600   1
   5   1   5 175.520 27.8300   1
   6  -1  -2 31.4800 14.5400   1
  -4  -4   0 14.3900 11.2700   1
   4   4   0 46.3300 15.6300   1
  -1   0 -15 27.4400 16.9100   1
   1   0  15 -0.6900 7.77000   1
  -3  -4  -6 22.8900 13.7000   1
   3   4   6 31.3900 11.3700   1
  -5  -2   7 -8.3800 10.6000   1
   5   2  -7 2.94000 10.9200   1
  -2   6  -8 -42.920 15.0900   1
   4   0  10 1.30000 14.2200   1
  -4   0 -10 -10.960 10.6600   1
  -2   4  12 21.4300 15.7800   1
  -2   4  12 28.8100 15.8100   1
  -4  -4   5 28.4300 19.7400   1
  -4  -4   5 -9.3000 12.6400   1
   4   4  -5 -12.150 15.1700   1
  -6   1   1 46.6800 17.4900   1
   6  -1  -1 97.4200 19.5300   1
   6  -1  -3 12.1000 14.0500   1
  -6   1   3 -11.670 15.1900   1
  -6   2   2 14.4400 15.0500   1
   6  -2  -2 0.90000 12.4400   1
   3   5   1 29.4200 11.6500   1
  -3  -5  -1 35.4700 12.0600   1
   1   5   8 26.0700 14.6800   1
   1   5   8 22.5700 14.6900   1
   1   5   8 23.9500 14.2000   1
  -1  -5  -8 12.0700 14.5700   1
  -6   2   1 11.0700 16.5100   1
   6  -2  -1 -9.8600 11.1600   1
  -1   2 -15 -2.1600 11.5100   1
  -1   2 -15 38.4500 15.2100   1
   2   0  14 39.2700 15.3700   1
  -2   0 -14 24.0400 13.0100   1
  -4   6   0 88.0600 16.6300   1
  -4   6   0 166.630 26.8800   1
  -4   0  13 -13.350 12.6200   1
   4   0 -13 -12.500 15.5300   1
   4   0 -13 6.76000 10.5300   1
  -5   4  -5 -9.5600 13.2900   1
   4  -3  10 5.76000 10.7000   1
  -4   3 -10 32.1400 12.1000   1
  -6   2   3 24.7100 16.3300   1
   6  -2  -3 32.9900 12.2300   1
  -1   5  10 55.7600 14.4800   1
  -1   5  10 83.3800 16.8600   1
  -4   6  -1 45.0000 16.4500   1
  -4   6  -1 61.9500 14.5100   1
  -4   6   1 48.5100 12.1300   1
  -4   6   1 75.4300 15.2600   1
  -4   6   1 72.3100 17.8500   1
   2   3  11 34.8000 10.7300   1
  -2  -3 -11 19.8500 15.3500   1
   2   3  11 45.1800 14.2300   1
  -4   1  13 19.2800 15.1800   1
  -4   1  13 19.1300 14.0400   1
   4  -1 -13 35.4300 15.2400   1
  -6   1   0 -9.6700 11.5000   1
   6  -1   0 7.53000 14.1900   1
  -1   6  -9 110.170 28.5100   1
   1  -6   9 33.9200 10.2500   1
  -2   5  10 30.7800 14.7400   1
  -2   5  10 59.1900 16.7600   1
   5  -2 -10 400.390 82.0300   1
   5  -2 -10 304.590 46.4600   1
  -5   2  10 309.050 47.2500   1
  -6   2   0 42.8300 13.8000   1
   6  -2   0 95.5100 18.7500   1
  -3  -5   6 36.4300 14.5300   1
   3   5  -6 29.3400 16.1300   1
  -3  -5   6 31.8700 11.6500   1
  -3  -5   6 41.2100 22.1600   1
   6  -1  -4 126.890 21.6000   1
  -6   1   4 78.2400 19.9300   1
  -5   5   1 74.5400 17.3900   1
  -2   5 -11 89.6500 22.9100   1
  -2   5 -11 43.3000 13.3500   1
   2  -5  11 43.8600 11.8700   1
  -5   5   0 14.8000 12.1000   1
  -2  -4  -9 27.6200 16.8400   1
   2   4   9 32.1100 10.7700   1
   2   4   9 16.7900 13.3800   1
   0   6   6 75.0500 14.2900   1
   0   6   6 91.3400 17.6700   1
   0   6   6 69.1000 16.6400   1
   0  -6  -6 47.5000 14.5900   1
  -1  -6  -4 44.7500 15.6000   1
   1   6   4 64.8400 15.4800   1
   1   6   4 66.8700 15.1000   1
   4  -4   9 21.8100 10.3900   1
  -4   4  -9 21.9300 11.5900   1
  -4   4  -9 8.19000 9.69000   1
   2   3 -14 24.4400 17.7900   1
  -3   3  13 99.3000 20.6000   1
  -3   3  13 121.170 22.2300   1
  -4   5  -7 1.45000 10.0900   1
   5  -3  -9 93.7300 19.7800   1
  -5   3   9 62.2200 14.7000   1
  -5   3   9 48.4800 15.0500   1
  -4  -4  -1 48.6200 13.1700   1
   4   4   1 33.9000 11.3000   1
   0  -6   9 77.1300 20.2900   1
   0  -6   9 28.5300 10.3300   1
   0  -6   9 36.5000 11.4800   1
   0   6  -9 32.0400 14.0500   1
  -5   5   2 131.660 22.6500   1
  -5   5   2 188.450 30.6100   1
  -3   2  14 13.6300 10.5500   1
  -3   2  14 33.8300 15.5300   1
  -4   6  -2 13.5400 11.2700   1
  -4   6  -2 36.9500 14.0300   1
  -4   6   2 49.4200 14.0500   1
  -4   6   2 62.9100 17.5300   1
  -4   6   2 50.8300 13.8400   1
   5  -4  -7 31.7600 12.9400   1
  -5   4   7 21.5500 12.9700   1
  -5   4   7 7.33000 12.4400   1
   2   2 -15 56.7500 17.3100   1
  -2  -2  15 4.20000 11.4100   1
   2   5   6 41.2600 13.2700   1
  -2  -5  -6 34.9300 15.7100   1
   2   5   6 40.4900 15.2100   1
  -6   2   4 111.110 25.0800   1
   6  -2  -4 142.900 24.1200   1
   5   2   3 30.1800 14.6500   1
  -5  -2  -3 -10.420 13.0400   1
  -5   5  -1 -8.2200 11.3000   1
  -5   5  -1 6.76000 13.6400   1
   0  -5  12 48.0900 12.5600   1
   0  -5  12 67.4500 15.7100   1
   0   5 -12 97.1100 19.1200   1
  -4  -4   6 66.4500 17.5000   1
   4   4  -6 78.8500 19.3800   1
  -4  -4   6 52.7200 15.3000   1
   2   6  -2 -4.5600 12.9400   1
  -2  -6   2 32.3400 16.0000   1
  -2  -6   2 7.25000 10.8500   1
  -1   6   7 68.1100 16.4000   1
  -1   6   7 66.2400 15.3400   1
  -2   6   7 41.0000 11.9700   1
  -2   6   7 42.5400 12.7500   1
  -2   6   7 98.2700 20.6100   1
  -2  -6   3 72.8100 15.1400   1
  -2  -6   3 77.0700 19.7400   1
   2   6  -3 63.1000 16.9900   1
  -2  -6   3 26.9700 12.2100   1
  -3  -3  -9 -5.9600 14.0800   1
   3   3   9 -7.3600 13.5800   1
   4   3 -10 26.2600 15.7900   1
  -4  -3  10 19.7100 11.1500   1
  -4  -3  10 28.9500 11.8100   1
  -2  -5  10 309.290 44.1800   1
   2   5 -10 372.560 158.520   1
   2   6  -1 -1.8200 13.8900   1
   2   6  -1 23.7100 12.4100   1
  -2  -6   1 5.56000 10.6400   1
  -2  -6   1 0.67000 14.5800   1
  -3   6   6 5.55000 10.5800   1
   3  -6  -6 0.26000 12.7300   1
  -3   6   6 -13.720 15.3200   1
  -3   6   6 4.93000 10.5200   1
  -1   7  -1 14.9900 12.6600   1
   1  -7   1 -0.8500 16.3900   1
   1  -7   1 8.14000 17.7300   1
  -1   0  16 26.4500 10.5000   1
   1   0 -16 9.95000 11.9700   1
   1   0 -16 36.9700 13.0100   1
   1   0 -16 7.98000 11.7600   1
  -1   0  16 38.3300 10.8400   1
   6  -2   1 51.7500 12.2800   1
  -6   2  -1 58.5200 19.2700   1
   0   3 -15 21.1600 14.4200   1
   0  -3  15 15.4800 12.0400   1
  -6   1  -1 34.1700 17.3400   1
   6  -1   1 2.42000 14.0100   1
  -6   1  -1 -3.6600 14.2000   1
  -1  -1  16 9.68000 8.86000   1
   1   1 -16 -7.8600 14.7600   1
  -1  -1  16 10.5100 11.7500   1
  -1   7  -2 19.6400 11.9400   1
   1  -7   2 12.4200 15.9000   1
   1  -7   2 45.4600 19.8700   1
  -5   3  -7 78.8100 22.4600   1
   5  -3   7 57.8000 13.3700   1
   1   6  -8 131.520 25.1900   1
  -1  -6   8 129.180 24.5800   1
  -1   2  15 24.5900 15.5900   1
   1  -2 -15 30.6300 13.6700   1
  -1   2  15 24.7500 17.1900   1
   3   5   2 36.0600 14.2300   1
  -3  -5  -2 9.15000 11.5000   1
   4   2   8 37.3300 12.0700   1
  -4  -2  -8 18.5800 14.9400   1
  -6   1   5 59.1500 17.9900   1
   6  -1  -5 63.1800 15.5800   1
  -1   5 -12 30.8400 22.2700   1
   1  -5  12 1.52000 10.8200   1
   6   0  -2 -2.6200 13.1400   1
  -6   0   2 7.41000 10.7000   1
  -5   5   3 27.7700 12.8500   1
  -5   5   3 35.6700 12.4800   1
  -5   5   3 66.9800 18.3800   1
  -3   1 -13 22.2200 12.4200   1
   3  -1  13 -1.8500 9.23000   1
   1  -7   0 41.9900 13.1700   1
   1  -7   0 45.9900 17.4800   1
  -1   7   0 51.0900 13.9100   1
   6   0  -3 -18.200 14.6000   1
  -6   0   3 12.6300 12.8400   1
   2   6  -4 117.980 19.6600   1
  -2  -6   4 92.7700 17.0000   1
  -2  -6   4 102.350 18.1800   1
  -2  -6   4 156.720 29.3400   1
  -5   0  -7 -6.0200 11.6700   1
   5   0   7 -5.1100 14.6400   1
   3   2 -14 55.3100 18.5700   1
  -3  -2  14 19.7300 11.9400   1
   0  -1  16 46.2000 12.4700   1
   0   1 -16 10.2700 10.7600   1
   0  -1  16 28.9100 14.2200   1
  -5  -2   8 26.5000 13.9400   1
   5   2  -8 42.6200 12.5700   1
  -3  -1 -12 18.8100 11.8900   1
   3   1  12 7.68000 12.5200   1
   0   4  12 -18.800 12.4300   1
   0   4  12 13.7300 10.2800   1
  -5   5  -2 7.35000 10.1100   1
  -5   5  -2 -11.930 10.8000   1
  -5   5  -2 9.94000 10.5500   1
   6   0  -1 2.03000 10.4900   1
  -6   0   1 -21.390 14.8200   1
  -1  -2 -14 5.49000 11.0800   1
  -1  -2 -14 20.8200 14.8500   1
   1   2  14 35.5200 13.2300   1
   1   2  14 27.6600 11.4200   1
  -1   3  14 10.6300 12.1700   1
  -1   3  14 -12.880 10.8100   1
  -1   7  -3 -5.8800 11.1600   1
   1  -7   3 -6.9100 17.4400   1
  -4   6  -3 -1.1900 9.04000   1
  -4   6  -3 -5.1500 7.74000   1
  -4   6   3 24.5100 15.3400   1
  -4   6   3 52.1400 16.5900   1
  -4   6   3 43.2400 12.2200   1
  -4   6   3 40.5700 13.1500   1
   4   2 -12 76.8700 19.4100   1
  -4  -2  12 19.9000 13.2800   1
  -4  -2  12 15.4700 13.9300   1
   1   4  11 50.8800 14.2900   1
   1   4  11 53.5600 15.0600   1
   1   4  11 22.2300 11.6500   1
  -1  -4 -11 49.4300 17.7700   1
  -2  -6   0 9.03000 16.4500   1
   2   6   0 -1.9200 9.44000   1
   2   6   0 25.0200 12.3400   1
  -3   2 -13 48.3600 17.6500   1
   3  -2  13 33.0900 12.6200   1
  -3   6  -7 54.9800 15.0600   1
  -3   6  -7 89.1900 19.9200   1
  -4  -1  13 79.3000 19.5300   1
  -4  -1  13 80.7800 17.2500   1
   4   1 -13 33.3500 11.6400   1
   4   1 -13 147.640 26.3600   1
   0  -4  14 -13.360 9.44000   1
   0   4 -14 27.8100 21.8000   1
   0  -4  14 16.6600 16.6700   1
  -2   7  -1 46.2700 16.3600   1
  -2   7  -1 48.6800 21.6300   1
   6  -2  -5 97.2400 19.1900   1
  -6   2   5 67.5900 18.2900   1
  -3  -5   7 34.7500 15.9900   1
   3   5  -7 44.0500 12.5600   1
  -6   0   4 37.6500 12.4800   1
   6   0  -4 74.8000 18.2700   1
  -1  -3  15 15.0600 15.0400   1
  -1  -3  15 6.77000 8.34000   1
   1   3 -15 25.3500 19.7600   1
   1   3 -15 35.6800 15.5400   1
  -5  -1  10 9.54000 15.3600   1
  -5  -1  10 24.7700 14.0900   1
   0   0 -16 2.99000 14.1100   1
   0   0  16 18.2600 10.1700   1
   0   0  16 20.7700 11.2200   1
  -2   7   0 28.7100 13.1700   1
  -2   7   0 40.1400 18.6600   1
   2  -7   0 31.9900 18.0500   1
  -2   7  -2 89.4200 22.1300   1
  -2   7  -2 31.9900 12.0900   1
  -6   3   1 71.4300 19.6500   1
   6  -3  -1 94.2600 17.7500   1
   6  -3  -2 9.82000 10.8000   1
  -6   3   2 7.04000 11.4600   1
  -2   4 -13 -3.3500 16.5700   1
  -3   0  15 21.0400 14.4500   1
   3   0 -15 11.8100 14.0300   1
  -3   0  15 17.7000 12.0300   1
   3   0 -15 44.0600 16.0900   1
   3   0 -15 39.2100 20.5200   1
  -4   5   8 22.6100 11.9700   1
  -4   5   8 51.5400 16.8800   1
   4  -5  -8 25.9200 11.3700   1
  -4  -4  -2 2.99000 14.0300   1
   4   4   2 10.9400 9.76000   1
  -1   7   1 21.7500 12.4800   1
  -1   7   1 39.0200 13.0500   1
   1  -7  -1 38.5600 16.7500   1
   1  -7  -1 23.2800 15.9300   1
  -4   1 -11 25.4400 14.6700   1
   4  -1  11 24.3500 14.1400   1
  -4  -3  -6 17.2300 15.7100   1
   4   3   6 -19.230 13.1900   1
   5  -1 -11 21.3000 12.5700   1
  -5   1  11 24.3600 16.2800   1
  -5   1  11 -2.7300 14.4100   1
   5  -1 -11 -2.1700 10.7100   1
   3  -5  10 34.1100 10.4100   1
  -3   5 -10 7.64000 15.9000   1
   4  -2  11 -0.4000 9.00000   1
  -4   2 -11 -11.020 16.3300   1
  -2   3 -14 55.6900 14.0300   1
  -6   0   0 20.3600 11.6400   1
   6   0   0 3.51000 14.8200   1
  -2   2  15 43.6500 14.4700   1
  -2   2  15 34.6900 12.3700   1
  -2   3  14 30.9500 14.1700   1
  -2   3  14 10.1200 13.1300   1
  -3  -2 -11 4.64000 17.1000   1
   3   2  11 1.68000 10.2100   1
  -4   3  12 114.800 22.4800   1
  -2  -6   5 9.68000 21.2500   1
  -2  -6   5 8.14000 9.68000   1
   2   6  -5 31.2900 13.5600   1
  -2  -6   5 37.0000 12.3200   1
   6  -2   2 22.8300 12.5500   1
  -6   2  -2 35.6600 17.5500   1
   3   4 -11 32.0000 15.0100   1
  -3  -4  11 81.4000 18.1200   1
  -4  -4   7 24.7900 18.0700   1
  -4  -4   7 -2.8300 13.6800   1
   4   4  -7 1.59000 15.4000   1
  -5  -1  -6 36.4500 15.6400   1
  -5  -1  -6 24.1300 15.5900   1
   5   1   6 40.8400 12.0600   1
   6  -3   0 54.7000 14.0900   1
  -6   3   0 29.1000 15.5300   1
   3   3 -13 21.5000 15.6300   1
  -3  -3  13 9.20000 13.8900   1
   5  -4   6 -6.1800 8.60000   1
  -5   4  -6 11.4000 10.7800   1
   1  -7   4 5.21000 17.5000   1
  -1   7  -4 15.2500 10.5900   1
  -1  -1 -15 6.73000 13.6500   1
   1   1  15 24.8700 13.7200   1
  -6   3   3 97.2500 20.6500   1
   6  -3  -3 95.9900 18.2900   1
  -6   3   3 45.5600 17.2100   1
  -4   2  13 28.1800 11.5800   1
   4  -2 -13 1.86000 14.3800   1
  -6   1  -2 -23.130 14.6200   1
  -5   5   4 38.9100 12.4400   1
  -5   5   4 40.6500 14.5400   1
  -5   5   4 66.3900 19.5700   1
  -2   6  -9 78.7700 24.4200   1
  -2   7   1 20.7500 10.9400   1
   2  -7  -1 47.5300 13.6800   1
  -2   7   1 60.2800 18.8500   1
  -5   2  -8 36.3900 12.3400   1
   5  -2   8 12.2000 13.5100   1
  -2   7  -3 3.93000 11.2400   1
  -2   7  -3 59.2400 18.8600   1
   0   5  10 14.4700 11.8900   1
   0   5  10 -4.5200 11.7600   1
   6  -1  -6 -25.010 12.0300   1
  -6   1   6 -3.3300 15.4300   1
  -5   0  11 23.4800 16.3600   1
  -5   0  11 10.3600 13.0600   1
   5   0 -11 9.60000 15.2700   1
   2   6   1 94.5800 15.9200   1
   2   6   1 82.7100 15.5700   1
  -2  -6  -1 53.1900 18.4800   1
  -2  -6  -1 94.4200 20.6200   1
  -5   5  -3 41.1100 15.7900   1
  -5   5  -3 54.3200 13.2100   1
  -3   4  12 80.4100 16.1400   1
  -3   4  12 123.390 21.4700   1
   5  -1   8 17.4400 10.6700   1
  -5   1  -8 -4.6800 13.7200   1
   6   0  -5 29.3600 19.8800   1
  -6   0   5 40.5900 15.4600   1
   3   4   7 18.6300 17.4100   1
  -3  -4  -7 26.0900 17.2500   1
  -5  -3   3 9.63000 14.0900   1
  -5  -3   3 18.5900 15.2800   1
   5   3  -3 -1.8100 10.6400   1
   1   6   5 8.10000 13.0300   1
   1   6   5 17.4800 13.1100   1
  -1  -6  -5 -3.1400 13.8600   1
   5   3  -2 29.8800 15.5700   1
  -5  -3   2 25.1000 16.9200   1
  -5  -3   2 45.1000 12.5500   1
   2   4 -13 59.0900 17.3000   1
  -2  -4  13 39.1500 15.8100   1
  -4   6  -4 -10.170 12.3900   1
  -4   6  -4 4.07000 12.8700   1
   1   3  13 29.9000 13.7600   1
  -1  -3 -13 16.4000 15.9400   1
   1   3  13 17.0000 11.8500   1
  -4   6   4 9.53000 14.9300   1
  -4   6   4 15.7800 10.9300   1
   5   2   4 5.94000 13.9400   1
  -5  -2  -4 -1.4700 14.5200   1
   0   2  15 -4.5700 8.20000   1
  -2   0  16 1.07000 13.0700   1
   2   0 -16 15.8400 13.2800   1
   2   0 -16 -8.4400 10.7900   1
  -2   0  16 11.6000 10.3100   1
  -3   1  15 14.8800 12.2800   1
  -1  -5  12 20.4800 12.8700   1
  -2  -2 -13 -4.0800 16.4200   1
   2   2  13 26.0600 13.4000   1
   2   2  13 32.2200 14.9000   1
   0   7  -2 -0.6500 11.3600   1
   0   7  -2 9.04000 11.6100   1
   0  -7   2 9.07000 16.7300   1
   0  -7   2 32.0200 16.5300   1
   3   0  13 5.72000 9.89000   1
  -3   0 -13 35.9700 16.2700   1
  -1   3 -15 61.0900 18.9200   1
  -1   4 -14 -15.510 16.6200   1
  -3  -5  -3 93.0500 21.4300   1
   3   5   3 132.820 22.7500   1
   0   2 -16 3.96000 15.1900   1
   0  -2  16 6.00000 12.5200   1
  -1   1  16 5.92000 14.4000   1
  -1   1  16 18.7600 11.9000   1
   1  -1 -16 2.86000 11.9100   1
  -3   5  10 15.7000 11.3600   1
  -3   5  10 32.7100 14.0100   1
   0  -7   1 25.7100 17.1900   1
   0   7  -1 16.5800 12.4600   1
   0   7  -1 -10.510 11.4800   1
   0  -7   1 -11.960 15.7400   1
  -6   3  -1 33.8500 17.1800   1
   6  -3   1 57.0200 14.3000   1
   1  -7  -2 33.4000 14.3700   1
  -1   7   2 18.3700 12.6300   1
  -1   7   2 40.6200 13.1800   1
   1  -7  -2 18.7400 15.7900   1
   5   3  -4 16.4800 15.7500   1
  -5  -3   4 16.0500 15.8700   1
  -5   4   8 10.7000 13.7500   1
  -5   4   8 -14.030 14.0900   1
   5  -4  -8 7.06000 11.4600   1
  -3  -1  15 20.0800 10.8100   1
   3   1 -15 33.7400 16.2500   1
  -3  -1  15 53.2200 16.0500   1
   2   1  14 -20.460 13.8400   1
  -2  -1 -14 25.9400 13.6500   1
  -6   3   4 15.0400 14.7400   1
   6  -3  -4 49.5700 11.4800   1
  -1  -4  14 38.2200 16.3000   1
   1   4 -14 33.9300 16.2400   1
  -1  -4  14 9.28000 10.8500   1
   6   0   1 31.8500 14.3200   1
  -6   0  -1 -0.0800 14.9100   1
  -6   2   6 4.74000 13.8400   1
   6  -2  -6 19.9200 13.8000   1
  -1  -2  16 56.5200 16.1800   1
   1   2 -16 52.4200 16.3800   1
  -1  -2  16 56.6000 11.5100   1
  -1  -2  16 52.0100 13.0200   1
  -5  -3   1 -34.440 14.8600   1
   0  -7   3 7.41000 17.4100   1
   0   7  -3 -5.1800 11.7300   1
   0  -7   3 2.19000 17.3400   1
   1  -6  10 97.8400 17.9300   1
  -1   6 -10 25.2600 22.6800   1
   0   6   7 90.4700 17.1500   1
   0  -6  -7 77.0500 13.1100   1
   0   6   7 68.4800 12.6800   1
  -2   7   2 14.6500 15.7800   1
  -2   7   2 29.8200 12.7300   1
   2  -7  -2 42.4400 15.4900   1
  -2  -1  16 -11.880 14.2400   1
  -2  -1  16 9.24000 14.0900   1
  -2  -1  16 3.42000 8.94000   1
  -4   5  -8 -6.8800 12.8400   1
  -2   7  -4 6.89000 21.4400   1
   4   1  10 8.00000 13.8200   1
  -4  -1 -10 -2.3300 16.8500   1
   2   6  -6 106.590 15.5700   1
  -2  -6   6 83.8900 12.3600   1
   0   7   0 15.5200 12.2500   1
   0  -7   0 19.5800 14.6700   1
   0  -7   0 34.1800 16.6200   1
   0   7   0 29.3500 13.2400   1
  -1   7  -5 -7.3100 8.97000   1
   1  -7   5 -0.4600 16.0100   1
  -1  -5  -9 13.8400 14.7700   1
   1   5   9 49.0900 13.7800   1
   1   5   9 31.8800 13.8200   1
   0   3  14 -3.5500 12.2000   1
   0   6 -10 81.5300 14.5400   1
   0  -6  10 84.0000 16.3700   1
   3  -6  -7 0.58000 11.5300   1
  -3   6   7 -6.3200 11.4700   1
  -3   6   7 16.2300 15.8400   1
  -3   6   7 19.3200 12.9900   1
  -5   2  11 14.7500 13.2600   1
   5  -2 -11 34.1300 15.0700   1
  -5   2  11 25.7600 12.2700   1
   1   6  -9 66.5100 11.6800   1
  -1  -6   9 88.6000 17.3800   1
   5  -3 -10 36.8000 15.5700   1
  -5   3  10 23.3800 16.6300   1
  -5   3  10 15.5200 12.4400   1
   3  -4  12 22.3900 11.1500   1
  -3   4 -12 2.94000 15.2600   1
   3   5  -8 25.8000 14.5000   1
  -3  -5   8 45.9700 14.1000   1
  -5  -2   9 48.8800 15.5100   1
   5   2  -9 9.35000 15.8900   1
   2   5   7 53.8100 10.8600   1
   2   5   7 47.7100 13.4100   1
  -2  -5  -7 30.5200 17.8000   1
   6  -2   3 205.680 19.5900   1
  -6   2  -3 182.950 20.3800   1
  -5  -3   5 120.870 19.5400   1
  -5  -3   5 122.740 16.2900   1
   5   3  -5 133.540 16.0300   1
  -5   5   5 65.4900 12.7400   1
   4   4   3 17.9100 10.1200   1
  -4  -4  -3 21.2400 11.6800   1
   0  -7   4 142.360 17.4400   1
   0   7  -4 106.300 11.8600   1
   0   7  -4 122.400 13.2000   1
  -2   6   8 -7.0300 10.7400   1
  -2   6   8 13.8500 11.8800   1
   5   3   0 36.8500 14.2000   1
  -5  -3   0 14.1800 14.7300   1
  -6   0   6 6.13000 14.4300   1
   6   0  -6 28.7000 11.4000   1
  -1   6   8 15.5700 10.4400   1
  -1   6   8 50.4600 14.5700   1
  -4   0 -11 -16.040 13.7200   1
   4   0  11 -9.2500 10.0500   1
  -6   1  -3 6.00000 12.0600   1
   2   6   2 218.140 14.9600   1
  -2  -6  -2 215.570 15.0200   1
   2   6   2 239.360 31.3700   1
   4   3 -11 -3.5100 11.6200   1
   3  -3  13 22.4000 12.0100   1
  -3   3 -13 4.98000 11.5600   1
  -1   4  13 19.2000 12.9300   1
   6  -3   2 -11.690 11.0100   1
  -6   3  -2 3.71000 16.1900   1
  -4   4 -10 36.7500 16.5200   1
  -4  -4   8 49.1900 15.2600   1
   4   4  -8 25.4500 14.8800   1
   2   5 -11 111.960 16.7600   1
  -2  -5  11 101.000 15.2700   1
  -4   3 -11 12.7500 16.6100   1
   4  -3  11 9.32000 11.4500   1
  -2   1 -15 -29.330 14.1700   1
  -5   5  -4 55.7500 15.3000   1
  -6   1   7 -15.910 15.7600   1
   6  -1  -7 29.9000 14.8600   1
  -6   3   5 9.08000 17.1900   1
  -6   3   5 7.97000 15.5800   1
   6  -3  -5 -0.3100 12.7800   1
  -1   5  11 109.540 11.5200   1
  -1   5  11 142.570 14.3700   1
  -4   4  11 54.8400 16.0700   1
  -4   4  11 45.3000 13.4200   1
  -2   5  11 39.8800 15.1100   1
  -2   5  11 63.1300 13.7700   1
   0  -7  -1 57.7600 14.2700   1
   0   7   1 11.8100 12.4500   1
   0   7   1 39.8100 12.3500   1
   0  -7  -1 32.3700 14.6100   1
   5  -3   8 27.6500 11.6500   1
  -5   3  -8 30.3800 15.0900   1
  -3   6  -8 20.4400 12.9900   1
  -3   6  -8 61.0900 17.8200   1
  -2   1  16 5.26000 14.6600   1
   2  -1 -16 -13.810 10.2400   1
  -2   1  16 -4.5800 11.0100   1
  -2   4  13 12.2000 15.7200   1
  -2   4  13 30.0000 13.6100   1
   0   1  16 11.2500 12.2500   1
   0  -1 -16 -15.110 12.4600   1
  -2   5 -12 2.35000 16.9800   1
   4   0 -14 2.86000 16.1000   1
  -1   1 -16 -6.9100 13.8200   1
  -6   0  -2 20.8100 15.7700   1
   6   0   2 53.5300 15.2300   1
  -4   6  -5 35.3900 14.7000   1
  -1   7   3 112.400 13.5400   1
   1  -7  -3 102.090 15.7900   1
   1  -7  -3 90.5100 15.6000   1
  -1   7   3 74.8100 12.5600   1
  -4   6   5 11.1800 14.2400   1
  -4   6   5 9.11000 11.6500   1
   2   4  10 43.4900 14.8100   1
   2   4  10 39.1200 13.3000   1
  -2  -4 -10 30.8500 17.6500   1
  -2   7   3 48.7900 11.2200   1
  -2   7   3 40.8700 16.5900   1
   2  -7  -3 26.6800 15.4000   1
   4  -1 -14 28.7400 14.1700   1
  -4   1  14 23.5000 13.8600   1
  -4   1  14 37.9700 14.2200   1
  -2   7  -5 6.11000 22.1900   1
  -2   7  -5 1.08000 11.0700   1
  -5   0  -8 37.6500 13.4600   1
   5   0   8 40.4200 14.9200   1
  -2   2 -15 32.1200 12.7200   1
  -2  -3 -12 7.67000 14.5900   1
   2   3  12 8.61000 13.8300   1
   2   3  12 -2.2500 10.0700   1
   0  -5  13 90.8400 13.1400   1
   0   5 -13 94.6300 16.6900   1
   0   5 -13 90.7500 24.2300   1
   5   3  -6 109.230 13.0400   1
  -5  -3   6 55.0000 16.4200   1
  -5  -3   6 80.6100 15.8300   1
  -6   2   7 67.9900 14.5000   1
  -6   2   7 31.7100 16.7800   1
   6  -2  -7 67.0600 13.4000   1
   0   7  -5 118.570 14.8700   1
   0  -7   5 115.190 14.1000   1
   0   7  -5 91.7100 10.8800   1
  -5  -1  11 84.7500 16.2600   1
  -5  -1  11 54.3100 15.2300   1
   5   1 -11 91.0400 12.3800   1
  -6  -1   2 19.2600 13.7100   1
  -6  -1   2 26.7700 14.3200   1
   6   1  -2 68.9900 16.3500   1
  -6  -1   3 43.4800 12.2500   1
  -6  -1   3 88.0600 16.2800   1
   6   1  -3 103.600 12.7300   1
  -5   4  -7 15.7500 15.3800   1
  -2  -6   7 79.6900 12.3700   1
   2   6  -7 69.4300 11.5100   1
  -3   7  -1 68.6600 13.2600   1
  -3   7  -1 46.2200 16.7000   1
  -1   7  -6 5.55000 8.81000   1
   1  -7   6 19.4200 16.6000   1
  -4   5   9 8.04000 12.6300   1
   5   3   1 20.0900 15.0100   1
  -5  -3  -1 15.6200 15.0300   1
  -4  -2  -9 -1.1100 11.9200   1
   4   2   9 41.0600 15.3900   1
  -4  -2  -9 -14.640 14.1000   1
   3   3  10 97.2200 15.9100   1
  -3  -3 -10 39.3700 14.6000   1
  -3   7   0 139.490 18.3000   1
  -3   7   0 122.950 16.3100   1
  -3  -5  -4 59.4000 17.7400   1
   3   5   4 1.86000 13.3600   1
   2   3 -15 4.19000 11.4500   1
  -2  -3  15 -17.920 16.2600   1
   4   3   7 -10.680 10.8200   1
  -4  -3  -7 32.6500 16.6000   1
   6   1  -1 74.8500 14.7100   1
  -3   7  -2 19.2600 14.6000   1
  -3   7  -2 21.4800 11.6300   1
  -1   0 -16 15.2300 13.6000   1
   1   0  16 6.54000 11.4400   1
   5   2   5 -1.3200 10.1300   1
  -5  -2  -5 -19.350 10.4900   1
  -3   3  14 5.26000 15.3100   1
  -6  -1   4 50.6500 14.7200   1
  -6  -1   4 50.3600 12.9200   1
   5   1   7 65.8300 14.0500   1
  -5  -1  -7 69.4300 16.6500   1
   1   6   6 3.63000 13.7000   1
  -1  -6  -6 -2.7700 13.5300   1
   1   6   6 -9.4300 12.9100   1
   0  -7  -2 19.2000 13.7000   1
   0   7   2 50.3200 9.98000   1
   0   7   2 25.4200 11.6700   1
   0  -7  -2 69.7100 15.3700   1
   2   0  15 -8.8800 14.6100   1
  -2   0 -15 5.31000 11.2900   1
  -3   7   1 6.39000 13.6700   1
  -4  -2  13 22.4100 11.4800   1
  -4  -2  13 23.7100 12.1900   1
   4   2 -13 50.9400 12.1400   1
  -1   2 -16 6.97000 14.2300   1
  -6   0   7 -5.1400 16.4000   1
   6   0  -7 47.7100 13.5100   1
  -1   5 -13 17.5200 22.5300   1
  -6   3  -3 59.7600 16.7300   1
   6  -3   3 51.8400 12.1600   1
  -5   5   6 8.68000 16.4000   1
  -5   5   6 25.9300 12.5600   1
  -2   6 -10 -37.090 19.3100   1
   6  -2   4 87.6700 14.1700   1
  -6   2  -4 95.0800 12.9800   1
  -6   3   6 33.0400 15.8100   1
   3   4 -12 208.700 16.6800   1
  -3  -4  12 201.240 16.8700   1
  -2  -6  -3 70.4200 16.7700   1
   2   6   3 35.4500 13.5400   1
   2   6   3 54.6100 13.8100   1
  -3   2  15 14.3200 14.2200   1
  -5   1  12 42.1600 13.3000   1
  -5   1  12 58.1700 16.5800   1
   5  -1 -12 72.8900 15.1400   1
  -3   5 -11 30.5200 16.5600   1
   3  -5  11 28.9700 11.9000   1
  -5   4   9 -8.6300 15.5600   1
   5  -4  -9 -10.510 12.5700   1
   2   2 -16 38.5800 16.0400   1
  -2  -2  16 43.3900 17.1400   1
   2   2 -16 29.9800 18.3400   1
   6  -1   4 10.4500 14.5800   1
  -6   1  -4 20.1400 17.2100   1
  -3  -5   9 40.8500 15.4700   1
   3   5  -9 55.6700 15.8000   1
  -5   5  -5 41.5900 11.4700   1
  -4  -4  -4 -5.7500 16.4600   1
   4   4   4 18.2600 12.7300   1
   6   1   0 4.45000 13.6200   1
  -6  -1   0 -6.6000 10.4900   1
  -3   7  -3 30.7800 14.4000   1
  -3   7  -3 33.4200 11.7000   1
   4   1 -14 45.1200 12.1900   1
  -4  -1  14 18.2200 10.9800   1
  -4  -1  14 12.5300 14.8800   1
  -6   4   1 2.06000 10.8100   1
   5  -2   9 28.0400 10.8700   1
  -5   2  -9 23.0900 16.0100   1
  -5   0  12 -4.8200 15.8300   1
   5   0 -12 4.49000 13.9200   1
  -5   0  12 37.7400 15.9800   1
  -6  -1   5 86.2200 15.1800   1
   6   1  -5 81.5300 14.7400   1
  -6   4   2 -9.5200 15.5200   1
  -6   4   2 -3.8200 15.3100   1
   6  -4  -2 11.0400 12.0900   1
  -3  -2  15 15.0700 9.58000   1
   3   2 -15 37.2600 16.0100   1
  -3  -2  15 25.4100 15.3400   1
  -6   0  -3 38.4900 12.5000   1
   6   0   3 42.6600 13.4100   1
  -3  -4  -8 0.98000 16.6700   1
   3   4   8 4.33000 13.7700   1
   6  -1  -8 -23.690 13.8700   1
  -6   1   8 10.3800 15.0300   1
  -3   7   2 15.8300 14.6900   1
  -3   7   2 -0.3200 11.6400   1
   2  -7  -4 28.1600 15.0400   1
  -2   7   4 13.6500 16.2200   1
  -2   7   4 13.8800 13.4100   1
  -1   7   4 98.2100 14.6800   1
   1  -7  -4 104.380 15.2400   1
  -1   7   4 81.8700 12.8800   1
   1  -7  -4 71.7300 15.2700   1
   0  -7   6 90.8600 18.3500   1
   0   7  -6 55.2400 10.2900   1
   0   7  -6 69.6000 14.2500   1
  -6   4   0 11.5200 14.6500   1
   6  -4   0 34.9500 12.2700   1
   5   3  -7 14.4100 15.7900   1
  -5  -3   7 10.1500 14.3600   1
  -5   1  -9 -9.1000 15.6300   1
   5  -1   9 4.07000 14.2100   1
   4   4  -9 33.7500 12.9800   1
  -4  -4   9 34.5500 14.2500   1
   1   4  12 34.9000 15.0300   1
  -1  -4 -12 24.5800 16.2600   1
   1   4  12 33.8000 13.8300   1
  -2   7  -6 49.7000 23.9900   1
  -2   7  -6 16.2300 11.1200   1
   5   2 -10 24.8700 16.2300   1
  -5  -2  10 29.0700 14.2100   1
   0   4  13 6.73000 9.22000   1
   0   4  13 38.0100 14.4000   1
   1   6 -10 7.64000 15.5300   1
  -1  -6  10 22.7200 15.9400   1
   3  -6  -8 3.61000 11.7700   1
  -3   6   8 26.5100 13.1900   1
  -3   6   8 2.61000 12.1400   1
  -3   6   8 0.26000 15.7300   1
  -4   6  -6 53.5000 14.5200   1
  -4   6  -6 69.0900 14.7500   1
   5   3   2 -19.150 13.7600   1
  -5  -3  -2 20.4400 15.1200   1
   0  -3  16 0.26000 11.7700   1
  -4   6   6 18.7500 11.2500   1
   4  -6  -6 13.1800 12.7500   1
  -4   6   6 12.0900 11.5300   1
  -4   3  13 61.1900 16.5300   1
   3   1  13 -0.9800 13.7500   1
  -3  -1 -13 -5.6700 11.1500   1
   3  -1  14 18.9300 12.1700   1
  -3   1 -14 2.17000 16.4600   1
   3   3 -14 15.9700 17.1600   1
  -3  -3  14 61.7400 16.4500   1
  -4   5  -9 28.9300 15.6300   1
   4  -5   9 22.8200 10.0800   1
   0   6   8 57.4600 14.1700   1
   6  -4  -3 10.3900 12.0700   1
  -6   4   3 25.3200 18.3800   1
  -6   4   3 23.7000 14.7800   1
   4  -2  12 -7.4100 12.6900   1
  -4   2 -12 -7.9400 11.3700   1
   0  -4  15 -1.7300 11.0800   1
   0  -4  15 10.7400 15.5200   1
   0   4 -15 32.2800 15.9800   1
   4  -1  12 29.7700 15.4500   1
  -4   1 -12 39.5700 11.8600   1
  -1   6 -11 92.2300 18.8400   1
   1  -6  11 36.5100 13.2500   1
   0   5  11 10.7100 10.3500   1
  -2   4 -14 30.4000 13.1800   1
  -3   2 -14 51.5100 15.7400   1
   3  -2  14 42.8700 13.6200   1
   0  -6  11 18.1500 12.5500   1
   0   6 -11 38.8800 13.9300   1
   1   5 -13 115.660 20.0300   1
  -1  -5  13 148.830 18.3900   1
  -3   5  11 -1.3600 15.8100   1
   1  -7   7 49.1300 16.4300   1
  -1   7  -7 27.6300 9.39000   1
  -1   2  16 12.4400 9.87000   1
  -1   2  16 17.3500 14.4400   1
   1   1 -17 2.22000 12.8500   1
  -1  -1  17 -7.7100 9.33000   1
   6  -4   1 25.9800 11.0000   1
  -6   4  -1 29.1400 14.6400   1
  -4   2  14 5.41000 11.6700   1
  -4   2  14 -21.250 15.2700   1
   4  -2 -14 5.54000 10.5600   1
  -2  -6   8 62.6000 15.0000   1
   2   6  -8 54.6000 14.7600   1
  -3  -2 -12 0.01000 14.4200   1
  -1   0  17 69.9800 10.1100   1
  -1   0  17 51.9200 10.8100   1
   1   0 -17 54.4200 12.6500   1
   0  -7  -3 13.2500 16.2400   1
   0  -7  -3 22.9000 15.0600   1
   0   7   3 -1.0100 9.33000   1
   0   7   3 13.1700 12.1100   1
  -1   3  15 -13.990 14.1100   1
  -1   3  15 -16.840 12.3600   1
  -6   2   8 -20.390 16.2200   1
  -6   2   8 9.74000 15.5500   1
   6  -2  -8 -24.970 12.2800   1
  -3   7  -4 4.24000 10.7900   1
  -6  -1  -1 -5.4200 10.3600   1
   6   1   1 -15.590 14.6700   1
  -2  -4  14 43.5700 13.6900   1
   2   4 -14 17.5600 17.0000   1
   5  -3 -11 -5.9700 13.2500   1
  -1  -2 -15 14.2800 15.8600   1
   1   2  15 -4.7600 8.45000   1
   1   3 -16 15.9500 19.7500   1
  -1  -3  16 4.05000 16.4200   1
  -1  -3  16 7.55000 10.8000   1
  -3   4  13 22.4400 15.9800   1
  -3   4  13 21.6400 10.3400   1
   2   5   8 17.6200 12.4100   1
   3   0 -16 0.33000 13.1800   1
  -3   0  16 5.80000 11.2200   1
   3   0 -16 3.88000 14.4500   1
  -3   0  16 -5.3500 12.2800   1
  -2   6   9 12.2200 14.4000   1
   6   1  -6 3.43000 10.7200   1
  -6  -1   6 39.4900 15.6200   1
  -3   6  -9 34.4200 13.3100   1
  -3   6  -9 11.1300 17.4400   1
   5  -2 -12 9.40000 11.2800   1
  -5   2  12 20.7900 14.4800   1
   6  -3   4 -8.5700 9.79000   1
  -6   3  -4 -14.910 13.9400   1
  -1  -7   2 0.23000 21.6600   1
  -1  -7   2 7.53000 14.2100   1
   1   7  -2 28.4400 11.7200   1
   1   7  -2 18.0500 12.0700   1
  -3   7   3 -0.5000 11.6700   1
   3  -7  -3 -13.170 13.9000   1
   0  -1  17 26.8200 11.2300   1
   0  -1  17 5.62000 9.75000   1
   0   1 -17 6.47000 13.1100   1
   4   3 -12 64.0200 17.8000   1
  -4  -3  12 35.7400 13.9200   1
  -4  -3  12 54.1400 16.1000   1
  -2   3 -15 -7.5000 15.7800   1
  -6   0   8 0.67000 14.3500   1
   6   0  -8 -9.9400 14.4600   1
  -2   3  15 -10.340 11.6500   1
  -2   3  15 -28.610 14.4700   1
  -1   6   9 12.1400 11.0200   1
  -1   6   9 1.88000 9.84000   1
  -6   4   4 4.39000 12.7800   1
   6  -4  -4 23.4300 12.7100   1
  -6   4   4 -11.640 12.8100   1
  -6   4   4 9.46000 13.4700   1
   1   7  -3 47.8300 14.2200   1
  -1  -7   3 69.1000 25.6500   1
   1   7  -3 39.0800 11.1700   1
  -6   3   7 6.86000 15.6400   1
   6  -3  -7 -6.5400 12.0500   1
  -6   3   7 5.71000 14.1800   1
  -1  -5 -10 19.1300 16.4000   1
   1   5  10 7.91000 12.2000   1
   1   7  -1 50.6400 14.8500   1
   1   7  -1 29.6200 12.3500   1
  -1  -7   1 47.2200 17.5100   1
  -1  -7   1 22.6000 15.1500   1
   3   5   5 -3.2300 12.4300   1
  -3  -5  -5 14.1900 15.8700   1
  -2  -5  12 -4.9400 16.6300   1
   2   5 -12 11.8900 16.0100   1
  -2   2  16 17.3100 10.8100   1
  -2   2  16 23.5100 11.7700   1
  -5   5   7 0.95000 10.9700   1
  -5   3  -9 -17.230 15.8400   1
   5  -3   9 8.86000 10.4200   1
   2   6   4 59.7200 16.2700   1
  -2  -6  -4 25.6000 15.5800   1
   2   6   4 77.5700 16.4200   1
   4   1  11 28.1600 15.7400   1
  -4  -1 -11 40.6200 16.5400   1
  -1  -4  15 73.9500 19.4700   1
  -1  -4  15 19.0900 11.8500   1
   1   4 -15 30.9200 16.1300   1
   6  -4   2 19.2900 10.8200   1
  -6   4  -2 12.7500 11.4400   1
   0   0  17 23.9100 15.4800   1
   0   0  17 17.8800 8.01000   1
   0   0 -17 40.4100 15.2500   1
   6  -2   5 16.4000 9.56000   1
  -6   2  -5 14.0800 14.7100   1
   1   7  -4 38.9400 10.8200   1
   1   7  -4 59.0300 16.2300   1
  -1  -7   4 47.3100 16.6800   1
  -1  -7   4 80.3900 19.0600   1
  -1   4 -15 -4.8500 16.8700   1
   0  -7   7 27.3400 16.5700   1
   0   7  -7 47.5100 15.9700   1
   5  -4   8 20.2300 10.2600   1
  -5   4  -8 21.4300 15.9000   1
  -4   4 -11 2.27000 11.0800   1
   5   3  -8 -12.390 14.2400   1
   1   7   0 42.0100 14.1600   1
   1   7   0 48.8300 12.9300   1
  -1  -7   0 58.8600 16.8600   1
  -1  -7   0 24.9500 16.2600   1
   1   3  14 59.5000 17.0100   1
  -5  -2  -6 -2.5500 15.4400   1
   5   2   6 -10.990 14.4500   1
  -3   1  16 27.7900 10.3700   1
  -3   1  16 35.9500 13.1700   1
  -3   1  16 49.5800 13.5700   1
  -1  -1 -16 20.7100 14.0700   1
   1   1  16 39.4300 13.4800   1
  -5   5  -6 43.6900 16.3800   1
  -4   4  12 32.4900 16.9500   1
  -4   4  12 20.6200 14.6900   1
  -6   0  -4 1.46000 14.8500   1
   6   0   4 33.6000 14.1500   1
  -6   0  -4 6.39000 11.4400   1
   2  -7  -5 21.0100 14.2900   1
  -2   7   5 -11.770 11.1900   1
  -2   7   5 11.2100 15.1300   1
  -2  -2 -14 15.7200 17.0300   1
   2   2  14 28.2100 11.2100   1
   2   2  14 25.3100 10.2200   1
  -3  -1  16 36.8600 16.9400   1
   3   1 -16 -16.320 15.3800   1
   3   0  14 14.4600 13.9000   1
  -3   0 -14 -0.1600 13.4600   1
   3  -4  13 -3.2600 12.1100   1
  -3   4 -13 13.9700 14.1600   1
  -6   1  -5 -14.770 11.8600   1
   6  -1   5 16.9200 14.2500   1
   5   3   3 23.6800 13.3500   1
  -5  -3  -3 6.46000 14.0800   1
  -2   7  -7 42.4600 22.6700   1
  -2   7  -7 14.4000 10.8700   1
  -1   7   5 20.7600 12.8900   1
   1  -7  -5 -9.4300 13.0200   1
   1  -7  -5 -0.7400 12.2800   1
  -1   7   5 8.51000 11.0600   1
  -4   5  10 6.67000 13.7600   1
  -4   5  10 19.4400 16.0300   1
   5   1 -12 35.1700 16.9400   1
  -5  -1  12 38.9500 15.9500   1
   1   6   7 32.4600 11.0100   1
   1   6   7 98.7200 24.0900   1
  -1  -6  -7 41.5800 13.5400   1
  -1   3 -16 4.06000 16.5000   1
  -3   7  -5 17.9800 12.1500   1
  -3   7  -5 -0.5200 15.6400   1
  -6  -1  -2 -9.5400 10.3800   1
   6   1   2 -8.8200 14.3800   1
  -4  -4  -5 29.2800 12.8800   1
   4   4   5 54.4700 16.6600   1
  -5   0  -9 -3.1400 17.0100   1
   5   0   9 35.9600 16.2200   1
  -4   3 -12 56.5000 17.1700   1
   4  -3  12 78.1100 16.4800   1
  -3  -5  10 29.6600 12.1700   1
   3   5 -10 23.5400 16.1200   1
   6  -1  -9 29.1600 11.3400   1
  -6   1   9 9.11000 15.8100   1
  -6   1   9 17.6200 11.5600   1
  -2   0  17 10.5300 12.8100   1
   2   0 -17 18.9800 13.4900   1
  -2   5  12 9.64000 13.0800   1
  -2   5  12 -6.7700 15.1700   1
   6  -4  -5 73.2400 17.3200   1
  -6   4   5 54.0600 17.4900   1
  -6   4   5 42.4700 17.7300   1
   0  -2 -16 -16.980 14.2900   1
   0   2  16 5.64000 8.39000   1
  -2   5 -13 -23.010 16.3000   1
   4   0  12 -11.550 13.0100   1
  -4   0 -12 0.21000 14.2600   1
  -1   5  12 10.0100 14.2600   1
  -2  -1 -15 38.1000 16.0900   1
   2   1  15 13.9500 15.0800   1
   6   1  -7 8.22000 15.1600   1
  -5   6   0 35.4900 12.2200   1
  -5   6   0 83.2200 20.9500   1
  -4  -3  -8 0.17000 13.9100   1
   4   3   8 -5.9500 11.1200   1
  -5   6   1 -1.3000 12.3200   1
  -5   6   1 -1.4800 16.3100   1
   0  -2  17 -5.5500 13.0300   1
   0   2 -17 3.88000 11.1900   1
  -1  -2  17 35.3300 10.7000   1
  -4   6  -7 17.8800 14.8000   1
  -4   6  -7 14.9500 11.6300   1
  -3   7   4 16.2700 13.8900   1
  -3   7   4 -1.6200 10.5100   1
   3  -7  -4 17.6100 15.2100   1
   0  -7  -4 71.7600 17.5300   1
   0  -7  -4 45.3300 15.9000   1
   0   7   4 59.7800 15.0000   1
   0   7   4 43.2300 14.3100   1
  -4   6   7 -1.1300 10.7200   1
   4  -6  -7 13.6700 10.6800   1
   5   1   8 -7.9800 15.2800   1
  -5  -1  -8 -4.7700 14.8900   1
  -4  -4  10 12.8300 10.6000   1
   4   4 -10 6.58000 11.4100   1
   1   7  -5 24.7300 13.8100   1
  -1  -7   5 51.6500 18.7200   1
   2   4  11 45.4000 12.5100   1
   2   4  11 31.9600 10.8300   1
  -2  -4 -11 77.0000 21.0700   1
  -1   1  17 5.20000 10.0200   1
  -1   1  17 -13.240 13.2000   1
  -5   4  10 119.390 23.7200   1
  -4  -5   3 18.3500 11.0200   1
  -4  -5   3 -2.2300 12.4400   1
   4   5  -3 14.9500 11.3400   1
  -2  -1  17 43.1400 16.7000   1
  -2  -1  17 33.8400 10.4600   1
  -2  -1  17 52.7100 13.1000   1
   2   1 -17 25.7200 14.7900   1
   3  -3  14 6.98000 11.7300   1
  -3   3 -14 -1.8000 11.3300   1
  -5   6  -1 22.5400 11.2600   1
  -5   6  -1 66.0100 17.7400   1
  -1  -7  -1 19.2100 14.1200   1
   1   7   1 19.9000 11.1000   1
   1   7   1 6.62000 13.0900   1
  -4  -5   2 -17.510 15.4200   1
  -4  -5   2 -2.6800 10.6800   1
   4   5  -2 -17.180 15.1000   1
   0   3  15 20.2100 9.10000   1
   4   0 -15 -7.7100 15.3200   1
  -4   0  15 12.3100 14.8000   1
  -4   0  15 6.05000 13.0600   1
   1  -7   8 51.3900 19.3700   1
  -1   4  14 93.3900 18.9500   1
  -2   6 -11 12.1400 20.1700   1
  -4  -2 -10 5.87000 16.7800   1
  -4  -2 -10 8.47000 11.6000   1
  -5   6   2 -22.020 16.1500   1
  -2  -6   9 -31.500 15.9900   1
   2   6  -9 13.9300 13.7200   1
   6  -4   3 100.310 18.9400   1
  -6   4  -3 87.3500 19.6500   1
  -2   4  14 10.1600 13.5700   1
  -2   4  14 0.79000 14.0300   1
  -4  -5   4 0.32000 10.4800   1
   4   5  -4 -20.110 15.5800   1
  -4  -5   4 -2.5600 16.7400   1
   0  -5  14 61.9400 14.3900   1
   0  -5  14 92.9500 18.6500   1
   0   5 -14 117.590 24.7300   1
  -5  -2  11 -4.4400 12.5500   1
  -5  -2  11 9.05000 13.6700   1
   5   2 -11 12.1000 15.6700   1
   6  -2  -9 -3.2200 14.7100   1
  -6   2   9 6.76000 11.7900   1
  -6   2   9 1.46000 10.5500   1
   3   4 -13 73.5000 20.1500   1
  -3  -4  13 56.9200 16.6400   1
   4  -1 -15 37.5600 12.2200   1
  -4   1  15 23.0800 13.6900   1
   6  -3   5 5.66000 10.1200   1
  -4  -5   1 28.2900 12.0800   1
   4   5  -1 -18.240 10.5000   1
  -4  -5   1 51.2300 19.7000   1
   3   3  11 53.7400 13.9200   1
  -3  -3 -11 49.8300 18.0800   1
   1   6 -11 31.8700 16.3500   1
  -1  -6  11 -17.550 15.1700   1
   4   2 -14 -23.270 16.5400   1
  -4  -2  14 6.15000 9.66000   1
  -3   6   9 4.55000 9.67000   1
  -3   6   9 37.2400 16.8900   1
   5  -1 -13 27.4900 16.5600   1
  -5   1  13 50.3500 17.5900   1
  -5   1  13 24.4900 13.5300   1
  -6   0   9 -1.0500 14.2700   1
   6   0  -9 24.6900 11.2000   1
   6  -3  -8 10.6600 13.1800   1
  -6   3   8 1.04000 16.0300   1
  -6   3   8 7.69000 14.2700   1
  -5   6  -2 44.2500 13.7300   1
  -5   6  -2 47.2100 14.8200   1
  -3  -6   3 137.460 25.5100   1
  -3  -6   3 90.4800 23.4200   1
   3   6  -3 108.640 19.7900   1
   2   3  13 -12.060 13.0400   1
  -2  -3 -13 23.6500 16.3600   1
   2   3  13 -14.970 12.2300   1
   3   6  -2 107.440 21.3200   1
  -3  -6   2 103.540 21.9800   1
  -3  -6   2 73.6400 19.5900   1
  -2   1 -16 12.2100 11.6300   1
   5   0 -13 10.9000 11.6100   1
  -5   0  13 24.4000 15.3600   1
  -5   6   3 4.44000 10.4700   1
  -5   6   3 -4.8800 16.2200   1
  -4  -5   5 -24.860 14.7900   1
   4   5  -5 3.00000 11.3500   1
  -4  -5   5 11.1800 17.6100   1
   5  -2  10 73.9900 16.7100   1
  -5   2 -10 37.8100 17.0600   1
   3  -5  12 57.3200 13.7500   1
  -3   5 -12 21.9300 16.7300   1
   3   4   9 -21.800 11.6100   1
  -3  -4  -9 7.31000 15.6200   1
  -1   5 -14 22.1600 22.0200   1
  -4   5 -10 8.30000 13.4500   1
  -2   1  17 10.5400 10.1100   1
  -2   1  17 30.9300 14.0200   1
   0   7  -8 29.2300 15.3200   1
   1   7  -6 22.8800 14.2600   1
  -1  -7   6 3.89000 12.1100   1
   6  -4  -6 71.3500 16.2900   1
  -6   4   6 39.3300 19.0500   1
  -6   4   6 19.0800 13.0200   1
   2   6   5 34.0900 14.4800   1
   2   6   5 30.0000 12.4900   1
  -2  -6  -5 38.3500 27.6300   1
   0   6   9 37.7400 14.6300   1
   0   6   9 77.2800 17.8700   1
   3   6  -4 133.980 22.9200   1
  -3  -6   4 65.1900 20.7000   1
  -3  -6   4 117.950 26.5600   1
  -3   7  -6 3.11000 10.2900   1
  -3   7  -6 9.48000 17.9900   1
  -5  -3   9 8.98000 13.4200   1
   5   3  -9 -5.9300 14.3300   1
   6   1   3 12.6100 14.7100   1
  -6  -1  -3 -3.7800 14.9300   1
  -3  -6   1 55.7400 18.1900   1
   3   6  -1 -13.600 16.2600   1
  -3  -6   1 17.3900 12.3900   1
  -4  -5   0 -10.890 15.6800   1
  -4  -5   0 -0.1200 11.2800   1
   4   5   0 -2.1000 12.8700   1
  -2  -3  16 49.1100 17.3300   1
   2   3 -16 34.5200 15.3500   1
   5  -1  10 -20.620 12.8300   1
   1   7   2 6.25000 9.55000   1
   1   7   2 31.6900 13.1800   1
  -1  -7  -2 23.4300 15.8300   1
   0   1  17 25.1600 11.8300   1
   0  -1 -17 5.79000 11.6600   1
   3   5   6 2.87000 14.0000   1
  -3  -5  -6 2.04000 16.1100   1
  -1   1 -17 43.6200 17.1600   1
  -3   3  15 27.2300 15.0400   1
  -3   3  15 7.56000 14.8300   1
   0  -6  12 4.88000 15.4200   1
  -1   6 -12 22.5700 18.3900   1
  -2   2 -16 -4.0800 16.2600   1
  -5  -3  -4 12.6700 14.2100   1
   5   3   4 41.3500 14.3300   1
   6  -2   6 2.90000 12.3300   1
  -6   2  -6 5.74000 14.8000   1
  -6  -2   3 6.36000 13.8800   1
   6   2  -3 19.3400 14.6600   1
  -6  -2   3 -1.5600 10.8900   1
  -6  -1   8 21.3700 15.3800   1
  -3   6 -10 -30.000 17.1900   1
  -3   6 -10 15.0800 12.2800   1
  -2   7   6 6.88000 12.3600   1
  -2   7   6 15.1900 17.1100   1
   6   2  -2 -15.400 15.5200   1
  -6  -2   2 -6.4100 12.9500   1
  -6  -2   2 16.5600 15.4100   1
  -6   0  -5 35.1300 17.4200   1
   6   0   5 72.2400 18.1700   1
  -4  -1  15 68.3500 19.5100   1
  -4  -1  15 17.9700 11.7600   1
   4   1 -15 83.1700 19.6400   1
   3  -7  -5 14.5800 14.5800   1
  -3   7   5 23.3200 16.2800   1
  -2   7  -8 36.0800 18.3900   1
  -4   7   0 -11.190 10.1900   1
  -4   7   0 -8.7300 10.9100   1
  -5   6  -3 35.0000 14.3400   1
  -5   6  -3 9.85000 16.0400   1
  -5   5  -7 20.5400 11.3400   1
   6   2  -4 -17.420 10.9700   1
  -6  -2   4 0.47000 15.5800   1
  -6  -2   4 -14.750 11.9000   1
   1  -7  -6 -12.960 15.4700   1
  -1   7   6 7.45000 12.4600   1
  -1   7   6 7.22000 11.2600   1
  -4   7  -1 19.2800 12.7800   1
  -4   7  -1 23.3100 14.7300   1
   5  -3 -12 66.8000 16.8800   1
  -5   3  12 38.0100 12.7800   1
  -3  -6   5 162.390 30.9300   1
   3   6  -5 192.200 133.340   1
  -3  -6   5 173.490 28.9800   1
   6  -4   4 77.2400 16.3300   1
  -6   4  -4 45.8900 13.6500   1
  -2   6  10 52.7000 17.0700   1
  -2   6  10 0.75000 11.4200   1
  -2  -5  -9 1.97000 16.1000   1
   2   5   9 -15.140 9.25000   1
   2   5   9 -2.7600 13.0200   1
  -4  -5   6 61.1500 18.0500   1
  -4  -5   6 103.960 17.7500   1
   4   5  -6 128.880 24.1300   1
  -6   1  -6 26.2600 13.0500   1
   6  -1   6 12.0100 13.8800   1
  -4   7   1 8.99000 13.3000   1
  -4   7   1 2.96000 15.0000   1
  -6  -2   1 -13.070 15.1100   1
   6   2  -1 23.2200 15.8000   1
   3   6   0 -6.7500 10.4700   1
  -3  -6   0 3.71000 11.7800   1
  -3  -6   0 5.99000 12.9300   1
  -3   5  12 -5.2900 12.4500   1
  -3   5  12 -3.7100 15.5400   1
   0   7   5 23.1500 13.6200   1
   0  -7  -5 21.4500 11.9000   1
   0   7   5 26.2000 13.7100   1
  -3   2  16 -13.170 9.83000   1
  -3   2  16 8.98000 15.7900   1
  -5   6   4 3.06000 11.5900   1
  -5   6   4 -8.9400 15.7900   1
   4   3 -13 78.6300 18.4900   1
  -4   3  14 -0.2400 14.6900   1
  -4   3  14 29.2700 15.2900   1
   3   3 -15 25.6400 15.7900   1
  -3  -3  15 0.36000 11.7800   1
  -1  -5  14 11.3500 18.0900   1
   1   5 -14 -13.390 15.9600   1
  -1  -5  14 8.53000 12.3000   1
   3   2 -16 60.9300 13.2800   1
  -3  -2  16 83.2900 18.5900   1
  -1   6  10 6.71000 13.3400   1
  -1   6  10 22.4500 11.9600   1
  -4   7  -2 10.3100 10.6600   1
   6  -1 -10 78.6100 16.6900   1
  -6   1  10 23.9100 14.4800   1
  -6   1  10 22.0200 16.6400   1
  -2   0 -16 -1.0800 10.9900   1
   2   0  16 -8.8300 10.4300   1
   1   4  13 22.5400 12.7600   1
   1   4  13 -48.970 12.6000   1
  -5   2  13 15.5000 13.0600   1
   5  -2 -13 34.7200 14.3900   1
  -5   2  13 -26.910 15.8400   1
   5   2   7 13.3700 18.7700   1
  -5  -2  -7 46.1200 15.8600   1
   0   5  12 -2.0700 12.3100   1
   0   5  12 3.16000 12.0000   1
   4   4   6 45.8800 15.2000   1
  -4  -4  -6 7.63000 17.9900   1
  -1   2 -17 -3.5800 14.1500   1
  -2  -5  13 35.1000 12.6800   1
  -5   4  -9 15.3200 16.1200   1
  -2  -2  17 -14.750 12.5900   1
  -2  -2  17 16.1500 15.2600   1
   2   2 -17 -12.180 13.5100   1
  -1   0 -17 33.0800 15.7700   1
   1   0  17 8.86000 11.6700   1
  -4  -5  -1 22.7500 15.3700   1
   4   5   1 40.5600 15.1000   1
   6   2  -5 64.7300 17.0400   1
  -6  -2   5 9.99000 11.2500   1
  -6  -2   5 19.5700 15.3900   1
  -4   2 -13 35.1000 17.3300   1
   4  -2  13 25.6900 13.7000   1
  -4   6  -8 47.1400 14.2600   1
  -4   6  -8 30.4000 12.9600   1
  -3  -5  11 15.6400 16.1600   1
   3   5 -11 36.8100 14.9300   1
   4  -6  -8 11.5200 11.4500   1
  -4   6   8 50.4500 12.8600   1
  -4   6   8 36.5100 21.2200   1
   5  -3  10 7.83000 12.7100   1
  -5   3 -10 19.5100 16.2400   1
   0   4  14 3.67000 14.7900   1
   0   4  14 -20.470 12.5400   1
  -4   7   2 -4.4700 10.2100   1
  -4   7   2 1.67000 16.4600   1
  -4   1 -13 19.7200 16.6000   1
   4  -1  13 11.9500 12.4900   1
   1  -7   9 8.79000 18.7200   1
  -2  -4  15 30.1400 15.6300   1
   2   4 -15 -13.690 16.8900   1
   5   4  -3 -0.0400 15.6800   1
  -5  -4   3 5.79000 14.2300   1
  -1  -7   7 48.1000 25.4900   1
   1   7  -7 34.0300 14.6100   1
   4   4 -11 33.6000 16.4500   1
  -4  -4  11 4.55000 11.4600   1
   1   6   8 52.1700 13.5300   1
   1   6   8 48.7900 12.5300   1
  -6  -2   0 16.2100 13.6100   1
   6   2   0 24.9100 15.8200   1
  -4   2  15 -3.8400 13.8400   1
   5   4  -2 33.3900 14.4200   1
  -5  -4   2 35.0200 11.5600   1
  -5  -4   2 10.6600 17.2300   1
   2   6 -10 22.7700 11.5500   1
  -2  -6  10 -3.0300 16.8200   1
  -3  -1 -14 -18.610 14.5600   1
   3   1  14 8.88000 12.9400   1
   0  -4  16 23.9800 12.3200   1
   0   4 -16 22.9000 21.3000   1
   1   5  11 1.06000 9.44000   1
  -2   4 -15 45.7700 17.4300   1
  -5  -4   4 8.29000 16.3100   1
   5   4  -4 46.7500 15.1400   1
  -5  -4   4 9.45000 16.8100   1
  -3   4  14 72.9000 17.0000   1
  -3   4  14 30.2100 14.7800   1
   1   7   3 -3.7800 8.88000   1
  -1  -7  -3 26.3700 11.9600   1
  -1  -7  -3 -11.150 15.1000   1
   1   7   3 -8.5000 12.1300   1
  -3  -6   6 36.8200 23.3500   1
  -3  -6   6 11.9100 15.5700   1
   3   6  -6 47.3000 14.5700   1
  -6   3  -6 15.5100 11.5600   1
   6  -3   6 34.5000 11.0700   1
  -6   5   1 52.5500 17.0800   1
  -6   5   1 53.3400 11.7300   1
  -3  -2 -13 5.06000 12.6300   1
  -4   5  11 25.5200 12.6300   1
  -6   4   7 8.04000 13.3700   1
  -6   4   7 15.7900 13.2100   1
  -4   7  -3 22.6000 11.2600   1
  -4   7  -3 12.6000 10.7700   1
   3  -1  15 -2.7900 13.9500   1
  -3   1 -15 -10.640 16.9800   1
  -3  -6  -1 26.1900 17.1600   1
  -3  -6  -1 8.69000 13.4500   1
   3   6   1 -5.4900 14.3600   1
  -5   6  -4 -0.5300 12.1000   1
  -5   6  -4 18.6700 13.7200   1
  -5  -1  13 42.9400 14.6500   1
   5   1 -13 44.0100 12.2900   1
   0   3 -17 35.5400 16.1300   1
  -6   5   0 15.9300 13.1200   1
  -6   5   0 17.2700 16.1000   1
  -6   5   2 35.0400 14.6700   1
  -6   5   2 49.9200 19.6300   1
   6  -3  -9 38.8400 15.9200   1
  -6   3   9 26.3600 14.8000   1
  -6   3   9 29.1700 15.7800   1
  -6   2  10 14.0400 15.2200   1
  -6   2  10 -6.8800 16.5200   1
   6  -2 -10 21.7100 14.1300   1
   3  -2  15 33.8300 13.8900   1
  -3   2 -15 37.5400 15.8500   1
   5   4  -1 63.7000 12.5200   1
  -5  -4   1 75.2700 13.3800   1
  -5  -4   1 64.3600 19.2900   1
  -6   0  10 1.65000 13.4200   1
   6   0 -10 7.23000 15.6700   1
  -3   7  -7 4.69000 11.8900   1
  -3   7  -7 7.24000 14.7000   1
  -4  -5   7 49.2200 11.7800   1
   4   5  -7 115.760 19.1900   1
  -4   4 -12 7.39000 16.6300   1
   4  -4  12 -14.660 11.0900   1
   6   1   4 25.6500 11.3300   1
  -6  -1  -4 29.8700 13.9900   1
  -5   4  11 52.6800 16.5500   1
  -6  -2   6 20.0800 14.7600   1
   6   2  -6 22.1300 11.7800   1
  -4   4  13 37.6500 14.9600   1
  -4   4  13 14.3800 14.7100   1
   0   7  -9 17.0300 16.2400   1
   0  -7   9 24.2400 16.2900   1
   5   4  -5 5.19000 14.9300   1
  -5  -4   5 29.3300 18.2400   1
  -5  -4   5 -9.0100 13.2500   1
  -5   6   5 7.51000 15.0000   1
  -5   6   5 23.4500 12.6400   1
   4   3   9 -47.380 16.0900   1
  -4  -3  -9 5.87000 14.6500   1
  -5   0 -10 3.46000 12.1600   1
   5   0  10 45.2500 16.0100   1
   4   1  12 46.9000 14.5900   1
  -4  -1 -12 29.1900 12.5900   1
  -4   7   3 2.71000 11.9300   1
   5   2 -12 20.9000 16.8200   1
  -5  -2  12 29.7900 14.4500   1
  -5  -2  12 38.2900 15.6800   1
   1   3 -17 -28.190 18.9900   1
  -1  -3  17 27.9200 16.9200   1
  -1  -3  17 10.9000 12.0900   1
   5   1   9 37.4800 14.5500   1
  -5  -1  -9 8.99000 13.7800   1
  -1   3  16 13.7200 11.0500   1
  -6   5  -1 -2.5800 10.8900   1
  -6   5  -1 17.0900 17.0000   1
   6   1  -9 100.160 18.0700   1
  -6  -1   9 65.3400 17.8500   1
   5   3 -10 33.2100 16.3400   1
  -5  -3  10 6.81000 14.3400   1
  -6   5   3 129.010 58.4700   1
  -6   5   3 80.3900 17.7600   1
  -3   0  17 19.0700 14.4100   1
   3   0 -17 -2.5200 12.2700   1
  -3   0  17 11.9700 10.0100   1
  -3   0  17 -34.390 16.0000   1
   3  -7  -6 22.0500 14.5800   1
  -3   7   6 21.3100 14.4800   1
  -1   2  17 22.6900 14.4900   1
  -1   2  17 17.7100 12.2700   1
   4   5   2 41.3100 13.2500   1
  -4  -5  -2 23.8400 17.0800   1
  -6  -2  -1 0.69000 15.2800   1
   6   2   1 44.9200 15.9200   1
   2   6   6 16.2200 13.3400   1
  -2  -6  -6 15.5500 15.7500   1
   2   6   6 -3.8400 9.79000   1
  -2   3 -16 29.8400 14.7800   1
   1   4 -16 47.1100 20.1300   1
  -1  -4  16 43.0200 12.0900   1
   1   4 -16 55.4100 16.4200   1
  -1  -1  18 5.25000 12.4900   1
   1   1 -18 4.00000 12.5600   1
   1   2  16 -5.7000 14.1000   1
   1   2  16 67.8400 32.9100   1
  -2   3  16 17.4200 10.9500   1
  -2   3  16 25.0100 12.3700   1
   5   3   5 54.4300 11.8100   1
  -1  -6  12 -13.020 12.1300   1
   1   6 -12 13.1900 16.6300   1
  -5   5   9 22.2000 14.5600   1
  -5  -4   0 81.0800 16.3100   1
   5   4   0 87.9100 13.5700   1
   1   0 -18 29.8900 12.5600   1
  -1   0  18 25.5100 9.97000   1
  -1   0  18 21.7500 13.5700   1
  -3   4 -14 0.65000 11.6900   1
   3  -4  14 -3.4400 11.1800   1
  -3   6  10 42.7900 16.3700   1
  -3   6  10 17.0000 14.4300   1
  -2   7   7 6.88000 11.7800   1
   2  -7  -7 3.65000 10.7200   1
  -2   7   7 1.26000 12.1600   1
  -4   7  -4 -16.400 12.5200   1
  -4   7  -4 1.14000 9.23000   1
  -2   5  13 5.76000 11.2000   1
  -4   3 -13 1.17000 17.0700   1
   4  -3  13 23.5800 9.75000   1
  -1   4 -16 -1.3700 12.7300   1
  -2   7  -9 18.0700 22.0300   1
   3   6  -7 -2.2300 13.6900   1
  -3  -6   7 15.2500 15.9100   1
  -6   0  -6 25.2800 17.1600   1
   6   0   6 -14.540 12.6900   1
  -6   2  -7 -13.290 11.4900   1
   6  -2   7 -10.210 13.2000   1
  -1   5  13 7.35000 15.1300   1
  -1   5  13 -18.960 13.3400   1
  -3  -5  -7 -12.480 19.1300   1
   3   5   7 21.5300 13.7100   1
  -2   2  17 26.3800 11.5100   1
  -2   2  17 26.6800 14.5400   1
  -5  -4   6 31.3400 16.8800   1
   5   4  -6 6.03000 16.6200   1
  -5  -4   6 18.5900 13.6200   1
  -3  -4  14 15.1600 11.8400   1
   3   4 -14 71.6500 16.9800   1
  -3  -6  -2 78.4200 17.4500   1
   3   6   2 98.3600 16.7300   1
   0   1 -18 8.40000 15.8400   1
   0  -1  18 -9.0100 14.4300   1
  -6   5  -2 26.3200 13.9600   1
  -1   7   7 7.82000 13.8000   1
  -1   7   7 3.89000 13.4200   1
  -4  -2 -11 2.97000 12.4400   1
   4   2  11 0.80000 20.0200   1
  -4  -2 -11 5.06000 16.7400   1
   0   7   6 24.4900 10.3800   1
   0   7   6 29.0100 12.4700   1
   2   4  12 58.7400 14.5300   1
  -2  -4 -12 25.7100 18.2300   1
   2   4  12 25.3700 11.5600   1
  -1  -7   8 -11.400 15.4400   1
  -6   5   4 35.0000 14.8100   1
  -6   5   4 45.8100 17.5600   1
  -5   5  -8 16.9400 11.0000   1
  -3  -1  17 23.7700 10.1900   1
   3   1 -17 43.9900 15.8500   1
   3   1 -17 -9.8200 16.2700   1
  -3  -1  17 24.7800 16.3800   1
   4   0  13 -1.6200 13.0900   1
   1   3  15 56.4300 13.6200   1
   1   3  15 26.4400 15.3200   1
  -1  -3 -15 23.2700 15.9300   1
  -3   1  17 31.9800 15.6400   1
  -3   1  17 22.6200 11.5800   1
  -3   0 -15 24.6400 16.5300   1
   3   0  15 11.5100 14.0100   1
   6   2  -7 55.7700 15.6600   1
  -5   6  -5 13.1200 10.3100   1
  -5   6  -5 6.73000 14.4600   1
   2   2  15 11.2300 10.6500   1
   2   2  15 -15.880 9.39000   1
  -2  -2 -15 23.3700 17.7700   1
  -5   1  14 20.7600 11.5400   1
   5  -1 -14 54.3300 16.9200   1
  -4   5 -11 22.6500 14.1700   1
  -4   7   4 13.2500 15.8000   1
   1   7   4 39.0500 11.9300   1
   1   7   4 59.6900 14.6800   1
   6  -1   7 4.77000 10.5600   1
  -6   1  -7 22.6600 12.7100   1
  -4  -5   8 42.3500 15.4500   1
   4   5  -8 47.9600 15.1400   1
   0   5 -15 10.0000 23.5400   1
   0  -5  15 6.71000 11.7400   1
   0  -5  15 7.01000 13.1700   1
   0   6  10 42.3100 10.8300   1
   0   6  10 43.5200 14.3600   1
   5   0 -14 27.0800 16.5500   1
  -5   0  14 17.2900 15.9000   1
  -5   0  14 17.0200 10.9400   1
  -4   0  16 21.5200 15.9300   1
  -4   0  16 -2.7400 11.5800   1
   4   0 -16 12.7700 15.5600   1
  -4  -2  15 -2.1200 15.9300   1
   4   2 -15 8.02000 16.1600   1
  -3  -4 -10 -11.020 17.4500   1
   3   4  10 26.4300 16.1000   1
  -3   6 -11 13.3700 18.1900   1
   0   0 -18 6.02000 13.5000   1
   0   0  18 9.28000 11.4500   1
  -5   2 -11 14.0400 16.3700   1
  -1   3 -17 19.7800 16.5400   1
   2   7  -2 130.130 57.6100   1
  -2  -7   2 131.520 64.6600   1
  -2  -7   2 108.960 19.4800   1
   3   3  12 3.23000 10.9500   1
  -3  -3 -12 -3.5800 11.3600   1
  -2  -7   3 61.7800 13.1500   1
   2   7  -3 75.4800 16.6800   1
  -2  -7   3 73.2800 19.9200   1
  -5  -4  -1 46.2300 16.7000   1
   5   4   1 83.8000 15.4100   1
  -6   4   8 11.1000 16.2000   1
   6  -4  -8 25.3300 11.9600   1
  -6   4   8 10.6700 13.3500   1
   3  -3  15 -3.7400 11.5500   1
  -3   3 -15 -16.770 11.6700   1
  -6   1  11 9.01000 15.1900   1
   6  -1 -11 45.7800 19.8200   1
  -6   1  11 37.4900 17.0900   1
  -5   6   6 13.0900 11.6400   1
  -5   6   6 -1.0000 10.8200   1
   0  -6  13 30.3300 17.7500   1
   0   6 -13 24.2800 14.3400   1
  -6  -2  -2 12.1300 14.9800   1
   6   2   2 49.6300 15.8400   1
  -3   5 -13 67.4200 16.3200   1
  -1   6 -13 83.0500 23.6700   1
  -4   6  -9 57.7900 16.2700   1
  -4   6  -9 43.2400 13.0000   1
  -4  -4  -7 39.5400 17.9700   1
  -2   4  15 0.95000 10.0100   1
  -2   4  15 18.0300 11.4500   1
  -4   6   9 56.2500 17.1700   1
   4  -6  -9 41.3800 12.3900   1
  -4   6   9 51.0100 14.1000   1
   4  -1 -16 24.2600 13.9800   1
  -4   1  16 30.1700 13.2500   1
  -2  -7   1 64.1600 18.6800   1
   2   7  -1 91.0300 15.6900   1
   2   7  -1 46.0000 12.6600   1
  -2  -7   1 93.5900 14.9100   1
   1  -7  10 37.6900 16.3600   1
   2   0 -18 1.83000 11.2100   1
  -2   0  18 1.07000 14.5400   1
  -2   0  18 8.37000 10.6700   1
  -2  -1 -16 19.3700 13.9300   1
   2   1  16 24.4000 13.8600   1
  -5   1 -11 -14.790 14.8000   1
  -2  -7   4 6.64000 17.0500   1
   2   7  -4 3.34000 14.0300   1
  -2  -7   4 33.9100 21.3300   1
   0  -2 -17 8.51000 15.7200   1
   0   2  17 21.9800 10.9800   1
  -4   7  -5 7.57000 13.8700   1
  -4   7  -5 18.3700 13.3500   1
  -4  -5  -3 4.14000 12.6100   1
   4   5   3 20.5100 10.4900   1
   1   2 -18 16.3600 11.8800   1
  -1  -2  18 15.5600 11.6100   1
  -3   7  -8 7.99000 18.3000   1
   2   6 -11 21.9300 11.6400   1
  -2  -6  11 31.1300 15.6900   1
   3   5 -12 16.5800 11.7700   1
  -3  -5  12 6.22000 12.2300   1
  -6   3  -7 20.0000 16.5900   1
   6  -3   7 11.9900 10.7600   1
  -6   5  -3 -37.260 15.4600   1
   5   2   8 17.1900 16.1000   1
   5   4  -7 37.1700 12.0800   1
  -5  -4   7 45.2400 14.1700   1
   6   1   5 31.0600 15.4600   1
  -6  -1  -5 -4.4100 15.7400   1
   0   3  16 -0.7500 8.73000   1
   0   2 -18 46.9200 16.1500   1
  -6   5   5 31.7300 16.8200   1
  -5   3  13 14.5500 16.6000   1
   5  -3 -13 22.4300 15.4000   1
  -1   5 -15 70.1800 23.0600   1
  -2  -1  18 19.1200 14.9000   1
   2   1 -18 -11.700 13.7400   1
  -2   6  11 -7.8800 9.45000   1
  -2   6  11 12.4800 14.3500   1
   4   4 -12 23.0300 17.6400   1
  -4  -4  12 15.3000 15.1400   1
   2   5  10 65.9000 15.4800   1
  -2  -5 -10 28.2300 22.1700   1
   2   5  10 99.8500 17.4900   1
   5  -4  10 22.1100 14.4700   1
  -6   3  10 8.02000 13.1900   1
  -6   3  10 61.0500 18.8800   1
  -1   8  -2 85.8200 14.5900   1
   1  -8   2 95.4100 20.9500   1
   1  -8   1 89.9300 21.6900   1
   1  -8   1 60.3100 19.2200   1
  -1   8  -1 51.0300 13.9000   1
  -4  -3  14 49.4100 17.2900   1
   4   3 -14 38.8200 16.1200   1
  -3  -6   8 -28.230 15.6600   1
   3   6  -8 -2.7800 13.4200   1
  -1   1  18 1.76000 9.91000   1
  -1   1  18 -0.8500 11.0000   1
   6   1 -10 42.7900 12.1900   1
  -6  -1  10 21.6000 17.2300   1
   2   3  14 27.2200 16.3600   1
   2   3  14 15.0600 14.3800   1
   6   0 -11 -1.4500 10.8500   1
  -6   0  11 -8.1100 16.0400   1
  -6   0  11 -7.8100 13.7100   1
   2   7   0 53.0600 14.3100   1
   2   7   0 24.3700 14.7300   1
  -2  -7   0 38.8300 15.5500   1
  -2  -7   0 22.1300 18.8600   1
  -2   8  -1 13.7800 13.1800   1
   0   7 -10 -14.340 15.6000   1
   0  -7  10 -7.2400 16.2100   1
   7  -2  -2 19.4800 12.6400   1
  -7   2   2 4.33000 17.1800   1
   3   6   3 104.840 18.0600   1
  -6   4  -6 28.2600 16.2300   1
   6  -2 -11 -2.0500 11.3600   1
  -6   2  11 14.4600 13.2400   1
  -6   2  11 13.5800 15.8800   1
  -1   6  11 5.75000 9.80000   1
  -1   6  11 -17.870 12.1100   1
  -2  -7   5 -21.670 14.9300   1
   2   7  -5 24.8600 14.7700   1
  -2  -7   5 56.2200 18.2700   1
   3  -7  -7 44.7900 14.8800   1
  -3   7   7 16.0800 13.5400   1
  -2   8  -2 54.9000 13.4500   1
  -1   8  -3 67.7000 13.1100   1
   1  -8   3 92.1600 17.2300   1
   1   6   9 12.3600 11.2800   1
   1   6   9 41.8400 12.8000   1
  -7   2   3 26.5900 20.1000   1
  -1   8   0 -2.9800 12.6500   1
   1  -8   0 11.1400 18.9900   1
   2   5 -14 16.7800 16.8200   1
  -2  -5  14 -15.790 16.9200   1
   7  -2  -1 8.77000 14.1300   1
  -7   2   1 -21.830 11.9900   1
  -2   8   0 11.1600 13.2900   1
  -5  -3  11 -1.8100 15.7100   1
   5   3 -11 20.7200 14.5500   1
   7  -1  -2 52.2200 18.4000   1
  -7   1   2 39.9100 15.7300   1
   6   2  -8 -11.300 16.0900   1
  -6  -2   8 42.1400 16.8000   1
  -3   5  13 13.8200 12.8000   1
  -4  -1  16 32.6400 11.7800   1
   4   1 -16 62.5700 16.7400   1
  -4  -1  16 32.0600 15.2100   1
   7  -1  -3 -5.0000 14.8900   1
  -7   1   3 23.6000 17.3300   1
  -4   7   5 16.8400 16.0500   1
   5  -2 -14 4.40000 15.8900   1
  -5   2  14 -27.100 14.4400   1
   2   3 -17 20.8400 16.8700   1
  -2  -3  17 8.24000 12.6400   1
  -2  -3  17 7.46000 12.9000   1
   2   3 -17 52.6000 21.2100   1
  -5   3 -11 8.05000 16.5600   1
   5  -3  11 2.83000 11.1000   1
  -1  -5  15 0.05000 9.80000   1
   1   5 -15 1.62000 11.6100   1
  -1  -5  15 9.43000 17.1000   1
   5   4   2 27.2100 18.5100   1
  -5  -4  -2 36.0300 15.2600   1
  -2   8  -3 33.9900 21.1300   1
  -2   8  -3 40.8000 11.9500   1
  -7   1   1 9.48000 15.0500   1
   7  -1  -1 9.54000 15.8700   1
  -3   3  16 48.1000 15.7300   1
  -3   3  16 4.00000 14.5700   1
  -5  -3  -6 25.2200 19.2400   1
   5   3   6 32.2700 15.4400   1
  -1  -7   9 3.78000 12.5300   1
   1   7  -9 -3.7600 13.4500   1
  -5   6  -6 5.17000 12.0100   1
  -5   6  -6 38.2800 15.1300   1
  -7   2   4 23.3100 19.6300   1
   7  -2  -4 84.0800 16.6700   1
  -2   1 -17 37.1100 17.2800   1
   3   3 -16 55.5600 14.2800   1
  -3  -3  16 43.8200 16.6300   1
  -4   3  15 50.1000 16.0000   1
  -4   3  15 44.2600 12.8900   1
   2   6   7 -2.2300 13.3800   1
  -2  -6  -7 24.2000 18.5800   1
   2   6   7 19.4600 16.4100   1
   7  -1  -4 24.6800 14.6700   1
  -7   1   4 4.49000 16.3100   1
  -4   5  12 103.300 20.6000   1
  -4   5  12 53.1900 12.0300   1
  -7   2   0 13.7000 16.2700   1
   7  -2   0 13.7600 14.8900   1
   1  -8   4 113.350 22.5700   1
   4   5  -9 11.1300 12.8100   1
  -4  -5   9 11.6900 14.4100   1
   2  -8  -1 12.0300 16.6500   1
  -2   8   1 -24.960 17.2300   1
  -2   8   1 -7.5200 12.3900   1
  -2   1  18 24.5900 14.3500   1
  -2   1  18 22.9200 14.5300   1
  -5   5  10 4.37000 14.2700   1
  -5  -1  14 8.46000 14.5600   1
  -5  -1  14 9.70000 12.4500   1
   5   1 -14 31.1900 15.4300   1
  -1   8   1 -9.3500 12.6200   1
   1  -8  -1 3.49000 14.4700   1
   1  -8  -1 18.0500 16.6600   1
  -5  -2  13 3.42000 13.8500   1
  -5  -2  13 12.9400 12.4000   1
   5   2 -13 25.4800 17.7700   1
   0   5  13 3.90000 13.6000   1
   0   5  13 21.5900 14.8600   1
  -6  -2  -3 13.0600 12.0400   1
   6   2   3 25.6000 15.1100   1
  -2   7   8 27.7000 17.1400   1
  -2   7   8 31.6500 15.9400   1
   2  -7  -8 28.4400 20.8100   1
  -5   4  12 12.4300 16.6200   1
   1   7   5 75.1500 16.2400   1
  -2  -7  -1 -3.4300 14.5100   1
   2   7   1 -1.9700 12.5300   1
   2   7   1 -31.410 14.4700   1
  -2   7 -10 90.4800 27.3100   1
  -6   5  -4 7.59000 15.8300   1
  -2   2 -17 -17.430 11.5900   1
   6   0   7 -6.8300 14.4900   1
  -6   0  -7 27.5600 20.8200   1
  -2  -7   6 -4.7600 11.7500   1
   2   7  -6 -1.1900 14.5700   1
   3   2 -17 22.7100 17.6900   1
  -7   1   0 37.7200 21.3600   1
   7  -1   0 38.9900 14.8300   1
  -5  -4   8 85.0800 18.1000   1
   5   4  -8 49.8500 17.6800   1
  -6   5   6 -7.6300 17.8900   1
   1   5  12 26.1900 14.2700   1
   0   7   7 15.4500 14.0100   1
   0   7   7 34.2700 13.9900   1
  -5   6   7 15.7200 14.3200   1
  -5   6   7 15.7800 16.1400   1
   2   4 -16 88.9600 18.1400   1
  -2  -4  16 70.2900 19.5500   1
   1   4  14 7.41000 13.2200   1
   1   4  14 -4.1500 14.0400   1
  -4   7  -6 66.2500 14.8600   1
  -4   7  -6 33.8500 11.6000   1
   4  -2  14 14.6900 14.6200   1
  -4   2 -14 -2.1200 11.9800   1
  -2   8  -4 87.8100 22.5100   1
  -2   8  -4 48.6500 12.4100   1
   0  -1 -18 -15.900 12.8500   1
   0   1  18 -4.3000 11.1000   1
  -1   1 -18 62.2000 17.6800   1
   6  -2   8 7.77000 9.80000   1
  -6   2  -8 18.6000 16.7000   1
  -3   2  17 28.0600 16.6900   1
  -3   2  17 5.93000 14.9200   1
   4   3  10 34.3900 12.3300   1
  -4  -3 -10 4.13000 16.4000   1
  -1   7   8 -2.6000 13.6900   1
  -1   7   8 2.89000 12.8500   1
   5   1  10 21.1100 16.9500   1
  -5  -1 -10 18.3800 19.0500   1
  -1  -6  13 0.66000 12.3400   1
   1   6 -13 21.8800 19.2200   1
  -7   1   5 -24.220 14.5700   1
   7  -1  -5 -13.160 14.3600   1
  -7   2   5 37.4700 18.5000   1
   4  -1  14 18.6400 12.7000   1
  -4   1 -14 19.6000 17.1500   1
  -6   4   9 58.6600 18.7300   1
   6  -4  -9 78.7000 16.3300   1
  -5   5  -9 -12.890 10.5800   1
   4   5   4 42.1500 14.7700   1
  -4  -5  -4 14.5100 21.8000   1
  -4   2  16 -6.6900 11.4300   1
  -4   2  16 13.7700 15.1200   1
   5   0  11 14.2400 12.6400   1
  -5   0 -11 3.71000 15.7400   1
  -7   2  -1 31.1000 18.0800   1
  -7   2  -1 -20.050 18.1400   1
   7  -2   1 11.9300 13.6500   1
   7  -3  -2 -6.2000 11.3400   1
  -4   4 -13 21.1200 18.9100   1
   4  -4  13 6.98000 10.8700   1
  -3  -5  -8 9.02000 20.2100   1
   3   5   8 18.3700 16.7000   1
  -3   6  11 66.9900 17.6900   1
  -3   6  11 11.6900 13.1200   1
  -3   4  15 75.2500 17.2200   1
  -3   4  15 11.8400 12.3700   1
   7  -3  -1 19.9200 15.0700   1
  -7   3   1 27.9400 22.1300   1
   1  -8   5 54.5100 15.0200   1
   2  -8  -2 57.7400 18.6000   1
  -2   8   2 33.3400 15.2200   1
  -2   8   2 36.4000 19.7300   1
   0   4  15 -9.2300 13.1400   1
   0   4  15 -14.920 10.8600   1
  -4   4  14 -1.9400 12.1800   1
  -4   4  14 29.4500 15.2900   1
  -2  -2  18 21.7600 15.0200   1
   2   2 -18 20.7400 19.9200   1
  -2  -2  18 -13.480 14.1000   1
  -2   6 -13 61.2300 19.9600   1
   7  -3  -3 27.7700 16.2200   1
  -3  -6   9 46.4000 15.6300   1
   3   6  -9 32.5400 15.9800   1
   0  -8   2 70.1900 19.2500   1
   0   8  -2 74.4200 13.3700   1
   0  -8   2 84.7300 20.2800   1
  -1   8   2 21.0000 15.9800   1
   1  -8  -2 10.1800 12.4100   1
   6  -1   8 6.52000 14.1900   1
  -6   1  -8 9.72000 16.1600   1
  -2   4 -16 7.44000 17.4200   1
  -3  -2 -14 -5.8000 12.2800   1
   3   2  14 29.0800 15.2500   1
   0  -4  17 14.8000 13.8500   1
   0   4 -17 -22.740 14.2000   1
   2   0  17 14.9300 16.0500   1
  -2   0 -17 13.5100 15.2500   1
   0   8  -1 63.8500 12.9600   1
   0  -8   1 82.7700 19.8900   1
   0  -8   1 55.7100 19.0800   1
  -7   1  -1 42.0500 17.8800   1
   7  -1   1 29.0600 11.3900   1
   3   6   4 34.9700 13.1700   1
  -3  -6  -4 43.1500 17.9400   1
   0  -8   3 17.5600 15.7500   1
   0   8  -3 13.0800 11.3600   1
   3   1  15 26.0700 17.8700   1
  -1   2 -18 57.8000 15.8100   1
   7  -3   0 29.3600 13.0100   1
  -7   3   0 3.69000 15.9900   1
  -3   7  -9 21.5500 24.9700   1
  -6  -2   9 56.8400 16.2300   1
   6   2  -9 63.0500 16.0900   1
   4   1  13 20.7200 17.5300   1
  -4  -1 -13 19.2500 14.9000   1
  -4   7   6 61.7000 13.6500   1
   4  -7  -6 53.8600 16.3500   1
   6   1   6 21.1400 13.9700   1
  -6  -1  -6 30.9700 14.4600   1
  -5  -4  -3 -23.520 15.0600   1
  -7   0   3 1.25000 16.0900   1
   7   0  -3 5.47000 11.4900   1
   2   7   2 6.20000 10.4400   1
  -2  -7  -2 1.27000 14.7000   1
  -2  -7  -2 12.5600 16.4200   1
   2   7   2 12.4100 12.1900   1
  -7   0   2 -7.7400 11.0900   1
   7   0  -2 -5.2400 14.2600   1
  -6   1  12 6.77000 14.0600   1
  -6   1  12 -11.200 14.5300   1
   6  -1 -12 18.4200 17.3300   1
  -1   0 -18 9.96000 13.2000   1
  -2   8  -5 1.44000 10.5300   1
  -2   8  -5 37.3300 18.1400   1
  -7   3   4 2.87000 16.8700   1
   7  -3  -4 21.3700 14.9200   1
  -1   7 -11 -9.0100 27.6400   1
   1  -7  11 16.5200 14.0900   1
   6   3  -3 103.000 20.3600   1
   3  -1  16 -0.5700 13.7700   1
  -3   1 -16 -6.1000 17.1800   1
  -2  -7   7 10.3500 15.8000   1
   2   7  -7 7.92000 14.9100   1
  -4   6 -10 9.34000 12.0600   1
  -4   6  10 24.5500 15.7200   1
  -4   6  10 49.9400 17.1600   1
   4  -6 -10 30.3200 12.3200   1
   7  -1  -6 13.6200 11.8800   1
  -7   1   6 14.0500 13.3300   1
   3   4 -15 -4.7100 17.7100   1
  -3  -4  15 1.30000 11.9500   1
  -3   2 -16 4.13000 17.7600   1
   3  -2  16 -3.1400 13.3700   1
   0   8   0 77.6900 12.5900   1
   0  -8   0 54.2300 18.3000   1
   0  -8   0 86.9000 18.0900   1
  -6   3  -8 33.1300 14.7000   1
   6  -3   8 18.4700 11.6900   1
  -3   8  -1 190.290 93.6600   1
  -3   8  -1 176.400 24.2300   1
   7   0  -4 73.2400 15.9500   1
  -7   0   4 33.4700 15.3500   1
  -6  -3   2 20.8600 18.1400   1
  -6  -3   2 17.6700 15.9200   1
   6   3  -2 14.2400 17.0900   1
   0  -8   4 9.93000 13.8800   1
   7  -2  -6 69.8900 16.0100   1
  -7   2   6 27.8100 20.5600   1
   4   4   8 58.5700 17.2100   1
  -4  -4  -8 -4.6600 17.7500   1
  -6  -1  11 83.6600 17.4600   1
  -6  -1  11 70.1100 18.7800   1
   6   1 -11 104.780 18.6500   1
  -7   0   1 10.5300 14.8100   1
   7   0  -1 13.9800 17.4800   1
   2   6 -12 18.6300 14.2300   1
  -2  -6  12 39.3000 13.6100   1
  -6   4  -7 34.5600 16.2400   1
  -4   5 -12 42.9200 17.0000   1
  -6  -3   4 -5.8500 16.2100   1
  -6  -3   4 26.3000 17.7900   1
   6   3  -4 32.9200 16.7200   1
  -3   6 -12 36.4800 18.7700   1
   0  -3  18 -2.0500 12.7600   1
   0   3 -18 -17.320 15.1900   1
  -3   8   0 54.9200 16.5700   1
  -2   5  14 15.9800 12.3200   1
  -3   8  -2 -4.8600 12.0200   1
  -3   8  -2 22.7600 20.7500   1
  -7   2  -2 31.3000 16.8400   1
   7  -2   2 12.5200 15.1100   1
   3  -7  -8 1.01000 13.9600   1
  -3   7   8 -5.3500 15.7200   1
   6  -3 -11 72.9000 17.8500   1
  -6   3  11 37.2500 17.6500   1
   3  -4  15 12.3600 12.8100   1
  -3   4 -15 39.7100 15.4500   1
  -6   5  -5 0.03000 15.6400   1
   0   6  11 29.9600 14.1500   1
   0   6  11 13.8400 15.0300   1
  -4   3 -14 58.9000 17.0200   1
   4  -3  14 40.3300 12.4300   1
   1   4 -17 52.4600 20.1000   1
  -1  -4  17 8.73000 13.2400   1
  -5   6  -7 -19.240 14.7600   1
  -5   6  -7 7.14000 13.5100   1
  -7   3  -1 -24.070 18.3000   1
   7  -3   1 26.8300 16.7100   1
  -4  -2 -12 20.4900 17.7400   1
   4   2  12 63.9500 15.7600   1
   3   5 -13 -1.2200 16.5900   1
  -3  -5  13 1.97000 14.4100   1
   0   7 -11 -7.6300 15.3700   1
   0  -7  11 4.13000 13.0500   1
  -6  -2  -4 -15.910 15.3500   1
   6   2   4 53.9300 16.2600   1
   2  -8  -3 41.3100 17.0500   1
  -2   8   3 28.1400 17.3000   1
   1   3 -18 37.4600 19.9900   1
  -6   5   7 31.6000 12.9900   1
   1  -8   6 -3.4600 16.9700   1
  -5   1  15 45.9900 14.7100   1
   5  -1 -15 47.4500 17.1900   1
   5   4  -9 33.2100 12.8300   1
  -5  -4   9 23.3500 14.6900   1
   6   3  -1 96.4800 19.2500   1
  -6  -3   1 28.1300 16.9400   1
   4   5 -10 32.1400 16.8500   1
  -4  -5  10 -9.6100 14.0500   1
   6   0 -12 7.12000 14.2400   1
  -6   0  12 -16.280 16.2200   1
  -6   0  12 -10.640 16.0400   1
   1   7 -10 12.8900 15.0200   1
  -1  -7  10 -3.5700 15.5400   1
   4   4 -13 50.0000 16.0500   1
  -4  -4  13 21.7100 16.9900   1
  -1   5  14 13.7400 13.5300   1
  -3   0  18 7.12000 14.6800   1
  -3   0  18 8.89000 10.3400   1
   5   0 -15 46.9100 17.6000   1
  -5   0  15 49.5900 14.5000   1
  -5   0  15 19.6200 17.4700   1
   3   4  11 -1.7800 15.5700   1
  -3  -4 -11 12.1100 18.0300   1
  -3   8   1 29.3100 14.8000   1
  -3   8   1 17.6900 16.2800   1
  -1   3  17 -5.6100 8.81000   1
  -6  -3   5 9.26000 12.1700   1
   6   3  -5 37.9600 15.3800   1
  -6  -3   5 16.8900 18.2300   1
  -5  -2  -9 -37.300 16.1400   1
   5   2   9 17.2500 15.9000   1
   0   6 -14 34.6600 18.7100   1
   0  -6  14 14.5300 18.3000   1
   2   4  13 -9.2900 13.1800   1
   2   4  13 -1.7500 14.6300   1
   5   3 -12 49.6800 16.0800   1
  -5  -3  12 64.1400 17.3000   1
   7   0  -5 47.8400 16.8900   1
  -7   0   5 17.5400 14.0800   1
   5  -2  12 1.75000 14.1900   1
  -5   2 -12 23.5700 19.3100   1
  -7   3   5 -35.120 15.5800   1
  -7   3   5 6.44000 15.0200   1
   7  -3  -5 3.15000 13.4800   1
   1  -8  -3 23.3100 18.0600   1
  -1   8   3 5.65000 12.2200   1
  -3   8  -3 20.3300 19.0100   1
  -3   8  -3 44.2500 14.5100   1
  -7   0   0 -19.590 13.9400   1
   7   0   0 -6.2300 16.2200   1
  -2   3 -17 10.3400 12.7300   1
   7  -1   2 20.8200 15.2400   1
  -7   1  -2 -18.520 15.6500   1
  -4   7  -7 17.1300 15.6600   1
  -4   7  -7 8.24000 12.5800   1
  -6   2  12 46.4600 18.8200   1
   6  -2 -12 -6.8200 11.3300   1
  -6   2  12 19.1200 15.7900   1
  -2   3  17 -10.700 15.6800   1
  -2   3  17 39.6800 14.7100   1
   0  -8  -1 45.2800 14.1100   1
   0  -8  -1 33.2300 15.9300   1
   0   8   1 18.7500 14.5500   1
  -5   7   0 1.39000 13.9700   1
  -5   7   0 18.5900 13.3900   1
  -4  -2  16 -16.880 16.9200   1
   4   2 -16 10.0700 13.2500   1
  -1   6 -14 26.8200 25.2200   1
   0  -8   5 34.4200 14.4800   1
  -1  -7  -6 34.2400 14.0200   1
   1   7   6 62.8000 16.0900   1
   1   7   6 43.1300 17.6400   1
  -1   4 -17 22.2100 15.2200   1
   4   0  14 29.1200 13.7500   1
  -4   0 -14 0.85000 14.8700   1
  -5   7   1 10.1100 12.4800   1
  -5   7   1 39.1900 17.1900   1
   5   3   7 50.8400 16.6400   1
  -5  -3  -7 24.1400 18.7200   1
   5  -4  11 12.2100 12.0200   1
  -5   4 -11 40.3900 17.7600   1
  -5   7  -1 1.34000 8.68000   1
  -5   7  -1 5.17000 14.2000   1
  -5   6   8 10.4700 16.7000   1
  -5   6   8 25.8800 12.4400   1
  -1   2  18 14.1400 17.1800   1
  -1   2  18 -1.4800 8.62000   1
   0   5 -16 -12.430 20.2800   1
   0  -5  16 13.1100 12.7300   1
   1   2  17 -8.0500 8.78000   1
  -1  -2 -17 -1.0000 14.0400   1
  -3   5 -14 0.36000 11.7900   1
   3  -5  14 9.92000 12.3500   1
  -5   1 -12 33.8800 16.3200   1
   5  -1  12 44.7900 15.5100   1
  -2   6  12 49.1800 16.8900   1
  -2   6  12 27.6400 12.1600   1
  -5   3  14 20.7100 18.6800   1
  -2   8  -6 51.4200 24.8400   1
   1   1 -19 1.09000 10.1700   1
  -1  -1  19 5.06000 12.8000   1
   3   3  13 -20.540 13.3300   1
   6   3   0 17.9100 15.3400   1
  -6  -3   0 25.3400 16.5900   1
  -3  -1  18 40.5600 17.9500   1
  -3  -1  18 56.4700 18.9200   1
   3   1 -18 68.2200 18.4600   1
  -3   8   2 57.8600 17.6900   1
  -3   8   2 35.9400 16.6400   1
  -7   1   7 16.3600 18.4700   1
   7  -1  -7 23.2500 17.0500   1
   4   0 -17 33.7800 16.8000   1
  -4   0  17 24.7800 15.9000   1
  -4   0  17 -6.8900 15.4800   1
   2   6   8 27.5900 15.5600   1
  -2  -6  -8 -11.840 16.0200   1
   2   6   8 2.42000 11.8400   1
   2   7   3 -17.670 12.3800   1
   2   7   3 8.99000 13.2600   1
  -2  -7  -3 -0.5800 14.8100   1
  -2  -7  -3 22.1500 19.3000   1
  -2  -5 -11 1.47000 16.0200   1
   2   5  11 -10.530 9.37000   1
   2   5  11 33.5700 16.0100   1
   1   6  10 33.3500 14.5700   1
   1   6  10 19.8400 15.0600   1
  -4  -3  15 60.4200 18.2500   1
   4   3 -15 22.8400 15.3800   1
  -4  -5  -5 -16.040 18.8300   1
   4   5   5 72.8000 16.7400   1
  -5   7   2 42.0800 13.7000   1
  -1   0  19 8.60000 9.74000   1
   1   0 -19 -0.4000 11.8100   1
  -1   0  19 13.2500 15.0900   1
   7  -3   2 27.2100 13.5400   1
  -7   3  -2 6.38000 18.9300   1
  -6  -3   6 15.3200 17.0800   1
   6   3  -6 -8.1800 11.5000   1
  -2   7   9 33.9000 14.2600   1
   1   3  16 10.6700 11.7400   1
  -7   2   7 -6.5800 16.9700   1
   7  -2  -7 10.1500 12.3200   1
  -7   2   7 2.94000 14.9400   1
  -2   2  18 14.3600 12.1700   1
  -2   2  18 6.18000 8.90000   1
  -5   7  -2 9.18000 12.3100   1
  -5   7  -2 -9.1100 13.5600   1
  -5   5  11 22.1900 17.0900   1
  -5   5  11 65.2900 20.4200   1
  -3  -6  10 10.7900 12.3700   1
   3   6 -10 25.9700 16.4700   1
  -3   1  18 27.1900 13.0700   1
  -3   1  18 33.1900 15.1900   1
   2   7  -8 54.8600 16.4000   1
   3   0  16 10.1500 15.0000   1
  -3   0 -16 -7.6500 16.1600   1
  -3   8  -4 23.9700 15.4500   1
  -3   8  -4 13.8400 16.1600   1
   7   0  -6 26.6600 12.1100   1
  -7   0   6 17.5800 14.0500   1
  -2   7 -11 -8.6400 18.0600   1
   2   2  16 12.8200 11.6100   1
   2   2  16 16.6700 13.0900   1
   0   7   8 -17.130 14.3500   1
   0   7   8 -16.920 12.1300   1
  -6   4  10 -6.5800 16.3500   1
   6  -4 -10 -3.4500 12.2700   1
  -6   6   1 2.58000 11.5100   1
  -6   6   1 -0.9900 18.1900   1
  -1   6  12 1.35000 12.6800   1
  -1   6  12 35.1600 11.7300   1
  -7   2  -3 48.1600 15.8600   1
   7  -2   3 26.5600 13.3900   1
  -7   0  -1 -15.670 14.1100   1
   7   0   1 40.8300 17.6000   1
  -6   0  -8 -14.440 17.6100   1
   6   0   8 2.57000 14.7300   1
  -6   6   0 -7.6300 12.1300   1
  -6   6   0 -5.5100 12.5600   1
  -5  -4  -4 7.65000 15.3600   1
   5   4   4 23.8800 17.3100   1
   2   5 -15 181.820 87.6200   1
  -2  -5  15 13.4900 13.2500   1
   3  -3  16 7.68000 12.1400   1
  -3   3 -16 1.36000 17.5400   1
  -4   1  17 31.3800 13.8400   1
  -3  -6  -5 31.8700 15.5200   1
   3   6   5 76.8400 18.8100   1
  -6  -2  10 8.38000 21.2400   1
   6   2 -10 2.10000 16.3400   1
   0   1 -19 13.1200 11.7900   1
  -4   7   7 57.4700 21.0900   1
   4  -7  -7 22.2500 15.2300   1
   0  -8  -2 33.4300 16.7800   1
   0  -8  -2 15.5900 14.9700   1
   0   8   2 22.7900 12.6100   1
   7  -3  -6 15.3300 13.7300   1
  -7   3   6 14.6700 17.2300   1
  -7   3   6 -3.7900 13.9000   1
  -6   6   2 23.4100 14.4100   1
  -6   6   2 -16.520 18.1700   1
   2  -8  -4 43.4900 13.8300   1
  -2   8   4 74.1100 16.9900   1
  -2   4  16 -11.640 12.2200   1
  -2   4  16 23.9500 18.3900   1
  -5   3 -12 -5.6700 11.9400   1
  -5  -2  14 55.5600 18.9900   1
   0  -8   6 11.0500 14.1200   1
   1  -8   7 2.56000 18.7100   1
  -1   7   9 9.19000 13.1400   1
  -1   7   9 49.0200 16.7000   1
  -1   4  16 41.0300 15.2500   1
  -1   3 -18 13.4400 15.3300   1
   6  -2   9 49.5900 16.2800   1
  -6   2  -9 44.2600 22.2200   1
  -5   2  15 -4.2500 14.6000   1
   5  -2 -15 11.5700 14.3500   1
  -6   6  -1 34.0300 17.2800   1
  -6   6  -1 9.65000 10.9200   1
  -5   7   3 -2.0600 14.0900   1
  -5   4  13 -2.1700 16.3200   1
  -3   5  14 11.8600 16.6300   1
  -3   5  14 13.4700 16.2600   1
  -4   5  13 26.9300 15.2300   1
  -4   5  13 35.1600 16.3400   1
  -5   5 -10 26.1900 14.8300   1
  -7   1  -3 -20.220 17.2100   1
   7  -1   3 20.3900 15.4900   1
  -7   1  -3 6.03000 13.2800   1
  -7   4   2 13.5700 18.2600   1
   1  -8  -4 18.8600 12.9800   1
  -1   8   4 -0.1600 12.4300   1
  -5   7  -3 -5.8900 12.6800   1
  -5   7  -3 31.5400 15.4400   1
  -7   4   1 25.7800 18.1800   1
  -5  -1  15 17.0800 12.8000   1
  -5  -1  15 -0.6700 14.5200   1
   5   1 -15 28.0400 18.0600   1
   6   3   1 12.8200 11.9000   1
  -6  -3  -1 0.39000 15.9100   1
   3  -8  -3 55.6400 18.4900   1
  -3   8   3 33.8200 15.4400   1
  -6   5  -6 0.95000 15.6700   1
   1   5 -16 -7.1100 11.4700   1
  -1  -5  16 14.4600 18.5500   1
   1   5 -16 45.9000 24.8000   1
  -6   6   3 -9.9000 17.9200   1
  -3   7 -10 10.7000 20.2800   1
   0   0 -19 -21.020 13.1800   1
   0   0  19 -0.6900 10.6000   1
  -1  -1 -18 13.5900 13.6200   1
   1   1  18 7.73000 12.1400   1
  -6   5   8 49.7700 19.7200   1
  -2  -1 -17 -4.8200 13.5800   1
   2   1  17 4.21000 10.8400   1
  -4  -1  17 13.4900 15.6900   1
   4   1 -17 38.0600 16.1400   1
   6   1   7 0.53000 10.5100   1
  -6  -1  -7 0.78000 14.3900   1
   3   5   9 2.08000 15.8200   1
  -3  -5  -9 25.7700 18.4300   1
  -6  -3   7 2.63000 11.5500   1
   6   3  -7 46.5000 14.2000   1
   2   3  15 0.12000 11.8400   1
  -2  -3 -15 6.36000 15.7600   1
   2   3  15 -0.8600 14.8300   1
  -2   0  19 25.1600 10.9000   1
  -2   0  19 11.5600 13.6700   1
  -7   4   3 36.0800 19.6200   1
  -7   4   3 45.9100 19.8100   1
  -5  -4  10 71.2500 20.1600   1
   5   4 -10 95.0400 23.8600   1
   1   6 -14 20.8000 16.9000   1
  -1  -6  14 2.23000 12.5900   1
   6   2   5 25.3400 14.2200   1
  -6  -2  -5 12.2000 14.5300   1
  -7   4   0 -6.9800 15.7800   1
   0   3  17 -2.8800 10.5300   1
  -1  -2  19 21.8400 15.6700   1
   1   2 -19 0.54000 13.5700   1
  -3   8  -5 82.5000 22.9500   1
  -6   1  -9 16.8300 16.9600   1
   6  -1   9 46.3500 16.9400   1
   7  -3   3 6.87000 12.3900   1
  -7   3  -3 18.9800 15.0400   1
   0   2  18 24.7600 15.3800   1
  -6   6  -2 55.2300 20.3800   1
  -6   6  -2 37.9000 14.9100   1
   2   1 -19 22.4900 17.2700   1
  -2  -1  19 8.03000 13.6700   1
  -5   6  -8 11.4600 15.6800   1
  -5   6  -8 13.9200 14.2600   1
   7   0  -7 53.6600 16.7600   1
  -7   0   7 -10.670 12.6700   1
  -6   4  -8 11.0600 12.3000   1
  -2   8  -7 118.250 58.2600   1
   3   3 -17 38.5700 14.2600   1
  -3  -3  17 50.9400 20.7100   1
  -4  -6   3 29.4700 16.9700   1
  -4  -6   3 -11.660 16.9400   1
   4   6  -3 -4.8800 11.7200   1
  -5  -1 -11 4.67000 16.1100   1
   5   1  11 -0.0600 14.2300   1
  -3   6  12 43.5400 18.1100   1
  -3   6  12 24.6700 17.5200   1
   4   3  11 32.5600 17.7300   1
  -4   3  16 2.97000 10.8600   1
  -4   3  16 20.1300 16.6400   1
   0   2 -19 2.00000 13.5100   1
   7  -1  -8 72.1000 19.6200   1
  -7   1   8 26.4000 16.2400   1
  -6  -1  12 3.21000 14.5900   1
  -6  -1  12 8.33000 14.2800   1
   6   1 -12 32.4300 17.0700   1
  -4  -5  11 -0.3600 13.9100   1
   4   5 -11 -4.6200 11.8000   1
  -7   0  -2 17.2600 13.2600   1
   7   0   2 37.6200 17.1400   1
   2   3 -18 21.8100 16.9100   1
  -2  -3  18 5.21000 10.1300   1
   2   3 -18 63.8800 16.5600   1
  -4  -6   2 63.0500 16.3600   1
   4   6  -2 64.4500 18.5700   1
  -4  -6   2 22.5400 20.7000   1
  -4   7  -8 41.6700 18.0500   1
  -4   7  -8 -3.6500 13.1900   1
  -4  -6   4 48.4500 17.9800   1
  -4  -6   4 30.5400 15.8300   1
   4   6  -4 20.0300 16.4500   1
  -1   7 -12 -25.340 24.3700   1
   0   5  14 40.6500 14.8500   1
   0   5  14 45.3600 16.5200   1
  -6   1  13 50.5700 17.2300   1
  -6   1  13 24.8800 14.2000   1
   6  -1 -13 45.1900 14.3000   1
   3  -7  -9 -4.9000 12.7600   1
  -3   7   9 20.2200 17.5600   1
   6  -3   9 28.8900 12.0900   1
   1   5  13 20.8900 12.1700   1
  -5   7   4 7.76000 16.8900   1
   1   7 -11 85.7900 21.7800   1
  -1  -7  11 140.220 65.4400   1
   2   7   4 30.5400 12.7400   1
  -2  -7  -4 20.5000 18.9700   1
   2   7   4 10.0700 13.2600   1
  -7   2   8 32.4700 17.8800   1
  -7   2   8 0.71000 15.4800   1
   7  -2  -8 13.7800 15.4900   1
  -3   3  17 29.3500 16.0500   1
  -3   3  17 23.9000 16.8800   1
  -7   4   4 18.3700 16.2900   1
  -7   4   4 31.3500 19.9700   1
  -4   6 -11 63.9800 19.7400   1
   0  -8  -3 15.3500 12.3900   1
   0  -8  -3 7.56000 13.4300   1
   0   8   3 47.0300 12.5700   1
  -4   6  11 72.1500 18.1300   1
  -4   6  11 69.1400 19.5100   1
  -1   1  19 -8.7300 11.2500   1
  -1   1  19 23.6900 18.1600   1
   7   1  -3 17.2700 15.7800   1
  -7  -1   3 12.9300 17.0300   1
  -5   0 -12 14.1900 16.7000   1
   5   0  12 1.37000 13.5100   1
  -6   6   4 53.5400 20.0800   1
  -2   6 -14 -1.3300 15.0100   1
  -7   3   7 -2.1800 15.8100   1
   7  -3  -7 -2.0200 14.1300   1
  -7   3   7 26.6400 19.2100   1
   2   6 -13 66.6000 21.3200   1
  -2  -6  13 93.9900 22.8800   1
   7   1  -2 64.6700 18.7600   1
  -7  -1   2 -9.8500 11.3300   1
  -2  -4  17 72.2100 22.2400   1
   2   4 -17 56.6300 16.0500   1
  -2  -4  17 44.1100 15.5700   1
   0  -8   7 35.4800 18.0500   1
  -7   2  -4 -10.460 18.3600   1
   7  -2   4 26.6800 13.2100   1
   6  -3 -12 30.3000 17.1700   1
  -6   3  12 48.7100 18.9800   1
   2   7  -9 37.6100 15.1500   1
  -2  -7   9 43.9000 19.0900   1
  -4  -6   1 44.6200 19.4700   1
   4   6  -1 28.0500 20.7100   1
  -5   7  -4 44.7000 14.3200   1
  -5   7  -4 18.1500 13.3800   1
   0  -7  12 37.8300 20.0400   1
   7   1  -4 19.6200 13.4600   1
  -7  -1   4 -9.2200 14.9200   1
   4   4   9 25.1200 12.3000   1
  -4  -4  -9 3.85000 17.7500   1
  -4   4 -14 -6.7500 15.1000   1
   4  -4  14 -10.770 12.2100   1
   4   6  -5 73.2900 20.8000   1
  -4  -6   5 28.4600 16.3900   1
  -4  -6   5 -2.5600 21.9400   1
  -5   6   9 37.5100 17.7900   1
  -5   6   9 -0.4600 11.7600   1
   1   7   7 56.3300 16.2800   1
   1   7   7 26.4700 10.6400   1
  -1  -8   2 33.1800 17.5200   1
  -1  -8   2 11.9700 15.9500   1
   3   2 -18 10.9800 18.6100   1
   3   2 -18 38.1100 17.8400   1
  -3  -2  18 -2.5200 15.5000   1
  -4   4  15 -29.580 18.8200   1
   4  -2  15 3.78000 11.9800   1
  -4   2 -15 28.5100 16.4200   1
  -1  -8   3 -13.140 14.2000   1
   1   8  -3 5.68000 12.6100   1
  -2   8   5 98.8500 27.4100   1
   2  -8  -5 84.9200 21.7700   1
  -3   8   4 74.7600 20.9300   1
   3  -8  -4 9.75000 15.8500   1
  -6  -3  -2 4.83000 11.6200   1
   6   3   2 -19.040 15.2800   1
   1   4  15 -1.1900 9.03000   1
   1   4  15 38.9400 14.6900   1
  -6   0  13 18.5000 15.6800   1
   7   1  -1 44.3000 14.2800   1
  -7  -1   1 28.7300 12.4700   1
   5   3 -13 15.3600 17.7900   1
  -6   6  -3 28.1400 14.1200   1
  -6   6  -3 31.1700 13.4200   1
   1  -8   8 40.4900 20.5800   1
  -2   1 -18 49.2000 17.8300   1
   1   8  -1 25.8300 14.7700   1
   1   8  -1 14.0400 11.8500   1
  -1  -8   1 32.3200 16.2200   1
  -1  -8   1 46.3800 19.3800   1
  -3  -5  14 17.6000 18.7000   1
   3   5 -14 0.19000 12.2400   1
   4   5   6 12.2800 11.3200   1
  -4  -5  -6 0.73000 16.8800   1
  -3   6 -13 14.6900 16.8600   1
  -5  -5   3 19.7600 13.6800   1
  -5  -5   3 -0.9200 13.2100   1
   4  -1  15 -11.320 14.0000   1
  -4   1 -15 35.7300 18.4900   1
  -4   2  17 13.8800 17.2100   1
  -4   2  17 11.3400 16.7300   1
   6   3  -8 -5.3300 16.4400   1
  -6  -3   8 4.49000 16.3800   1
  -4  -4  14 9.72000 18.8600   1
   4   4 -14 -31.010 12.0400   1
   5   4   5 30.3900 14.3200   1
  -5  -4  -5 -8.5100 17.0000   1
   3   6 -11 46.9900 16.6200   1
  -3  -6  11 29.8200 15.4900   1
   7   1  -5 20.4400 13.8400   1
  -7  -1   5 15.3000 17.8200   1
  -3   4  16 30.7800 16.4200   1
  -3   4  16 4.43000 10.8700   1
  -2   1  19 8.93000 11.7300   1
  -2   1  19 22.4100 13.1800   1
  -1  -8   4 11.6300 15.3300   1
  -1  -8   4 -8.2800 12.4800   1
   1   8  -4 6.03000 12.6300   1
  -5  -5   4 44.3600 15.2100   1
  -5  -5   4 -9.9200 17.0600   1
   5   5  -4 52.1500 15.0700   1
  -7   1  -4 4.40000 17.9100   1
   7  -1   4 4.66000 10.6000   1
  -7   1  -4 14.2900 13.9400   1
  -4   5 -13 17.6100 18.5700   1
   5   5  -2 -3.5700 14.0600   1
  -5  -5   2 -16.840 17.8900   1
  -5  -5   2 4.54000 11.7100   1
  -7   4   5 22.5000 20.2800   1
  -7   4   5 10.9700 14.5800   1
  -5  -3  -8 6.60000 16.3400   1
   5   3   8 10.3600 12.4600   1
  -6   2  13 19.2400 14.6000   1
  -3   8  -6 47.3900 23.7400   1
  -4  -6   0 40.0300 17.9500   1
   4   6   0 32.0100 21.5600   1
  -3   2  18 24.4400 15.4400   1
  -3   2  18 30.7100 15.1800   1
  -3  -4  16 -13.680 12.7600   1
   3   4 -16 8.81000 16.0500   1
  -2   2 -18 13.6500 18.2700   1
   1  -8  -5 -18.560 15.2400   1
  -1   8   5 10.4000 13.2500   1
  -4   7   8 59.2600 21.5700   1
  -7   4  -2 3.50000 12.6700   1
  -6  -2  11 -13.400 11.7000   1
   6   2 -11 -17.010 16.1600   1
  -5  -2 -10 -0.4400 11.5600   1
   5   2  10 -7.1200 16.6200   1
   3   6   6 39.3500 14.0100   1
  -3  -6  -6 30.5300 16.1600   1
  -4  -6   6 -32.020 15.6500   1
   4   6  -6 5.37000 11.8400   1
  -4  -6   6 15.1400 17.2100   1
  -7   0   8 -31.440 15.5700   1
   7   0  -8 0.09000 15.8300   1
   0   6  12 -1.9000 13.6800   1
   0   6  12 25.5400 13.1600   1
   0   4  16 2.22000 8.87000   1
   0   4  16 7.72000 11.4100   1
  -7   3  -4 -48.240 18.0200   1
   1   8   0 28.2900 17.0200   1
  -1  -8   0 30.0500 16.6400   1
  -1  -8   0 47.9300 16.4400   1
  -4  -1 -14 2.68000 15.9200   1
   4   1  14 -31.030 13.3100   1
  -6   6   5 55.5200 21.9100   1
  -7  -1   0 42.9600 15.1200   1
   7   1   0 110.430 73.8700   1
  -3  -2 -15 22.7000 24.2500   1
   3   2  15 9.21000 14.1600   1
   5   5  -5 34.4600 14.4400   1
  -5  -5   5 13.0000 18.5500   1
  -5   7   5 21.1700 18.8100   1
  -2   4 -17 -6.0700 11.8200   1
   6  -4 -11 1.68000 14.2200   1
  -6   4  11 31.2700 16.3700   1
  -7   0  -3 -7.5300 16.2500   1
   7   0   3 -9.9900 10.9800   1
   5   5  -1 10.6800 14.5800   1
  -5  -5   1 9.47000 16.2600   1
  -5  -5   1 13.8300 17.5700   1
  -4   8   0 43.4200 15.0900   1
  -4   8   0 26.4200 13.3800   1
   2   6   9 -1.2100 13.1200   1
   2   6   9 10.5900 10.6200   1
  -4   8  -1 66.0400 18.8400   1
  -4   8  -1 57.4700 20.1600   1
   0   4 -18 34.3500 21.2300   1
   0  -4  18 31.2200 14.9500   1
  -6   5  -7 22.8900 19.0200   1
   0  -6  15 -23.470 17.0900   1
   0   6 -15 -2.0500 21.0400   1
  -1   1 -19 -5.2700 16.3100   1
   2   2 -19 -3.8900 15.5100   1
  -2  -2  19 5.34000 16.8900   1
  -2  -2  19 7.19000 12.7600   1
  -2   7  10 127.850 85.6900   1
  -2   7  10 43.2400 16.7800   1
   0   1  19 13.0500 12.8000   1
   3   4  12 -19.860 18.0500   1
  -3  -4 -12 14.8300 38.2700   1
  -2   8  -8 -16.470 19.3900   1
   0   7   9 -9.7000 14.7100   1
   0   7   9 -31.200 10.0200   1
   5  -1 -16 -33.480 11.0500   1
  -5   1  16 14.3800 15.1300   1
   5   0 -16 4.31000 15.0000   1
  -5   0  16 19.0600 18.1500   1
  -5   0  16 17.5900 16.5200   1
  -5   4 -12 0.71000 11.5800   1
   3   1  16 2.36000 14.4900   1
  -3  -1 -16 19.0800 17.2300   1
   7  -1  -9 5.03000 10.8800   1
  -7   1   9 -1.6100 14.1500   1
  -7   1   9 2.41000 12.4500   1
  -7  -1   6 40.6900 15.5900   1
  -2   7 -12 23.8400 25.4600   1
  -3  -7   3 7.84000 15.1600   1
  -3  -7   3 -25.000 19.5400   1
   3   7  -3 18.9300 14.1500   1
  -5   7  -5 23.2800 13.3500   1
  -5   7  -5 17.2400 14.5800   1
  -4  -2 -13 50.0700 21.3800   1
   4   2  13 -8.4800 15.9200   1
  -2   5  15 7.20000 11.0200   1
  -5   5  12 30.7800 14.1600   1
  -5   5  12 17.7600 16.8000   1
   0  -8  -4 -4.2900 15.4000   1
   0   8   4 -16.460 9.21000   1
  -4   8   1 56.0600 19.2500   1
  -4   8  -2 7.68000 14.5000   1
   3   7  -2 96.6000 27.2800   1
  -3  -7   2 94.2500 28.5500   1
  -3  -7   2 31.4300 18.4100   1
  -5  -4  11 11.9900 16.7700   1
   5   4 -11 6.28000 15.4400   1
  -2   5 -16 65.5400 26.3100   1
  -5   2 -13 23.5300 15.5900   1
   5  -2  13 3.46000 11.9800   1
   6   0   9 3.70000 14.9600   1
  -6   0  -9 16.9200 15.0100   1
  -1   6 -15 -35.360 23.8600   1
   4  -3  15 0.62000 12.9000   1
  -4   3 -15 10.5800 13.4900   1
  -3  -7   4 36.3000 22.6900   1
   3   7  -4 -5.8500 21.9300   1
  -3  -7   4 2.69000 16.4500   1
   7  -3  -8 35.6500 17.3000   1
  -7   3   8 10.4400 17.2400   1
  -7   3   8 1.76000 13.9900   1
  -6   6  -4 5.48000 15.2600   1
  -6   6  -4 11.6600 17.1200   1
   0  -8   8 42.6800 21.8100   1
  -7   2   9 -19.630 15.9800   1
  -7   2   9 0.82000 17.4000   1
   7  -2  -9 -23.060 14.9900   1
   1   6  11 70.8500 20.9000   1
   1   6  11 14.0300 12.2900   1
   6   2   6 16.3800 13.0000   1
  -6  -2  -6 19.0600 13.9500   1
   3  -4  16 14.3800 13.1900   1
  -3   4 -16 -16.800 17.1300   1
  -4  -6  -1 13.7800 17.1500   1
  -4  -6  -1 2.95000 16.3800   1
  -2   6  13 59.6100 19.1300   1
  -2   6  13 56.9800 17.3900   1
   5   5  -6 66.1000 21.3100   1
  -5  -5   6 44.5800 15.3100   1
  -5  -5   6 35.8800 22.5000   1
  -1  -8  -1 60.8700 20.8700   1
  -1  -8  -1 58.5200 21.4200   1
   1   8   1 100.370 67.3900   1
   1   8   1 71.6400 20.8800   1
  -7   4   6 16.1500 16.9200   1
  -7   4   6 29.9700 20.8500   1
  -1   5  15 -1.3000 13.1800   1
  -1   5  15 13.2200 11.5600   1
   2   7   5 11.2900 11.0900   1
   2   7   5 24.3400 14.1500   1
   3  -2  17 36.8200 16.3200   1
   3  -1  17 15.5200 14.1700   1
  -3   1 -17 34.6200 19.4000   1
   5   5   0 19.3600 13.9100   1
  -5  -5   0 6.08000 15.3200   1
  -5  -5   0 11.2500 13.9500   1
  -1   2 -19 1.63000 11.3700   1
  -5   3  15 -15.000 11.9500   1
   3   7  -1 7.68000 11.4600   1
  -3  -7   1 41.8600 18.3500   1
  -3  -7   1 44.9700 16.2100   1
  -3   8   5 16.9200 19.1800   1
   3  -8  -5 14.1400 17.1200   1
   2   4  14 16.3000 15.1500   1
   2   4  14 16.1300 15.1700   1
  -1  -4  18 13.7800 18.7800   1
   1   4 -18 0.46000 15.4000   1
  -1  -4  18 0.70000 10.5200   1
  -4  -2  17 -0.1300 15.5500   1
  -1   7  10 24.2700 15.6700   1
  -1   7  10 25.5100 13.8500   1
  -6  -3  -3 9.25000 16.6400   1
   6   3   3 1.72000 10.8700   1
  -4  -6   7 -20.990 15.7500   1
   4   6  -7 -1.2900 16.3500   1
  -7   2  -5 -21.970 18.9400   1
   7  -2   5 20.9900 15.5800   1
   4   3 -16 33.3900 18.1700   1
  -4  -3  16 25.0000 13.8700   1
  -7  -1  -1 18.9300 16.0700   1
   2   5  12 2.90000 11.9000   1
   2   5  12 13.5000 16.1000   1
  -3   7 -11 36.4600 43.1700   1
  -3   5 -15 2.70000 15.2500   1
   5  -1  13 19.5500 17.9000   1
  -5   1 -13 41.4800 15.8800   1
  -5   6  -9 60.3800 20.8200   1
  -5   6  -9 14.9700 15.0400   1
  -4   8   2 62.2800 21.8900   1
  -6   2 -10 23.8400 17.7500   1
   6  -2  10 30.5900 15.9200   1
  -4   8  -3 10.9100 12.0100   1
  -4   8  -3 -1.2400 12.4300   1
  -4   7  -9 -10.270 11.7300   1
   3   7  -5 -10.460 13.6700   1
  -3  -7   5 8.13000 20.1700   1
  -2  -7  10 95.2900 28.1100   1
   2   7 -10 100.390 67.7500   1
  -6  -1  -8 37.9600 19.1600   1
   6   1   8 14.9700 13.0700   1
  -5   5 -11 -6.2400 15.9600   1
   0  -3  19 11.7600 13.7400   1
   0   3 -19 8.65000 14.9500   1
   6   3  -9 25.2300 18.0500   1
  -6  -3   9 43.2100 19.4200   1
   4   5 -12 34.5800 18.7300   1
  -4  -5  12 22.8500 21.9100   1
  -1  -8   6 -6.6100 18.5800   1
  -2   8   6 94.0200 25.5200   1
   2  -8  -6 20.9000 16.4500   1
   5   2 -15 -6.7900 15.3000   1
  -5  -2  15 -11.770 14.9700   1
   0   5 -17 -7.8200 19.8600   1
  -6   4  -9 77.0000 24.2900   1
  -1  -3  19 13.2000 13.9800   1
   4   0  15 17.4300 16.4700   1
  -4   0 -15 -4.7000 17.5000   1
  -1   6  13 15.1300 15.6700   1
  -1   6  13 16.5800 14.4800   1
  -3   8  -7 58.9300 23.5900   1
  -6   6   6 10.6400 17.9100   1
  -2  -5  16 1.08000 17.9300   1
   2   5 -16 -5.1900 17.0700   1
  -3   0  19 37.4600 16.6800   1
   3   3  14 -16.580 15.3100   1
  -3  -3 -14 -11.900 16.4900   1
  -1   8  -9 38.5400 27.4200   1
   1  -8   9 40.8800 21.2200   1
   7   1  -7 8.37000 16.6900   1
   6   1 -13 33.5900 16.4000   1
  -6  -1  13 11.4800 12.7300   1
  -5   4  14 -9.8700 15.7200   1
  -5   4  14 5.11000 17.5400   1
   3   7   0 44.9100 17.1800   1
  -3  -7   0 32.4100 14.6300   1
  -3  -7   0 70.3900 24.2200   1
  -1  -7  12 16.2700 19.6500   1
   5  -3  13 1.55000 13.9500   1
  -5   3 -13 1.51000 15.1000   1
  -1   4 -18 -2.8100 15.6200   1
  -1   3  18 10.0300 11.8900   1
   7  -1   5 4.39000 13.1200   1
  -5   7   6 8.13000 14.8600   1
  -7   0   9 -8.9200 15.6300   1
   7   0  -9 0.04000 13.8100   1
  -2   3 -18 40.6500 19.4800   1
  -3  -5 -10 16.6500 20.1000   1
   3   5  10 44.4100 17.4600   1
  -2   3  18 46.0800 17.7800   1
  -2   3  18 12.5300 10.7600   1
   3  -7 -10 7.35000 13.4900   1
  -3   7  10 -11.110 11.5100   1
  -4   5  14 32.2000 14.7800   1
  -4   5  14 -21.570 15.2100   1
   4   0 -18 23.2100 12.3800   1
   5   5  -7 33.7100 18.7700   1
  -5  -5   7 -26.800 13.6200   1
  -5   6  10 17.2000 14.2700   1
  -7   3  -5 0.93000 18.3100   1
   1  -8  -6 26.4400 17.0700   1
  -1   8   6 -5.2600 14.3300   1
   7   0   4 59.8000 20.5700   1
  -7   0  -4 29.0200 13.3700   1
   3   7  -6 20.5600 17.0200   1
  -3  -7   6 20.2600 16.9600   1
  -3  -7   6 2.48000 16.3900   1
   5   5   1 -1.9300 15.3200   1
  -5  -5  -1 15.3800 17.0100   1
  -5   2  16 54.5200 20.9600   1
  -1  -8  -2 14.5500 12.9600   1
  -1  -8  -2 -9.0100 20.6300   1
   1   8   2 15.2900 14.3900   1
  -4   8   3 10.1700 15.2700   1
  -5  -1  16 23.7200 17.9200   1
   5   1 -16 26.9300 18.5900   1
  -4   8  -4 10.5400 14.2600   1
  -1   7 -13 -10.570 19.6600   1
   1   7   8 -4.3800 14.4600   1
   1   7   8 1.78000 13.4300   1
   6  -3  10 16.5700 14.8100   1
  -6   3 -10 22.6000 20.7000   1
  -5  -4  -6 -4.5600 17.8000   1
   5   4   6 45.1200 17.2800   1
  -1  -6  15 -5.8900 16.1400   1
   1   6 -15 37.0500 17.4300   1
  -3  -1  19 30.9800 20.0900   1
  -3  -1  19 -15.340 14.3100   1
   4   6   2 10.7900 11.3700   1
  -4  -6  -2 -0.7700 13.3000   1
  -5   7  -6 -0.1700 10.3900   1
  -5   7  -6 31.4200 14.7400   1
  -3   5  15 -12.280 14.0500   1
  -3   5  15 3.57000 14.7100   1
  -6   6  -5 11.2800 14.8000   1
  -4  -5  -7 -16.640 17.4100   1
   4   5   7 10.8600 11.8200   1
   1   2  18 8.40000 14.4600   1
   1   2  18 16.0400 14.2300   1
  -1   5 -17 10.7700 18.5000   1
  -3  -6  12 65.5800 22.4400   1
  -4   6 -12 3.00000 16.6800   1
  -1   2  19 42.4800 15.4600   1
   0  -7  13 22.0000 21.7800   1
  -4   6  12 4.79000 12.2700   1
  -4   6  12 14.2400 14.2300   1
   7   1   2 3.74000 16.0700   1
  -7  -1  -2 18.3800 17.6600   1
  -2  -6  14 46.4100 21.0400   1
   2   6 -14 89.9700 25.9200   1
   6  -3 -13 30.8400 13.5600   1
  -6   3  13 -12.500 14.4400   1
  -7   4   7 14.7300 18.6000   1
  -4   1  18 38.7400 15.0500   1
  -4   1  18 11.2600 15.3400   1
  -4  -6   8 50.8400 19.7400   1
   4   6  -8 18.8800 18.0500   1
  -3   6  13 21.7300 19.0100   1
   1   3  17 -0.1600 10.8300   1
   1   3  17 0.15000 11.1300   1
   0  -8  -5 53.0400 19.9800   1
   0   8   5 8.55000 12.4700   1
  -4   7   9 30.4800 18.1400   1
  -1  -8   7 45.6000 19.6800   1
   6   2 -12 30.6100 16.3600   1
  -6  -2  12 -9.7800 16.7600   1
  -3   3 -17 -11.180 15.3300   1
   3  -3  17 -5.0900 11.8900   1
  -3   1  19 -22.360 10.6800   1
  -3   1  19 8.51000 10.9700   1
   1   5 -17 -3.6100 14.3200   1
   1   5 -17 -14.520 17.1300   1
  -1  -5  17 -9.5700 10.3100   1
  -3   0 -17 -15.370 15.0000   1
  -2   8  -9 25.2000 20.2000   1
  -7   5   1 16.7000 20.7900   1
  -7   5   1 9.30000 17.7400   1
   1   1 -20 19.0900 15.3400   1
  -1  -1  20 34.5800 24.3800   1
  -7   1  10 36.6800 14.7100   1
   7  -1 -10 46.1100 17.4300   1
  -5  -1 -12 17.3400 15.2300   1
   5   1  12 25.4100 17.3700   1
  -3  -7  -1 36.1300 19.3300   1
  -3  -7  -1 1.89000 16.4200   1
   3   7   1 39.7600 17.8100   1
  -7   4  -4 29.2700 14.1800   1
  -3  -6  -7 -3.3900 18.2700   1
   2   2  17 -1.8200 13.1800   1
  -2  -2 -17 -11.450 15.3200   1
  -2   4  17 -1.3700 15.0300   1
  -7   5   2 -3.2400 19.3100   1
  -7   5   2 46.7900 18.6200   1
   4   3  12 36.4000 21.4800   1
  -4  -3 -12 -8.2300 16.3200   1
   0  -8   9 30.3000 18.4500   1
  -7   3   9 31.8900 15.0600   1
  -2   2  19 -0.7500 14.0600   1
  -2   2  19 -27.270 10.5300   1
   5   3 -14 38.8800 17.7900   1
  -5  -3  14 16.1000 13.9000   1
  -4  -4 -10 19.5100 18.0200   1
   4   4  10 63.7400 22.3300   1
  -6   0  14 -5.2800 14.1600   1
   6   0 -14 52.6300 20.8900   1
  -6   0  14 -33.190 16.1500   1
  -6   5  -8 42.5200 17.3400   1
  -7   5   0 71.0500 20.9800   1
  -7   5   0 35.4600 14.8300   1
  -3   8   6 -3.5700 11.4800   1
  -1   0  20 -37.170 15.2900   1
  -1   4  17 14.2300 14.6600   1
   6   3   4 34.8200 15.9100   1
  -6  -3  -4 14.8300 15.6600   1
   4   1 -18 -9.8500 11.7400   1
  -4  -1  18 21.7400 19.7100   1
   7   1  -8 88.9800 26.4800   1
  -7  -1   8 47.6400 19.8800   1
  -7   2  10 -6.4400 18.3400   1
   7  -2 -10 10.8400 14.3000   1
  -6   5  10 28.9400 17.7700   1
  -7   5   3 19.7400 21.9300   1
  -5  -3  -9 2.46000 14.2400   1
   5   3   9 -1.9600 16.3900   1
  -2   6 -15 -17.410 20.7700   1
   3   7  -7 83.0100 24.9400   1
  -3  -5  15 -15.260 12.2000   1
   3   5 -15 10.8300 18.6500   1
   5   4 -12 11.2500 13.1500   1
  -5  -4  12 10.1000 12.2300   1
  -1   3 -19 -8.0800 11.2700   1
  -6   4  12 6.43000 12.3300   1
   3   3 -18 56.6100 17.9800   1
  -3  -3  18 14.5800 17.2800   1
   4   4 -15 18.0400 19.7800   1
  -4  -4  15 -4.0200 16.6100   1
   5   0  13 8.16000 14.3500   1
  -5   0 -13 43.1500 18.9300   1
  -4   8   4 1.51000 11.9700   1
   6   3 -10 71.5500 22.1900   1
  -6  -3  10 44.8600 15.9200   1
  -5  -5   8 -0.2300 15.5800   1
  -6   6   7 29.2400 16.6200   1
  -4   8  -5 3.34000 15.2700   1
   2   7   6 -1.4100 13.7400   1
   2   7   6 29.1600 16.8700   1
  -2  -7  -6 26.6900 17.8900   1
  -4   3  17 -5.8800 13.3600   1
  -7   2  -6 43.4000 21.1400   1
   7  -2   6 36.9700 14.9000   1
   6  -2 -14 30.6000 16.0100   1
  -6   2  14 -7.6600 16.8000   1
   0   1 -20 9.30000 16.0200   1
   1   5  14 13.3000 14.0400   1
   1   5  14 7.62000 9.81000   1
   2   3  16 51.4500 19.1300   1
   2   3  16 16.2500 13.8200   1
  -5  -5  -2 33.5100 17.3600   1
   5   5   2 -9.1700 13.0800   1
  -7   5  -1 43.0800 19.0300   1
  -7   5  -1 80.7700 23.9300   1
   0   5  15 9.04000 12.2500   1
   0   5  15 -3.4000 12.9800   1
  -3   8  -8 11.9300 16.9300   1
  -3   6 -14 19.3900 15.8100   1
   1   8   3 -3.7100 13.7500   1
   1   8   3 3.62000 9.17000   1
  -1  -8  -3 15.0200 16.2200   1
  -1  -8  -3 43.6100 19.0400   1
   6   2   7 19.4500 16.2300   1
  -6  -4   3 28.5100 13.4800   1
  -6  -4   3 11.1300 15.9500   1
   2   7 -11 46.5100 18.0500   1
  -2  -7  11 55.3000 20.7100   1
  -7   5   4 -12.360 19.8300   1
  -7   5   4 2.80000 16.0600   1
   2  -8  -7 14.9900 12.7700   1
  -2   8   7 -2.0600 10.9000   1
  -6  -4   4 15.1900 12.0900   1
   6   4  -4 7.56000 15.7300   1
  -6  -4   4 19.7900 18.4700   1
  -4   4 -15 -18.710 15.4100   1
   4  -4  15 9.09000 12.7400   1
  -5   7   7 6.34000 12.4400   1
   2   1  18 -5.2500 15.0900   1
   6   4  -2 -0.8500 14.2800   1
  -6  -4   2 -4.1500 11.6500   1
   2   6  10 -16.710 13.3000   1
   2   6  10 -9.4700 13.3800   1
  -2   7  11 -0.5000 12.2200   1
  -2  -3  19 8.95000 11.5400   1
   2   3 -19 32.7800 19.4500   1
   5   2  11 7.54000 12.9200   1
  -5  -2 -11 12.1500 18.3800   1
   0   7  10 28.8700 12.3700   1
   0   7  10 32.6200 17.0000   1
  -4  -6  -3 23.6100 20.5700   1
   4   6   3 15.8900 15.9400   1
   2   4 -18 -11.280 15.3200   1
  -2  -4  18 -4.0500 13.0200   1
   2   4 -18 17.1100 15.2200   1
  -4   4  16 -14.330 14.9700   1
  -4   4  16 11.4900 16.8600   1
   0   3  18 5.85000 12.7200   1
  -4   5 -14 32.0500 17.1300   1
   7   0 -10 -0.7400 13.9500   1
   1   1  19 2.44000 10.5700   1
  -1  -1 -19 14.3600 14.8000   1
  -2   0  20 -5.8600 10.7400   1
   7   2  -3 29.1000 16.8200   1
  -7  -2   3 19.0000 17.2500   1
  -3  -7  -2 14.6200 12.8500   1
  -3  -7  -2 25.6600 17.8900   1
   3   7   2 52.6700 19.6000   1
  -2   7 -13 15.0100 24.8700   1
  -1   8 -10 34.8600 28.3000   1
  -4   7 -10 -0.3700 17.2500   1
  -7  -1  -3 1.60000 14.0600   1
   1   2 -20 2.73000 13.5000   1
  -1  -2  20 16.8100 14.9600   1
   0   0  20 8.87000 12.3700   1
  -3   3  18 22.1200 15.3800   1
  -3   3  18 17.9300 16.0800   1
   7   2  -4 91.2600 27.9500   1
  -7  -2   4 35.1900 19.1300   1
  -6  -4   5 56.0800 17.9900   1
   6   4  -5 65.9500 21.9500   1
  -6  -4   5 35.5300 18.7200   1
  -4  -6   9 -14.580 15.8500   1
   4   6  -9 -21.230 21.8900   1
   7   2  -2 3.70000 12.1700   1
  -7  -2   2 43.7800 17.9500   1
   7   0   5 48.0600 16.0200   1
  -7   0  -5 -2.1700 11.9800   1
  -5   5  13 -5.6800 17.2900   1
   7  -1   6 11.3000 14.7400   1
  -7   1  -6 15.5900 16.4800   1
  -1  -8   8 104.360 30.3900   1
  -5   6 -10 5.04000 11.7800   1
  -6   6  -6 -12.160 11.1700   1
  -6   0 -10 17.9200 18.8700   1
   6   0  10 25.0400 12.4900   1
  -3  -4  17 34.8100 15.5500   1
   3   4 -17 -18.320 12.6500   1
   0   2  19 20.1800 9.95000   1
  -5   7  -7 32.9600 15.3300   1
  -5   7  -7 18.6800 14.3300   1
  -7   4   8 12.6500 20.7200   1
   0   6  13 -11.130 9.71000   1
   0   6  13 -17.820 12.6400   1
   4   5 -13 -2.3100 12.1600   1
  -7   5  -2 80.1700 23.1500   1
   6   4  -1 22.7500 16.8800   1
  -6  -4   1 29.8200 16.5300   1
  -6  -4   1 12.5100 19.3500   1
   4  -2  16 5.70000 12.4900   1
   0   2 -20 1.00000 13.3700   1
  -3   7 -12 64.3400 24.1300   1
  -1   8   7 3.09000 12.9800   1
   1  -8  -7 -4.3600 16.6500   1
  -3  -2  19 5.04000 18.4400   1
   3   2 -19 25.3300 17.3900   1
  -3  -2  19 3.91000 11.6700   1
   1   4  16 -2.7100 10.3500   1
  -7   4  -5 8.67000 13.4500   1
   6   1   9 -16.580 16.0800   1
  -6  -1  -9 -7.6800 14.9900   1
  -7  -2   5 13.5900 15.2400   1
   7   2  -5 29.5500 18.1500   1
   0  -6  16 46.8600 20.9500   1
   0   6 -16 64.1300 27.2900   1
  -3  -7   8 39.0700 19.4400   1
   3   7  -8 50.0100 18.6600   1
  -1   7  11 48.9500 18.9300   1
  -1   7  11 48.1300 17.5600   1
  -7  -2   1 5.03000 16.5600   1
   7   2  -1 14.0300 15.2500   1
  -4   2  18 2.05000 14.3900   1
  -4   2  18 49.7500 18.3200   1
  -3   4  17 4.15000 13.7600   1
  -3   4  17 7.24000 14.5100   1
   4  -1  16 17.1600 13.1900   1
  -4   1 -16 25.5700 13.9100   1
  -7   5   5 6.51000 18.0800   1
  -6   4 -10 -3.7000 16.2000   1
  -7  -1   9 55.2000 20.8600   1
   0  -8  -6 52.3900 21.0100   1
  -4   8   5 2.22000 17.0000   1
  -1   1  20 9.14000 11.1600   1
  -1   1  20 32.9600 18.4800   1
   6   4  -6 19.4600 15.9300   1
  -6  -4   6 32.5000 14.2200   1
   1   6  12 21.0300 12.6500   1
   1   6  12 25.0500 14.6600   1
  -4   8  -6 5.52000 16.5900   1
   3   4  13 49.1000 19.9900   1
  -3  -4 -13 6.03000 16.6900   1
   1   7 -13 47.3600 21.3500   1
  -1  -7  13 6.93000 16.7600   1
   6  -2  11 14.5600 15.9000   1
  -6   2 -11 58.4100 22.5000   1
   5   0 -17 15.4200 12.4800   1
  -5   5 -12 5.35000 12.4700   1
  -5  -5   9 -13.320 13.7700   1
   5   5  -9 -22.360 11.9700   1
   5  -1 -17 -24.590 14.0900   1
  -5   1  17 -2.0100 15.7900   1
  -5  -4  -7 15.9700 18.4500   1
   5   4   7 35.0700 17.9900   1
   4   1  15 10.1100 15.0000   1
  -4  -1 -15 -13.890 18.3500   1
   6   1 -14 13.3200 17.1400   1
  -6  -1  14 16.1100 12.5400   1
  -6  -1  14 -2.7000 14.2000   1
  -1   6 -16 14.0000 24.2100   1
  -5   6  11 -10.050 13.4900   1
  -5   6  11 20.0900 15.8400   1
   7  -3 -10 32.9100 16.3200   1
  -7   3  10 35.4400 15.6000   1
   5   5   3 -5.5800 14.9000   1
  -5  -5  -3 24.5600 19.6900   1
   6   4   0 37.8200 16.7900   1
  -6  -4   0 8.60000 17.3900   1
  -5   2 -14 -13.460 15.3600   1
   5  -2  14 3.44000 10.6200   1
  -7   1  11 -12.360 14.7600   1
  -7   1  11 11.3100 18.9300   1
   7  -1 -11 32.7700 15.8300   1
   3  -8  -7 15.9700 15.8500   1
  -3   8   7 -14.930 14.2900   1
  -2   8 -10 13.8000 24.5000   1
  -4  -2 -14 10.5000 19.3600   1
   4   2  14 1.32000 14.2800   1
   6   3   5 -1.9500 15.7300   1
  -6  -3  -5 -17.310 11.6800   1
  -2   6  14 18.4300 15.1900   1
  -2   6  14 43.1800 17.1900   1
   3  -7 -11 -7.1300 13.4100   1
  -3   7  11 2.22000 14.3600   1
  -3   2  19 12.4200 14.1000   1
  -3   2  19 10.5100 13.1000   1
  -2   1 -19 1.96000 17.3400   1
   1   8   4 -3.3000 12.9700   1
   1   8   4 4.57000 10.3600   1
  -7  -2   6 29.8400 17.4900   1
  -3  -2 -16 -0.6400 17.7700   1
   3   2  16 17.3300 11.5100   1
   1   7   9 6.34000 10.5800   1
   0   4  17 19.1600 14.5600   1
   0   4  17 2.83000 12.5700   1
  -5   3  16 -18.590 15.3100   1
  -6   6   8 5.80000 12.6200   1
  -5  -2  16 28.3600 14.0600   1
   5   2 -16 -48.780 18.0000   1
  -7  -2   0 9.04000 16.8700   1
   7   2   0 20.5800 17.0400   1
   3   6 -13 29.2400 18.7000   1
  -3  -6  13 53.0700 19.9100   1
  -2   4 -18 -20.520 14.7700   1
   4   5   8 5.77000 14.1600   1
  -4  -5  -8 -41.940 20.0900   1
  -4  -3  17 22.0300 19.1700   1
   4   3 -17 -37.070 18.3500   1
  -2   1  20 7.60000 12.2400   1
  -2   1  20 25.9200 13.1100   1
   2   8  -3 24.0500 14.7200   1
  -2  -8   3 -27.690 15.2300   1
  -2  -8   3 14.8600 18.3900   1
  -2   5 -17 28.7000 19.9000   1
  -7   5  -3 14.2900 17.1700   1
   2   5  13 -27.270 15.5300   1
   2   5  13 13.2800 18.1900   1
   2   8  -2 -11.220 15.4900   1
  -4   7  10 0.49000 16.5500   1
  -2   2 -19 -3.8500 15.2500   1
  -6  -2  13 -5.6800 14.7500   1
   6   2 -13 13.2400 15.0000   1
  -3  -7  -3 49.6100 21.4500   1
   3   7   3 68.9700 21.1800   1
  -3  -7  -3 5.89000 15.8800   1
  -6  -3  11 67.2300 20.5000   1
   6   3 -11 76.5900 22.3500   1
  -7   2  11 35.6000 21.6100   1
   0   4 -19 36.9600 16.5000   1
   0  -4  19 -7.0400 13.4200   1
  -4   3 -16 -2.5900 13.0300   1
   4  -3  16 17.4700 12.2900   1
  -6   1 -11 -10.250 16.1400   1
   6  -1  11 14.6400 11.3800   1
  -6   7   0 2.24000 17.5200   1
   3   5  11 42.3800 16.1700   1
  -2  -8   4 2.05000 15.2100   1
  -2  -8   4 10.0400 18.9900   1
   2   8  -4 14.7200 14.4600   1
  -5   1 -14 21.0600 16.8100   1
   5  -1  14 18.0200 16.1800   1
   4   2 -18 21.7300 16.1400   1
   3   6   8 28.6500 12.7900   1
  -3  -6  -8 3.43000 21.5100   1
   6  -3  11 27.3500 15.0400   1
  -6   3 -11 -14.920 14.7300   1
  -6   5  -9 11.5300 17.8900   1
  -1   7 -14 37.6700 25.7800   1
  -4  -6  -4 13.4700 21.0700   1
   4   6   4 4.23000 11.7500   1
  -3   5 -16 -16.030 17.4800   1
  -5   4  15 49.6200 19.8100   1
  -5   4  15 9.84000 15.1000   1
  -3   8  -9 -44.610 19.7500   1
  -6  -4   7 -4.5000 16.4100   1
   6   4  -7 15.5300 12.8400   1
  -3   4 -17 17.4400 13.1900   1
   3  -4  17 10.1200 14.8700   1
   2   8  -1 5.76000 15.6900   1
  -2  -8   1 25.4700 14.4100   1
  -2  -8   1 -0.9700 12.7100   1
  -2  -2  20 -23.950 12.7500   1
   2   2 -20 -2.7500 16.9100   1
  -1   5  16 28.0700 13.8200   1
  -1   5  16 35.3800 17.8400   1
   2   4  15 -16.150 14.9400   1
  -1   6  14 22.7900 15.5200   1
  -7  -1  -4 4.07000 14.0800   1
   7   1   4 17.3600 14.4700   1
  -7   5   6 39.8300 17.1900   1
  -6   5  11 7.28000 15.1100   1
  -6   7  -1 1.53000 11.4900   1
  -7   2  -7 25.7100 19.4000   1
  -5   7   8 -10.760 11.7400   1
  -6   7   2 25.4400 18.3600   1
   0   7 -14 93.9500 38.8600   1
   0  -7  14 40.3900 16.6800   1
   2   5 -17 -39.570 17.0800   1
  -2  -5  17 15.0300 13.5500   1
  -1  -8   9 61.0000 22.3500   1
   2   7   7 10.6600 11.8100   1
   2   7   7 30.1200 20.4500   1
  -6   3  14 8.03000 12.9000   1
   6  -3 -14 -15.670 15.2800   1
   4   6 -10 6.28000 12.5500   1
  -4  -6  10 27.1100 15.7100   1
  -2  -6  15 28.1500 17.6300   1
  -4   6 -13 6.56000 15.7000   1
  -5   3 -14 -13.690 15.6600   1
  -4   5  15 24.6800 12.3600   1
  -4   5  15 34.6600 17.8400   1
   1   4 -19 -42.130 18.3100   1
  -1  -4  19 32.1300 14.5600   1
  -5  -4  13 -1.4300 11.6100   1
  -4   6  13 16.8000 13.9800   1
   6   4   1 120.830 33.1500   1
  -6  -4  -1 47.3500 16.8500   1
   2   8  -5 26.4000 14.7400   1
  -2  -8   5 51.5700 20.1800   1
  -2  -8   5 -22.270 15.8100   1
  -1  -6  16 8.12000 19.0300   1
  -3  -7   9 32.8500 18.7700   1
   3   7  -9 4.44000 11.6900   1
  -7   0  11 1.48000 22.9300   1
  -7   4   9 -10.840 13.2000   1
   0   5 -18 -6.0700 22.2800   1
   0   1  20 -2.9300 10.0300   1
  -2   8   8 8.31000 12.4500   1
  -5  -3  15 21.3800 15.7900   1
   5   3 -15 15.2800 13.2100   1
  -6   6  -7 17.2200 14.4600   1
  -6   6  -7 12.2800 13.4000   1
  -2  -7  12 14.0000 17.0500   1
   2   7 -12 12.6900 18.9100   1
  -3   2 -18 -13.750 15.5400   1
   3  -2  18 4.96000 10.1700   1
   7   2   1 -3.2500 11.7200   1
  -7  -2  -1 24.0300 12.9700   1
  -5  -1  17 -16.770 17.4000   1
   5   1 -17 93.6800 27.9000   1
  -2   9  -1 82.8000 28.7600   1
  -2   9  -1 65.3300 18.7100   1
  -2   9  -2 20.4000 28.1900   1
  -3   1 -18 38.5700 20.1600   1
   3  -1  18 2.41000 12.5500   1
   2   8   0 22.1400 14.4800   1
  -2  -8   0 -26.960 15.9300   1
  -2  -8   0 -11.440 17.3500   1
   3   3  15 17.3200 14.2200   1
  -6   7  -2 5.31000 12.3800   1
  -6   7  -2 -48.920 17.1100   1
   6   0 -15 43.3400 20.1300   1
  -6   0  15 10.2000 17.3500   1
  -6   0  15 17.7600 15.4000   1
  -6   7   3 2.70000 17.3200   1
  -7   0  -6 -1.0100 15.6000   1
   4   0  16 41.2100 18.6400   1
  -4   8   6 14.1400 12.6000   1
  -4   8  -7 40.6600 18.1800   1
   1  -9   2 3.79000 16.0100   1
  -7   4  -6 9.81000 13.6700   1
  -5   2  17 28.9200 14.1000   1
  -6  -2  -8 19.8700 21.6500   1
   6   2   8 15.2700 16.2700   1
  -1   8 -11 124.250 40.9800   1
  -6   4  13 8.58000 13.3600   1
  -4  -4 -11 -17.700 18.1900   1
   4   4  11 -13.280 14.8300   1
  -7   3  -7 -18.460 15.8400   1
   1  -9   1 33.1900 17.6700   1
   1  -9   1 0.58000 13.8300   1
  -1   9  -1 33.2200 15.2000   1
   5   3  10 -11.010 11.9300   1
  -5  -3 -10 19.1600 14.9100   1
  -7  -1  10 7.20000 13.8600   1
   7   1 -10 66.0300 21.8600   1
  -2   9   0 180.740 49.4300   1
  -2   9   0 -1.1900 12.8700   1
  -5   8   0 32.5900 16.3900   1
  -7   1  -7 -22.780 12.6800   1
  -2   9  -3 -18.430 19.4700   1
   1  -9   3 -0.6300 16.3000   1
  -5  -5  10 5.68000 14.2100   1
   5   5 -10 -24.270 15.0400   1
  -5   8  -1 127.680 34.8500   1
  -7   5  -4 20.6900 16.4100   1
   0   3 -20 12.1400 16.0800   1
  -5   8   1 4.33000 11.7200   1
  -3   5  16 27.7300 13.4200   1
  -3   5  16 27.0100 13.3400   1
  -1  -3  20 6.84000 12.3500   1
   1   3 -20 -3.5400 17.4200   1
  -4   0  19 64.9200 28.3400   1
   5   1  13 22.3000 15.3200   1
  -5  -1 -13 24.6300 15.0000   1
   5   5   4 -3.4000 13.2000   1
  -5  -5  -4 13.0200 18.4300   1
   2   8  -6 26.5500 15.0600   1
  -2  -8   6 35.7400 18.0900   1
  -4   7 -11 -3.9300 17.4900   1
   6   4  -8 20.8500 13.0200   1
  -6  -4   8 39.7700 17.2800   1
  -3   0  20 10.9800 15.9500   1
  -1   9   0 25.2500 13.0500   1
   1  -9   0 34.7900 21.1200   1
  -4  -3 -13 -17.740 16.4000   1
  -1   4 -19 34.6100 17.4300   1
  -1   8   8 -5.8400 10.6100   1
   1  -8  -8 6.66000 17.6100   1
  -3  -5  16 55.0200 22.8500   1
   3   5 -16 25.4100 18.2100   1
  -6   2  15 -16.420 11.7700   1
   6  -2 -15 58.8100 21.7700   1
  -4  -4  16 32.5500 19.0200   1
   4   4 -16 14.8100 18.6700   1
  -1   0 -20 26.2600 17.0900   1
  -5   8  -2 47.9100 17.3100   1
  -5   8  -2 73.3000 23.4500   1
   0   8   7 5.58000 10.5500   1
   0  -8  -7 -9.0200 17.4600   1
   1  -9   4 31.0100 18.2200   1
  -1  -8  -5 0.42000 17.0100   1
  -1   5 -18 36.9200 19.7600   1
   2  -9  -1 40.9100 19.5400   1
  -2   9   1 31.1800 14.3700   1
  -2   3 -19 4.87000 17.3600   1
   1   5 -18 34.7200 25.1700   1
  -1  -5  18 13.8600 13.3700   1
  -2   3  19 31.2600 13.8500   1
  -2   3  19 3.46000 12.0100   1
  -2   9  -4 -21.870 21.6600   1
  -6   7  -3 23.2900 15.8200   1
  -6   7  -3 -1.0100 14.8500   1
  -5   6 -11 -8.2700 14.4100   1
  -1   3  19 19.6000 13.2600   1
   2   8   1 49.9000 17.8000   1
   2   8   1 29.5100 17.1700   1
  -2  -8  -1 51.0000 18.2100   1
  -5   8   2 12.8600 16.5200   1
   3   7   4 17.1400 13.3900   1
   0   7  11 24.0900 14.6000   1
   0   7  11 19.5700 12.9900   1
   4   5 -14 1.54000 15.2100   1
  -4  -5  14 22.6900 17.9100   1
  -2   7  12 -12.130 12.1600   1
   0  -8  11 9.46000 21.2200   1
  -6  -4  -2 -35.580 17.0100   1
   2   6  11 14.3900 11.7800   1
  -3   8   8 -21.320 16.5700   1
   3  -8  -8 13.0900 15.8000   1
  -4   1  19 5.42000 11.9400   1
  -7   3  11 10.7400 17.2800   1
   7  -3 -11 -43.650 16.0600   1
  -3  -1  20 5.18000 14.6600   1
   7   2  -8 4.63000 16.9900   1
  -7  -2   8 13.5900 18.0100   1
  -6   6   9 154.250 40.0400   1
  -6  -3  -6 27.0600 13.4200   1
   7   2   2 -3.2200 16.2300   1
   1  -9  -1 58.0000 19.6300   1
  -1   9   1 59.3900 18.6600   1
  -7   1  12 -25.720 16.8400   1
  -7   1  12 -14.430 11.8900   1
   7  -1 -12 -2.7900 14.2800   1
   5   0  14 4.22000 11.4700   1
  -5   0 -14 0.25000 13.3300   1
  -2   8 -11 -1.3300 28.1100   1
  -3   3 -18 -13.150 12.5500   1
   3  -3  18 -4.9800 14.2500   1
  -5  -2 -12 -24.510 14.5900   1
   6   0  11 26.1000 17.0300   1
   4   6   5 18.1600 13.9300   1
  -4  -6  -5 51.1500 24.4900   1
  -5   8  -3 45.8000 15.4600   1
  -5   8  -3 7.94000 16.5700   1
  -5   5  14 18.1400 13.4000   1
  -5   5  14 35.7000 16.1800   1
  -2   4  18 -8.5400 9.54000   1
  -2   4  18 5.45000 12.5500   1
  -5  -4  -8 4.97000 18.2000   1
   7   1   5 7.03000 16.6400   1
   1   3  18 5.99000 11.7600   1
   1  -9   5 22.3900 19.8700   1
   2   8  -7 9.31000 14.7400   1
   3   7 -10 42.3200 19.2000   1
  -5   6  12 -1.8100 13.8000   1
;
_shelx_hkl_checksum              37905
_olex2_date_sample_data_collection 22/12/2013
_olex2_submission_original_sample_id '2013lhb042, lhb3_024_01'
_olex2_submission_special_instructions 'No special instructions were received'
loop_
_space_group_symop_operation_xyz
'x, y, z'
'-x, -y, -z'
loop_
_atom_site_label
_atom_site_type_symbol
_atom_site_fract_x
_atom_site_fract_y
_atom_site_fract_z
_atom_site_U_iso_or_equiv
_atom_site_adp_type
_atom_site_occupancy
_atom_site_site_symmetry_order
_atom_site_calc_flag
_atom_site_refinement_flags_posn
_atom_site_refinement_flags_adp
_atom_site_refinement_flags_occupancy
_atom_site_disorder_assembly
_atom_site_disorder_group
Sr1 Sr 0.10506(19) 0.24496(14) 0.44448(8) 0.0312(4) Uani 1 1 d . . . . .
F3 F 0.3329(11) 0.7618(9) 0.0649(4) 0.0473(19) Uani 1 1 d . . . . .
F4 F 0.6606(11) 0.9025(9) 0.1930(4) 0.0432(18) Uani 1 1 d . . . . .
F2 F -0.0901(11) 0.6084(9) 0.0947(4) 0.0450(18) Uani 1 1 d . . . . .
F1 F -0.1783(10) 0.5837(8) 0.2543(4) 0.0397(17) Uani 1 1 d . . . . .
O2 O 0.1580(12) 0.9045(9) 0.4374(5) 0.0320(19) Uani 1 1 d . . . . .
O3 O 0.7092(12) 1.0736(9) 0.3677(5) 0.0316(18) Uani 1 1 d . . . . .
O4 O 0.6448(13) 0.7787(10) 0.4160(5) 0.0354(19) Uani 1 1 d . . . . .
O1S1 O 0.1238(15) 0.2194(11) 0.2817(6) 0.046(2) Uani 1 1 d . . . . .
O1 O 0.0513(13) 0.5810(9) 0.4226(5) 0.0336(19) Uani 1 1 d . . . . .
O1W O 0.5069(14) 0.3822(10) 0.4205(6) 0.044(2) Uani 1 1 d . . . . .
H1WA H 0.5592 0.2912 0.3944 0.066 Uiso 1 1 d GR . . . .
H1WB H 0.5906 0.4223 0.4689 0.066 Uiso 1 1 d GR . . . .
N1S1 N 0.2408(17) 0.2370(13) 0.1520(7) 0.038(2) Uani 1 1 d . . . . .
C5 C 0.291(2) 0.7559(15) 0.1452(8) 0.033(3) Uani 1 1 d . . . . .
C2 C 0.196(2) 0.7390(14) 0.3095(8) 0.033(3) Uani 1 1 d . . . . .
C7 C 0.4164(19) 0.8230(13) 0.2928(8) 0.032(3) Uani 1 1 d . . . . .
C6 C 0.4554(19) 0.8287(15) 0.2119(8) 0.032(3) Uani 1 1 d . . . . .
C3 C 0.0340(19) 0.6635(14) 0.2421(8) 0.031(3) Uani 1 1 d . . . . .
C4 C 0.074(2) 0.6759(14) 0.1602(8) 0.034(3) Uani 1 1 d . . . . .
C2S1 C 0.021(2) 0.1709(18) 0.1058(9) 0.047(3) Uani 1 1 d . . . . .
H2SA H 0.0069 0.0388 0.0787 0.070 Uiso 1 1 calc GR . . . .
H2SB H -0.0027 0.2586 0.0630 0.070 Uiso 1 1 calc GR . . . .
H2SC H -0.0915 0.1701 0.1441 0.070 Uiso 1 1 calc GR . . . .
C1S1 C 0.274(2) 0.2542(15) 0.2338(8) 0.043(3) Uani 1 1 d . . . . .
H1SA H 0.3813 0.1714 0.2493 0.051 Uiso 1 1 calc R . . . .
H1SB H 0.3546 0.3905 0.2512 0.051 Uiso 1 1 calc R . . . .
C3S1 C 0.426(2) 0.277(2) 0.1044(10) 0.053(4) Uani 1 1 d . . . . .
H3SA H 0.5641 0.3320 0.1426 0.079 Uiso 1 1 calc GR . . . .
H3SB H 0.3981 0.3709 0.0647 0.079 Uiso 1 1 calc GR . . . .
H3SC H 0.4404 0.1562 0.0735 0.079 Uiso 1 1 calc GR . . . .
C1 C 0.1349(17) 0.7380(14) 0.3965(8) 0.030(3) Uani 1 1 d . . . . .
C8 C 0.6064(19) 0.8980(13) 0.3661(8) 0.032(3) Uani 1 1 d . . . . .
loop_
_atom_site_aniso_label
_atom_site_aniso_U_11
_atom_site_aniso_U_22
_atom_site_aniso_U_33
_atom_site_aniso_U_23
_atom_site_aniso_U_13
_atom_site_aniso_U_12
Sr1 0.0308(6) 0.0149(4) 0.0485(7) 0.0059(4) 0.0127(5) 0.0012(4)
F3 0.044(4) 0.043(4) 0.054(5) 0.010(4) 0.017(4) -0.001(3)
F4 0.029(4) 0.040(4) 0.062(5) 0.015(4) 0.019(3) 0.002(3)
F2 0.041(4) 0.040(4) 0.048(4) 0.009(3) 0.007(4) -0.007(3)
F1 0.027(4) 0.030(3) 0.060(5) 0.003(3) 0.014(3) -0.004(3)
O2 0.024(4) 0.019(3) 0.055(5) 0.004(4) 0.012(4) 0.004(3)
O3 0.036(5) 0.020(3) 0.038(5) 0.005(3) 0.012(4) -0.003(3)
O4 0.033(4) 0.017(3) 0.054(5) 0.010(4) 0.006(4) -0.002(3)
O1S1 0.050(6) 0.029(4) 0.061(6) 0.003(4) 0.016(5) 0.005(4)
O1 0.035(5) 0.018(3) 0.048(5) 0.009(3) 0.013(4) 0.001(3)
O1W 0.048(5) 0.023(4) 0.066(6) 0.008(4) 0.028(5) 0.006(4)
N1S1 0.041(6) 0.031(5) 0.042(7) 0.009(5) 0.013(5) 0.000(4)
C5 0.044(8) 0.022(5) 0.037(7) 0.006(5) 0.019(6) 0.004(5)
C2 0.036(7) 0.015(5) 0.048(8) 0.006(5) 0.014(6) -0.001(5)
C7 0.036(7) 0.012(4) 0.052(8) 0.013(5) 0.016(6) 0.007(4)
C6 0.028(7) 0.028(5) 0.046(8) 0.015(6) 0.020(6) 0.009(5)
C3 0.030(7) 0.021(5) 0.043(8) 0.004(5) 0.004(6) 0.008(5)
C4 0.031(7) 0.020(5) 0.045(8) -0.006(5) 0.003(6) -0.006(5)
C2S1 0.039(8) 0.042(7) 0.058(9) 0.009(7) 0.006(7) 0.005(6)
C1S1 0.056(9) 0.017(5) 0.058(9) 0.002(6) 0.028(8) 0.004(5)
C3S1 0.025(7) 0.057(8) 0.070(10) 0.003(7) 0.016(7) -0.009(6)
C1 0.021(6) 0.024(5) 0.048(7) 0.013(5) 0.009(5) 0.008(4)
C8 0.036(7) 0.012(4) 0.051(8) 0.003(5) 0.025(6) -0.003(4)
loop_
_atom_type_symbol
_atom_type_description
_atom_type_scat_dispersion_real
_atom_type_scat_dispersion_imag
_atom_type_scat_source
C C 0.0033 0.0016 'International Tables Vol C Tables 4.2.6.8 and 6.1.1.4'
H H 0.0000 0.0000 'International Tables Vol C Tables 4.2.6.8 and 6.1.1.4'
F F 0.0171 0.0103 'International Tables Vol C Tables 4.2.6.8 and 6.1.1.4'
N N 0.0061 0.0033 'International Tables Vol C Tables 4.2.6.8 and 6.1.1.4'
O O 0.0106 0.0060 'International Tables Vol C Tables 4.2.6.8 and 6.1.1.4'
Sr Sr -1.5307 3.2498 'International Tables Vol C Tables 4.2.6.8 and 6.1.1.4'
loop_
_geom_angle_atom_site_label_1
_geom_angle_atom_site_label_2
_geom_angle_atom_site_label_3
_geom_angle
_geom_angle_site_symmetry_1
_geom_angle_site_symmetry_3
Sr1 Sr1 H1WA 119.3 2_566 .
Sr1 Sr1 H1WB 96.0 2_566 .
O2 Sr1 Sr1 76.41(14) 2_566 2_566
O2 Sr1 Sr1 154.64(18) 1_545 2_566
O2 Sr1 O2 78.9(2) 1_545 2_566
O2 Sr1 O3 81.8(2) 1_545 1_445
O2 Sr1 O4 74.3(2) 1_545 2_666
O2 Sr1 O1S1 86.1(3) 1_545 .
O2 Sr1 O1 169.3(3) 1_545 .
O2 Sr1 O1 123.1(2) 1_545 2_566
O2 Sr1 O1W 93.2(2) 1_545 .
O2 Sr1 H1WA 78.5 1_545 .
O2 Sr1 H1WA 143.4 2_566 .
O2 Sr1 H1WB 128.3 2_566 .
O2 Sr1 H1WB 94.7 1_545 .
O3 Sr1 Sr1 95.66(16) 1_445 2_566
O3 Sr1 O2 71.3(2) 1_445 2_566
O3 Sr1 O4 137.0(2) 1_445 2_666
O3 Sr1 O1S1 71.9(2) 1_445 .
O3 Sr1 O1 95.1(2) 1_445 2_566
O3 Sr1 H1WA 132.5 1_445 .
O3 Sr1 H1WB 159.2 1_445 .
O4 Sr1 Sr1 91.48(17) 2_666 2_566
O4 Sr1 O2 69.4(2) 2_666 2_566
O4 Sr1 O1S1 139.2(3) 2_666 .
O4 Sr1 O1 70.3(2) 2_666 2_566
O4 Sr1 H1WA 76.9 2_666 .
O4 Sr1 H1WB 59.7 2_666 .
O1S1 Sr1 Sr1 117.26(18) . 2_566
O1S1 Sr1 O2 141.8(2) . 2_566
O1S1 Sr1 O1 146.8(3) . 2_566
O1S1 Sr1 H1WA 64.1 . .
O1S1 Sr1 H1WB 87.5 . .
O1 Sr1 Sr1 31.71(15) 2_566 2_566
O1 Sr1 Sr1 35.34(17) . 2_566
O1 Sr1 O2 47.49(19) 2_566 2_566
O1 Sr1 O2 109.4(2) . 2_566
O1 Sr1 O3 94.3(2) . 1_445
O1 Sr1 O4 114.5(2) . 2_666
O1 Sr1 O1S1 83.2(2) . .
O1 Sr1 O1 67.1(3) . 2_566
O1 Sr1 O1W 83.9(2) . .
O1 Sr1 H1WA 97.2 . .
O1 Sr1 H1WA 131.7 2_566 .
O1 Sr1 H1WB 103.8 2_566 .
O1 Sr1 H1WB 85.4 . .
O1W Sr1 Sr1 103.20(17) . 2_566
O1W Sr1 O2 143.8(3) . 2_566
O1W Sr1 O3 143.1(3) . 1_445
O1W Sr1 O4 74.4(3) . 2_666
O1W Sr1 O1S1 71.3(3) . .
O1W Sr1 O1 117.4(2) . 2_566
O1W Sr1 H1WA 16.2 . .
O1W Sr1 H1WB 16.2 . .
H1WA Sr1 H1WB 27.9 . .
Sr1 O2 Sr1 101.1(2) 1_565 2_566
C1 O2 Sr1 92.9(6) . 2_566
C1 O2 Sr1 150.1(7) . 1_565
C8 O3 Sr1 129.0(8) . 1_665
C8 O4 Sr1 141.2(7) . 2_666
C1S1 O1S1 Sr1 137.2(9) . .
Sr1 O1 Sr1 112.9(3) . 2_566
C1 O1 Sr1 94.6(6) . 2_566
C1 O1 Sr1 144.4(7) . .
Sr1 O1W H1WA 109.5 . .
Sr1 O1W H1WB 109.6 . .
H1WA O1W H1WB 109.2 . .
C2S1 N1S1 C3S1 117.2(11) . .
C1S1 N1S1 C2S1 121.6(10) . .
C1S1 N1S1 C3S1 121.1(11) . .
F3 C5 C6 121.8(10) . .
F3 C5 C4 118.8(11) . .
C6 C5 C4 119.4(10) . .
C7 C2 C1 122.4(10) . .
C3 C2 C7 118.1(11) . .
C3 C2 C1 119.5(10) . .
C2 C7 C8 119.8(10) . .
C6 C7 C2 118.9(11) . .
C6 C7 C8 121.2(10) . .
F4 C6 C5 116.4(10) . .
F4 C6 C7 121.1(11) . .
C7 C6 C5 122.5(10) . .
F1 C3 C2 120.5(10) . .
F1 C3 C4 117.0(10) . .
C4 C3 C2 122.3(10) . .
F2 C4 C5 119.8(11) . .
F2 C4 C3 121.5(10) . .
C3 C4 C5 118.7(11) . .
N1S1 C2S1 H2SA 109.5 . .
N1S1 C2S1 H2SB 109.5 . .
N1S1 C2S1 H2SC 109.5 . .
H2SA C2S1 H2SB 109.5 . .
H2SA C2S1 H2SC 109.5 . .
H2SB C2S1 H2SC 109.5 . .
O1S1 C1S1 N1S1 126.3(13) . .
O1S1 C1S1 H1SA 105.7 . .
O1S1 C1S1 H1SB 105.7 . .
N1S1 C1S1 H1SA 105.7 . .
N1S1 C1S1 H1SB 105.7 . .
H1SA C1S1 H1SB 106.2 . .
N1S1 C3S1 H3SA 109.5 . .
N1S1 C3S1 H3SB 109.5 . .
N1S1 C3S1 H3SC 109.5 . .
H3SA C3S1 H3SB 109.5 . .
H3SA C3S1 H3SC 109.5 . .
H3SB C3S1 H3SC 109.5 . .
O2 C1 Sr1 63.0(5) . 2_566
O2 C1 C2 115.9(9) . .
O1 C1 Sr1 61.8(6) . 2_566
O1 C1 O2 123.9(10) . .
O1 C1 C2 120.0(9) . .
C2 C1 Sr1 165.6(8) . 2_566
O3 C8 C7 115.9(10) . .
O4 C8 O3 127.4(11) . .
O4 C8 C7 116.6(8) . .
loop_
_geom_bond_atom_site_label_1
_geom_bond_atom_site_label_2
_geom_bond_distance
_geom_bond_site_symmetry_2
Sr1 Sr1 4.382(2) 2_566
Sr1 O2 2.480(7) 1_545
Sr1 O2 2.777(7) 2_566
Sr1 O3 2.605(7) 1_445
Sr1 O4 2.611(8) 2_666
Sr1 O1S1 2.637(9) .
Sr1 O1 2.752(8) 2_566
Sr1 O1 2.501(7) .
Sr1 O1W 2.550(8) .
Sr1 H1WA 2.9593 .
Sr1 H1WB 2.9606 .
F3 C5 1.353(13) .
F4 C6 1.344(12) .
F2 C4 1.358(13) .
F1 C3 1.357(12) .
O2 Sr1 2.480(7) 1_565
O2 Sr1 2.777(7) 2_566
O2 C1 1.274(12) .
O3 Sr1 2.605(7) 1_665
O3 C8 1.268(11) .
O4 Sr1 2.611(8) 2_666
O4 C8 1.245(13) .
O1S1 C1S1 1.270(14) .
O1 Sr1 2.752(8) 2_566
O1 C1 1.249(12) .
O1W H1WA 0.8748 .
O1W H1WB 0.8750 .
N1S1 C2S1 1.433(16) .
N1S1 C1S1 1.305(16) .
N1S1 C3S1 1.439(15) .
C5 C6 1.376(17) .
C5 C4 1.394(15) .
C2 C7 1.428(15) .
C2 C3 1.379(16) .
C2 C1 1.497(16) .
C7 C6 1.357(16) .
C7 C8 1.541(17) .
C3 C4 1.379(16) .
C2S1 H2SA 0.9800 .
C2S1 H2SB 0.9800 .
C2S1 H2SC 0.9800 .
C1S1 H1SA 0.9900 .
C1S1 H1SB 0.9900 .
C3S1 H3SA 0.9800 .
C3S1 H3SB 0.9800 .
C3S1 H3SC 0.9800 .
C1 Sr1 3.113(11) 2_566
loop_
_geom_hbond_atom_site_label_D
_geom_hbond_atom_site_label_H
_geom_hbond_atom_site_label_A
_geom_hbond_distance_DH
_geom_hbond_distance_HA
_geom_hbond_distance_DA
_geom_hbond_angle_DHA
_geom_hbond_site_symmetry_A
O1W H1WA O3 0.87 1.99 2.837(11) 163.9 1_545
loop_
_geom_torsion_atom_site_label_1
_geom_torsion_atom_site_label_2
_geom_torsion_atom_site_label_3
_geom_torsion_atom_site_label_4
_geom_torsion
_geom_torsion_site_symmetry_1
_geom_torsion_site_symmetry_2
_geom_torsion_site_symmetry_3
_geom_torsion_site_symmetry_4
Sr1 O2 C1 Sr1 -118.4(12) 1_565 . . 2_566
Sr1 O2 C1 O1 -129.2(12) 1_565 . . .
Sr1 O2 C1 O1 -10.8(11) 2_566 . . .
Sr1 O2 C1 C2 164.0(8) 2_566 . . .
Sr1 O2 C1 C2 45.6(17) 1_565 . . .
Sr1 O3 C8 O4 18.8(16) 1_665 . . .
Sr1 O3 C8 C7 -159.5(7) 1_665 . . .
Sr1 O4 C8 O3 5.7(19) 2_666 . . .
Sr1 O4 C8 C7 -176.1(7) 2_666 . . .
Sr1 O1S1 C1S1 N1S1 -176.9(8) . . . .
Sr1 O1 C1 Sr1 -141.7(12) . . . 2_566
Sr1 O1 C1 O2 -130.7(10) . . . .
Sr1 O1 C1 O2 10.9(11) 2_566 . . .
Sr1 O1 C1 C2 54.7(17) . . . .
Sr1 O1 C1 C2 -163.7(9) 2_566 . . .
F3 C5 C6 F4 -1.2(15) . . . .
F3 C5 C6 C7 -179.6(9) . . . .
F3 C5 C4 F2 -1.0(15) . . . .
F3 C5 C4 C3 177.6(9) . . . .
F1 C3 C4 F2 -1.0(15) . . . .
F1 C3 C4 C5 -179.6(9) . . . .
C2 C7 C6 F4 -178.6(8) . . . .
C2 C7 C6 C5 -0.3(15) . . . .
C2 C7 C8 O3 -125.2(10) . . . .
C2 C7 C8 O4 56.4(13) . . . .
C2 C3 C4 F2 -177.0(9) . . . .
C2 C3 C4 C5 4.4(16) . . . .
C7 C2 C3 F1 -179.4(8) . . . .
C7 C2 C3 C4 -3.5(15) . . . .
C7 C2 C1 Sr1 142(2) . . . 2_566
C7 C2 C1 O2 60.0(14) . . . .
C7 C2 C1 O1 -125.0(11) . . . .
C6 C5 C4 F2 178.3(9) . . . .
C6 C5 C4 C3 -3.1(16) . . . .
C6 C7 C8 O3 57.1(13) . . . .
C6 C7 C8 O4 -121.3(11) . . . .
C3 C2 C7 C6 1.4(14) . . . .
C3 C2 C7 C8 -176.4(9) . . . .
C3 C2 C1 Sr1 -36(3) . . . 2_566
C3 C2 C1 O2 -117.4(11) . . . .
C3 C2 C1 O1 57.6(14) . . . .
C4 C5 C6 F4 179.6(9) . . . .
C4 C5 C6 C7 1.1(16) . . . .
C2S1 N1S1 C1S1 O1S1 -1.0(18) . . . .
C3S1 N1S1 C1S1 O1S1 -178.7(11) . . . .
C1 C2 C7 C6 -176.1(9) . . . .
C1 C2 C7 C8 6.2(14) . . . .
C1 C2 C3 F1 -1.9(14) . . . .
C1 C2 C3 C4 174.0(10) . . . .
C8 C7 C6 F4 -0.9(15) . . . .
C8 C7 C6 C5 177.4(9) . . . .
